MODEL 1
REMARK minimizedAffinity -7.69186974
REMARK CNNscore 0.734624863
REMARK CNNaffinity 6.21115255
REMARK  10 active torsions:
REMARK  status: ('A' for Active; 'I' for Inactive)
REMARK    1  A    between atoms: N1_6  and  O1_8 
REMARK    2  A    between atoms: O1_8  and  C6_9 
REMARK    3  A    between atoms: C6_9  and  C7_10 
REMARK       I    between atoms: C7_10  and  N2_12 
REMARK    4  A    between atoms: N2_12  and  C8_13 
REMARK    5  A    between atoms: C8_13  and  C9_14 
REMARK    6  A    between atoms: C20_27  and  O3_28 
REMARK    7  A    between atoms: C27_35  and  O4_36 
REMARK    8  A    between atoms: C27_35  and  C28_37 
REMARK    9  A    between atoms: C28_37  and  C29_39 
REMARK   10  A    between atoms: C29_39  and  O6_40 
ROOT
HETATM    1  C1  UNL     1       5.045  52.308  -9.080  1.00  0.00     0.020 C 
HETATM    2  C2  UNL     1       4.355  53.691  -8.976  1.00  0.00    -0.014 C 
HETATM    3  C3  UNL     1       5.141  54.721  -9.822  1.00  0.00     0.020 C 
HETATM    4  C4  UNL     1       6.577  54.953  -9.340  1.00  0.00     0.060 C 
HETATM    5  C5  UNL     1       6.708  55.123  -7.840  1.00  0.00     0.032 C 
HETATM    6  N1  UNL     1       7.845  55.566  -7.393  1.00  0.00    -0.271 N 
ATOM      7  H1  UNL     1       8.633  55.824  -7.987  1.00  0.00     0.194 HD
HETATM    8  C14 UNL     1       5.526  54.790  -7.003  1.00  0.00     0.030 C 
HETATM    9  C15 UNL     1       4.448  54.171  -7.521  1.00  0.00    -0.069 C 
HETATM   10  C16 UNL     1       3.184  54.114  -6.709  1.00  0.00     0.035 C 
HETATM   11  C17 UNL     1       2.188  55.034  -7.407  1.00  0.00     0.010 C 
HETATM   12  C18 UNL     1       1.865  54.575  -8.850  1.00  0.00    -0.002 C 
HETATM   13  C19 UNL     1       2.834  53.490  -9.381  1.00  0.00     0.031 C 
HETATM   14  C20 UNL     1       2.505  53.167 -10.867  1.00  0.00     0.124 C 
HETATM   15  C21 UNL     1       1.027  53.385 -11.241  1.00  0.00     0.045 C 
HETATM   16  C22 UNL     1       0.015  53.151 -10.096  1.00  0.00     0.001 C 
HETATM   17  C23 UNL     1       0.036  51.650  -9.733  1.00  0.00     0.019 C 
HETATM   18  C24 UNL     1       0.389  54.072  -8.898  1.00  0.00     0.002 C 
HETATM   19  C25 UNL     1      -0.579  55.277  -8.948  1.00  0.00     0.009 C 
HETATM   20  C26 UNL     1      -1.428  55.109 -10.198  1.00  0.00     0.047 C 
HETATM   21  C27 UNL     1      -1.426  53.615 -10.490  1.00  0.00     0.128 C 
ENDROOT
BRANCH   6  22
HETATM   22  O1  UNL     1       7.852  55.642  -5.992  1.00  0.00    -0.271 OA
BRANCH  22  23
HETATM   23  C6  UNL     1       8.775  56.637  -5.583  1.00  0.00     0.303 C 
BRANCH  23  24
HETATM   24  C7  UNL     1       9.899  56.019  -4.753  1.00  0.00     0.244 C 
HETATM   25  O2  UNL     1       9.752  55.575  -3.617  1.00  0.00    -0.271 OA
HETATM   26  N2  UNL     1      11.120  56.011  -5.406  1.00  0.00    -0.355 N 
HETATM   27  H10 UNL     1      11.210  56.503  -6.286  1.00  0.00     0.162 HD
BRANCH  26  28
HETATM   28  C8  UNL     1      12.332  55.594  -4.743  1.00  0.00     0.161 C 
BRANCH  28  29
HETATM   29  C9  UNL     1      12.811  54.282  -5.303  1.00  0.00    -0.038 A 
HETATM   30  C10 UNL     1      12.225  53.079  -4.895  1.00  0.00     0.025 A 
HETATM   31  C11 UNL     1      12.723  51.891  -5.401  1.00  0.00     0.088 A 
HETATM   32  N3  UNL     1      13.750  51.821  -6.274  1.00  0.00    -0.375 N 
HETATM   33  C12 UNL     1      14.303  52.992  -6.656  1.00  0.00     0.088 A 
ATOM     34  H3  UNL     1      14.092  50.928  -6.628  1.00  0.00     0.164 HD
HETATM   35  C13 UNL     1      13.877  54.231  -6.205  1.00  0.00     0.025 A 
ENDBRANCH  28  29
ENDBRANCH  26  28
ENDBRANCH  23  24
ENDBRANCH  22  23
ENDBRANCH   6  22
BRANCH  14  36
HETATM   36  O3  UNL     1       3.261  53.958 -11.773  1.00  0.00    -0.395 OA
HETATM   37  H25 UNL     1       2.973  53.741 -12.676  1.00  0.00     0.210 HD
ENDBRANCH  14  36
BRANCH  21  38
HETATM   38  O4  UNL     1      -1.629  53.448 -11.905  1.00  0.00    -0.381 OA
HETATM   39  H36 UNL     1      -1.963  52.536 -12.028  1.00  0.00     0.211 HD
ENDBRANCH  21  38
BRANCH  21  40
HETATM   40  C28 UNL     1      -2.603  52.838  -9.842  1.00  0.00     0.184 C 
HETATM   41  O5  UNL     1      -2.656  52.740  -8.606  1.00  0.00    -0.292 OA
BRANCH  40  42
HETATM   42  C29 UNL     1      -3.707  52.234 -10.699  1.00  0.00     0.245 C 
BRANCH  42  43
HETATM   43  O6  UNL     1      -4.477  53.195 -11.384  1.00  0.00    -0.393 OA
HETATM   44  H39 UNL     1      -5.097  53.577 -10.735  1.00  0.00     0.209 HD
ENDBRANCH  42  43
ENDBRANCH  40  42
ENDBRANCH  21  40
TORSDOF 10
ENDMDL
MODEL 2
REMARK minimizedAffinity -9.16195679
REMARK CNNscore 0.729022026
REMARK CNNaffinity 7.48261023
REMARK  10 active torsions:
REMARK  status: ('A' for Active; 'I' for Inactive)
REMARK    1  A    between atoms: N1_6  and  O1_8 
REMARK    2  A    between atoms: O1_8  and  C6_9 
REMARK    3  A    between atoms: C6_9  and  C7_10 
REMARK       I    between atoms: C7_10  and  N2_12 
REMARK    4  A    between atoms: N2_12  and  C8_13 
REMARK    5  A    between atoms: C8_13  and  C9_14 
REMARK    6  A    between atoms: C20_27  and  O3_28 
REMARK    7  A    between atoms: C27_35  and  O4_36 
REMARK    8  A    between atoms: C27_35  and  C28_37 
REMARK    9  A    between atoms: C28_37  and  C29_39 
REMARK   10  A    between atoms: C29_39  and  O6_40 
ROOT
HETATM    1  C1  UNL     1      -2.421  48.638 -19.642  1.00  0.00     0.020 C 
HETATM    2  C2  UNL     1      -2.153  50.099 -19.203  1.00  0.00    -0.014 C 
HETATM    3  C3  UNL     1      -3.498  50.857 -19.098  1.00  0.00     0.020 C 
HETATM    4  C4  UNL     1      -4.252  50.970 -20.427  1.00  0.00     0.060 C 
HETATM    5  C5  UNL     1      -3.381  51.370 -21.601  1.00  0.00     0.032 C 
HETATM    6  N1  UNL     1      -3.989  51.723 -22.693  1.00  0.00    -0.271 N 
ATOM      7  H1  UNL     1      -5.003  51.770 -22.796  1.00  0.00     0.194 HD
HETATM    8  C14 UNL     1      -1.908  51.344 -21.407  1.00  0.00     0.030 C 
HETATM    9  C15 UNL     1      -1.352  50.798 -20.309  1.00  0.00    -0.069 C 
HETATM   10  C16 UNL     1       0.105  51.049 -20.031  1.00  0.00     0.035 C 
HETATM   11  C17 UNL     1       0.154  51.965 -18.814  1.00  0.00     0.010 C 
HETATM   12  C18 UNL     1      -0.479  51.319 -17.558  1.00  0.00    -0.002 C 
HETATM   13  C19 UNL     1      -1.294  50.040 -17.870  1.00  0.00     0.031 C 
HETATM   14  C20 UNL     1      -1.981  49.520 -16.574  1.00  0.00     0.124 C 
HETATM   15  C21 UNL     1      -1.221  49.870 -15.281  1.00  0.00     0.045 C 
HETATM   16  C22 UNL     1       0.314  49.970 -15.424  1.00  0.00     0.001 C 
HETATM   17  C23 UNL     1       0.862  48.562 -15.746  1.00  0.00     0.019 C 
HETATM   18  C24 UNL     1       0.650  51.020 -16.523  1.00  0.00     0.002 C 
HETATM   19  C25 UNL     1       1.052  52.318 -15.787  1.00  0.00     0.009 C 
HETATM   20  C26 UNL     1       0.860  52.060 -14.301  1.00  0.00     0.047 C 
HETATM   21  C27 UNL     1       0.983  50.551 -14.135  1.00  0.00     0.128 C 
ENDROOT
BRANCH   6  22
HETATM   22  O1  UNL     1      -3.076  52.032 -23.714  1.00  0.00    -0.271 OA
BRANCH  22  23
HETATM   23  C6  UNL     1      -3.780  52.218 -24.930  1.00  0.00     0.303 C 
BRANCH  23  24
HETATM   24  C7  UNL     1      -3.185  51.345 -26.034  1.00  0.00     0.244 C 
HETATM   25  O2  UNL     1      -3.641  50.255 -26.371  1.00  0.00    -0.271 OA
HETATM   26  N2  UNL     1      -2.064  51.901 -26.625  1.00  0.00    -0.355 N 
HETATM   27  H10 UNL     1      -1.660  52.738 -26.224  1.00  0.00     0.162 HD
BRANCH  26  28
HETATM   28  C8  UNL     1      -1.279  51.175 -27.595  1.00  0.00     0.161 C 
BRANCH  28  29
HETATM   29  C9  UNL     1       0.188  51.425 -27.375  1.00  0.00    -0.038 A 
HETATM   30  C10 UNL     1       1.010  51.810 -28.441  1.00  0.00     0.025 A 
HETATM   31  C11 UNL     1       2.361  51.990 -28.207  1.00  0.00     0.088 A 
HETATM   32  N3  UNL     1       2.943  51.813 -27.001  1.00  0.00    -0.375 N 
HETATM   33  C12 UNL     1       2.135  51.441 -25.986  1.00  0.00     0.088 A 
ATOM     34  H3  UNL     1       3.944  51.955 -26.864  1.00  0.00     0.164 HD
HETATM   35  C13 UNL     1       0.771  51.236 -26.120  1.00  0.00     0.025 A 
ENDBRANCH  28  29
ENDBRANCH  26  28
ENDBRANCH  23  24
ENDBRANCH  22  23
ENDBRANCH   6  22
BRANCH  14  36
HETATM   36  O3  UNL     1      -3.294  50.039 -16.412  1.00  0.00    -0.395 OA
HETATM   37  H25 UNL     1      -3.644  49.715 -15.564  1.00  0.00     0.210 HD
ENDBRANCH  14  36
BRANCH  21  38
HETATM   38  O4  UNL     1       0.219  50.179 -12.973  1.00  0.00    -0.381 OA
HETATM   39  H36 UNL     1       0.570  49.313 -12.680  1.00  0.00     0.211 HD
ENDBRANCH  21  38
BRANCH  21  40
HETATM   40  C28 UNL     1       2.421  50.060 -13.820  1.00  0.00     0.184 C 
HETATM   41  O5  UNL     1       3.385  50.619 -14.366  1.00  0.00    -0.292 OA
BRANCH  40  42
HETATM   42  C29 UNL     1       2.662  48.934 -12.824  1.00  0.00     0.245 C 
BRANCH  42  43
HETATM   43  O6  UNL     1       3.998  48.849 -12.383  1.00  0.00    -0.393 OA
HETATM   44  H39 UNL     1       4.504  48.416 -13.097  1.00  0.00     0.209 HD
ENDBRANCH  42  43
ENDBRANCH  40  42
ENDBRANCH  21  40
TORSDOF 10
ENDMDL
MODEL 3
REMARK minimizedAffinity -8.1273613
REMARK CNNscore 0.615756273
REMARK CNNaffinity 7.01851463
REMARK  10 active torsions:
REMARK  status: ('A' for Active; 'I' for Inactive)
REMARK    1  A    between atoms: N1_6  and  O1_8 
REMARK    2  A    between atoms: O1_8  and  C6_9 
REMARK    3  A    between atoms: C6_9  and  C7_10 
REMARK       I    between atoms: C7_10  and  N2_12 
REMARK    4  A    between atoms: N2_12  and  C8_13 
REMARK    5  A    between atoms: C8_13  and  C9_14 
REMARK    6  A    between atoms: C20_27  and  O3_28 
REMARK    7  A    between atoms: C27_35  and  O4_36 
REMARK    8  A    between atoms: C27_35  and  C28_37 
REMARK    9  A    between atoms: C28_37  and  C29_39 
REMARK   10  A    between atoms: C29_39  and  O6_40 
ROOT
HETATM    1  C1  UNL     1      -3.510  48.685 -24.817  1.00  0.00     0.020 C 
HETATM    2  C2  UNL     1      -4.047  49.454 -23.585  1.00  0.00    -0.014 C 
HETATM    3  C3  UNL     1      -4.360  50.915 -23.988  1.00  0.00     0.020 C 
HETATM    4  C4  UNL     1      -3.133  51.707 -24.450  1.00  0.00     0.060 C 
HETATM    5  C5  UNL     1      -1.915  51.534 -23.566  1.00  0.00     0.032 C 
HETATM    6  N1  UNL     1      -0.928  52.359 -23.752  1.00  0.00    -0.271 N 
ATOM      7  H1  UNL     1      -0.937  53.119 -24.432  1.00  0.00     0.194 HD
HETATM    8  C14 UNL     1      -1.950  50.451 -22.548  1.00  0.00     0.030 C 
HETATM    9  C15 UNL     1      -2.930  49.529 -22.535  1.00  0.00    -0.069 C 
HETATM   10  C16 UNL     1      -3.074  48.639 -21.331  1.00  0.00     0.035 C 
HETATM   11  C17 UNL     1      -4.357  49.075 -20.632  1.00  0.00     0.010 C 
HETATM   12  C18 UNL     1      -5.610  48.898 -21.524  1.00  0.00    -0.002 C 
HETATM   13  C19 UNL     1      -5.272  48.625 -23.010  1.00  0.00     0.031 C 
HETATM   14  C20 UNL     1      -6.581  48.569 -23.849  1.00  0.00     0.124 C 
HETATM   15  C21 UNL     1      -7.814  48.099 -23.053  1.00  0.00     0.045 C 
HETATM   16  C22 UNL     1      -7.520  47.107 -21.906  1.00  0.00     0.001 C 
HETATM   17  C23 UNL     1      -7.017  45.785 -22.527  1.00  0.00     0.019 C 
HETATM   18  C24 UNL     1      -6.489  47.752 -20.934  1.00  0.00     0.002 C 
HETATM   19  C25 UNL     1      -7.292  48.272 -19.720  1.00  0.00     0.009 C 
HETATM   20  C26 UNL     1      -8.761  48.023 -20.023  1.00  0.00     0.047 C 
HETATM   21  C27 UNL     1      -8.778  46.863 -21.010  1.00  0.00     0.128 C 
ENDROOT
BRANCH   6  22
HETATM   22  O1  UNL     1       0.151  52.071 -22.902  1.00  0.00    -0.271 OA
BRANCH  22  23
HETATM   23  C6  UNL     1       0.923  53.244 -22.714  1.00  0.00     0.303 C 
BRANCH  23  24
HETATM   24  C7  UNL     1       1.041  53.577 -21.227  1.00  0.00     0.244 C 
HETATM   25  O2  UNL     1       1.755  54.469 -20.776  1.00  0.00    -0.271 OA
HETATM   26  N2  UNL     1       0.263  52.764 -20.421  1.00  0.00    -0.355 N 
HETATM   27  H10 UNL     1      -0.206  51.966 -20.834  1.00  0.00     0.162 HD
BRANCH  26  28
HETATM   28  C8  UNL     1       0.336  52.829 -18.982  1.00  0.00     0.161 C 
BRANCH  28  29
HETATM   29  C9  UNL     1       0.039  51.483 -18.380  1.00  0.00    -0.038 A 
HETATM   30  C10 UNL     1       0.513  51.155 -17.104  1.00  0.00     0.025 A 
HETATM   31  C11 UNL     1       0.255  49.891 -16.604  1.00  0.00     0.088 A 
HETATM   32  N3  UNL     1      -0.432  48.944 -17.277  1.00  0.00    -0.375 N 
HETATM   33  C12 UNL     1      -0.879  49.278 -18.506  1.00  0.00     0.088 A 
ATOM     34  H3  UNL     1      -0.604  48.022 -16.878  1.00  0.00     0.164 HD
HETATM   35  C13 UNL     1      -0.672  50.516 -19.094  1.00  0.00     0.025 A 
ENDBRANCH  28  29
ENDBRANCH  26  28
ENDBRANCH  23  24
ENDBRANCH  22  23
ENDBRANCH   6  22
BRANCH  14  36
HETATM   36  O3  UNL     1      -6.926  49.832 -24.400  1.00  0.00    -0.395 OA
HETATM   37  H25 UNL     1      -7.773  49.736 -24.868  1.00  0.00     0.210 HD
ENDBRANCH  14  36
BRANCH  21  38
HETATM   38  O4  UNL     1      -9.976  46.982 -21.799  1.00  0.00    -0.381 OA
HETATM   39  H36 UNL     1     -10.151  46.092 -22.167  1.00  0.00     0.211 HD
ENDBRANCH  21  38
BRANCH  21  40
HETATM   40  C28 UNL     1      -8.895  45.465 -20.347  1.00  0.00     0.184 C 
HETATM   41  O5  UNL     1      -8.107  45.158 -19.439  1.00  0.00    -0.292 OA
BRANCH  40  42
HETATM   42  C29 UNL     1      -9.985  44.489 -20.768  1.00  0.00     0.245 C 
BRANCH  42  43
HETATM   43  O6  UNL     1     -11.251  44.793 -20.229  1.00  0.00    -0.393 OA
HETATM   44  H39 UNL     1     -11.245  44.490 -19.302  1.00  0.00     0.209 HD
ENDBRANCH  42  43
ENDBRANCH  40  42
ENDBRANCH  21  40
TORSDOF 10
ENDMDL
MODEL 4
REMARK minimizedAffinity -8.4866972
REMARK CNNscore 0.604383051
REMARK CNNaffinity 7.24145365
REMARK  10 active torsions:
REMARK  status: ('A' for Active; 'I' for Inactive)
REMARK    1  A    between atoms: N1_6  and  O1_8 
REMARK    2  A    between atoms: O1_8  and  C6_9 
REMARK    3  A    between atoms: C6_9  and  C7_10 
REMARK       I    between atoms: C7_10  and  N2_12 
REMARK    4  A    between atoms: N2_12  and  C8_13 
REMARK    5  A    between atoms: C8_13  and  C9_14 
REMARK    6  A    between atoms: C20_27  and  O3_28 
REMARK    7  A    between atoms: C27_35  and  O4_36 
REMARK    8  A    between atoms: C27_35  and  C28_37 
REMARK    9  A    between atoms: C28_37  and  C29_39 
REMARK   10  A    between atoms: C29_39  and  O6_40 
ROOT
HETATM    1  C1  UNL     1       0.433  50.607 -21.330  1.00  0.00     0.020 C 
HETATM    2  C2  UNL     1      -0.833  51.100 -20.586  1.00  0.00    -0.014 C 
HETATM    3  C3  UNL     1      -0.750  52.633 -20.395  1.00  0.00     0.020 C 
HETATM    4  C4  UNL     1       0.429  53.087 -19.527  1.00  0.00     0.060 C 
HETATM    5  C5  UNL     1       0.616  52.274 -18.262  1.00  0.00     0.032 C 
HETATM    6  N1  UNL     1       1.429  52.752 -17.368  1.00  0.00    -0.271 N 
ATOM      7  H1  UNL     1       1.920  53.641 -17.456  1.00  0.00     0.194 HD
HETATM    8  C14 UNL     1      -0.153  51.008 -18.137  1.00  0.00     0.030 C 
HETATM    9  C15 UNL     1      -0.834  50.492 -19.177  1.00  0.00    -0.069 C 
HETATM   10  C16 UNL     1      -1.814  49.379 -18.923  1.00  0.00     0.035 C 
HETATM   11  C17 UNL     1      -3.200  49.975 -19.141  1.00  0.00     0.010 C 
HETATM   12  C18 UNL     1      -3.406  50.488 -20.587  1.00  0.00    -0.002 C 
HETATM   13  C19 UNL     1      -2.092  50.579 -21.400  1.00  0.00     0.031 C 
HETATM   14  C20 UNL     1      -2.374  51.203 -22.796  1.00  0.00     0.124 C 
HETATM   15  C21 UNL     1      -3.799  50.940 -23.321  1.00  0.00     0.045 C 
HETATM   16  C22 UNL     1      -4.437  49.610 -22.861  1.00  0.00     0.001 C 
HETATM   17  C23 UNL     1      -3.643  48.448 -23.496  1.00  0.00     0.019 C 
HETATM   18  C24 UNL     1      -4.440  49.566 -21.304  1.00  0.00     0.002 C 
HETATM   19  C25 UNL     1      -5.874  49.928 -20.855  1.00  0.00     0.009 C 
HETATM   20  C26 UNL     1      -6.658  50.270 -22.112  1.00  0.00     0.047 C 
HETATM   21  C27 UNL     1      -5.952  49.529 -23.241  1.00  0.00     0.128 C 
ENDROOT
BRANCH   6  22
HETATM   22  O1  UNL     1       1.546  51.890 -16.266  1.00  0.00    -0.271 OA
BRANCH  22  23
HETATM   23  C6  UNL     1       2.827  52.048 -15.683  1.00  0.00     0.303 C 
BRANCH  23  24
HETATM   24  C7  UNL     1       2.799  51.656 -14.206  1.00  0.00     0.244 C 
HETATM   25  O2  UNL     1       3.431  50.716 -13.732  1.00  0.00    -0.271 OA
HETATM   26  N2  UNL     1       1.976  52.465 -13.442  1.00  0.00    -0.355 N 
HETATM   27  H10 UNL     1       1.383  53.142 -13.906  1.00  0.00     0.162 HD
BRANCH  26  28
HETATM   28  C8  UNL     1       1.709  52.178 -12.053  1.00  0.00     0.161 C 
BRANCH  28  29
HETATM   29  C9  UNL     1       0.490  52.927 -11.588  1.00  0.00    -0.038 A 
HETATM   30  C10 UNL     1      -0.791  52.423 -11.837  1.00  0.00     0.025 A 
HETATM   31  C11 UNL     1      -1.887  53.164 -11.431  1.00  0.00     0.088 A 
HETATM   32  N3  UNL     1      -1.796  54.356 -10.803  1.00  0.00    -0.375 N 
HETATM   33  C12 UNL     1      -0.552  54.826 -10.572  1.00  0.00     0.088 A 
ATOM     34  H3  UNL     1      -2.625  54.875 -10.516  1.00  0.00     0.164 HD
HETATM   35  C13 UNL     1       0.607  54.160 -10.941  1.00  0.00     0.025 A 
ENDBRANCH  28  29
ENDBRANCH  26  28
ENDBRANCH  23  24
ENDBRANCH  22  23
ENDBRANCH   6  22
BRANCH  14  36
HETATM   36  O3  UNL     1      -2.206  52.613 -22.804  1.00  0.00    -0.395 OA
HETATM   37  H25 UNL     1      -2.443  52.941 -23.688  1.00  0.00     0.210 HD
ENDBRANCH  14  36
BRANCH  21  38
HETATM   38  O4  UNL     1      -6.195  50.259 -24.457  1.00  0.00    -0.381 OA
HETATM   39  H36 UNL     1      -6.048  49.627 -25.190  1.00  0.00     0.211 HD
ENDBRANCH  21  38
BRANCH  21  40
HETATM   40  C28 UNL     1      -6.519  48.113 -23.526  1.00  0.00     0.184 C 
HETATM   41  O5  UNL     1      -6.779  47.362 -22.572  1.00  0.00    -0.292 OA
BRANCH  40  42
HETATM   42  C29 UNL     1      -6.795  47.654 -24.951  1.00  0.00     0.245 C 
BRANCH  42  43
HETATM   43  O6  UNL     1      -7.874  48.326 -25.559  1.00  0.00    -0.393 OA
HETATM   44  H39 UNL     1      -8.692  47.930 -25.202  1.00  0.00     0.209 HD
ENDBRANCH  42  43
ENDBRANCH  40  42
ENDBRANCH  21  40
TORSDOF 10
ENDMDL
MODEL 5
REMARK minimizedAffinity -7.73647451
REMARK CNNscore 0.523267627
REMARK CNNaffinity 6.63395357
REMARK  10 active torsions:
REMARK  status: ('A' for Active; 'I' for Inactive)
REMARK    1  A    between atoms: N1_6  and  O1_8 
REMARK    2  A    between atoms: O1_8  and  C6_9 
REMARK    3  A    between atoms: C6_9  and  C7_10 
REMARK       I    between atoms: C7_10  and  N2_12 
REMARK    4  A    between atoms: N2_12  and  C8_13 
REMARK    5  A    between atoms: C8_13  and  C9_14 
REMARK    6  A    between atoms: C20_27  and  O3_28 
REMARK    7  A    between atoms: C27_35  and  O4_36 
REMARK    8  A    between atoms: C27_35  and  C28_37 
REMARK    9  A    between atoms: C28_37  and  C29_39 
REMARK   10  A    between atoms: C29_39  and  O6_40 
ROOT
HETATM    1  C1  UNL     1      -1.483  53.178  -8.238  1.00  0.00     0.020 C 
HETATM    2  C2  UNL     1      -0.752  54.053  -9.286  1.00  0.00    -0.014 C 
HETATM    3  C3  UNL     1      -1.777  54.972  -9.992  1.00  0.00     0.020 C 
HETATM    4  C4  UNL     1      -2.849  54.213 -10.782  1.00  0.00     0.060 C 
HETATM    5  C5  UNL     1      -2.307  53.085 -11.635  1.00  0.00     0.032 C 
HETATM    6  N1  UNL     1      -3.116  52.567 -12.511  1.00  0.00    -0.271 N 
ATOM      7  H1  UNL     1      -4.070  52.889 -12.671  1.00  0.00     0.194 HD
HETATM    8  C14 UNL     1      -0.896  52.671 -11.416  1.00  0.00     0.030 C 
HETATM    9  C15 UNL     1      -0.181  53.132 -10.373  1.00  0.00    -0.069 C 
HETATM   10  C16 UNL     1       1.306  52.911 -10.358  1.00  0.00     0.035 C 
HETATM   11  C17 UNL     1       1.942  54.280 -10.571  1.00  0.00     0.010 C 
HETATM   12  C18 UNL     1       1.585  55.282  -9.446  1.00  0.00    -0.002 C 
HETATM   13  C19 UNL     1       0.432  54.797  -8.534  1.00  0.00     0.031 C 
HETATM   14  C20 UNL     1       0.067  55.905  -7.506  1.00  0.00     0.124 C 
HETATM   15  C21 UNL     1       1.246  56.827  -7.137  1.00  0.00     0.045 C 
HETATM   16  C22 UNL     1       2.641  56.166  -7.187  1.00  0.00     0.001 C 
HETATM   17  C23 UNL     1       2.710  55.098  -6.073  1.00  0.00     0.019 C 
HETATM   18  C24 UNL     1       2.869  55.576  -8.609  1.00  0.00     0.002 C 
HETATM   19  C25 UNL     1       3.775  56.576  -9.363  1.00  0.00     0.009 C 
HETATM   20  C26 UNL     1       3.988  57.763  -8.437  1.00  0.00     0.047 C 
HETATM   21  C27 UNL     1       3.789  57.217  -7.029  1.00  0.00     0.128 C 
ENDROOT
BRANCH   6  22
HETATM   22  O1  UNL     1      -2.510  51.509 -13.207  1.00  0.00    -0.271 OA
BRANCH  22  23
HETATM   23  C6  UNL     1      -3.116  51.382 -14.482  1.00  0.00     0.303 C 
BRANCH  23  24
HETATM   24  C7  UNL     1      -2.376  50.347 -15.328  1.00  0.00     0.244 C 
HETATM   25  O2  UNL     1      -2.561  49.135 -15.250  1.00  0.00    -0.271 OA
HETATM   26  N2  UNL     1      -1.459  50.907 -16.200  1.00  0.00    -0.355 N 
HETATM   27  H10 UNL     1      -1.257  51.898 -16.132  1.00  0.00     0.162 HD
BRANCH  26  28
HETATM   28  C8  UNL     1      -0.565  50.092 -16.987  1.00  0.00     0.161 C 
BRANCH  28  29
HETATM   29  C9  UNL     1      -0.223  50.786 -18.278  1.00  0.00    -0.038 A 
HETATM   30  C10 UNL     1       0.297  52.085 -18.269  1.00  0.00     0.025 A 
HETATM   31  C11 UNL     1       0.559  52.705 -19.478  1.00  0.00     0.088 A 
HETATM   32  N3  UNL     1       0.340  52.128 -20.679  1.00  0.00    -0.375 N 
HETATM   33  C12 UNL     1      -0.164  50.875 -20.668  1.00  0.00     0.088 A 
ATOM     34  H3  UNL     1       0.545  52.613 -21.552  1.00  0.00     0.164 HD
HETATM   35  C13 UNL     1      -0.459  50.172 -19.510  1.00  0.00     0.025 A 
ENDBRANCH  28  29
ENDBRANCH  26  28
ENDBRANCH  23  24
ENDBRANCH  22  23
ENDBRANCH   6  22
BRANCH  14  36
HETATM   36  O3  UNL     1      -0.969  56.758  -7.972  1.00  0.00    -0.395 OA
HETATM   37  H25 UNL     1      -1.112  57.452  -7.306  1.00  0.00     0.210 HD
ENDBRANCH  14  36
BRANCH  21  38
HETATM   38  O4  UNL     1       3.349  58.307  -6.198  1.00  0.00    -0.381 OA
HETATM   39  H36 UNL     1       3.553  58.048  -5.276  1.00  0.00     0.211 HD
ENDBRANCH  21  38
BRANCH  21  40
HETATM   40  C28 UNL     1       5.093  56.720  -6.348  1.00  0.00     0.184 C 
HETATM   41  O5  UNL     1       5.231  56.870  -5.124  1.00  0.00    -0.292 OA
BRANCH  40  42
HETATM   42  C29 UNL     1       6.178  56.020  -7.154  1.00  0.00     0.245 C 
BRANCH  42  43
HETATM   43  O6  UNL     1       6.084  54.615  -7.123  1.00  0.00    -0.393 OA
HETATM   44  H39 UNL     1       6.443  54.326  -6.263  1.00  0.00     0.209 HD
ENDBRANCH  42  43
ENDBRANCH  40  42
ENDBRANCH  21  40
TORSDOF 10
ENDMDL
MODEL 6
REMARK minimizedAffinity -7.95232487
REMARK CNNscore 0.468314797
REMARK CNNaffinity 6.22107935
REMARK  10 active torsions:
REMARK  status: ('A' for Active; 'I' for Inactive)
REMARK    1  A    between atoms: N1_6  and  O1_8 
REMARK    2  A    between atoms: O1_8  and  C6_9 
REMARK    3  A    between atoms: C6_9  and  C7_10 
REMARK       I    between atoms: C7_10  and  N2_12 
REMARK    4  A    between atoms: N2_12  and  C8_13 
REMARK    5  A    between atoms: C8_13  and  C9_14 
REMARK    6  A    between atoms: C20_27  and  O3_28 
REMARK    7  A    between atoms: C27_35  and  O4_36 
REMARK    8  A    between atoms: C27_35  and  C28_37 
REMARK    9  A    between atoms: C28_37  and  C29_39 
REMARK   10  A    between atoms: C29_39  and  O6_40 
ROOT
HETATM    1  C1  UNL     1     -10.929  46.333 -32.719  1.00  0.00     0.020 C 
HETATM    2  C2  UNL     1      -9.939  45.899 -33.827  1.00  0.00    -0.014 C 
HETATM    3  C3  UNL     1      -9.535  44.422 -33.603  1.00  0.00     0.020 C 
HETATM    4  C4  UNL     1      -8.794  44.174 -32.285  1.00  0.00     0.060 C 
HETATM    5  C5  UNL     1      -7.708  45.188 -31.985  1.00  0.00     0.032 C 
HETATM    6  N1  UNL     1      -6.884  44.901 -31.022  1.00  0.00    -0.271 N 
ATOM      7  H1  UNL     1      -6.910  44.036 -30.482  1.00  0.00     0.194 HD
HETATM    8  C14 UNL     1      -7.660  46.415 -32.822  1.00  0.00     0.030 C 
HETATM    9  C15 UNL     1      -8.652  46.722 -33.678  1.00  0.00    -0.069 C 
HETATM   10  C16 UNL     1      -8.425  47.808 -34.694  1.00  0.00     0.035 C 
HETATM   11  C17 UNL     1      -8.342  47.113 -36.048  1.00  0.00     0.010 C 
HETATM   12  C18 UNL     1      -9.647  46.367 -36.415  1.00  0.00    -0.002 C 
HETATM   13  C19 UNL     1     -10.624  46.217 -35.223  1.00  0.00     0.031 C 
HETATM   14  C20 UNL     1     -11.854  45.365 -35.649  1.00  0.00     0.124 C 
HETATM   15  C21 UNL     1     -12.193  45.465 -37.149  1.00  0.00     0.045 C 
HETATM   16  C22 UNL     1     -11.847  46.816 -37.815  1.00  0.00     0.001 C 
HETATM   17  C23 UNL     1     -12.761  47.903 -37.206  1.00  0.00     0.019 C 
HETATM   18  C24 UNL     1     -10.332  47.107 -37.605  1.00  0.00     0.002 C 
HETATM   19  C25 UNL     1      -9.625  46.746 -38.931  1.00  0.00     0.009 C 
HETATM   20  C26 UNL     1     -10.686  46.168 -39.854  1.00  0.00     0.047 C 
HETATM   21  C27 UNL     1     -12.005  46.756 -39.370  1.00  0.00     0.128 C 
ENDROOT
BRANCH   6  22
HETATM   22  O1  UNL     1      -5.953  45.932 -30.818  1.00  0.00    -0.271 OA
BRANCH  22  23
HETATM   23  C6  UNL     1      -6.510  46.898 -29.943  1.00  0.00     0.303 C 
BRANCH  23  24
HETATM   24  C7  UNL     1      -5.443  47.894 -29.492  1.00  0.00     0.244 C 
HETATM   25  O2  UNL     1      -4.928  48.732 -30.228  1.00  0.00    -0.271 OA
HETATM   26  N2  UNL     1      -5.098  47.760 -28.158  1.00  0.00    -0.355 N 
HETATM   27  H10 UNL     1      -5.460  46.972 -27.633  1.00  0.00     0.162 HD
BRANCH  26  28
HETATM   28  C8  UNL     1      -4.016  48.515 -27.575  1.00  0.00     0.161 C 
BRANCH  28  29
HETATM   29  C9  UNL     1      -4.128  48.519 -26.075  1.00  0.00    -0.038 A 
HETATM   30  C10 UNL     1      -2.986  48.657 -25.277  1.00  0.00     0.025 A 
HETATM   31  C11 UNL     1      -3.127  48.613 -23.902  1.00  0.00     0.088 A 
HETATM   32  N3  UNL     1      -4.310  48.443 -23.274  1.00  0.00    -0.375 N 
HETATM   33  C12 UNL     1      -5.400  48.311 -24.059  1.00  0.00     0.088 A 
ATOM     34  H3  UNL     1      -4.378  48.416 -22.257  1.00  0.00     0.164 HD
HETATM   35  C13 UNL     1      -5.362  48.340 -25.444  1.00  0.00     0.025 A 
ENDBRANCH  28  29
ENDBRANCH  26  28
ENDBRANCH  23  24
ENDBRANCH  22  23
ENDBRANCH   6  22
BRANCH  14  36
HETATM   36  O3  UNL     1     -11.675  43.982 -35.378  1.00  0.00    -0.395 OA
HETATM   37  H25 UNL     1     -12.455  43.506 -35.711  1.00  0.00     0.210 HD
ENDBRANCH  14  36
BRANCH  21  38
HETATM   38  O4  UNL     1     -13.048  45.830 -39.724  1.00  0.00    -0.381 OA
HETATM   39  H36 UNL     1     -13.881  46.345 -39.729  1.00  0.00     0.211 HD
ENDBRANCH  21  38
BRANCH  21  40
HETATM   40  C28 UNL     1     -12.411  48.077 -40.076  1.00  0.00     0.184 C 
HETATM   41  O5  UNL     1     -11.572  48.983 -40.191  1.00  0.00    -0.292 OA
BRANCH  40  42
HETATM   42  C29 UNL     1     -13.806  48.254 -40.659  1.00  0.00     0.245 C 
BRANCH  42  43
HETATM   43  O6  UNL     1     -14.092  49.580 -41.040  1.00  0.00    -0.393 OA
HETATM   44  H39 UNL     1     -14.298  50.072 -40.223  1.00  0.00     0.209 HD
ENDBRANCH  42  43
ENDBRANCH  40  42
ENDBRANCH  21  40
TORSDOF 10
ENDMDL
MODEL 7
REMARK minimizedAffinity -7.75213909
REMARK CNNscore 0.457661182
REMARK CNNaffinity 6.77690649
REMARK  10 active torsions:
REMARK  status: ('A' for Active; 'I' for Inactive)
REMARK    1  A    between atoms: N1_6  and  O1_8 
REMARK    2  A    between atoms: O1_8  and  C6_9 
REMARK    3  A    between atoms: C6_9  and  C7_10 
REMARK       I    between atoms: C7_10  and  N2_12 
REMARK    4  A    between atoms: N2_12  and  C8_13 
REMARK    5  A    between atoms: C8_13  and  C9_14 
REMARK    6  A    between atoms: C20_27  and  O3_28 
REMARK    7  A    between atoms: C27_35  and  O4_36 
REMARK    8  A    between atoms: C27_35  and  C28_37 
REMARK    9  A    between atoms: C28_37  and  C29_39 
REMARK   10  A    between atoms: C29_39  and  O6_40 
ROOT
HETATM    1  C1  UNL     1       0.610  51.910  -9.513  1.00  0.00     0.020 C 
HETATM    2  C2  UNL     1       1.114  53.232 -10.143  1.00  0.00    -0.014 C 
HETATM    3  C3  UNL     1       0.022  53.805 -11.077  1.00  0.00     0.020 C 
HETATM    4  C4  UNL     1      -0.317  52.898 -12.265  1.00  0.00     0.060 C 
HETATM    5  C5  UNL     1       0.896  52.327 -12.973  1.00  0.00     0.032 C 
HETATM    6  N1  UNL     1       0.694  51.759 -14.124  1.00  0.00    -0.271 N 
ATOM      7  H1  UNL     1      -0.215  51.700 -14.583  1.00  0.00     0.194 HD
HETATM    8  C14 UNL     1       2.216  52.474 -12.306  1.00  0.00     0.030 C 
HETATM    9  C15 UNL     1       2.319  52.913 -11.038  1.00  0.00    -0.069 C 
HETATM   10  C16 UNL     1       3.672  53.311 -10.516  1.00  0.00     0.035 C 
HETATM   11  C17 UNL     1       3.638  54.826 -10.356  1.00  0.00     0.010 C 
HETATM   12  C18 UNL     1       2.566  55.294  -9.343  1.00  0.00    -0.002 C 
HETATM   13  C19 UNL     1       1.563  54.180  -8.952  1.00  0.00     0.031 C 
HETATM   14  C20 UNL     1       0.461  54.762  -8.020  1.00  0.00     0.124 C 
HETATM   15  C21 UNL     1       0.931  55.959  -7.171  1.00  0.00     0.045 C 
HETATM   16  C22 UNL     1       2.426  55.947  -6.782  1.00  0.00     0.001 C 
HETATM   17  C23 UNL     1       2.667  54.759  -5.824  1.00  0.00     0.019 C 
HETATM   18  C24 UNL     1       3.282  55.864  -8.080  1.00  0.00     0.002 C 
HETATM   19  C25 UNL     1       3.796  57.294  -8.362  1.00  0.00     0.009 C 
HETATM   20  C26 UNL     1       3.174  58.202  -7.312  1.00  0.00     0.047 C 
HETATM   21  C27 UNL     1       2.868  57.296  -6.127  1.00  0.00     0.128 C 
ENDROOT
BRANCH   6  22
HETATM   22  O1  UNL     1       1.883  51.238 -14.657  1.00  0.00    -0.271 OA
BRANCH  22  23
HETATM   23  C6  UNL     1       2.090  51.775 -15.952  1.00  0.00     0.303 C 
BRANCH  23  24
HETATM   24  C7  UNL     1       0.974  51.335 -16.900  1.00  0.00     0.244 C 
HETATM   25  O2  UNL     1       0.446  50.227 -16.873  1.00  0.00    -0.271 OA
HETATM   26  N2  UNL     1       0.614  52.313 -17.810  1.00  0.00    -0.355 N 
HETATM   27  H10 UNL     1       1.168  53.159 -17.869  1.00  0.00     0.162 HD
BRANCH  26  28
HETATM   28  C8  UNL     1      -0.324  52.050 -18.874  1.00  0.00     0.161 C 
BRANCH  28  29
HETATM   29  C9  UNL     1       0.194  52.594 -20.177  1.00  0.00    -0.038 A 
HETATM   30  C10 UNL     1       1.047  53.704 -20.194  1.00  0.00     0.025 A 
HETATM   31  C11 UNL     1       1.468  54.200 -21.415  1.00  0.00     0.088 A 
HETATM   32  N3  UNL     1       1.103  53.675 -22.604  1.00  0.00    -0.375 N 
HETATM   33  C12 UNL     1       0.279  52.607 -22.568  1.00  0.00     0.088 A 
ATOM     34  H3  UNL     1       1.432  54.066 -23.486  1.00  0.00     0.164 HD
HETATM   35  C13 UNL     1      -0.197  52.037 -21.398  1.00  0.00     0.025 A 
ENDBRANCH  28  29
ENDBRANCH  26  28
ENDBRANCH  23  24
ENDBRANCH  22  23
ENDBRANCH   6  22
BRANCH  14  36
HETATM   36  O3  UNL     1      -0.676  55.214  -8.742  1.00  0.00    -0.395 OA
HETATM   37  H25 UNL     1      -1.300  55.606  -8.107  1.00  0.00     0.210 HD
ENDBRANCH  14  36
BRANCH  21  38
HETATM   38  O4  UNL     1       1.766  57.879  -5.408  1.00  0.00    -0.381 OA
HETATM   39  H36 UNL     1       1.802  57.508  -4.502  1.00  0.00     0.211 HD
ENDBRANCH  21  38
BRANCH  21  40
HETATM   40  C28 UNL     1       4.008  57.214  -5.077  1.00  0.00     0.184 C 
HETATM   41  O5  UNL     1       3.725  57.277  -3.870  1.00  0.00    -0.292 OA
BRANCH  40  42
HETATM   42  C29 UNL     1       5.455  57.019  -5.508  1.00  0.00     0.245 C 
BRANCH  42  43
HETATM   43  O6  UNL     1       6.245  58.178  -5.371  1.00  0.00    -0.393 OA
HETATM   44  H39 UNL     1       6.028  58.759  -6.124  1.00  0.00     0.209 HD
ENDBRANCH  42  43
ENDBRANCH  40  42
ENDBRANCH  21  40
TORSDOF 10
ENDMDL
MODEL 8
REMARK minimizedAffinity -7.5307045
REMARK CNNscore 0.443648785
REMARK CNNaffinity 5.80909729
REMARK  10 active torsions:
REMARK  status: ('A' for Active; 'I' for Inactive)
REMARK    1  A    between atoms: N1_6  and  O1_8 
REMARK    2  A    between atoms: O1_8  and  C6_9 
REMARK    3  A    between atoms: C6_9  and  C7_10 
REMARK       I    between atoms: C7_10  and  N2_12 
REMARK    4  A    between atoms: N2_12  and  C8_13 
REMARK    5  A    between atoms: C8_13  and  C9_14 
REMARK    6  A    between atoms: C20_27  and  O3_28 
REMARK    7  A    between atoms: C27_35  and  O4_36 
REMARK    8  A    between atoms: C27_35  and  C28_37 
REMARK    9  A    between atoms: C28_37  and  C29_39 
REMARK   10  A    between atoms: C29_39  and  O6_40 
ROOT
HETATM    1  C1  UNL     1     -11.300  44.897 -26.083  1.00  0.00     0.020 C 
HETATM    2  C2  UNL     1     -11.664  46.089 -27.001  1.00  0.00    -0.014 C 
HETATM    3  C3  UNL     1     -12.247  47.238 -26.144  1.00  0.00     0.020 C 
HETATM    4  C4  UNL     1     -13.549  46.874 -25.422  1.00  0.00     0.060 C 
HETATM    5  C5  UNL     1     -14.557  46.150 -26.292  1.00  0.00     0.032 C 
HETATM    6  N1  UNL     1     -15.764  46.035 -25.825  1.00  0.00    -0.271 N 
ATOM      7  H1  UNL     1     -16.073  46.420 -24.932  1.00  0.00     0.194 HD
HETATM    8  C14 UNL     1     -14.093  45.646 -27.611  1.00  0.00     0.030 C 
HETATM    9  C15 UNL     1     -12.790  45.647 -27.946  1.00  0.00    -0.069 C 
HETATM   10  C16 UNL     1     -12.408  45.396 -29.379  1.00  0.00     0.035 C 
HETATM   11  C17 UNL     1     -11.885  46.722 -29.918  1.00  0.00     0.010 C 
HETATM   12  C18 UNL     1     -10.631  47.220 -29.158  1.00  0.00    -0.002 C 
HETATM   13  C19 UNL     1     -10.367  46.451 -27.840  1.00  0.00     0.031 C 
HETATM   14  C20 UNL     1      -9.159  47.083 -27.091  1.00  0.00     0.124 C 
HETATM   15  C21 UNL     1      -8.132  47.758 -28.020  1.00  0.00     0.045 C 
HETATM   16  C22 UNL     1      -8.000  47.129 -29.425  1.00  0.00     0.001 C 
HETATM   17  C23 UNL     1      -7.407  45.712 -29.267  1.00  0.00     0.019 C 
HETATM   18  C24 UNL     1      -9.398  47.131 -30.110  1.00  0.00     0.002 C 
HETATM   19  C25 UNL     1      -9.405  48.320 -31.098  1.00  0.00     0.009 C 
HETATM   20  C26 UNL     1      -8.083  49.049 -30.921  1.00  0.00     0.047 C 
HETATM   21  C27 UNL     1      -7.118  48.005 -30.375  1.00  0.00     0.128 C 
ENDROOT
BRANCH   6  22
HETATM   22  O1  UNL     1     -16.589  45.313 -26.703  1.00  0.00    -0.271 OA
BRANCH  22  23
HETATM   23  C6  UNL     1     -17.929  45.383 -26.247  1.00  0.00     0.303 C 
BRANCH  23  24
HETATM   24  C7  UNL     1     -18.685  44.104 -26.605  1.00  0.00     0.244 C 
HETATM   25  O2  UNL     1     -18.928  43.202 -25.807  1.00  0.00    -0.271 OA
HETATM   26  N2  UNL     1     -19.071  44.050 -27.933  1.00  0.00    -0.355 N 
HETATM   27  H10 UNL     1     -18.734  44.760 -28.572  1.00  0.00     0.162 HD
BRANCH  26  28
HETATM   28  C8  UNL     1     -19.676  42.869 -28.500  1.00  0.00     0.161 C 
BRANCH  28  29
HETATM   29  C9  UNL     1     -20.088  43.123 -29.924  1.00  0.00    -0.038 A 
HETATM   30  C10 UNL     1     -21.414  42.926 -30.326  1.00  0.00     0.025 A 
HETATM   31  C11 UNL     1     -21.744  43.129 -31.654  1.00  0.00     0.088 A 
HETATM   32  N3  UNL     1     -20.855  43.509 -32.597  1.00  0.00    -0.375 N 
HETATM   33  C12 UNL     1     -19.581  43.693 -32.192  1.00  0.00     0.088 A 
ATOM     34  H3  UNL     1     -21.133  43.650 -33.568  1.00  0.00     0.164 HD
HETATM   35  C13 UNL     1     -19.153  43.515 -30.885  1.00  0.00     0.025 A 
ENDBRANCH  28  29
ENDBRANCH  26  28
ENDBRANCH  23  24
ENDBRANCH  22  23
ENDBRANCH   6  22
BRANCH  14  36
HETATM   36  O3  UNL     1      -9.560  48.079 -26.160  1.00  0.00    -0.395 OA
HETATM   37  H25 UNL     1      -8.759  48.464 -25.765  1.00  0.00     0.210 HD
ENDBRANCH  14  36
BRANCH  21  38
HETATM   38  O4  UNL     1      -6.113  48.699 -29.613  1.00  0.00    -0.381 OA
HETATM   39  H36 UNL     1      -5.342  48.098 -29.563  1.00  0.00     0.211 HD
ENDBRANCH  21  38
BRANCH  21  40
HETATM   40  C28 UNL     1      -6.313  47.248 -31.465  1.00  0.00     0.184 C 
HETATM   41  O5  UNL     1      -6.753  46.174 -31.905  1.00  0.00    -0.292 OA
BRANCH  40  42
HETATM   42  C29 UNL     1      -5.021  47.825 -32.025  1.00  0.00     0.245 C 
BRANCH  42  43
HETATM   43  O6  UNL     1      -4.668  49.067 -31.460  1.00  0.00    -0.393 OA
HETATM   44  H39 UNL     1      -5.231  49.741 -31.883  1.00  0.00     0.209 HD
ENDBRANCH  42  43
ENDBRANCH  40  42
ENDBRANCH  21  40
TORSDOF 10
ENDMDL
MODEL 9
REMARK minimizedAffinity -9.36961746
REMARK CNNscore 0.428104967
REMARK CNNaffinity 7.13274622
REMARK  10 active torsions:
REMARK  status: ('A' for Active; 'I' for Inactive)
REMARK    1  A    between atoms: N1_6  and  O1_8 
REMARK    2  A    between atoms: O1_8  and  C6_9 
REMARK    3  A    between atoms: C6_9  and  C7_10 
REMARK       I    between atoms: C7_10  and  N2_12 
REMARK    4  A    between atoms: N2_12  and  C8_13 
REMARK    5  A    between atoms: C8_13  and  C9_14 
REMARK    6  A    between atoms: C20_27  and  O3_28 
REMARK    7  A    between atoms: C27_35  and  O4_36 
REMARK    8  A    between atoms: C27_35  and  C28_37 
REMARK    9  A    between atoms: C28_37  and  C29_39 
REMARK   10  A    between atoms: C29_39  and  O6_40 
ROOT
HETATM    1  C1  UNL     1       2.113  51.659 -21.900  1.00  0.00     0.020 C 
HETATM    2  C2  UNL     1       0.663  52.173 -21.720  1.00  0.00    -0.014 C 
HETATM    3  C3  UNL     1       0.697  53.641 -21.230  1.00  0.00     0.020 C 
HETATM    4  C4  UNL     1       1.360  53.823 -19.860  1.00  0.00     0.060 C 
HETATM    5  C5  UNL     1       0.921  52.812 -18.821  1.00  0.00     0.032 C 
HETATM    6  N1  UNL     1       1.248  53.054 -17.587  1.00  0.00    -0.271 N 
ATOM      7  H1  UNL     1       1.752  53.886 -17.280  1.00  0.00     0.194 HD
HETATM    8  C14 UNL     1       0.141  51.636 -19.289  1.00  0.00     0.030 C 
HETATM    9  C15 UNL     1      -0.003  51.363 -20.600  1.00  0.00    -0.069 C 
HETATM   10  C16 UNL     1      -1.024  50.342 -21.020  1.00  0.00     0.035 C 
HETATM   11  C17 UNL     1      -2.137  51.115 -21.718  1.00  0.00     0.010 C 
HETATM   12  C18 UNL     1      -1.641  51.861 -22.981  1.00  0.00    -0.002 C 
HETATM   13  C19 UNL     1      -0.098  51.926 -23.090  1.00  0.00     0.031 C 
HETATM   14  C20 UNL     1       0.311  52.782 -24.323  1.00  0.00     0.124 C 
HETATM   15  C21 UNL     1      -0.723  52.763 -25.466  1.00  0.00     0.045 C 
HETATM   16  C22 UNL     1      -1.542  51.459 -25.595  1.00  0.00     0.001 C 
HETATM   17  C23 UNL     1      -0.581  50.324 -26.013  1.00  0.00     0.019 C 
HETATM   18  C24 UNL     1      -2.259  51.181 -24.241  1.00  0.00     0.002 C 
HETATM   19  C25 UNL     1      -3.728  51.629 -24.419  1.00  0.00     0.009 C 
HETATM   20  C26 UNL     1      -3.837  52.243 -25.806  1.00  0.00     0.047 C 
HETATM   21  C27 UNL     1      -2.715  51.607 -26.617  1.00  0.00     0.128 C 
ENDROOT
BRANCH   6  22
HETATM   22  O1  UNL     1       0.820  52.028 -16.730  1.00  0.00    -0.271 OA
BRANCH  22  23
HETATM   23  C6  UNL     1       1.335  52.260 -15.431  1.00  0.00     0.303 C 
BRANCH  23  24
HETATM   24  C7  UNL     1       0.613  51.389 -14.403  1.00  0.00     0.244 C 
HETATM   25  O2  UNL     1       0.988  50.269 -14.064  1.00  0.00    -0.271 OA
HETATM   26  N2  UNL     1      -0.525  51.983 -13.886  1.00  0.00    -0.355 N 
HETATM   27  H10 UNL     1      -0.856  52.850 -14.293  1.00  0.00     0.162 HD
BRANCH  26  28
HETATM   28  C8  UNL     1      -1.418  51.271 -13.004  1.00  0.00     0.161 C 
BRANCH  28  29
HETATM   29  C9  UNL     1      -2.104  52.229 -12.068  1.00  0.00    -0.038 A 
HETATM   30  C10 UNL     1      -3.498  52.361 -12.083  1.00  0.00     0.025 A 
HETATM   31  C11 UNL     1      -4.087  53.283 -11.237  1.00  0.00     0.088 A 
HETATM   32  N3  UNL     1      -3.394  54.073 -10.389  1.00  0.00    -0.375 N 
HETATM   33  C12 UNL     1      -2.052  53.932 -10.389  1.00  0.00     0.088 A 
ATOM     34  H3  UNL     1      -3.861  54.742  -9.778  1.00  0.00     0.164 HD
HETATM   35  C13 UNL     1      -1.369  53.038 -11.199  1.00  0.00     0.025 A 
ENDBRANCH  28  29
ENDBRANCH  26  28
ENDBRANCH  23  24
ENDBRANCH  22  23
ENDBRANCH   6  22
BRANCH  14  36
HETATM   36  O3  UNL     1       0.507  54.149 -23.993  1.00  0.00    -0.395 OA
HETATM   37  H25 UNL     1       0.712  54.632 -24.812  1.00  0.00     0.210 HD
ENDBRANCH  14  36
BRANCH  21  38
HETATM   38  O4  UNL     1      -2.351  52.536 -27.655  1.00  0.00    -0.381 OA
HETATM   39  H36 UNL     1      -1.904  52.009 -28.350  1.00  0.00     0.211 HD
ENDBRANCH  21  38
BRANCH  21  40
HETATM   40  C28 UNL     1      -3.132  50.323 -27.383  1.00  0.00     0.184 C 
HETATM   41  O5  UNL     1      -3.109  50.325 -28.624  1.00  0.00    -0.292 OA
BRANCH  40  42
HETATM   42  C29 UNL     1      -3.528  49.059 -26.633  1.00  0.00     0.245 C 
BRANCH  42  43
HETATM   43  O6  UNL     1      -4.916  48.817 -26.631  1.00  0.00    -0.393 OA
HETATM   44  H39 UNL     1      -5.307  49.414 -25.967  1.00  0.00     0.209 HD
ENDBRANCH  42  43
ENDBRANCH  40  42
ENDBRANCH  21  40
TORSDOF 10
ENDMDL
