MODEL 1
REMARK minimizedAffinity -8.69590664
REMARK  7 active torsions:
REMARK  status: ('A' for Active; 'I' for Inactive)
REMARK    1  A    between atoms: C3_3  and  C5_5 
REMARK    2  A    between atoms: C6_6  and  C7_7 
REMARK    3  A    between atoms: C8_8  and  C9_9 
REMARK    4  A    between atoms: C10_10  and  C12_12 
REMARK    5  A    between atoms: C12_12  and  C13_14 
REMARK    6  A    between atoms: C13_14  and  C15_16 
REMARK    7  A    between atoms: C15_16  and  O2_17 
ROOT
HETATM    1  C5  UNL     1      -3.435  49.142 -22.757  1.00  0.00     0.058 C 
HETATM    2  C6  UNL     1      -2.633  49.286 -24.104  1.00  0.00     0.024 C 
HETATM    3  C16 UNL     1      -1.825  50.613 -24.156  1.00  0.00     0.003 C 
HETATM    4  C17 UNL     1      -1.117  50.833 -25.512  1.00  0.00     0.041 C 
HETATM    5  C18 UNL     1      -0.265  52.067 -25.509  1.00  0.00     0.157 A 
HETATM    6  O3  UNL     1       1.064  51.853 -25.000  1.00  0.00    -0.370 OA
HETATM    7  C19 UNL     1       0.209  52.694 -24.217  1.00  0.00     0.084 A 
HETATM    8  C20 UNL     1       0.633  54.128 -24.205  1.00  0.00     0.049 C 
HETATM    9  C21 UNL     1      -0.213  52.099 -22.902  1.00  0.00     0.048 C 
HETATM   10  C22 UNL     1      -0.760  50.665 -23.030  1.00  0.00     0.025 C 
HETATM   11  C23 UNL     1      -1.263  50.167 -21.699  1.00  0.00     0.162 A 
HETATM   12  O4  UNL     1      -1.257  48.727 -21.630  1.00  0.00    -0.368 OA
HETATM   13  C24 UNL     1      -2.538  49.367 -21.543  1.00  0.00     0.092 A 
HETATM   14  C25 UNL     1      -3.149  49.204 -20.181  1.00  0.00     0.049 C 
ENDROOT
BRANCH   2  15
HETATM   15  C7  UNL     1      -3.529  49.111 -25.317  1.00  0.00    -0.021 C 
HETATM   16  C8  UNL     1      -3.179  48.410 -26.409  1.00  0.00    -0.003 C 
BRANCH  16  17
HETATM   17  C9  UNL     1      -4.057  48.261 -27.550  1.00  0.00     0.010 C 
HETATM   18  C10 UNL     1      -5.378  48.005 -27.513  1.00  0.00    -0.016 C 
HETATM   19  C11 UNL     1      -6.229  47.840 -26.284  1.00  0.00     0.052 C 
BRANCH  18  20
HETATM   20  C12 UNL     1      -6.160  47.898 -28.799  1.00  0.00     0.161 C 
HETATM   21  O1  UNL     1      -7.370  48.138 -28.758  1.00  0.00    -0.292 OA
BRANCH  20  22
HETATM   22  C13 UNL     1      -5.449  47.536 -30.110  1.00  0.00     0.080 C 
HETATM   23  C14 UNL     1      -6.074  46.311 -30.780  1.00  0.00     0.020 C 
BRANCH  22  24
HETATM   24  C15 UNL     1      -5.449  48.740 -31.064  1.00  0.00     0.176 C 
BRANCH  24  25
HETATM   25  O2  UNL     1      -4.600  49.777 -30.586  1.00  0.00    -0.400 OA
HETATM   26  H22 UNL     1      -4.159  50.167 -31.363  1.00  0.00     0.209 HD
ENDBRANCH  24  25
ENDBRANCH  22  24
ENDBRANCH  20  22
ENDBRANCH  18  20
ENDBRANCH  16  17
ENDBRANCH   2  15
BRANCH   1  27
HETATM   27  C3  UNL     1      -4.753  49.951 -22.707  1.00  0.00    -0.080 C 
HETATM   28  C2  UNL     1      -5.965  49.367 -22.826  1.00  0.00    -0.028 C 
HETATM   29  C1  UNL     1      -7.314  50.016 -22.803  1.00  0.00     0.036 C 
HETATM   30  C4  UNL     1      -4.549  51.443 -22.595  1.00  0.00     0.043 C 
ENDBRANCH   1  27
TORSDOF 7
ENDMDL
MODEL 2
REMARK minimizedAffinity -8.23769951
REMARK  7 active torsions:
REMARK  status: ('A' for Active; 'I' for Inactive)
REMARK    1  A    between atoms: C3_3  and  C5_5 
REMARK    2  A    between atoms: C6_6  and  C7_7 
REMARK    3  A    between atoms: C8_8  and  C9_9 
REMARK    4  A    between atoms: C10_10  and  C12_12 
REMARK    5  A    between atoms: C12_12  and  C13_14 
REMARK    6  A    between atoms: C13_14  and  C15_16 
REMARK    7  A    between atoms: C15_16  and  O2_17 
ROOT
HETATM    1  C5  UNL     1      -3.201  50.691 -22.913  1.00  0.00     0.058 C 
HETATM    2  C6  UNL     1      -2.048  51.762 -22.873  1.00  0.00     0.024 C 
HETATM    3  C16 UNL     1      -1.179  51.723 -24.161  1.00  0.00     0.003 C 
HETATM    4  C17 UNL     1       0.028  52.687 -24.101  1.00  0.00     0.041 C 
HETATM    5  C18 UNL     1       0.796  52.708 -25.389  1.00  0.00     0.157 A 
HETATM    6  O3  UNL     1       0.274  53.632 -26.362  1.00  0.00    -0.370 OA
HETATM    7  C19 UNL     1       0.174  52.241 -26.686  1.00  0.00     0.084 A 
HETATM    8  C20 UNL     1       1.056  51.829 -27.821  1.00  0.00     0.049 C 
HETATM    9  C21 UNL     1      -1.230  51.703 -26.686  1.00  0.00     0.048 C 
HETATM   10  C22 UNL     1      -2.022  52.067 -25.416  1.00  0.00     0.025 C 
HETATM   11  C23 UNL     1      -3.379  51.411 -25.430  1.00  0.00     0.162 A 
HETATM   12  O4  UNL     1      -4.325  52.122 -24.607  1.00  0.00    -0.368 OA
HETATM   13  C24 UNL     1      -4.007  50.783 -24.204  1.00  0.00     0.092 A 
HETATM   14  C25 UNL     1      -5.183  49.861 -24.364  1.00  0.00     0.049 C 
ENDROOT
BRANCH   2  15
HETATM   15  C7  UNL     1      -1.210  51.645 -21.611  1.00  0.00    -0.021 C 
HETATM   16  C8  UNL     1      -0.442  52.637 -21.131  1.00  0.00    -0.003 C 
BRANCH  16  17
HETATM   17  C9  UNL     1       0.345  52.494 -19.924  1.00  0.00     0.010 C 
HETATM   18  C10 UNL     1      -0.118  52.166 -18.704  1.00  0.00    -0.016 C 
HETATM   19  C11 UNL     1      -1.543  51.857 -18.334  1.00  0.00     0.052 C 
BRANCH  18  20
HETATM   20  C12 UNL     1       0.840  52.037 -17.545  1.00  0.00     0.161 C 
HETATM   21  O1  UNL     1       1.971  52.513 -17.677  1.00  0.00    -0.292 OA
BRANCH  20  22
HETATM   22  C13 UNL     1       0.389  51.364 -16.240  1.00  0.00     0.080 C 
HETATM   23  C14 UNL     1       0.365  49.840 -16.363  1.00  0.00     0.020 C 
BRANCH  22  24
HETATM   24  C15 UNL     1       1.290  51.805 -15.077  1.00  0.00     0.176 C 
BRANCH  24  25
HETATM   25  O2  UNL     1       0.630  52.749 -14.242  1.00  0.00    -0.400 OA
HETATM   26  H22 UNL     1       0.887  52.547 -13.323  1.00  0.00     0.209 HD
ENDBRANCH  24  25
ENDBRANCH  22  24
ENDBRANCH  20  22
ENDBRANCH  18  20
ENDBRANCH  16  17
ENDBRANCH   2  15
BRANCH   1  27
HETATM   27  C3  UNL     1      -2.749  49.251 -22.570  1.00  0.00    -0.080 C 
HETATM   28  C2  UNL     1      -2.632  48.814 -21.297  1.00  0.00    -0.028 C 
HETATM   29  C1  UNL     1      -2.205  47.461 -20.817  1.00  0.00     0.036 C 
HETATM   30  C4  UNL     1      -2.381  48.423 -23.778  1.00  0.00     0.043 C 
ENDBRANCH   1  27
TORSDOF 7
ENDMDL
MODEL 3
REMARK minimizedAffinity -8.1749773
REMARK  7 active torsions:
REMARK  status: ('A' for Active; 'I' for Inactive)
REMARK    1  A    between atoms: C3_3  and  C5_5 
REMARK    2  A    between atoms: C6_6  and  C7_7 
REMARK    3  A    between atoms: C8_8  and  C9_9 
REMARK    4  A    between atoms: C10_10  and  C12_12 
REMARK    5  A    between atoms: C12_12  and  C13_14 
REMARK    6  A    between atoms: C13_14  and  C15_16 
REMARK    7  A    between atoms: C15_16  and  O2_17 
ROOT
HETATM    1  C5  UNL     1      -3.149  50.710 -22.608  1.00  0.00     0.058 C 
HETATM    2  C6  UNL     1      -1.811  51.524 -22.449  1.00  0.00     0.024 C 
HETATM    3  C16 UNL     1      -1.003  51.571 -23.776  1.00  0.00     0.003 C 
HETATM    4  C17 UNL     1       0.368  52.269 -23.621  1.00  0.00     0.041 C 
HETATM    5  C18 UNL     1       1.089  52.391 -24.930  1.00  0.00     0.157 A 
HETATM    6  O3  UNL     1       0.727  53.563 -25.685  1.00  0.00    -0.370 OA
HETATM    7  C19 UNL     1       0.351  52.301 -26.247  1.00  0.00     0.084 A 
HETATM    8  C20 UNL     1       1.104  51.956 -27.492  1.00  0.00     0.049 C 
HETATM    9  C21 UNL     1      -1.130  52.040 -26.255  1.00  0.00     0.048 C 
HETATM   10  C22 UNL     1      -1.800  52.295 -24.892  1.00  0.00     0.025 C 
HETATM   11  C23 UNL     1      -3.257  51.915 -24.937  1.00  0.00     0.162 A 
HETATM   12  O4  UNL     1      -4.025  52.619 -23.940  1.00  0.00    -0.368 OA
HETATM   13  C24 UNL     1      -3.959  51.192 -23.807  1.00  0.00     0.092 A 
HETATM   14  C25 UNL     1      -5.294  50.549 -24.054  1.00  0.00     0.049 C 
ENDROOT
BRANCH   2  15
HETATM   15  C7  UNL     1      -0.976  51.018 -21.286  1.00  0.00    -0.021 C 
HETATM   16  C8  UNL     1      -1.121  51.448 -20.021  1.00  0.00    -0.003 C 
BRANCH  16  17
HETATM   17  C9  UNL     1      -0.310  50.945 -18.932  1.00  0.00     0.010 C 
HETATM   18  C10 UNL     1      -0.722  50.705 -17.674  1.00  0.00    -0.016 C 
HETATM   19  C11 UNL     1      -2.114  50.887 -17.132  1.00  0.00     0.052 C 
BRANCH  18  20
HETATM   20  C12 UNL     1       0.247  50.158 -16.655  1.00  0.00     0.161 C 
HETATM   21  O1  UNL     1       0.438  48.939 -16.639  1.00  0.00    -0.292 OA
BRANCH  20  22
HETATM   22  C13 UNL     1       0.988  51.109 -15.704  1.00  0.00     0.080 C 
HETATM   23  C14 UNL     1       1.741  50.348 -14.610  1.00  0.00     0.020 C 
BRANCH  22  24
HETATM   24  C15 UNL     1       1.943  52.014 -16.496  1.00  0.00     0.176 C 
BRANCH  24  25
HETATM   25  O2  UNL     1       1.439  53.342 -16.586  1.00  0.00    -0.400 OA
HETATM   26  H22 UNL     1       2.202  53.944 -16.507  1.00  0.00     0.209 HD
ENDBRANCH  24  25
ENDBRANCH  22  24
ENDBRANCH  20  22
ENDBRANCH  18  20
ENDBRANCH  16  17
ENDBRANCH   2  15
BRANCH   1  27
HETATM   27  C3  UNL     1      -2.973  49.173 -22.560  1.00  0.00    -0.080 C 
HETATM   28  C2  UNL     1      -2.964  48.482 -21.400  1.00  0.00    -0.028 C 
HETATM   29  C1  UNL     1      -2.799  47.008 -21.200  1.00  0.00     0.036 C 
HETATM   30  C4  UNL     1      -2.736  48.545 -23.913  1.00  0.00     0.043 C 
ENDBRANCH   1  27
TORSDOF 7
ENDMDL
MODEL 4
REMARK minimizedAffinity -8.06390285
REMARK  7 active torsions:
REMARK  status: ('A' for Active; 'I' for Inactive)
REMARK    1  A    between atoms: C3_3  and  C5_5 
REMARK    2  A    between atoms: C6_6  and  C7_7 
REMARK    3  A    between atoms: C8_8  and  C9_9 
REMARK    4  A    between atoms: C10_10  and  C12_12 
REMARK    5  A    between atoms: C12_12  and  C13_14 
REMARK    6  A    between atoms: C13_14  and  C15_16 
REMARK    7  A    between atoms: C15_16  and  O2_17 
ROOT
HETATM    1  C5  UNL     1      -3.645  49.251 -23.255  1.00  0.00     0.058 C 
HETATM    2  C6  UNL     1      -2.924  48.950 -24.622  1.00  0.00     0.024 C 
HETATM    3  C16 UNL     1      -2.270  50.225 -25.223  1.00  0.00     0.003 C 
HETATM    4  C17 UNL     1      -1.652  49.983 -26.619  1.00  0.00     0.041 C 
HETATM    5  C18 UNL     1      -0.941  51.197 -27.138  1.00  0.00     0.157 A 
HETATM    6  O3  UNL     1       0.426  51.302 -26.697  1.00  0.00    -0.370 OA
HETATM    7  C19 UNL     1      -0.480  52.298 -26.210  1.00  0.00     0.084 A 
HETATM    8  C20 UNL     1      -0.216  53.663 -26.759  1.00  0.00     0.049 C 
HETATM    9  C21 UNL     1      -0.775  52.203 -24.738  1.00  0.00     0.048 C 
HETATM   10  C22 UNL     1      -1.167  50.784 -24.287  1.00  0.00     0.025 C 
HETATM   11  C23 UNL     1      -1.552  50.778 -22.830  1.00  0.00     0.162 A 
HETATM   12  O4  UNL     1      -1.386  49.473 -22.238  1.00  0.00    -0.368 OA
HETATM   13  C24 UNL     1      -2.724  49.988 -22.287  1.00  0.00     0.092 A 
HETATM   14  C25 UNL     1      -3.252  50.293 -20.914  1.00  0.00     0.049 C 
ENDROOT
BRANCH   2  15
HETATM   15  C7  UNL     1      -3.850  48.259 -25.609  1.00  0.00    -0.021 C 
HETATM   16  C8  UNL     1      -4.266  48.818 -26.757  1.00  0.00    -0.003 C 
BRANCH  16  17
HETATM   17  C9  UNL     1      -5.148  48.133 -27.679  1.00  0.00     0.010 C 
HETATM   18  C10 UNL     1      -6.297  47.505 -27.366  1.00  0.00    -0.016 C 
HETATM   19  C11 UNL     1      -6.922  47.396 -26.003  1.00  0.00     0.052 C 
BRANCH  18  20
HETATM   20  C12 UNL     1      -7.118  46.854 -28.452  1.00  0.00     0.161 C 
HETATM   21  O1  UNL     1      -6.543  46.079 -29.222  1.00  0.00    -0.292 OA
BRANCH  20  22
HETATM   22  C13 UNL     1      -8.625  47.132 -28.555  1.00  0.00     0.080 C 
HETATM   23  C14 UNL     1      -9.448  46.116 -27.761  1.00  0.00     0.020 C 
BRANCH  22  24
HETATM   24  C15 UNL     1      -8.933  48.564 -28.096  1.00  0.00     0.176 C 
BRANCH  24  25
HETATM   25  O2  UNL     1      -8.626  49.510 -29.114  1.00  0.00    -0.400 OA
HETATM   26  H22 UNL     1      -9.317  50.197 -29.085  1.00  0.00     0.209 HD
ENDBRANCH  24  25
ENDBRANCH  22  24
ENDBRANCH  20  22
ENDBRANCH  18  20
ENDBRANCH  16  17
ENDBRANCH   2  15
BRANCH   1  27
HETATM   27  C3  UNL     1      -5.040  49.906 -23.397  1.00  0.00    -0.080 C 
HETATM   28  C2  UNL     1      -6.176  49.270 -23.038  1.00  0.00    -0.028 C 
HETATM   29  C1  UNL     1      -7.585  49.771 -23.121  1.00  0.00     0.036 C 
HETATM   30  C4  UNL     1      -5.011  51.271 -24.042  1.00  0.00     0.043 C 
ENDBRANCH   1  27
TORSDOF 7
ENDMDL
MODEL 5
REMARK minimizedAffinity -7.94095278
REMARK  7 active torsions:
REMARK  status: ('A' for Active; 'I' for Inactive)
REMARK    1  A    between atoms: C3_3  and  C5_5 
REMARK    2  A    between atoms: C6_6  and  C7_7 
REMARK    3  A    between atoms: C8_8  and  C9_9 
REMARK    4  A    between atoms: C10_10  and  C12_12 
REMARK    5  A    between atoms: C12_12  and  C13_14 
REMARK    6  A    between atoms: C13_14  and  C15_16 
REMARK    7  A    between atoms: C15_16  and  O2_17 
ROOT
HETATM    1  C5  UNL     1      -2.412  48.904 -21.945  1.00  0.00     0.058 C 
HETATM    2  C6  UNL     1      -1.207  49.852 -21.586  1.00  0.00     0.024 C 
HETATM    3  C16 UNL     1      -1.219  50.258 -20.086  1.00  0.00     0.003 C 
HETATM    4  C17 UNL     1      -0.112  51.276 -19.729  1.00  0.00     0.041 C 
HETATM    5  C18 UNL     1      -0.078  51.580 -18.261  1.00  0.00     0.157 A 
HETATM    6  O3  UNL     1       0.713  50.652 -17.495  1.00  0.00    -0.370 OA
HETATM    7  C19 UNL     1      -0.697  50.643 -17.248  1.00  0.00     0.084 A 
HETATM    8  C20 UNL     1      -1.068  51.161 -15.895  1.00  0.00     0.049 C 
HETATM    9  C21 UNL     1      -1.402  49.400 -17.716  1.00  0.00     0.048 C 
HETATM   10  C22 UNL     1      -1.060  49.017 -19.168  1.00  0.00     0.025 C 
HETATM   11  C23 UNL     1      -1.877  47.831 -19.611  1.00  0.00     0.162 A 
HETATM   12  O4  UNL     1      -1.237  47.111 -20.684  1.00  0.00    -0.368 OA
HETATM   13  C24 UNL     1      -2.500  47.721 -20.986  1.00  0.00     0.092 A 
HETATM   14  C25 UNL     1      -3.567  46.694 -21.238  1.00  0.00     0.049 C 
ENDROOT
BRANCH   2  15
HETATM   15  C7  UNL     1      -1.141  51.058 -22.507  1.00  0.00    -0.021 C 
HETATM   16  C8  UNL     1      -0.900  50.977 -23.826  1.00  0.00    -0.003 C 
BRANCH  16  17
HETATM   17  C9  UNL     1      -0.845  52.146 -24.678  1.00  0.00     0.010 C 
HETATM   18  C10 UNL     1       0.214  52.561 -25.397  1.00  0.00    -0.016 C 
HETATM   19  C11 UNL     1       1.558  51.893 -25.487  1.00  0.00     0.052 C 
BRANCH  18  20
HETATM   20  C12 UNL     1       0.103  53.795 -26.257  1.00  0.00     0.161 C 
HETATM   21  O1  UNL     1       0.225  54.894 -25.707  1.00  0.00    -0.292 OA
BRANCH  20  22
HETATM   22  C13 UNL     1      -0.118  53.666 -27.771  1.00  0.00     0.080 C 
HETATM   23  C14 UNL     1       0.567  52.424 -28.344  1.00  0.00     0.020 C 
BRANCH  22  24
HETATM   24  C15 UNL     1      -1.620  53.658 -28.089  1.00  0.00     0.176 C 
BRANCH  24  25
HETATM   25  O2  UNL     1      -2.066  54.943 -28.510  1.00  0.00    -0.400 OA
HETATM   26  H22 UNL     1      -2.721  54.801 -29.218  1.00  0.00     0.209 HD
ENDBRANCH  24  25
ENDBRANCH  22  24
ENDBRANCH  20  22
ENDBRANCH  18  20
ENDBRANCH  16  17
ENDBRANCH   2  15
BRANCH   1  27
HETATM   27  C3  UNL     1      -3.761  49.634 -22.149  1.00  0.00    -0.080 C 
HETATM   28  C2  UNL     1      -4.348  49.743 -23.360  1.00  0.00    -0.028 C 
HETATM   29  C1  UNL     1      -5.639  50.418 -23.708  1.00  0.00     0.036 C 
HETATM   30  C4  UNL     1      -4.306  50.271 -20.892  1.00  0.00     0.043 C 
ENDBRANCH   1  27
TORSDOF 7
ENDMDL
MODEL 6
REMARK minimizedAffinity -7.88555431
REMARK  7 active torsions:
REMARK  status: ('A' for Active; 'I' for Inactive)
REMARK    1  A    between atoms: C3_3  and  C5_5 
REMARK    2  A    between atoms: C6_6  and  C7_7 
REMARK    3  A    between atoms: C8_8  and  C9_9 
REMARK    4  A    between atoms: C10_10  and  C12_12 
REMARK    5  A    between atoms: C12_12  and  C13_14 
REMARK    6  A    between atoms: C13_14  and  C15_16 
REMARK    7  A    between atoms: C15_16  and  O2_17 
ROOT
HETATM    1  C5  UNL     1      -5.763  45.920 -30.912  1.00  0.00     0.058 C 
HETATM    2  C6  UNL     1      -6.274  46.664 -29.621  1.00  0.00     0.024 C 
HETATM    3  C16 UNL     1      -7.796  46.968 -29.695  1.00  0.00     0.003 C 
HETATM    4  C17 UNL     1      -8.303  47.796 -28.492  1.00  0.00     0.041 C 
HETATM    5  C18 UNL     1      -9.789  47.995 -28.531  1.00  0.00     0.157 A 
HETATM    6  O3  UNL     1     -10.535  46.918 -27.935  1.00  0.00    -0.370 OA
HETATM    7  C19 UNL     1     -10.684  47.091 -29.349  1.00  0.00     0.084 A 
HETATM    8  C20 UNL     1     -12.044  47.566 -29.750  1.00  0.00     0.049 C 
HETATM    9  C21 UNL     1     -10.076  45.992 -30.177  1.00  0.00     0.048 C 
HETATM   10  C22 UNL     1      -8.626  45.661 -29.778  1.00  0.00     0.025 C 
HETATM   11  C23 UNL     1      -8.041  44.632 -30.711  1.00  0.00     0.162 A 
HETATM   12  O4  UNL     1      -6.962  43.901 -30.092  1.00  0.00    -0.368 OA
HETATM   13  C24 UNL     1      -6.622  44.701 -31.234  1.00  0.00     0.092 A 
HETATM   14  C25 UNL     1      -6.222  43.852 -32.407  1.00  0.00     0.049 C 
ENDROOT
BRANCH   2  15
HETATM   15  C7  UNL     1      -5.453  47.906 -29.322  1.00  0.00    -0.021 C 
HETATM   16  C8  UNL     1      -4.677  48.043 -28.235  1.00  0.00    -0.003 C 
BRANCH  16  17
HETATM   17  C9  UNL     1      -3.905  49.240 -27.978  1.00  0.00     0.010 C 
HETATM   18  C10 UNL     1      -3.177  49.500 -26.876  1.00  0.00    -0.016 C 
HETATM   19  C11 UNL     1      -2.992  48.599 -25.686  1.00  0.00     0.052 C 
BRANCH  18  20
HETATM   20  C12 UNL     1      -2.408  50.794 -26.769  1.00  0.00     0.161 C 
HETATM   21  O1  UNL     1      -2.882  51.793 -27.317  1.00  0.00    -0.292 OA
BRANCH  20  22
HETATM   22  C13 UNL     1      -1.097  50.851 -25.971  1.00  0.00     0.080 C 
HETATM   23  C14 UNL     1       0.119  51.028 -26.882  1.00  0.00     0.020 C 
BRANCH  22  24
HETATM   24  C15 UNL     1      -1.163  51.972 -24.923  1.00  0.00     0.176 C 
BRANCH  24  25
HETATM   25  O2  UNL     1      -1.159  53.255 -25.538  1.00  0.00    -0.400 OA
HETATM   26  H22 UNL     1      -1.765  53.820 -25.026  1.00  0.00     0.209 HD
ENDBRANCH  24  25
ENDBRANCH  22  24
ENDBRANCH  20  22
ENDBRANCH  18  20
ENDBRANCH  16  17
ENDBRANCH   2  15
BRANCH   1  27
HETATM   27  C3  UNL     1      -5.524  46.844 -32.131  1.00  0.00    -0.080 C 
HETATM   28  C2  UNL     1      -4.298  47.034 -32.663  1.00  0.00    -0.028 C 
HETATM   29  C1  UNL     1      -3.915  47.894 -33.828  1.00  0.00     0.036 C 
HETATM   30  C4  UNL     1      -6.765  47.562 -32.604  1.00  0.00     0.043 C 
ENDBRANCH   1  27
TORSDOF 7
ENDMDL
MODEL 7
REMARK minimizedAffinity -7.68457413
REMARK  7 active torsions:
REMARK  status: ('A' for Active; 'I' for Inactive)
REMARK    1  A    between atoms: C3_3  and  C5_5 
REMARK    2  A    between atoms: C6_6  and  C7_7 
REMARK    3  A    between atoms: C8_8  and  C9_9 
REMARK    4  A    between atoms: C10_10  and  C12_12 
REMARK    5  A    between atoms: C12_12  and  C13_14 
REMARK    6  A    between atoms: C13_14  and  C15_16 
REMARK    7  A    between atoms: C15_16  and  O2_17 
ROOT
HETATM    1  C5  UNL     1      -4.337  49.732 -21.547  1.00  0.00     0.058 C 
HETATM    2  C6  UNL     1      -4.760  49.930 -23.051  1.00  0.00     0.024 C 
HETATM    3  C16 UNL     1      -5.545  48.705 -23.595  1.00  0.00     0.003 C 
HETATM    4  C17 UNL     1      -5.877  48.823 -25.101  1.00  0.00     0.041 C 
HETATM    5  C18 UNL     1      -6.718  47.680 -25.584  1.00  0.00     0.157 A 
HETATM    6  O3  UNL     1      -8.131  47.878 -25.393  1.00  0.00    -0.370 OA
HETATM    7  C19 UNL     1      -7.524  46.834 -24.624  1.00  0.00     0.084 A 
HETATM    8  C20 UNL     1      -7.957  45.463 -25.036  1.00  0.00     0.049 C 
HETATM    9  C21 UNL     1      -7.453  47.110 -23.148  1.00  0.00     0.048 C 
HETATM   10  C22 UNL     1      -6.869  48.496 -22.815  1.00  0.00     0.025 C 
HETATM   11  C23 UNL     1      -6.726  48.668 -21.325  1.00  0.00     0.162 A 
HETATM   12  O4  UNL     1      -6.728  50.059 -20.944  1.00  0.00    -0.368 OA
HETATM   13  C24 UNL     1      -5.524  49.325 -20.680  1.00  0.00     0.092 A 
HETATM   14  C25 UNL     1      -5.289  49.156 -19.206  1.00  0.00     0.049 C 
ENDROOT
BRANCH   2  15
HETATM   15  C7  UNL     1      -3.574  50.290 -23.929  1.00  0.00    -0.021 C 
HETATM   16  C8  UNL     1      -2.980  51.494 -23.923  1.00  0.00    -0.003 C 
BRANCH  16  17
HETATM   17  C9  UNL     1      -1.849  51.806 -24.773  1.00  0.00     0.010 C 
HETATM   18  C10 UNL     1      -0.597  52.083 -24.365  1.00  0.00    -0.016 C 
HETATM   19  C11 UNL     1      -0.096  52.109 -22.947  1.00  0.00     0.052 C 
BRANCH  18  20
HETATM   20  C12 UNL     1       0.480  52.368 -25.382  1.00  0.00     0.161 C 
HETATM   21  O1  UNL     1       0.966  53.502 -25.404  1.00  0.00    -0.292 OA
BRANCH  20  22
HETATM   22  C13 UNL     1       0.967  51.259 -26.326  1.00  0.00     0.080 C 
HETATM   23  C14 UNL     1       0.582  51.537 -27.780  1.00  0.00     0.020 C 
BRANCH  22  24
HETATM   24  C15 UNL     1       2.485  51.073 -26.187  1.00  0.00     0.176 C 
BRANCH  24  25
HETATM   25  O2  UNL     1       3.166  51.493 -27.364  1.00  0.00    -0.400 OA
HETATM   26  H22 UNL     1       3.990  51.927 -27.078  1.00  0.00     0.209 HD
ENDBRANCH  24  25
ENDBRANCH  22  24
ENDBRANCH  20  22
ENDBRANCH  18  20
ENDBRANCH  16  17
ENDBRANCH   2  15
BRANCH   1  27
HETATM   27  C3  UNL     1      -3.090  48.838 -21.345  1.00  0.00    -0.080 C 
HETATM   28  C2  UNL     1      -1.887  49.343 -20.997  1.00  0.00    -0.028 C 
HETATM   29  C1  UNL     1      -0.602  48.608 -20.773  1.00  0.00     0.036 C 
HETATM   30  C4  UNL     1      -3.331  47.379 -21.651  1.00  0.00     0.043 C 
ENDBRANCH   1  27
TORSDOF 7
ENDMDL
MODEL 8
REMARK minimizedAffinity -7.57838106
REMARK  7 active torsions:
REMARK  status: ('A' for Active; 'I' for Inactive)
REMARK    1  A    between atoms: C3_3  and  C5_5 
REMARK    2  A    between atoms: C6_6  and  C7_7 
REMARK    3  A    between atoms: C8_8  and  C9_9 
REMARK    4  A    between atoms: C10_10  and  C12_12 
REMARK    5  A    between atoms: C12_12  and  C13_14 
REMARK    6  A    between atoms: C13_14  and  C15_16 
REMARK    7  A    between atoms: C15_16  and  O2_17 
ROOT
HETATM    1  C5  UNL     1      -1.921  50.106 -24.815  1.00  0.00     0.058 C 
HETATM    2  C6  UNL     1      -2.314  49.334 -23.501  1.00  0.00     0.024 C 
HETATM    3  C16 UNL     1      -3.852  49.327 -23.274  1.00  0.00     0.003 C 
HETATM    4  C17 UNL     1      -4.259  48.673 -21.934  1.00  0.00     0.041 C 
HETATM    5  C18 UNL     1      -5.748  48.587 -21.778  1.00  0.00     0.157 A 
HETATM    6  O3  UNL     1      -6.327  47.412 -22.375  1.00  0.00    -0.370 OA
HETATM    7  C19 UNL     1      -6.671  48.667 -22.974  1.00  0.00     0.084 A 
HETATM    8  C20 UNL     1      -8.103  49.048 -22.775  1.00  0.00     0.049 C 
HETATM    9  C21 UNL     1      -6.095  48.879 -24.346  1.00  0.00     0.048 C 
HETATM   10  C22 UNL     1      -4.584  48.589 -24.424  1.00  0.00     0.025 C 
HETATM   11  C23 UNL     1      -4.050  48.922 -25.793  1.00  0.00     0.162 A 
HETATM   12  O4  UNL     1      -2.847  48.184 -26.092  1.00  0.00    -0.368 OA
HETATM   13  C24 UNL     1      -2.720  49.611 -26.017  1.00  0.00     0.092 A 
HETATM   14  C25 UNL     1      -2.413  50.212 -27.359  1.00  0.00     0.049 C 
ENDROOT
BRANCH   2  15
HETATM   15  C7  UNL     1      -1.558  49.856 -22.291  1.00  0.00    -0.021 C 
HETATM   16  C8  UNL     1      -1.969  50.894 -21.545  1.00  0.00    -0.003 C 
BRANCH  16  17
HETATM   17  C9  UNL     1      -1.225  51.367 -20.396  1.00  0.00     0.010 C 
HETATM   18  C10 UNL     1       0.024  51.867 -20.405  1.00  0.00    -0.016 C 
HETATM   19  C11 UNL     1       0.908  52.063 -21.606  1.00  0.00     0.052 C 
BRANCH  18  20
HETATM   20  C12 UNL     1       0.655  52.340 -19.118  1.00  0.00     0.161 C 
HETATM   21  O1  UNL     1       1.481  53.254 -19.183  1.00  0.00    -0.292 OA
BRANCH  20  22
HETATM   22  C13 UNL     1       0.241  51.714 -17.778  1.00  0.00     0.080 C 
HETATM   23  C14 UNL     1      -0.064  50.221 -17.915  1.00  0.00     0.020 C 
BRANCH  22  24
HETATM   24  C15 UNL     1       1.328  51.955 -16.721  1.00  0.00     0.176 C 
BRANCH  24  25
HETATM   25  O2  UNL     1       1.330  53.309 -16.282  1.00  0.00    -0.400 OA
HETATM   26  H22 UNL     1       1.515  53.299 -15.325  1.00  0.00     0.209 HD
ENDBRANCH  24  25
ENDBRANCH  22  24
ENDBRANCH  20  22
ENDBRANCH  18  20
ENDBRANCH  16  17
ENDBRANCH   2  15
BRANCH   1  27
HETATM   27  C3  UNL     1      -1.912  51.648 -24.675  1.00  0.00    -0.080 C 
HETATM   28  C2  UNL     1      -0.770  52.367 -24.679  1.00  0.00    -0.028 C 
HETATM   29  C1  UNL     1      -0.606  53.850 -24.549  1.00  0.00     0.036 C 
HETATM   30  C4  UNL     1      -3.280  52.248 -24.455  1.00  0.00     0.043 C 
ENDBRANCH   1  27
TORSDOF 7
ENDMDL
MODEL 9
REMARK minimizedAffinity -7.54473495
REMARK  7 active torsions:
REMARK  status: ('A' for Active; 'I' for Inactive)
REMARK    1  A    between atoms: C3_3  and  C5_5 
REMARK    2  A    between atoms: C6_6  and  C7_7 
REMARK    3  A    between atoms: C8_8  and  C9_9 
REMARK    4  A    between atoms: C10_10  and  C12_12 
REMARK    5  A    between atoms: C12_12  and  C13_14 
REMARK    6  A    between atoms: C13_14  and  C15_16 
REMARK    7  A    between atoms: C15_16  and  O2_17 
ROOT
HETATM    1  C5  UNL     1      -2.816  49.458 -21.302  1.00  0.00     0.058 C 
HETATM    2  C6  UNL     1      -2.381  49.187 -22.791  1.00  0.00     0.024 C 
HETATM    3  C16 UNL     1      -1.840  50.472 -23.477  1.00  0.00     0.003 C 
HETATM    4  C17 UNL     1      -1.509  50.262 -24.972  1.00  0.00     0.041 C 
HETATM    5  C18 UNL     1      -0.897  51.483 -25.591  1.00  0.00     0.157 A 
HETATM    6  O3  UNL     1       0.530  51.565 -25.423  1.00  0.00    -0.370 OA
HETATM    7  C19 UNL     1      -0.249  52.555 -24.743  1.00  0.00     0.084 A 
HETATM    8  C20 UNL     1      -0.078  53.933 -25.300  1.00  0.00     0.049 C 
HETATM    9  C21 UNL     1      -0.251  52.423 -23.245  1.00  0.00     0.048 C 
HETATM   10  C22 UNL     1      -0.568  50.996 -22.761  1.00  0.00     0.025 C 
HETATM   11  C23 UNL     1      -0.660  50.954 -21.257  1.00  0.00     0.162 A 
HETATM   12  O4  UNL     1      -0.400  49.633 -20.741  1.00  0.00    -0.368 OA
HETATM   13  C24 UNL     1      -1.714  50.160 -20.515  1.00  0.00     0.092 A 
HETATM   14  C25 UNL     1      -1.959  50.434 -19.058  1.00  0.00     0.049 C 
ENDROOT
BRANCH   2  15
HETATM   15  C7  UNL     1      -3.491  48.532 -23.594  1.00  0.00    -0.021 C 
HETATM   16  C8  UNL     1      -4.078  49.102 -24.659  1.00  0.00    -0.003 C 
BRANCH  16  17
HETATM   17  C9  UNL     1      -5.134  48.451 -25.405  1.00  0.00     0.010 C 
HETATM   18  C10 UNL     1      -5.139  48.200 -26.727  1.00  0.00    -0.016 C 
HETATM   19  C11 UNL     1      -4.046  48.520 -27.709  1.00  0.00     0.052 C 
BRANCH  18  20
HETATM   20  C12 UNL     1      -6.313  47.489 -27.354  1.00  0.00     0.161 C 
HETATM   21  O1  UNL     1      -6.175  47.046 -28.498  1.00  0.00    -0.292 OA
BRANCH  20  22
HETATM   22  C13 UNL     1      -7.616  47.301 -26.564  1.00  0.00     0.080 C 
HETATM   23  C14 UNL     1      -8.720  48.242 -27.052  1.00  0.00     0.020 C 
BRANCH  22  24
HETATM   24  C15 UNL     1      -8.074  45.838 -26.634  1.00  0.00     0.176 C 
BRANCH  24  25
HETATM   25  O2  UNL     1      -9.472  45.745 -26.887  1.00  0.00    -0.400 OA
HETATM   26  H22 UNL     1      -9.605  44.989 -27.487  1.00  0.00     0.209 HD
ENDBRANCH  24  25
ENDBRANCH  22  24
ENDBRANCH  20  22
ENDBRANCH  18  20
ENDBRANCH  16  17
ENDBRANCH   2  15
BRANCH   1  27
HETATM   27  C3  UNL     1      -4.203  50.128 -21.152  1.00  0.00    -0.080 C 
HETATM   28  C2  UNL     1      -5.277  49.468 -20.667  1.00  0.00    -0.028 C 
HETATM   29  C1  UNL     1      -6.670  49.979 -20.472  1.00  0.00     0.036 C 
HETATM   30  C4  UNL     1      -4.254  51.547 -21.668  1.00  0.00     0.043 C 
ENDBRANCH   1  27
TORSDOF 7
ENDMDL
