MODEL 1
REMARK minimizedAffinity -8.37535191
REMARK CNNscore 0.569123685
REMARK CNNaffinity 7.48078012
REMARK  12 active torsions:
REMARK  status: ('A' for Active; 'I' for Inactive)
REMARK    1  A    between atoms: O1_2  and  C2_3 
REMARK    2  A    between atoms: C2_3  and  C5_6 
REMARK    3  A    between atoms: C6_7  and  C7_8 
REMARK    4  A    between atoms: C7_8  and  C8_9 
REMARK    5  A    between atoms: C8_9  and  C10_11 
REMARK    6  A    between atoms: C28_30  and  O3_31 
REMARK    7  A    between atoms: O3_31  and  C29_32 
REMARK    8  A    between atoms: C30_34  and  C31_35 
REMARK    9  A    between atoms: C31_35  and  O5_36 
REMARK   10  A    between atoms: C32_37  and  O6_38 
REMARK   11  A    between atoms: C33_39  and  O7_40 
REMARK   12  A    between atoms: C34_41  and  O8_42 
ROOT
HETATM    1  C10 UNL     1      -7.501   6.311  14.514  1.00  0.00    -0.002 C 
HETATM    2  C11 UNL     1      -7.194   5.550  15.848  1.00  0.00     0.006 C 
HETATM    3  C12 UNL     1      -5.682   5.711  16.138  1.00  0.00     0.011 C 
HETATM    4  C13 UNL     1      -5.242   6.844  15.196  1.00  0.00    -0.029 C 
HETATM    5  C14 UNL     1      -5.724   8.171  15.914  1.00  0.00     0.016 C 
HETATM    6  C15 UNL     1      -3.711   7.052  14.902  1.00  0.00     0.028 C 
HETATM    7  C16 UNL     1      -2.653   6.112  15.409  1.00  0.00    -0.021 C 
HETATM    8  C17 UNL     1      -1.419   6.149  14.866  1.00  0.00     0.008 C 
HETATM    9  C18 UNL     1      -1.062   7.043  13.665  1.00  0.00     0.092 C 
HETATM   10  O2  UNL     1      -1.479   6.246  12.546  1.00  0.00    -0.374 OA
HETATM   11  C19 UNL     1      -2.907   6.464  12.405  1.00  0.00     0.179 C 
HETATM   12  C20 UNL     1      -3.361   7.550  13.445  1.00  0.00    -0.004 C 
HETATM   13  C21 UNL     1      -4.524   8.375  12.880  1.00  0.00     0.014 C 
HETATM   14  C22 UNL     1      -5.902   7.657  12.885  1.00  0.00     0.011 C 
HETATM   15  C23 UNL     1      -6.068   6.503  13.908  1.00  0.00    -0.032 C 
HETATM   16  C24 UNL     1      -5.648   5.138  13.282  1.00  0.00     0.016 C 
HETATM   17  C25 UNL     1      -1.993   8.272  13.520  1.00  0.00     0.036 C 
HETATM   18  C26 UNL     1      -1.703   9.351  14.563  1.00  0.00     0.011 C 
HETATM   19  C27 UNL     1      -0.233   9.768  14.502  1.00  0.00     0.033 C 
HETATM   20  C28 UNL     1       0.722   8.566  14.636  1.00  0.00     0.136 C 
HETATM   21  C35 UNL     1       0.443   7.462  13.563  1.00  0.00     0.014 C 
HETATM   22  C36 UNL     1       0.785   7.979  12.138  1.00  0.00     0.021 C 
HETATM   23  C37 UNL     1       1.400   6.265  13.793  1.00  0.00     0.021 C 
ENDROOT
BRANCH  20  24
HETATM   24  O3  UNL     1       2.097   8.969  14.536  1.00  0.00    -0.352 OA
BRANCH  24  25
HETATM   25  C29 UNL     1       2.913   8.558  15.634  1.00  0.00     0.292 C 
HETATM   26  O4  UNL     1       2.982   9.574  16.628  1.00  0.00    -0.348 OA
HETATM   27  C30 UNL     1       3.640  10.798  16.246  1.00  0.00     0.179 C 
HETATM   28  C32 UNL     1       4.752  10.595  15.205  1.00  0.00     0.180 C 
HETATM   29  C33 UNL     1       5.359   9.215  15.404  1.00  0.00     0.183 C 
HETATM   30  C34 UNL     1       4.308   8.152  15.088  1.00  0.00     0.204 C 
BRANCH  27  31
HETATM   31  C31 UNL     1       2.639  11.865  15.779  1.00  0.00     0.198 C 
BRANCH  31  32
HETATM   32  O5  UNL     1       3.080  12.468  14.561  1.00  0.00    -0.398 OA
HETATM   33  H48 UNL     1       2.391  13.099  14.293  1.00  0.00     0.209 HD
ENDBRANCH  31  32
ENDBRANCH  27  31
BRANCH  28  34
HETATM   34  O6  UNL     1       5.765  11.602  15.339  1.00  0.00    -0.390 OA
HETATM   35  H50 UNL     1       6.546  11.235  14.879  1.00  0.00     0.210 HD
ENDBRANCH  28  34
BRANCH  29  36
HETATM   36  O7  UNL     1       6.496   9.056  14.535  1.00  0.00    -0.390 OA
HETATM   37  H52 UNL     1       6.780   8.130  14.665  1.00  0.00     0.210 HD
ENDBRANCH  29  36
BRANCH  30  38
HETATM   38  O8  UNL     1       4.779   6.904  15.639  1.00  0.00    -0.388 OA
HETATM   39  H54 UNL     1       4.149   6.212  15.367  1.00  0.00     0.210 HD
ENDBRANCH  30  38
ENDBRANCH  24  25
ENDBRANCH  20  24
BRANCH   1  40
HETATM   40  C8  UNL     1      -8.635   5.621  13.693  1.00  0.00    -0.010 C 
HETATM   41  C9  UNL     1      -8.082   4.583  12.712  1.00  0.00     0.010 C 
BRANCH  40  42
HETATM   42  C7  UNL     1      -9.461   6.690  12.925  1.00  0.00     0.031 C 
BRANCH  42  43
HETATM   43  C6  UNL     1     -10.880   6.968  13.363  1.00  0.00    -0.027 C 
HETATM   44  C5  UNL     1     -11.730   7.875  12.848  1.00  0.00     0.006 C 
BRANCH  44  45
HETATM   45  C2  UNL     1     -13.159   8.158  13.278  1.00  0.00     0.070 C 
HETATM   46  C3  UNL     1     -13.334   8.669  14.714  1.00  0.00     0.050 C 
HETATM   47  C4  UNL     1     -13.955   6.850  13.137  1.00  0.00     0.050 C 
BRANCH  45  48
HETATM   48  O1  UNL     1     -13.749   9.060  12.324  1.00  0.00    -0.382 OA
HETATM   49  C1  UNL     1     -13.082  10.301  12.142  1.00  0.00     0.202 C 
ENDBRANCH  45  48
ENDBRANCH  44  45
ENDBRANCH  42  43
ENDBRANCH  40  42
ENDBRANCH   1  40
TORSDOF 12
ENDMDL
MODEL 2
REMARK minimizedAffinity -7.72430658
REMARK CNNscore 0.469775677
REMARK CNNaffinity 7.46614313
REMARK  12 active torsions:
REMARK  status: ('A' for Active; 'I' for Inactive)
REMARK    1  A    between atoms: O1_2  and  C2_3 
REMARK    2  A    between atoms: C2_3  and  C5_6 
REMARK    3  A    between atoms: C6_7  and  C7_8 
REMARK    4  A    between atoms: C7_8  and  C8_9 
REMARK    5  A    between atoms: C8_9  and  C10_11 
REMARK    6  A    between atoms: C28_30  and  O3_31 
REMARK    7  A    between atoms: O3_31  and  C29_32 
REMARK    8  A    between atoms: C30_34  and  C31_35 
REMARK    9  A    between atoms: C31_35  and  O5_36 
REMARK   10  A    between atoms: C32_37  and  O6_38 
REMARK   11  A    between atoms: C33_39  and  O7_40 
REMARK   12  A    between atoms: C34_41  and  O8_42 
ROOT
HETATM    1  C10 UNL     1      -7.982   6.473  14.524  1.00  0.00    -0.002 C 
HETATM    2  C11 UNL     1      -7.751   5.739  15.888  1.00  0.00     0.006 C 
HETATM    3  C12 UNL     1      -6.239   5.816  16.208  1.00  0.00     0.011 C 
HETATM    4  C13 UNL     1      -5.709   6.887  15.239  1.00  0.00    -0.029 C 
HETATM    5  C14 UNL     1      -6.122   8.265  15.902  1.00  0.00     0.016 C 
HETATM    6  C15 UNL     1      -4.162   6.989  14.973  1.00  0.00     0.028 C 
HETATM    7  C16 UNL     1      -3.176   6.003  15.536  1.00  0.00    -0.021 C 
HETATM    8  C17 UNL     1      -1.932   5.946  15.020  1.00  0.00     0.008 C 
HETATM    9  C18 UNL     1      -1.494   6.774  13.799  1.00  0.00     0.092 C 
HETATM   10  O2  UNL     1      -1.936   5.966  12.697  1.00  0.00    -0.374 OA
HETATM   11  C19 UNL     1      -3.345   6.268  12.517  1.00  0.00     0.179 C 
HETATM   12  C20 UNL     1      -3.751   7.415  13.510  1.00  0.00    -0.004 C 
HETATM   13  C21 UNL     1      -4.848   8.291  12.891  1.00  0.00     0.014 C 
HETATM   14  C22 UNL     1      -6.269   7.661  12.888  1.00  0.00     0.011 C 
HETATM   15  C23 UNL     1      -6.528   6.554  13.944  1.00  0.00    -0.032 C 
HETATM   16  C24 UNL     1      -6.182   5.145  13.374  1.00  0.00     0.016 C 
HETATM   17  C25 UNL     1      -2.343   8.053  13.592  1.00  0.00     0.036 C 
HETATM   18  C26 UNL     1      -2.007   9.147  14.605  1.00  0.00     0.011 C 
HETATM   19  C27 UNL     1      -0.513   9.469  14.564  1.00  0.00     0.033 C 
HETATM   20  C28 UNL     1       0.361   8.215  14.760  1.00  0.00     0.136 C 
HETATM   21  C35 UNL     1       0.036   7.095  13.717  1.00  0.00     0.014 C 
HETATM   22  C36 UNL     1       0.439   7.541  12.284  1.00  0.00     0.021 C 
HETATM   23  C37 UNL     1       0.911   5.849  14.008  1.00  0.00     0.021 C 
ENDROOT
BRANCH  20  24
HETATM   24  O3  UNL     1       1.761   8.529  14.678  1.00  0.00    -0.352 OA
BRANCH  24  25
HETATM   25  C29 UNL     1       2.052   9.928  14.686  1.00  0.00     0.292 C 
HETATM   26  O4  UNL     1       2.684  10.326  13.475  1.00  0.00    -0.348 OA
HETATM   27  C30 UNL     1       3.994   9.779  13.228  1.00  0.00     0.179 C 
HETATM   28  C32 UNL     1       4.791   9.496  14.511  1.00  0.00     0.180 C 
HETATM   29  C33 UNL     1       4.366  10.494  15.578  1.00  0.00     0.183 C 
HETATM   30  C34 UNL     1       2.903  10.247  15.943  1.00  0.00     0.204 C 
BRANCH  27  31
HETATM   31  C31 UNL     1       3.935   8.532  12.333  1.00  0.00     0.198 C 
BRANCH  31  32
HETATM   32  O5  UNL     1       4.134   7.348  13.108  1.00  0.00    -0.398 OA
HETATM   33  H48 UNL     1       4.043   6.594  12.501  1.00  0.00     0.209 HD
ENDBRANCH  31  32
ENDBRANCH  27  31
BRANCH  28  34
HETATM   34  O6  UNL     1       6.200   9.604  14.269  1.00  0.00    -0.390 OA
HETATM   35  H50 UNL     1       6.599   9.718  15.156  1.00  0.00     0.210 HD
ENDBRANCH  28  34
BRANCH  29  36
HETATM   36  O7  UNL     1       5.198  10.341  16.742  1.00  0.00    -0.390 OA
HETATM   37  H52 UNL     1       4.819  10.956  17.400  1.00  0.00     0.210 HD
ENDBRANCH  29  36
BRANCH  30  38
HETATM   38  O8  UNL     1       2.435  11.415  16.651  1.00  0.00    -0.388 OA
HETATM   39  H54 UNL     1       1.529  11.224  16.955  1.00  0.00     0.210 HD
ENDBRANCH  30  38
ENDBRANCH  24  25
ENDBRANCH  20  24
BRANCH   1  40
HETATM   40  C8  UNL     1      -9.140   5.827  13.700  1.00  0.00    -0.010 C 
HETATM   41  C9  UNL     1      -8.617   5.035  12.499  1.00  0.00     0.010 C 
BRANCH  40  42
HETATM   42  C7  UNL     1     -10.130   6.926  13.221  1.00  0.00     0.031 C 
BRANCH  42  43
HETATM   43  C6  UNL     1     -10.885   7.727  14.255  1.00  0.00    -0.027 C 
HETATM   44  C5  UNL     1     -11.225   9.027  14.190  1.00  0.00     0.006 C 
BRANCH  44  45
HETATM   45  C2  UNL     1     -11.988   9.840  15.221  1.00  0.00     0.070 C 
HETATM   46  C3  UNL     1     -13.459  10.125  14.889  1.00  0.00     0.050 C 
HETATM   47  C4  UNL     1     -11.265  11.189  15.378  1.00  0.00     0.050 C 
BRANCH  45  48
HETATM   48  O1  UNL     1     -11.855   9.193  16.499  1.00  0.00    -0.382 OA
HETATM   49  C1  UNL     1     -10.785   9.642  17.319  1.00  0.00     0.202 C 
ENDBRANCH  45  48
ENDBRANCH  44  45
ENDBRANCH  42  43
ENDBRANCH  40  42
ENDBRANCH   1  40
TORSDOF 12
ENDMDL
MODEL 3
REMARK minimizedAffinity -7.54738998
REMARK CNNscore 0.445644021
REMARK CNNaffinity 7.06443453
REMARK  12 active torsions:
REMARK  status: ('A' for Active; 'I' for Inactive)
REMARK    1  A    between atoms: O1_2  and  C2_3 
REMARK    2  A    between atoms: C2_3  and  C5_6 
REMARK    3  A    between atoms: C6_7  and  C7_8 
REMARK    4  A    between atoms: C7_8  and  C8_9 
REMARK    5  A    between atoms: C8_9  and  C10_11 
REMARK    6  A    between atoms: C28_30  and  O3_31 
REMARK    7  A    between atoms: O3_31  and  C29_32 
REMARK    8  A    between atoms: C30_34  and  C31_35 
REMARK    9  A    between atoms: C31_35  and  O5_36 
REMARK   10  A    between atoms: C32_37  and  O6_38 
REMARK   11  A    between atoms: C33_39  and  O7_40 
REMARK   12  A    between atoms: C34_41  and  O8_42 
ROOT
HETATM    1  C10 UNL     1      -3.021   5.949  13.279  1.00  0.00    -0.002 C 
HETATM    2  C11 UNL     1      -3.863   5.721  14.579  1.00  0.00     0.006 C 
HETATM    3  C12 UNL     1      -3.623   6.936  15.507  1.00  0.00     0.011 C 
HETATM    4  C13 UNL     1      -2.968   7.981  14.588  1.00  0.00    -0.029 C 
HETATM    5  C14 UNL     1      -4.171   8.597  13.762  1.00  0.00     0.016 C 
HETATM    6  C15 UNL     1      -2.218   9.208  15.227  1.00  0.00     0.028 C 
HETATM    7  C16 UNL     1      -2.006   9.347  16.709  1.00  0.00    -0.021 C 
HETATM    8  C17 UNL     1      -1.093  10.227  17.166  1.00  0.00     0.008 C 
HETATM    9  C18 UNL     1      -0.167  11.031  16.235  1.00  0.00     0.092 C 
HETATM   10  O2  UNL     1       0.909  10.112  15.992  1.00  0.00    -0.374 OA
HETATM   11  C19 UNL     1       0.453   9.229  14.934  1.00  0.00     0.179 C 
HETATM   12  C20 UNL     1      -0.952   9.718  14.432  1.00  0.00    -0.004 C 
HETATM   13  C21 UNL     1      -1.117   9.420  12.937  1.00  0.00     0.014 C 
HETATM   14  C22 UNL     1      -1.405   7.932  12.590  1.00  0.00     0.011 C 
HETATM   15  C23 UNL     1      -2.025   7.074  13.724  1.00  0.00    -0.032 C 
HETATM   16  C24 UNL     1      -0.915   6.393  14.581  1.00  0.00     0.016 C 
HETATM   17  C25 UNL     1      -0.740  11.205  14.806  1.00  0.00     0.036 C 
HETATM   18  C26 UNL     1      -1.879  12.223  14.754  1.00  0.00     0.011 C 
HETATM   19  C27 UNL     1      -1.419  13.565  15.326  1.00  0.00     0.033 C 
HETATM   20  C28 UNL     1      -0.836  13.426  16.746  1.00  0.00     0.136 C 
HETATM   21  C35 UNL     1       0.341  12.396  16.808  1.00  0.00     0.014 C 
HETATM   22  C36 UNL     1       1.570  12.915  16.011  1.00  0.00     0.021 C 
HETATM   23  C37 UNL     1       0.838  12.268  18.270  1.00  0.00     0.021 C 
ENDROOT
BRANCH  20  24
HETATM   24  O3  UNL     1      -0.372  14.687  17.252  1.00  0.00    -0.352 OA
BRANCH  24  25
HETATM   25  C29 UNL     1      -1.202  15.255  18.269  1.00  0.00     0.292 C 
HETATM   26  O4  UNL     1      -1.972  16.336  17.755  1.00  0.00    -0.348 OA
HETATM   27  C30 UNL     1      -1.236  17.498  17.326  1.00  0.00     0.179 C 
HETATM   28  C32 UNL     1       0.065  17.723  18.112  1.00  0.00     0.180 C 
HETATM   29  C33 UNL     1      -0.119  17.186  19.523  1.00  0.00     0.183 C 
HETATM   30  C34 UNL     1      -0.303  15.670  19.464  1.00  0.00     0.204 C 
BRANCH  27  31
HETATM   31  C31 UNL     1      -0.968  17.480  15.814  1.00  0.00     0.198 C 
BRANCH  31  32
HETATM   32  O5  UNL     1      -2.182  17.269  15.091  1.00  0.00    -0.398 OA
HETATM   33  H48 UNL     1      -1.959  17.310  14.146  1.00  0.00     0.209 HD
ENDBRANCH  31  32
ENDBRANCH  27  31
BRANCH  28  34
HETATM   34  O6  UNL     1       0.398  19.117  18.156  1.00  0.00    -0.390 OA
HETATM   35  H50 UNL     1       1.027  19.201  18.901  1.00  0.00     0.210 HD
ENDBRANCH  28  34
BRANCH  29  36
HETATM   36  O7  UNL     1       1.034  17.511  20.320  1.00  0.00    -0.390 OA
HETATM   37  H52 UNL     1       0.874  17.073  21.178  1.00  0.00     0.210 HD
ENDBRANCH  29  36
BRANCH  30  38
HETATM   38  O8  UNL     1      -0.842  15.253  20.736  1.00  0.00    -0.388 OA
HETATM   39  H54 UNL     1      -0.882  14.279  20.728  1.00  0.00     0.210 HD
ENDBRANCH  30  38
ENDBRANCH  24  25
ENDBRANCH  20  24
BRANCH   1  40
HETATM   40  C8  UNL     1      -2.498   4.606  12.677  1.00  0.00    -0.010 C 
HETATM   41  C9  UNL     1      -1.543   4.837  11.503  1.00  0.00     0.010 C 
BRANCH  40  42
HETATM   42  C7  UNL     1      -3.696   3.726  12.220  1.00  0.00     0.031 C 
BRANCH  42  43
HETATM   43  C6  UNL     1      -5.049   3.952  12.853  1.00  0.00    -0.027 C 
HETATM   44  C5  UNL     1      -6.247   3.941  12.242  1.00  0.00     0.006 C 
BRANCH  44  45
HETATM   45  C2  UNL     1      -7.613   4.162  12.869  1.00  0.00     0.070 C 
HETATM   46  C3  UNL     1      -8.444   5.304  12.269  1.00  0.00     0.050 C 
HETATM   47  C4  UNL     1      -7.396   4.463  14.362  1.00  0.00     0.050 C 
BRANCH  45  48
HETATM   48  O1  UNL     1      -8.332   2.916  12.839  1.00  0.00    -0.382 OA
HETATM   49  C1  UNL     1      -7.563   1.757  12.556  1.00  0.00     0.202 C 
ENDBRANCH  45  48
ENDBRANCH  44  45
ENDBRANCH  42  43
ENDBRANCH  40  42
ENDBRANCH   1  40
TORSDOF 12
ENDMDL
MODEL 4
REMARK minimizedAffinity -9.32229996
REMARK CNNscore 0.440701365
REMARK CNNaffinity 7.146523
REMARK  12 active torsions:
REMARK  status: ('A' for Active; 'I' for Inactive)
REMARK    1  A    between atoms: O1_2  and  C2_3 
REMARK    2  A    between atoms: C2_3  and  C5_6 
REMARK    3  A    between atoms: C6_7  and  C7_8 
REMARK    4  A    between atoms: C7_8  and  C8_9 
REMARK    5  A    between atoms: C8_9  and  C10_11 
REMARK    6  A    between atoms: C28_30  and  O3_31 
REMARK    7  A    between atoms: O3_31  and  C29_32 
REMARK    8  A    between atoms: C30_34  and  C31_35 
REMARK    9  A    between atoms: C31_35  and  O5_36 
REMARK   10  A    between atoms: C32_37  and  O6_38 
REMARK   11  A    between atoms: C33_39  and  O7_40 
REMARK   12  A    between atoms: C34_41  and  O8_42 
ROOT
HETATM    1  C10 UNL     1      -5.616   6.333  14.587  1.00  0.00    -0.002 C 
HETATM    2  C11 UNL     1      -5.558   5.129  13.587  1.00  0.00     0.006 C 
HETATM    3  C12 UNL     1      -4.119   5.064  13.020  1.00  0.00     0.011 C 
HETATM    4  C13 UNL     1      -3.307   5.968  13.963  1.00  0.00    -0.029 C 
HETATM    5  C14 UNL     1      -3.054   5.079  15.250  1.00  0.00     0.016 C 
HETATM    6  C15 UNL     1      -1.889   6.478  13.512  1.00  0.00     0.028 C 
HETATM    7  C16 UNL     1      -1.333   6.217  12.140  1.00  0.00    -0.021 C 
HETATM    8  C17 UNL     1      -0.281   6.940  11.705  1.00  0.00     0.008 C 
HETATM    9  C18 UNL     1       0.322   8.105  12.509  1.00  0.00     0.092 C 
HETATM   10  O2  UNL     1      -0.524   9.208  12.147  1.00  0.00    -0.374 OA
HETATM   11  C19 UNL     1      -1.700   9.107  12.991  1.00  0.00     0.179 C 
HETATM   12  C20 UNL     1      -1.500   7.925  14.006  1.00  0.00    -0.004 C 
HETATM   13  C21 UNL     1      -2.207   8.235  15.331  1.00  0.00     0.014 C 
HETATM   14  C22 UNL     1      -3.753   8.076  15.304  1.00  0.00     0.011 C 
HETATM   15  C23 UNL     1      -4.324   7.136  14.209  1.00  0.00    -0.032 C 
HETATM   16  C24 UNL     1      -4.640   7.927  12.903  1.00  0.00     0.016 C 
HETATM   17  C25 UNL     1       0.047   8.005  14.031  1.00  0.00     0.036 C 
HETATM   18  C26 UNL     1       0.901   6.936  14.710  1.00  0.00     0.011 C 
HETATM   19  C27 UNL     1       2.385   7.189  14.438  1.00  0.00     0.033 C 
HETATM   20  C28 UNL     1       2.692   7.302  12.932  1.00  0.00     0.136 C 
HETATM   21  C35 UNL     1       1.833   8.405  12.230  1.00  0.00     0.014 C 
HETATM   22  C36 UNL     1       2.227   9.819  12.740  1.00  0.00     0.021 C 
HETATM   23  C37 UNL     1       2.155   8.423  10.714  1.00  0.00     0.021 C 
ENDROOT
BRANCH  20  24
HETATM   24  O3  UNL     1       4.082   7.580  12.696  1.00  0.00    -0.352 OA
BRANCH  24  25
HETATM   25  C29 UNL     1       4.607   8.657  13.476  1.00  0.00     0.292 C 
HETATM   26  O4  UNL     1       5.386   9.537  12.672  1.00  0.00    -0.348 OA
HETATM   27  C30 UNL     1       6.597   8.990  12.115  1.00  0.00     0.179 C 
HETATM   28  C32 UNL     1       7.237   7.901  12.991  1.00  0.00     0.180 C 
HETATM   29  C33 UNL     1       6.912   8.196  14.448  1.00  0.00     0.183 C 
HETATM   30  C34 UNL     1       5.406   8.061  14.665  1.00  0.00     0.204 C 
BRANCH  27  31
HETATM   31  C31 UNL     1       6.391   8.487  10.679  1.00  0.00     0.198 C 
BRANCH  31  32
HETATM   32  O5  UNL     1       6.363   7.059  10.646  1.00  0.00    -0.398 OA
HETATM   33  H48 UNL     1       6.188   6.801   9.725  1.00  0.00     0.209 HD
ENDBRANCH  31  32
ENDBRANCH  27  31
BRANCH  28  34
HETATM   34  O6  UNL     1       8.658   7.865  12.801  1.00  0.00    -0.390 OA
HETATM   35  H50 UNL     1       9.004   7.391  13.585  1.00  0.00     0.210 HD
ENDBRANCH  28  34
BRANCH  29  36
HETATM   36  O7  UNL     1       7.617   7.272  15.297  1.00  0.00    -0.390 OA
HETATM   37  H52 UNL     1       7.302   7.475  16.199  1.00  0.00     0.210 HD
ENDBRANCH  29  36
BRANCH  30  38
HETATM   38  O8  UNL     1       5.094   8.700  15.921  1.00  0.00    -0.388 OA
HETATM   39  H54 UNL     1       4.149   8.543  16.098  1.00  0.00     0.210 HD
ENDBRANCH  30  38
ENDBRANCH  24  25
ENDBRANCH  20  24
BRANCH   1  40
HETATM   40  C8  UNL     1      -7.017   7.022  14.593  1.00  0.00    -0.010 C 
HETATM   41  C9  UNL     1      -7.404   7.522  15.987  1.00  0.00     0.010 C 
BRANCH  40  42
HETATM   42  C7  UNL     1      -8.097   6.036  14.065  1.00  0.00     0.031 C 
BRANCH  42  43
HETATM   43  C6  UNL     1      -9.453   6.579  13.679  1.00  0.00    -0.027 C 
HETATM   44  C5  UNL     1     -10.311   7.258  14.461  1.00  0.00     0.006 C 
BRANCH  44  45
HETATM   45  C2  UNL     1     -11.674   7.812  14.082  1.00  0.00     0.070 C 
HETATM   46  C3  UNL     1     -12.863   6.870  14.314  1.00  0.00     0.050 C 
HETATM   47  C4  UNL     1     -11.632   8.168  12.586  1.00  0.00     0.050 C 
BRANCH  45  48
HETATM   48  O1  UNL     1     -11.857   9.067  14.761  1.00  0.00    -0.382 OA
HETATM   49  C1  UNL     1     -10.891  10.071  14.491  1.00  0.00     0.202 C 
ENDBRANCH  45  48
ENDBRANCH  44  45
ENDBRANCH  42  43
ENDBRANCH  40  42
ENDBRANCH   1  40
TORSDOF 12
ENDMDL
MODEL 5
REMARK minimizedAffinity -8.15658474
REMARK CNNscore 0.382096618
REMARK CNNaffinity 7.50510645
REMARK  12 active torsions:
REMARK  status: ('A' for Active; 'I' for Inactive)
REMARK    1  A    between atoms: O1_2  and  C2_3 
REMARK    2  A    between atoms: C2_3  and  C5_6 
REMARK    3  A    between atoms: C6_7  and  C7_8 
REMARK    4  A    between atoms: C7_8  and  C8_9 
REMARK    5  A    between atoms: C8_9  and  C10_11 
REMARK    6  A    between atoms: C28_30  and  O3_31 
REMARK    7  A    between atoms: O3_31  and  C29_32 
REMARK    8  A    between atoms: C30_34  and  C31_35 
REMARK    9  A    between atoms: C31_35  and  O5_36 
REMARK   10  A    between atoms: C32_37  and  O6_38 
REMARK   11  A    between atoms: C33_39  and  O7_40 
REMARK   12  A    between atoms: C34_41  and  O8_42 
ROOT
HETATM    1  C10 UNL     1      -6.523   6.723  14.309  1.00  0.00    -0.002 C 
HETATM    2  C11 UNL     1      -6.273   5.974  15.661  1.00  0.00     0.006 C 
HETATM    3  C12 UNL     1      -4.813   6.258  16.087  1.00  0.00     0.011 C 
HETATM    4  C13 UNL     1      -4.387   7.435  15.193  1.00  0.00    -0.029 C 
HETATM    5  C14 UNL     1      -5.043   8.708  15.870  1.00  0.00     0.016 C 
HETATM    6  C15 UNL     1      -2.859   7.774  15.039  1.00  0.00     0.028 C 
HETATM    7  C16 UNL     1      -1.775   6.920  15.636  1.00  0.00    -0.021 C 
HETATM    8  C17 UNL     1      -0.506   7.067  15.207  1.00  0.00     0.008 C 
HETATM    9  C18 UNL     1      -0.119   8.001  14.047  1.00  0.00     0.092 C 
HETATM   10  O2  UNL     1      -0.365   7.185  12.891  1.00  0.00    -0.374 OA
HETATM   11  C19 UNL     1      -1.789   7.285  12.623  1.00  0.00     0.179 C 
HETATM   12  C20 UNL     1      -2.424   8.317  13.622  1.00  0.00    -0.004 C 
HETATM   13  C21 UNL     1      -3.597   9.048  12.958  1.00  0.00     0.014 C 
HETATM   14  C22 UNL     1      -4.905   8.217  12.835  1.00  0.00     0.011 C 
HETATM   15  C23 UNL     1      -5.063   7.041  13.834  1.00  0.00    -0.032 C 
HETATM   16  C24 UNL     1      -4.475   5.723  13.244  1.00  0.00     0.016 C 
HETATM   17  C25 UNL     1      -1.134   9.150  13.823  1.00  0.00     0.036 C 
HETATM   18  C26 UNL     1      -1.031  10.237  14.892  1.00  0.00     0.011 C 
HETATM   19  C27 UNL     1       0.398  10.777  14.966  1.00  0.00     0.033 C 
HETATM   20  C28 UNL     1       1.435   9.657  15.180  1.00  0.00     0.136 C 
HETATM   21  C35 UNL     1       1.348   8.546  14.082  1.00  0.00     0.014 C 
HETATM   22  C36 UNL     1       1.771   9.107  12.696  1.00  0.00     0.021 C 
HETATM   23  C37 UNL     1       2.378   7.431  14.393  1.00  0.00     0.021 C 
ENDROOT
BRANCH  20  24
HETATM   24  O3  UNL     1       2.774  10.175  15.206  1.00  0.00    -0.352 OA
BRANCH  24  25
HETATM   25  C29 UNL     1       2.911  11.420  15.896  1.00  0.00     0.292 C 
HETATM   26  O4  UNL     1       3.610  12.371  15.100  1.00  0.00    -0.348 OA
HETATM   27  C30 UNL     1       4.989  12.071  14.809  1.00  0.00     0.179 C 
HETATM   28  C32 UNL     1       5.684  11.260  15.913  1.00  0.00     0.180 C 
HETATM   29  C33 UNL     1       5.054  11.619  17.251  1.00  0.00     0.183 C 
HETATM   30  C34 UNL     1       3.598  11.155  17.261  1.00  0.00     0.204 C 
BRANCH  27  31
HETATM   31  C31 UNL     1       5.150  11.388  13.443  1.00  0.00     0.198 C 
BRANCH  31  32
HETATM   32  O5  UNL     1       5.407   9.992  13.607  1.00  0.00    -0.398 OA
HETATM   33  H48 UNL     1       5.456   9.607  12.716  1.00  0.00     0.209 HD
ENDBRANCH  31  32
ENDBRANCH  27  31
BRANCH  28  34
HETATM   34  O6  UNL     1       7.091  11.540  15.941  1.00  0.00    -0.390 OA
HETATM   35  H50 UNL     1       7.388  11.245  16.825  1.00  0.00     0.210 HD
ENDBRANCH  28  34
BRANCH  29  36
HETATM   36  O7  UNL     1       5.782  10.980  18.316  1.00  0.00    -0.390 OA
HETATM   37  H52 UNL     1       5.277  11.195  19.124  1.00  0.00     0.210 HD
ENDBRANCH  29  36
BRANCH  30  38
HETATM   38  O8  UNL     1       2.941  11.829  18.355  1.00  0.00    -0.388 OA
HETATM   39  H54 UNL     1       2.036  11.473  18.412  1.00  0.00     0.210 HD
ENDBRANCH  30  38
ENDBRANCH  24  25
ENDBRANCH  20  24
BRANCH   1  40
HETATM   40  C8  UNL     1      -7.517   5.949  13.386  1.00  0.00    -0.010 C 
HETATM   41  C9  UNL     1      -8.933   6.528  13.455  1.00  0.00     0.010 C 
BRANCH  40  42
HETATM   42  C7  UNL     1      -7.539   4.443  13.773  1.00  0.00     0.031 C 
BRANCH  42  43
HETATM   43  C6  UNL     1      -6.992   3.431  12.794  1.00  0.00    -0.027 C 
HETATM   44  C5  UNL     1      -5.782   3.437  12.207  1.00  0.00     0.006 C 
BRANCH  44  45
HETATM   45  C2  UNL     1      -5.221   2.422  11.226  1.00  0.00     0.070 C 
HETATM   46  C3  UNL     1      -6.123   1.218  10.923  1.00  0.00     0.050 C 
HETATM   47  C4  UNL     1      -3.899   1.893  11.810  1.00  0.00     0.050 C 
BRANCH  45  48
HETATM   48  O1  UNL     1      -4.847   3.114  10.021  1.00  0.00    -0.382 OA
HETATM   49  C1  UNL     1      -5.802   3.100   8.970  1.00  0.00     0.202 C 
ENDBRANCH  45  48
ENDBRANCH  44  45
ENDBRANCH  42  43
ENDBRANCH  40  42
ENDBRANCH   1  40
TORSDOF 12
ENDMDL
MODEL 6
REMARK minimizedAffinity -8.61212349
REMARK CNNscore 0.357366383
REMARK CNNaffinity 7.30478716
REMARK  12 active torsions:
REMARK  status: ('A' for Active; 'I' for Inactive)
REMARK    1  A    between atoms: O1_2  and  C2_3 
REMARK    2  A    between atoms: C2_3  and  C5_6 
REMARK    3  A    between atoms: C6_7  and  C7_8 
REMARK    4  A    between atoms: C7_8  and  C8_9 
REMARK    5  A    between atoms: C8_9  and  C10_11 
REMARK    6  A    between atoms: C28_30  and  O3_31 
REMARK    7  A    between atoms: O3_31  and  C29_32 
REMARK    8  A    between atoms: C30_34  and  C31_35 
REMARK    9  A    between atoms: C31_35  and  O5_36 
REMARK   10  A    between atoms: C32_37  and  O6_38 
REMARK   11  A    between atoms: C33_39  and  O7_40 
REMARK   12  A    between atoms: C34_41  and  O8_42 
ROOT
HETATM    1  C10 UNL     1       0.034   7.911  14.215  1.00  0.00    -0.002 C 
HETATM    2  C11 UNL     1      -0.248   9.030  13.156  1.00  0.00     0.006 C 
HETATM    3  C12 UNL     1      -1.781   9.119  12.970  1.00  0.00     0.011 C 
HETATM    4  C13 UNL     1      -2.347   8.335  14.166  1.00  0.00    -0.029 C 
HETATM    5  C14 UNL     1      -2.238   9.338  15.388  1.00  0.00     0.016 C 
HETATM    6  C15 UNL     1      -3.846   7.861  14.138  1.00  0.00     0.028 C 
HETATM    7  C16 UNL     1      -4.730   8.035  12.933  1.00  0.00    -0.021 C 
HETATM    8  C17 UNL     1      -5.876   7.331  12.848  1.00  0.00     0.008 C 
HETATM    9  C18 UNL     1      -6.283   6.266  13.882  1.00  0.00     0.092 C 
HETATM   10  O2  UNL     1      -5.588   5.098  13.419  1.00  0.00    -0.374 OA
HETATM   11  C19 UNL     1      -4.232   5.210  13.925  1.00  0.00     0.179 C 
HETATM   12  C20 UNL     1      -4.134   6.479  14.845  1.00  0.00    -0.004 C 
HETATM   13  C21 UNL     1      -3.118   6.244  15.970  1.00  0.00     0.014 C 
HETATM   14  C22 UNL     1      -1.628   6.325  15.537  1.00  0.00     0.011 C 
HETATM   15  C23 UNL     1      -1.333   7.143  14.252  1.00  0.00    -0.032 C 
HETATM   16  C24 UNL     1      -1.383   6.233  12.987  1.00  0.00     0.016 C 
HETATM   17  C25 UNL     1      -5.624   6.477  15.268  1.00  0.00     0.036 C 
HETATM   18  C26 UNL     1      -6.247   7.639  16.040  1.00  0.00     0.011 C 
HETATM   19  C27 UNL     1      -7.757   7.437  16.178  1.00  0.00     0.033 C 
HETATM   20  C28 UNL     1      -8.443   7.216  14.816  1.00  0.00     0.136 C 
HETATM   21  C35 UNL     1      -7.823   6.019  14.023  1.00  0.00     0.014 C 
HETATM   22  C36 UNL     1      -8.110   4.672  14.743  1.00  0.00     0.021 C 
HETATM   23  C37 UNL     1      -8.523   5.893  12.646  1.00  0.00     0.021 C 
ENDROOT
BRANCH  20  24
HETATM   24  O3  UNL     1      -9.854   6.988  14.966  1.00  0.00    -0.352 OA
BRANCH  24  25
HETATM   25  C29 UNL     1     -10.674   7.788  14.113  1.00  0.00     0.292 C 
HETATM   26  O4  UNL     1     -10.738   9.132  14.579  1.00  0.00    -0.348 OA
HETATM   27  C30 UNL     1     -11.387   9.337  15.850  1.00  0.00     0.179 C 
HETATM   28  C32 UNL     1     -12.498   8.318  16.141  1.00  0.00     0.180 C 
HETATM   29  C33 UNL     1     -13.116   7.880  14.822  1.00  0.00     0.183 C 
HETATM   30  C34 UNL     1     -12.071   7.121  14.004  1.00  0.00     0.204 C 
BRANCH  27  31
HETATM   31  C31 UNL     1     -10.377   9.394  17.006  1.00  0.00     0.198 C 
BRANCH  31  32
HETATM   32  O5  UNL     1     -10.907   8.752  18.167  1.00  0.00    -0.398 OA
HETATM   33  H48 UNL     1     -10.213   8.780  18.847  1.00  0.00     0.209 HD
ENDBRANCH  31  32
ENDBRANCH  27  31
BRANCH  28  34
HETATM   34  O6  UNL     1     -13.504   8.889  16.989  1.00  0.00    -0.390 OA
HETATM   35  H50 UNL     1     -14.287   8.314  16.872  1.00  0.00     0.210 HD
ENDBRANCH  28  34
BRANCH  29  36
HETATM   36  O7  UNL     1     -14.252   7.033  15.075  1.00  0.00    -0.390 OA
HETATM   37  H52 UNL     1     -14.543   6.738  14.191  1.00  0.00     0.210 HD
ENDBRANCH  29  36
BRANCH  30  38
HETATM   38  O8  UNL     1     -12.552   7.057  12.645  1.00  0.00    -0.388 OA
HETATM   39  H54 UNL     1     -11.927   6.504  12.143  1.00  0.00     0.210 HD
ENDBRANCH  30  38
ENDBRANCH  24  25
ENDBRANCH  20  24
BRANCH   1  40
HETATM   40  C8  UNL     1       1.371   7.157  13.929  1.00  0.00    -0.010 C 
HETATM   41  C9  UNL     1       2.531   8.123  13.672  1.00  0.00     0.010 C 
BRANCH  40  42
HETATM   42  C7  UNL     1       1.194   6.204  12.712  1.00  0.00     0.031 C 
BRANCH  42  43
HETATM   43  C6  UNL     1       2.198   6.268  11.586  1.00  0.00    -0.027 C 
HETATM   44  C5  UNL     1       2.024   6.810  10.367  1.00  0.00     0.006 C 
BRANCH  44  45
HETATM   45  C2  UNL     1       3.028   6.883   9.230  1.00  0.00     0.070 C 
HETATM   46  C3  UNL     1       3.705   8.245   9.026  1.00  0.00     0.050 C 
HETATM   47  C4  UNL     1       2.287   6.520   7.932  1.00  0.00     0.050 C 
BRANCH  45  48
HETATM   48  O1  UNL     1       3.998   5.837   9.413  1.00  0.00    -0.382 OA
HETATM   49  C1  UNL     1       3.688   4.586   8.817  1.00  0.00     0.202 C 
ENDBRANCH  45  48
ENDBRANCH  44  45
ENDBRANCH  42  43
ENDBRANCH  40  42
ENDBRANCH   1  40
TORSDOF 12
ENDMDL
MODEL 7
REMARK minimizedAffinity -7.58952475
REMARK CNNscore 0.352918833
REMARK CNNaffinity 7.15385389
REMARK  12 active torsions:
REMARK  status: ('A' for Active; 'I' for Inactive)
REMARK    1  A    between atoms: O1_2  and  C2_3 
REMARK    2  A    between atoms: C2_3  and  C5_6 
REMARK    3  A    between atoms: C6_7  and  C7_8 
REMARK    4  A    between atoms: C7_8  and  C8_9 
REMARK    5  A    between atoms: C8_9  and  C10_11 
REMARK    6  A    between atoms: C28_30  and  O3_31 
REMARK    7  A    between atoms: O3_31  and  C29_32 
REMARK    8  A    between atoms: C30_34  and  C31_35 
REMARK    9  A    between atoms: C31_35  and  O5_36 
REMARK   10  A    between atoms: C32_37  and  O6_38 
REMARK   11  A    between atoms: C33_39  and  O7_40 
REMARK   12  A    between atoms: C34_41  and  O8_42 
ROOT
HETATM    1  C10 UNL     1      -7.440   6.741  14.837  1.00  0.00    -0.002 C 
HETATM    2  C11 UNL     1      -7.063   6.160  16.242  1.00  0.00     0.006 C 
HETATM    3  C12 UNL     1      -5.526   6.263  16.390  1.00  0.00     0.011 C 
HETATM    4  C13 UNL     1      -5.107   7.218  15.260  1.00  0.00    -0.029 C 
HETATM    5  C14 UNL     1      -5.456   8.663  15.807  1.00  0.00     0.016 C 
HETATM    6  C15 UNL     1      -3.597   7.281  14.823  1.00  0.00     0.028 C 
HETATM    7  C16 UNL     1      -2.551   6.358  15.384  1.00  0.00    -0.021 C 
HETATM    8  C17 UNL     1      -1.368   6.237  14.749  1.00  0.00     0.008 C 
HETATM    9  C18 UNL     1      -1.066   6.924  13.405  1.00  0.00     0.092 C 
HETATM   10  O2  UNL     1      -1.617   6.002  12.451  1.00  0.00    -0.374 OA
HETATM   11  C19 UNL     1      -3.039   6.291  12.388  1.00  0.00     0.179 C 
HETATM   12  C20 UNL     1      -3.345   7.542  13.287  1.00  0.00    -0.004 C 
HETATM   13  C21 UNL     1      -4.506   8.351  12.695  1.00  0.00     0.014 C 
HETATM   14  C22 UNL     1      -5.916   7.732  12.910  1.00  0.00     0.011 C 
HETATM   15  C23 UNL     1      -6.055   6.749  14.103  1.00  0.00    -0.032 C 
HETATM   16  C24 UNL     1      -5.763   5.284  13.657  1.00  0.00     0.016 C 
HETATM   17  C25 UNL     1      -1.940   8.177  13.150  1.00  0.00     0.036 C 
HETATM   18  C26 UNL     1      -1.506   9.373  13.996  1.00  0.00     0.011 C 
HETATM   19  C27 UNL     1      -0.026   9.681  13.763  1.00  0.00     0.033 C 
HETATM   20  C28 UNL     1       0.871   8.451  14.002  1.00  0.00     0.136 C 
HETATM   21  C35 UNL     1       0.445   7.225  13.129  1.00  0.00     0.014 C 
HETATM   22  C36 UNL     1       0.693   7.509  11.621  1.00  0.00     0.021 C 
HETATM   23  C37 UNL     1       1.353   6.014  13.461  1.00  0.00     0.021 C 
ENDROOT
BRANCH  20  24
HETATM   24  O3  UNL     1       2.252   8.746  13.740  1.00  0.00    -0.352 OA
BRANCH  24  25
HETATM   25  C29 UNL     1       2.831   7.970  12.688  1.00  0.00     0.292 C 
HETATM   26  O4  UNL     1       3.834   7.095  13.191  1.00  0.00    -0.348 OA
HETATM   27  C30 UNL     1       5.009   7.719  13.744  1.00  0.00     0.179 C 
HETATM   28  C32 UNL     1       5.353   9.064  13.087  1.00  0.00     0.180 C 
HETATM   29  C33 UNL     1       4.891   9.031  11.638  1.00  0.00     0.183 C 
HETATM   30  C34 UNL     1       3.367   8.937  11.599  1.00  0.00     0.204 C 
BRANCH  27  31
HETATM   31  C31 UNL     1       4.916   7.862  15.271  1.00  0.00     0.198 C 
BRANCH  31  32
HETATM   32  O5  UNL     1       4.534   6.622  15.869  1.00  0.00    -0.398 OA
HETATM   33  H48 UNL     1       4.535   6.761  16.831  1.00  0.00     0.209 HD
ENDBRANCH  31  32
ENDBRANCH  27  31
BRANCH  28  34
HETATM   34  O6  UNL     1       6.764   9.313  13.147  1.00  0.00    -0.390 OA
HETATM   35  H50 UNL     1       6.928   9.996  12.465  1.00  0.00     0.210 HD
ENDBRANCH  28  34
BRANCH  29  36
HETATM   36  O7  UNL     1       5.328  10.224  10.963  1.00  0.00    -0.390 OA
HETATM   37  H52 UNL     1       4.933  10.163  10.071  1.00  0.00     0.210 HD
ENDBRANCH  29  36
BRANCH  30  38
HETATM   38  O8  UNL     1       2.995   8.532  10.264  1.00  0.00    -0.388 OA
HETATM   39  H54 UNL     1       2.022   8.552  10.216  1.00  0.00     0.210 HD
ENDBRANCH  30  38
ENDBRANCH  24  25
ENDBRANCH  20  24
BRANCH   1  40
HETATM   40  C8  UNL     1      -8.674   6.014  14.216  1.00  0.00    -0.010 C 
HETATM   41  C9  UNL     1      -8.690   6.115  12.688  1.00  0.00     0.010 C 
BRANCH  40  42
HETATM   42  C7  UNL     1      -9.989   6.605  14.799  1.00  0.00     0.031 C 
BRANCH  42  43
HETATM   43  C6  UNL     1     -10.988   7.233  13.856  1.00  0.00    -0.027 C 
HETATM   44  C5  UNL     1     -12.131   7.864  14.180  1.00  0.00     0.006 C 
BRANCH  44  45
HETATM   45  C2  UNL     1     -13.138   8.502  13.240  1.00  0.00     0.070 C 
HETATM   46  C3  UNL     1     -12.627   9.699  12.428  1.00  0.00     0.050 C 
HETATM   47  C4  UNL     1     -14.331   8.976  14.088  1.00  0.00     0.050 C 
BRANCH  45  48
HETATM   48  O1  UNL     1     -13.672   7.476  12.383  1.00  0.00    -0.382 OA
HETATM   49  C1  UNL     1     -14.985   7.028  12.688  1.00  0.00     0.202 C 
ENDBRANCH  45  48
ENDBRANCH  44  45
ENDBRANCH  42  43
ENDBRANCH  40  42
ENDBRANCH   1  40
TORSDOF 12
ENDMDL
MODEL 8
REMARK minimizedAffinity -7.59058523
REMARK CNNscore 0.330769956
REMARK CNNaffinity 7.36220312
REMARK  12 active torsions:
REMARK  status: ('A' for Active; 'I' for Inactive)
REMARK    1  A    between atoms: O1_2  and  C2_3 
REMARK    2  A    between atoms: C2_3  and  C5_6 
REMARK    3  A    between atoms: C6_7  and  C7_8 
REMARK    4  A    between atoms: C7_8  and  C8_9 
REMARK    5  A    between atoms: C8_9  and  C10_11 
REMARK    6  A    between atoms: C28_30  and  O3_31 
REMARK    7  A    between atoms: O3_31  and  C29_32 
REMARK    8  A    between atoms: C30_34  and  C31_35 
REMARK    9  A    between atoms: C31_35  and  O5_36 
REMARK   10  A    between atoms: C32_37  and  O6_38 
REMARK   11  A    between atoms: C33_39  and  O7_40 
REMARK   12  A    between atoms: C34_41  and  O8_42 
ROOT
HETATM    1  C10 UNL     1      -7.247   6.917  15.216  1.00  0.00    -0.002 C 
HETATM    2  C11 UNL     1      -6.797   6.152  16.507  1.00  0.00     0.006 C 
HETATM    3  C12 UNL     1      -5.274   5.904  16.393  1.00  0.00     0.011 C 
HETATM    4  C13 UNL     1      -4.830   6.836  15.253  1.00  0.00    -0.029 C 
HETATM    5  C14 UNL     1      -4.748   8.271  15.918  1.00  0.00     0.016 C 
HETATM    6  C15 UNL     1      -3.433   6.604  14.567  1.00  0.00     0.028 C 
HETATM    7  C16 UNL     1      -2.553   5.431  14.896  1.00  0.00    -0.021 C 
HETATM    8  C17 UNL     1      -1.543   5.108  14.063  1.00  0.00     0.008 C 
HETATM    9  C18 UNL     1      -1.306   5.822  12.721  1.00  0.00     0.092 C 
HETATM   10  O2  UNL     1      -2.197   5.126  11.834  1.00  0.00    -0.374 OA
HETATM   11  C19 UNL     1      -3.506   5.723  12.030  1.00  0.00     0.179 C 
HETATM   12  C20 UNL     1      -3.373   6.931  13.024  1.00  0.00    -0.004 C 
HETATM   13  C21 UNL     1      -4.395   8.020  12.678  1.00  0.00     0.014 C 
HETATM   14  C22 UNL     1      -5.857   7.709  13.103  1.00  0.00     0.011 C 
HETATM   15  C23 UNL     1      -6.030   6.684  14.256  1.00  0.00    -0.032 C 
HETATM   16  C24 UNL     1      -6.155   5.233  13.699  1.00  0.00     0.016 C 
HETATM   17  C25 UNL     1      -1.898   7.253  12.677  1.00  0.00     0.036 C 
HETATM   18  C26 UNL     1      -1.075   8.250  13.491  1.00  0.00     0.011 C 
HETATM   19  C27 UNL     1       0.381   8.246  13.022  1.00  0.00     0.033 C 
HETATM   20  C28 UNL     1       0.998   6.834  13.046  1.00  0.00     0.136 C 
HETATM   21  C35 UNL     1       0.171   5.808  12.203  1.00  0.00     0.014 C 
HETATM   22  C36 UNL     1       0.237   6.156  10.690  1.00  0.00     0.021 C 
HETATM   23  C37 UNL     1       0.817   4.404  12.318  1.00  0.00     0.021 C 
ENDROOT
BRANCH  20  24
HETATM   24  O3  UNL     1       2.352   6.841  12.564  1.00  0.00    -0.352 OA
BRANCH  24  25
HETATM   25  C29 UNL     1       2.831   8.129  12.172  1.00  0.00     0.292 C 
HETATM   26  O4  UNL     1       3.047   8.189  10.767  1.00  0.00    -0.348 OA
HETATM   27  C30 UNL     1       4.089   7.343  10.244  1.00  0.00     0.179 C 
HETATM   28  C32 UNL     1       5.236   7.099  11.237  1.00  0.00     0.180 C 
HETATM   29  C33 UNL     1       5.367   8.319  12.137  1.00  0.00     0.183 C 
HETATM   30  C34 UNL     1       4.108   8.451  12.993  1.00  0.00     0.204 C 
BRANCH  27  31
HETATM   31  C31 UNL     1       3.534   6.014   9.711  1.00  0.00     0.198 C 
BRANCH  31  32
HETATM   32  O5  UNL     1       4.489   4.965   9.883  1.00  0.00    -0.398 OA
HETATM   33  H48 UNL     1       4.070   4.147   9.570  1.00  0.00     0.209 HD
ENDBRANCH  31  32
ENDBRANCH  27  31
BRANCH  28  34
HETATM   34  O6  UNL     1       6.469   6.865  10.544  1.00  0.00    -0.390 OA
HETATM   35  H50 UNL     1       7.166   7.027  11.210  1.00  0.00     0.210 HD
ENDBRANCH  28  34
BRANCH  29  36
HETATM   36  O7  UNL     1       6.524   8.175  12.982  1.00  0.00    -0.390 OA
HETATM   37  H52 UNL     1       6.496   8.952  13.574  1.00  0.00     0.210 HD
ENDBRANCH  29  36
BRANCH  30  38
HETATM   38  O8  UNL     1       4.097   9.787  13.538  1.00  0.00    -0.388 OA
HETATM   39  H54 UNL     1       3.339   9.844  14.147  1.00  0.00     0.210 HD
ENDBRANCH  30  38
ENDBRANCH  24  25
ENDBRANCH  20  24
BRANCH   1  40
HETATM   40  C8  UNL     1      -8.697   6.532  14.783  1.00  0.00    -0.010 C 
HETATM   41  C9  UNL     1      -9.017   7.010  13.364  1.00  0.00     0.010 C 
BRANCH  40  42
HETATM   42  C7  UNL     1      -9.726   7.124  15.787  1.00  0.00     0.031 C 
BRANCH  42  43
HETATM   43  C6  UNL     1     -10.970   7.790  15.247  1.00  0.00    -0.027 C 
HETATM   44  C5  UNL     1     -11.377   7.841  13.966  1.00  0.00     0.006 C 
BRANCH  44  45
HETATM   45  C2  UNL     1     -12.627   8.504  13.414  1.00  0.00     0.070 C 
HETATM   46  C3  UNL     1     -13.745   7.551  12.970  1.00  0.00     0.050 C 
HETATM   47  C4  UNL     1     -12.208   9.348  12.198  1.00  0.00     0.050 C 
BRANCH  45  48
HETATM   48  O1  UNL     1     -13.102   9.455  14.384  1.00  0.00    -0.382 OA
HETATM   49  C1  UNL     1     -12.855  10.823  14.091  1.00  0.00     0.202 C 
ENDBRANCH  45  48
ENDBRANCH  44  45
ENDBRANCH  42  43
ENDBRANCH  40  42
ENDBRANCH   1  40
TORSDOF 12
ENDMDL
MODEL 9
REMARK minimizedAffinity -8.61239719
REMARK CNNscore 0.283599883
REMARK CNNaffinity 6.6264987
REMARK  12 active torsions:
REMARK  status: ('A' for Active; 'I' for Inactive)
REMARK    1  A    between atoms: O1_2  and  C2_3 
REMARK    2  A    between atoms: C2_3  and  C5_6 
REMARK    3  A    between atoms: C6_7  and  C7_8 
REMARK    4  A    between atoms: C7_8  and  C8_9 
REMARK    5  A    between atoms: C8_9  and  C10_11 
REMARK    6  A    between atoms: C28_30  and  O3_31 
REMARK    7  A    between atoms: O3_31  and  C29_32 
REMARK    8  A    between atoms: C30_34  and  C31_35 
REMARK    9  A    between atoms: C31_35  and  O5_36 
REMARK   10  A    between atoms: C32_37  and  O6_38 
REMARK   11  A    between atoms: C33_39  and  O7_40 
REMARK   12  A    between atoms: C34_41  and  O8_42 
ROOT
HETATM    1  C10 UNL     1       2.437   8.088  10.636  1.00  0.00    -0.002 C 
HETATM    2  C11 UNL     1       1.739   7.642  11.965  1.00  0.00     0.006 C 
HETATM    3  C12 UNL     1       2.755   7.843  13.114  1.00  0.00     0.011 C 
HETATM    4  C13 UNL     1       3.849   8.727  12.493  1.00  0.00    -0.029 C 
HETATM    5  C14 UNL     1       3.238  10.189  12.511  1.00  0.00     0.016 C 
HETATM    6  C15 UNL     1       5.246   8.841  13.206  1.00  0.00     0.028 C 
HETATM    7  C16 UNL     1       5.609   8.024  14.415  1.00  0.00    -0.021 C 
HETATM    8  C17 UNL     1       6.902   7.920  14.779  1.00  0.00     0.008 C 
HETATM    9  C18 UNL     1       8.055   8.515  13.949  1.00  0.00     0.092 C 
HETATM   10  O2  UNL     1       8.297   7.492  12.971  1.00  0.00    -0.374 OA
HETATM   11  C19 UNL     1       7.311   7.694  11.924  1.00  0.00     0.179 C 
HETATM   12  C20 UNL     1       6.489   8.993  12.243  1.00  0.00    -0.004 C 
HETATM   13  C21 UNL     1       6.062   9.686  10.943  1.00  0.00     0.014 C 
HETATM   14  C22 UNL     1       4.882   9.008  10.193  1.00  0.00     0.011 C 
HETATM   15  C23 UNL     1       3.948   8.117  11.053  1.00  0.00    -0.032 C 
HETATM   16  C24 UNL     1       4.447   6.639  11.072  1.00  0.00     0.016 C 
HETATM   17  C25 UNL     1       7.612   9.693  13.046  1.00  0.00     0.036 C 
HETATM   18  C26 UNL     1       7.362  10.975  13.840  1.00  0.00     0.011 C 
HETATM   19  C27 UNL     1       8.601  11.346  14.655  1.00  0.00     0.033 C 
HETATM   20  C28 UNL     1       9.073  10.191  15.560  1.00  0.00     0.136 C 
HETATM   21  C35 UNL     1       9.347   8.878  14.755  1.00  0.00     0.014 C 
HETATM   22  C36 UNL     1      10.566   9.055  13.808  1.00  0.00     0.021 C 
HETATM   23  C37 UNL     1       9.762   7.750  15.733  1.00  0.00     0.021 C 
ENDROOT
BRANCH  20  24
HETATM   24  O3  UNL     1      10.261  10.542  16.288  1.00  0.00    -0.352 OA
BRANCH  24  25
HETATM   25  C29 UNL     1      10.078  11.590  17.243  1.00  0.00     0.292 C 
HETATM   26  O4  UNL     1      10.908  12.706  16.941  1.00  0.00    -0.348 OA
HETATM   27  C30 UNL     1      12.329  12.492  17.042  1.00  0.00     0.179 C 
HETATM   28  C32 UNL     1      12.717  11.449  18.101  1.00  0.00     0.180 C 
HETATM   29  C33 UNL     1      11.681  11.477  19.215  1.00  0.00     0.183 C 
HETATM   30  C34 UNL     1      10.334  11.015  18.661  1.00  0.00     0.204 C 
BRANCH  27  31
HETATM   31  C31 UNL     1      12.955  12.152  15.682  1.00  0.00     0.198 C 
BRANCH  31  32
HETATM   32  O5  UNL     1      13.677  10.921  15.755  1.00  0.00    -0.398 OA
HETATM   33  H48 UNL     1      14.012  10.736  14.862  1.00  0.00     0.209 HD
ENDBRANCH  31  32
ENDBRANCH  27  31
BRANCH  28  34
HETATM   34  O6  UNL     1      14.020  11.724  18.634  1.00  0.00    -0.390 OA
HETATM   35  H50 UNL     1      14.055  11.231  19.478  1.00  0.00     0.210 HD
ENDBRANCH  28  34
BRANCH  29  36
HETATM   36  O7  UNL     1      12.098  10.610  20.286  1.00  0.00    -0.390 OA
HETATM   37  H52 UNL     1      11.355  10.625  20.919  1.00  0.00     0.210 HD
ENDBRANCH  29  36
BRANCH  30  38
HETATM   38  O8  UNL     1       9.322  11.407  19.612  1.00  0.00    -0.388 OA
HETATM   39  H54 UNL     1       8.475  11.041  19.299  1.00  0.00     0.210 HD
ENDBRANCH  30  38
ENDBRANCH  24  25
ENDBRANCH  20  24
BRANCH   1  40
HETATM   40  C8  UNL     1       1.958   7.247   9.411  1.00  0.00    -0.010 C 
HETATM   41  C9  UNL     1       2.238   7.955   8.083  1.00  0.00     0.010 C 
BRANCH  40  42
HETATM   42  C7  UNL     1       0.438   6.940   9.539  1.00  0.00     0.031 C 
BRANCH  42  43
HETATM   43  C6  UNL     1      -0.071   6.296  10.807  1.00  0.00    -0.027 C 
HETATM   44  C5  UNL     1      -0.854   5.208  10.911  1.00  0.00     0.006 C 
BRANCH  44  45
HETATM   45  C2  UNL     1      -1.368   4.550  12.180  1.00  0.00     0.070 C 
HETATM   46  C3  UNL     1      -2.672   5.126  12.748  1.00  0.00     0.050 C 
HETATM   47  C4  UNL     1      -0.275   4.694  13.253  1.00  0.00     0.050 C 
BRANCH  45  48
HETATM   48  O1  UNL     1      -1.477   3.135  11.944  1.00  0.00    -0.382 OA
HETATM   49  C1  UNL     1      -2.723   2.681  11.435  1.00  0.00     0.202 C 
ENDBRANCH  45  48
ENDBRANCH  44  45
ENDBRANCH  42  43
ENDBRANCH  40  42
ENDBRANCH   1  40
TORSDOF 12
ENDMDL
