MODEL 1
REMARK minimizedAffinity -9.3307209
REMARK  7 active torsions:
REMARK  status: ('A' for Active; 'I' for Inactive)
REMARK    1  A    between atoms: C2_2  and  C30_32 
REMARK    2  A    between atoms: C3_3  and  C4_4 
REMARK    3  A    between atoms: C4_4  and  O1_5 
REMARK    4  A    between atoms: C4_4  and  C5_6 
REMARK    5  A    between atoms: C5_6  and  C6_7 
REMARK    6  A    between atoms: C6_7  and  C8_9 
REMARK    7  A    between atoms: C30_32  and  O4_34 
ROOT
HETATM    1  C8  UNL     1      -3.171   8.312  14.565  1.00  0.00    -0.002 C 
HETATM    2  C9  UNL     1      -2.557   7.734  15.881  1.00  0.00     0.007 C 
HETATM    3  C10 UNL     1      -1.105   7.313  15.572  1.00  0.00     0.015 C 
HETATM    4  C11 UNL     1      -0.805   7.961  14.210  1.00  0.00    -0.013 C 
HETATM    5  C12 UNL     1      -0.440   9.458  14.515  1.00  0.00     0.021 C 
HETATM    6  C13 UNL     1       0.363   7.422  13.381  1.00  0.00    -0.070 C 
HETATM    7  C14 UNL     1       1.548   7.152  13.961  1.00  0.00    -0.022 C 
HETATM    8  C15 UNL     1       2.831   7.022  13.201  1.00  0.00     0.034 C 
HETATM    9  C16 UNL     1       2.740   7.754  11.843  1.00  0.00     0.013 C 
HETATM   10  C17 UNL     1       4.123   7.888  11.109  1.00  0.00     0.018 C 
HETATM   11  C18 UNL     1       5.010   8.893  11.891  1.00  0.00     0.023 C 
HETATM   12  C19 UNL     1       4.936   6.591  10.973  1.00  0.00     0.023 C 
HETATM   13  C20 UNL     1       3.897   8.456   9.700  1.00  0.00     0.135 C 
HETATM   14  O2  UNL     1       4.614   9.331   9.214  1.00  0.00    -0.297 OA
HETATM   15  C21 UNL     1       2.787   7.851   8.878  1.00  0.00     0.080 C 
HETATM   16  C22 UNL     1       1.479   7.926   9.650  1.00  0.00     0.017 C 
HETATM   17  C23 UNL     1       1.525   7.202  11.018  1.00  0.00    -0.031 C 
HETATM   18  C24 UNL     1       1.637   5.673  10.752  1.00  0.00     0.016 C 
HETATM   19  C25 UNL     1       0.176   7.400  11.853  1.00  0.00     0.024 C 
HETATM   20  C26 UNL     1      -0.761   8.547  11.416  1.00  0.00     0.010 C 
HETATM   21  C27 UNL     1      -2.134   8.565  12.143  1.00  0.00     0.011 C 
HETATM   22  C28 UNL     1      -2.181   7.777  13.475  1.00  0.00    -0.029 C 
HETATM   23  C29 UNL     1      -2.553   6.284  13.198  1.00  0.00     0.016 C 
ENDROOT
BRANCH   1  24
HETATM   24  C6  UNL     1      -4.702   8.024  14.454  1.00  0.00    -0.011 C 
HETATM   25  C7  UNL     1      -5.543   9.086  15.168  1.00  0.00     0.010 C 
BRANCH  24  26
HETATM   26  C5  UNL     1      -5.011   6.613  15.038  1.00  0.00     0.040 C 
BRANCH  26  27
HETATM   27  C4  UNL     1      -6.160   5.852  14.350  1.00  0.00     0.142 C 
BRANCH  27  28
HETATM   28  C3  UNL     1      -5.638   4.852  13.349  1.00  0.00     0.018 C 
HETATM   29  C2  UNL     1      -6.260   3.744  12.896  1.00  0.00     0.010 C 
HETATM   30  C1  UNL     1      -5.683   2.854  11.839  1.00  0.00     0.055 C 
BRANCH  29  31
HETATM   31  C30 UNL     1      -7.585   3.320  13.394  1.00  0.00     0.171 C 
HETATM   32  O3  UNL     1      -8.301   2.488  12.872  1.00  0.00    -0.646 OA
BRANCH  31  33
HETATM   33  O4  UNL     1      -7.892   3.902  14.566  1.00  0.00    -0.773 OA
HETATM   34  H46 UNL     1      -8.794   3.575  14.758  1.00  0.00     0.167 HD
ENDBRANCH  31  33
ENDBRANCH  29  31
ENDBRANCH  27  28
BRANCH  27  35
HETATM   35  O1  UNL     1      -6.999   6.793  13.689  1.00  0.00    -0.392 OA
HETATM   36  H6  UNL     1      -6.490   7.173  12.953  1.00  0.00     0.210 HD
ENDBRANCH  27  35
ENDBRANCH  26  27
ENDBRANCH  24  26
ENDBRANCH   1  24
TORSDOF 7
ENDMDL
MODEL 2
REMARK minimizedAffinity -9.26926136
REMARK  7 active torsions:
REMARK  status: ('A' for Active; 'I' for Inactive)
REMARK    1  A    between atoms: C2_2  and  C30_32 
REMARK    2  A    between atoms: C3_3  and  C4_4 
REMARK    3  A    between atoms: C4_4  and  O1_5 
REMARK    4  A    between atoms: C4_4  and  C5_6 
REMARK    5  A    between atoms: C5_6  and  C6_7 
REMARK    6  A    between atoms: C6_7  and  C8_9 
REMARK    7  A    between atoms: C30_32  and  O4_34 
ROOT
HETATM    1  C8  UNL     1      -6.076   7.343  14.412  1.00  0.00    -0.002 C 
HETATM    2  C9  UNL     1      -5.752   8.700  15.118  1.00  0.00     0.007 C 
HETATM    3  C10 UNL     1      -4.239   8.958  14.958  1.00  0.00     0.015 C 
HETATM    4  C11 UNL     1      -3.793   7.945  13.890  1.00  0.00    -0.013 C 
HETATM    5  C12 UNL     1      -4.176   8.580  12.505  1.00  0.00     0.021 C 
HETATM    6  C13 UNL     1      -2.306   7.601  13.779  1.00  0.00    -0.070 C 
HETATM    7  C14 UNL     1      -1.373   8.572  13.818  1.00  0.00    -0.022 C 
HETATM    8  C15 UNL     1       0.027   8.395  13.319  1.00  0.00     0.034 C 
HETATM    9  C16 UNL     1       0.103   7.237  12.299  1.00  0.00     0.013 C 
HETATM   10  C17 UNL     1       1.475   7.161  11.537  1.00  0.00     0.018 C 
HETATM   11  C18 UNL     1       1.580   8.371  10.570  1.00  0.00     0.023 C 
HETATM   12  C19 UNL     1       2.733   7.190  12.421  1.00  0.00     0.023 C 
HETATM   13  C20 UNL     1       1.518   5.878  10.693  1.00  0.00     0.135 C 
HETATM   14  O2  UNL     1       1.944   5.857   9.538  1.00  0.00    -0.297 OA
HETATM   15  C21 UNL     1       1.076   4.598  11.356  1.00  0.00     0.080 C 
HETATM   16  C22 UNL     1      -0.327   4.768  11.915  1.00  0.00     0.017 C 
HETATM   17  C23 UNL     1      -0.448   5.917  12.945  1.00  0.00    -0.031 C 
HETATM   18  C24 UNL     1       0.344   5.509  14.222  1.00  0.00     0.016 C 
HETATM   19  C25 UNL     1      -1.957   6.145  13.424  1.00  0.00     0.024 C 
HETATM   20  C26 UNL     1      -3.072   5.527  12.552  1.00  0.00     0.010 C 
HETATM   21  C27 UNL     1      -4.495   5.622  13.172  1.00  0.00     0.011 C 
HETATM   22  C28 UNL     1      -4.658   6.692  14.279  1.00  0.00    -0.029 C 
HETATM   23  C29 UNL     1      -4.291   6.081  15.670  1.00  0.00     0.016 C 
ENDROOT
BRANCH   1  24
HETATM   24  C6  UNL     1      -7.236   6.575  15.120  1.00  0.00    -0.011 C 
HETATM   25  C7  UNL     1      -7.180   6.722  16.644  1.00  0.00     0.010 C 
BRANCH  24  26
HETATM   26  C5  UNL     1      -7.185   5.070  14.723  1.00  0.00     0.040 C 
BRANCH  26  27
HETATM   27  C4  UNL     1      -7.913   4.707  13.416  1.00  0.00     0.142 C 
BRANCH  27  28
HETATM   28  C3  UNL     1      -6.938   4.471  12.289  1.00  0.00     0.018 C 
HETATM   29  C2  UNL     1      -6.573   3.287  11.756  1.00  0.00     0.010 C 
HETATM   30  C1  UNL     1      -5.650   3.165  10.583  1.00  0.00     0.055 C 
BRANCH  29  31
HETATM   31  C30 UNL     1      -7.072   1.996  12.276  1.00  0.00     0.171 C 
HETATM   32  O3  UNL     1      -7.919   1.864  13.139  1.00  0.00    -0.646 OA
BRANCH  31  33
HETATM   33  O4  UNL     1      -6.541   0.949  11.621  1.00  0.00    -0.773 OA
HETATM   34  H46 UNL     1      -6.914   0.173  12.084  1.00  0.00     0.167 HD
ENDBRANCH  31  33
ENDBRANCH  29  31
ENDBRANCH  27  28
BRANCH  27  35
HETATM   35  O1  UNL     1      -8.789   5.774  13.071  1.00  0.00    -0.392 OA
HETATM   36  H6  UNL     1      -8.239   6.540  12.833  1.00  0.00     0.210 HD
ENDBRANCH  27  35
ENDBRANCH  26  27
ENDBRANCH  24  26
ENDBRANCH   1  24
TORSDOF 7
ENDMDL
MODEL 3
REMARK minimizedAffinity -9.23317146
REMARK  7 active torsions:
REMARK  status: ('A' for Active; 'I' for Inactive)
REMARK    1  A    between atoms: C2_2  and  C30_32 
REMARK    2  A    between atoms: C3_3  and  C4_4 
REMARK    3  A    between atoms: C4_4  and  O1_5 
REMARK    4  A    between atoms: C4_4  and  C5_6 
REMARK    5  A    between atoms: C5_6  and  C6_7 
REMARK    6  A    between atoms: C6_7  and  C8_9 
REMARK    7  A    between atoms: C30_32  and  O4_34 
ROOT
HETATM    1  C8  UNL     1      -2.729   4.250  12.814  1.00  0.00    -0.002 C 
HETATM    2  C9  UNL     1      -2.879   4.026  11.274  1.00  0.00     0.007 C 
HETATM    3  C10 UNL     1      -1.662   4.680  10.587  1.00  0.00     0.015 C 
HETATM    4  C11 UNL     1      -0.682   4.958  11.739  1.00  0.00    -0.013 C 
HETATM    5  C12 UNL     1       0.050   3.597  12.022  1.00  0.00     0.021 C 
HETATM    6  C13 UNL     1       0.436   5.980  11.522  1.00  0.00    -0.070 C 
HETATM    7  C14 UNL     1       1.154   5.978  10.382  1.00  0.00    -0.022 C 
HETATM    8  C15 UNL     1       2.491   6.638  10.245  1.00  0.00     0.034 C 
HETATM    9  C16 UNL     1       3.162   6.809  11.627  1.00  0.00     0.013 C 
HETATM   10  C17 UNL     1       4.668   7.248  11.543  1.00  0.00     0.018 C 
HETATM   11  C18 UNL     1       5.506   6.064  10.989  1.00  0.00     0.023 C 
HETATM   12  C19 UNL     1       4.963   8.459  10.642  1.00  0.00     0.023 C 
HETATM   13  C20 UNL     1       5.183   7.569  12.954  1.00  0.00     0.135 C 
HETATM   14  O2  UNL     1       6.286   7.201  13.358  1.00  0.00    -0.297 OA
HETATM   15  C21 UNL     1       4.309   8.429  13.831  1.00  0.00     0.080 C 
HETATM   16  C22 UNL     1       2.928   7.805  13.946  1.00  0.00     0.017 C 
HETATM   17  C23 UNL     1       2.217   7.618  12.583  1.00  0.00    -0.031 C 
HETATM   18  C24 UNL     1       1.871   9.027  12.020  1.00  0.00     0.016 C 
HETATM   19  C25 UNL     1       0.820   6.854  12.729  1.00  0.00     0.024 C 
HETATM   20  C26 UNL     1       0.574   6.082  14.044  1.00  0.00     0.010 C 
HETATM   21  C27 UNL     1      -0.869   5.524  14.198  1.00  0.00     0.011 C 
HETATM   22  C28 UNL     1      -1.669   5.401  12.878  1.00  0.00    -0.029 C 
HETATM   23  C29 UNL     1      -2.415   6.742  12.580  1.00  0.00     0.016 C 
ENDROOT
BRANCH   1  24
HETATM   24  C6  UNL     1      -4.111   4.406  13.522  1.00  0.00    -0.011 C 
HETATM   25  C7  UNL     1      -5.273   3.968  12.625  1.00  0.00     0.010 C 
BRANCH  24  26
HETATM   26  C5  UNL     1      -4.306   5.887  13.967  1.00  0.00     0.040 C 
BRANCH  26  27
HETATM   27  C4  UNL     1      -4.856   6.080  15.392  1.00  0.00     0.142 C 
BRANCH  27  28
HETATM   28  C3  UNL     1      -5.858   7.206  15.448  1.00  0.00     0.018 C 
HETATM   29  C2  UNL     1      -7.194   7.124  15.281  1.00  0.00     0.010 C 
HETATM   30  C1  UNL     1      -8.113   8.295  15.433  1.00  0.00     0.055 C 
BRANCH  29  31
HETATM   31  C30 UNL     1      -7.874   5.854  14.948  1.00  0.00     0.171 C 
HETATM   32  O3  UNL     1      -8.142   5.470  13.825  1.00  0.00    -0.646 OA
BRANCH  31  33
HETATM   33  O4  UNL     1      -8.098   5.101  16.039  1.00  0.00    -0.773 OA
HETATM   34  H46 UNL     1      -8.582   4.326  15.691  1.00  0.00     0.167 HD
ENDBRANCH  31  33
ENDBRANCH  29  31
ENDBRANCH  27  28
BRANCH  27  35
HETATM   35  O1  UNL     1      -3.769   6.366  16.265  1.00  0.00    -0.392 OA
HETATM   36  H6  UNL     1      -3.422   7.241  16.023  1.00  0.00     0.210 HD
ENDBRANCH  27  35
ENDBRANCH  26  27
ENDBRANCH  24  26
ENDBRANCH   1  24
TORSDOF 7
ENDMDL
MODEL 4
REMARK minimizedAffinity -9.18208694
REMARK  7 active torsions:
REMARK  status: ('A' for Active; 'I' for Inactive)
REMARK    1  A    between atoms: C2_2  and  C30_32 
REMARK    2  A    between atoms: C3_3  and  C4_4 
REMARK    3  A    between atoms: C4_4  and  O1_5 
REMARK    4  A    between atoms: C4_4  and  C5_6 
REMARK    5  A    between atoms: C5_6  and  C6_7 
REMARK    6  A    between atoms: C6_7  and  C8_9 
REMARK    7  A    between atoms: C30_32  and  O4_34 
ROOT
HETATM    1  C8  UNL     1      -3.076   4.702  13.250  1.00  0.00    -0.002 C 
HETATM    2  C9  UNL     1      -2.067   4.946  12.082  1.00  0.00     0.007 C 
HETATM    3  C10 UNL     1      -1.302   6.251  12.392  1.00  0.00     0.015 C 
HETATM    4  C11 UNL     1      -1.631   6.540  13.866  1.00  0.00    -0.013 C 
HETATM    5  C12 UNL     1      -0.671   5.628  14.710  1.00  0.00     0.021 C 
HETATM    6  C13 UNL     1      -1.416   7.958  14.402  1.00  0.00    -0.070 C 
HETATM    7  C14 UNL     1      -0.293   8.639  14.104  1.00  0.00    -0.022 C 
HETATM    8  C15 UNL     1       0.188   9.822  14.886  1.00  0.00     0.034 C 
HETATM    9  C16 UNL     1      -0.401   9.812  16.314  1.00  0.00     0.013 C 
HETATM   10  C17 UNL     1       0.260  10.868  17.273  1.00  0.00     0.018 C 
HETATM   11  C18 UNL     1       1.712  10.420  17.585  1.00  0.00     0.023 C 
HETATM   12  C19 UNL     1       0.345  12.304  16.730  1.00  0.00     0.023 C 
HETATM   13  C20 UNL     1      -0.517  10.907  18.597  1.00  0.00     0.135 C 
HETATM   14  O2  UNL     1       0.042  10.950  19.694  1.00  0.00    -0.297 OA
HETATM   15  C21 UNL     1      -2.022  10.961  18.518  1.00  0.00     0.080 C 
HETATM   16  C22 UNL     1      -2.533   9.796  17.686  1.00  0.00     0.017 C 
HETATM   17  C23 UNL     1      -1.969   9.768  16.245  1.00  0.00    -0.031 C 
HETATM   18  C24 UNL     1      -2.561  10.981  15.470  1.00  0.00     0.016 C 
HETATM   19  C25 UNL     1      -2.433   8.468  15.438  1.00  0.00     0.024 C 
HETATM   20  C26 UNL     1      -2.988   7.288  16.265  1.00  0.00     0.010 C 
HETATM   21  C27 UNL     1      -3.594   6.138  15.411  1.00  0.00     0.011 C 
HETATM   22  C28 UNL     1      -3.141   6.111  13.931  1.00  0.00    -0.029 C 
HETATM   23  C29 UNL     1      -4.089   7.006  13.067  1.00  0.00     0.016 C 
ENDROOT
BRANCH   1  24
HETATM   24  C6  UNL     1      -4.382   3.999  12.761  1.00  0.00    -0.011 C 
HETATM   25  C7  UNL     1      -4.360   3.724  11.254  1.00  0.00     0.010 C 
BRANCH  24  26
HETATM   26  C5  UNL     1      -5.617   4.875  13.129  1.00  0.00     0.040 C 
BRANCH  26  27
HETATM   27  C4  UNL     1      -6.986   4.269  12.767  1.00  0.00     0.142 C 
BRANCH  27  28
HETATM   28  C3  UNL     1      -8.102   5.260  12.987  1.00  0.00     0.018 C 
HETATM   29  C2  UNL     1      -8.419   5.896  14.134  1.00  0.00     0.010 C 
HETATM   30  C1  UNL     1      -9.504   6.923  14.228  1.00  0.00     0.055 C 
BRANCH  29  31
HETATM   31  C30 UNL     1      -7.705   5.644  15.403  1.00  0.00     0.171 C 
HETATM   32  O3  UNL     1      -6.958   6.427  15.959  1.00  0.00    -0.646 OA
BRANCH  31  33
HETATM   33  O4  UNL     1      -8.038   4.459  15.943  1.00  0.00    -0.773 OA
HETATM   34  H46 UNL     1      -7.473   4.400  16.739  1.00  0.00     0.167 HD
ENDBRANCH  31  33
ENDBRANCH  29  31
ENDBRANCH  27  28
BRANCH  27  35
HETATM   35  O1  UNL     1      -7.204   3.119  13.576  1.00  0.00    -0.392 OA
HETATM   36  H6  UNL     1      -7.312   3.422  14.493  1.00  0.00     0.210 HD
ENDBRANCH  27  35
ENDBRANCH  26  27
ENDBRANCH  24  26
ENDBRANCH   1  24
TORSDOF 7
ENDMDL
MODEL 5
REMARK minimizedAffinity -9.17917347
REMARK  7 active torsions:
REMARK  status: ('A' for Active; 'I' for Inactive)
REMARK    1  A    between atoms: C2_2  and  C30_32 
REMARK    2  A    between atoms: C3_3  and  C4_4 
REMARK    3  A    between atoms: C4_4  and  O1_5 
REMARK    4  A    between atoms: C4_4  and  C5_6 
REMARK    5  A    between atoms: C5_6  and  C6_7 
REMARK    6  A    between atoms: C6_7  and  C8_9 
REMARK    7  A    between atoms: C30_32  and  O4_34 
ROOT
HETATM    1  C8  UNL     1      -6.377   7.237  14.529  1.00  0.00    -0.002 C 
HETATM    2  C9  UNL     1      -6.051   8.556  15.303  1.00  0.00     0.007 C 
HETATM    3  C10 UNL     1      -4.536   8.815  15.163  1.00  0.00     0.015 C 
HETATM    4  C11 UNL     1      -4.089   7.854  14.049  1.00  0.00    -0.013 C 
HETATM    5  C12 UNL     1      -4.462   8.558  12.695  1.00  0.00     0.021 C 
HETATM    6  C13 UNL     1      -2.603   7.510  13.929  1.00  0.00    -0.070 C 
HETATM    7  C14 UNL     1      -1.667   8.474  14.020  1.00  0.00    -0.022 C 
HETATM    8  C15 UNL     1      -0.264   8.315  13.519  1.00  0.00     0.034 C 
HETATM    9  C16 UNL     1      -0.188   7.209  12.444  1.00  0.00     0.013 C 
HETATM   10  C17 UNL     1       1.188   7.165  11.686  1.00  0.00     0.018 C 
HETATM   11  C18 UNL     1       1.302   8.420  10.780  1.00  0.00     0.023 C 
HETATM   12  C19 UNL     1       2.441   7.144  12.576  1.00  0.00     0.023 C 
HETATM   13  C20 UNL     1       1.230   5.925  10.781  1.00  0.00     0.135 C 
HETATM   14  O2  UNL     1       1.662   5.958   9.628  1.00  0.00    -0.297 OA
HETATM   15  C21 UNL     1       0.780   4.615  11.377  1.00  0.00     0.080 C 
HETATM   16  C22 UNL     1      -0.625   4.763  11.938  1.00  0.00     0.017 C 
HETATM   17  C23 UNL     1      -0.747   5.861  13.022  1.00  0.00    -0.031 C 
HETATM   18  C24 UNL     1       0.036   5.387  14.281  1.00  0.00     0.016 C 
HETATM   19  C25 UNL     1      -2.258   6.071  13.504  1.00  0.00     0.024 C 
HETATM   20  C26 UNL     1      -3.371   5.502  12.598  1.00  0.00     0.010 C 
HETATM   21  C27 UNL     1      -4.796   5.572  13.215  1.00  0.00     0.011 C 
HETATM   22  C28 UNL     1      -4.961   6.588  14.372  1.00  0.00    -0.029 C 
HETATM   23  C29 UNL     1      -4.604   5.907  15.733  1.00  0.00     0.016 C 
ENDROOT
BRANCH   1  24
HETATM   24  C6  UNL     1      -7.544   6.440  15.194  1.00  0.00    -0.011 C 
HETATM   25  C7  UNL     1      -8.144   5.397  14.245  1.00  0.00     0.010 C 
BRANCH  24  26
HETATM   26  C5  UNL     1      -8.648   7.430  15.670  1.00  0.00     0.040 C 
BRANCH  26  27
HETATM   27  C4  UNL     1      -9.860   7.570  14.730  1.00  0.00     0.142 C 
BRANCH  27  28
HETATM   28  C3  UNL     1     -10.404   8.977  14.736  1.00  0.00     0.018 C 
HETATM   29  C2  UNL     1     -11.246   9.534  13.842  1.00  0.00     0.010 C 
HETATM   30  C1  UNL     1     -11.789  10.922  13.982  1.00  0.00     0.055 C 
BRANCH  29  31
HETATM   31  C30 UNL     1     -11.724   8.810  12.646  1.00  0.00     0.171 C 
HETATM   32  O3  UNL     1     -12.080   7.647  12.621  1.00  0.00    -0.646 OA
BRANCH  31  33
HETATM   33  O4  UNL     1     -11.809   9.612  11.571  1.00  0.00    -0.773 OA
HETATM   34  H46 UNL     1     -12.089   9.009  10.853  1.00  0.00     0.167 HD
ENDBRANCH  31  33
ENDBRANCH  29  31
ENDBRANCH  27  28
BRANCH  27  35
HETATM   35  O1  UNL     1     -10.873   6.666  15.154  1.00  0.00    -0.392 OA
HETATM   36  H6  UNL     1     -11.202   6.977  16.014  1.00  0.00     0.210 HD
ENDBRANCH  27  35
ENDBRANCH  26  27
ENDBRANCH  24  26
ENDBRANCH   1  24
TORSDOF 7
ENDMDL
MODEL 6
REMARK minimizedAffinity -9.01939201
REMARK  7 active torsions:
REMARK  status: ('A' for Active; 'I' for Inactive)
REMARK    1  A    between atoms: C2_2  and  C30_32 
REMARK    2  A    between atoms: C3_3  and  C4_4 
REMARK    3  A    between atoms: C4_4  and  O1_5 
REMARK    4  A    between atoms: C4_4  and  C5_6 
REMARK    5  A    between atoms: C5_6  and  C6_7 
REMARK    6  A    between atoms: C6_7  and  C8_9 
REMARK    7  A    between atoms: C30_32  and  O4_34 
ROOT
HETATM    1  C8  UNL     1       0.937   6.977  12.362  1.00  0.00    -0.002 C 
HETATM    2  C9  UNL     1       1.352   5.471  12.407  1.00  0.00     0.007 C 
HETATM    3  C10 UNL     1       0.091   4.650  12.747  1.00  0.00     0.015 C 
HETATM    4  C11 UNL     1      -1.069   5.640  12.554  1.00  0.00    -0.013 C 
HETATM    5  C12 UNL     1      -1.354   5.675  11.009  1.00  0.00     0.021 C 
HETATM    6  C13 UNL     1      -2.418   5.329  13.206  1.00  0.00    -0.070 C 
HETATM    7  C14 UNL     1      -2.940   4.089  13.142  1.00  0.00    -0.022 C 
HETATM    8  C15 UNL     1      -4.388   3.788  13.376  1.00  0.00     0.034 C 
HETATM    9  C16 UNL     1      -5.254   5.046  13.144  1.00  0.00     0.013 C 
HETATM   10  C17 UNL     1      -6.796   4.749  13.111  1.00  0.00     0.018 C 
HETATM   11  C18 UNL     1      -7.127   3.960  11.815  1.00  0.00     0.023 C 
HETATM   12  C19 UNL     1      -7.343   3.922  14.286  1.00  0.00     0.023 C 
HETATM   13  C20 UNL     1      -7.568   6.076  13.064  1.00  0.00     0.135 C 
HETATM   14  O2  UNL     1      -8.538   6.255  12.326  1.00  0.00    -0.297 OA
HETATM   15  C21 UNL     1      -7.141   7.160  14.021  1.00  0.00     0.080 C 
HETATM   16  C22 UNL     1      -5.660   7.451  13.837  1.00  0.00     0.017 C 
HETATM   17  C23 UNL     1      -4.754   6.216  14.063  1.00  0.00    -0.031 C 
HETATM   18  C24 UNL     1      -4.809   5.845  15.574  1.00  0.00     0.016 C 
HETATM   19  C25 UNL     1      -3.218   6.527  13.748  1.00  0.00     0.024 C 
HETATM   20  C26 UNL     1      -2.912   7.791  12.916  1.00  0.00     0.010 C 
HETATM   21  C27 UNL     1      -1.400   8.136  12.808  1.00  0.00     0.011 C 
HETATM   22  C28 UNL     1      -0.436   6.964  13.116  1.00  0.00    -0.029 C 
HETATM   23  C29 UNL     1      -0.129   6.914  14.648  1.00  0.00     0.016 C 
ENDROOT
BRANCH   1  24
HETATM   24  C6  UNL     1       2.089   7.919  12.833  1.00  0.00    -0.011 C 
HETATM   25  C7  UNL     1       1.852   9.375  12.418  1.00  0.00     0.010 C 
BRANCH  24  26
HETATM   26  C5  UNL     1       3.446   7.412  12.261  1.00  0.00     0.040 C 
BRANCH  26  27
HETATM   27  C4  UNL     1       3.791   7.909  10.844  1.00  0.00     0.142 C 
BRANCH  27  28
HETATM   28  C3  UNL     1       3.427   6.886   9.797  1.00  0.00     0.018 C 
HETATM   29  C2  UNL     1       2.888   7.113   8.582  1.00  0.00     0.010 C 
HETATM   30  C1  UNL     1       2.634   6.029   7.582  1.00  0.00     0.055 C 
BRANCH  29  31
HETATM   31  C30 UNL     1       2.516   8.468   8.121  1.00  0.00     0.171 C 
HETATM   32  O3  UNL     1       3.241   9.227   7.506  1.00  0.00    -0.646 OA
BRANCH  31  33
HETATM   33  O4  UNL     1       1.229   8.754   8.382  1.00  0.00    -0.773 OA
HETATM   34  H46 UNL     1       1.129   9.676   8.072  1.00  0.00     0.167 HD
ENDBRANCH  31  33
ENDBRANCH  29  31
ENDBRANCH  27  28
BRANCH  27  35
HETATM   35  O1  UNL     1       5.187   8.177  10.783  1.00  0.00    -0.392 OA
HETATM   36  H6  UNL     1       5.652   7.327  10.856  1.00  0.00     0.210 HD
ENDBRANCH  27  35
ENDBRANCH  26  27
ENDBRANCH  24  26
ENDBRANCH   1  24
TORSDOF 7
ENDMDL
MODEL 7
REMARK minimizedAffinity -8.83450127
REMARK  7 active torsions:
REMARK  status: ('A' for Active; 'I' for Inactive)
REMARK    1  A    between atoms: C2_2  and  C30_32 
REMARK    2  A    between atoms: C3_3  and  C4_4 
REMARK    3  A    between atoms: C4_4  and  O1_5 
REMARK    4  A    between atoms: C4_4  and  C5_6 
REMARK    5  A    between atoms: C5_6  and  C6_7 
REMARK    6  A    between atoms: C6_7  and  C8_9 
REMARK    7  A    between atoms: C30_32  and  O4_34 
ROOT
HETATM    1  C8  UNL     1      -2.349   7.655  13.530  1.00  0.00    -0.002 C 
HETATM    2  C9  UNL     1      -2.029   7.112  14.960  1.00  0.00     0.007 C 
HETATM    3  C10 UNL     1      -0.494   7.029  15.095  1.00  0.00     0.015 C 
HETATM    4  C11 UNL     1       0.035   7.833  13.896  1.00  0.00    -0.013 C 
HETATM    5  C12 UNL     1      -0.047   9.344  14.320  1.00  0.00     0.021 C 
HETATM    6  C13 UNL     1       1.482   7.618  13.448  1.00  0.00    -0.070 C 
HETATM    7  C14 UNL     1       2.477   7.553  14.352  1.00  0.00    -0.022 C 
HETATM    8  C15 UNL     1       3.921   7.755  14.010  1.00  0.00     0.034 C 
HETATM    9  C16 UNL     1       4.066   8.560  12.700  1.00  0.00     0.013 C 
HETATM   10  C17 UNL     1       5.536   9.037  12.416  1.00  0.00     0.018 C 
HETATM   11  C18 UNL     1       5.913  10.138  13.443  1.00  0.00     0.023 C 
HETATM   12  C19 UNL     1       6.622   7.953  12.511  1.00  0.00     0.023 C 
HETATM   13  C20 UNL     1       5.607   9.658  11.013  1.00  0.00     0.135 C 
HETATM   14  O2  UNL     1       6.221  10.699  10.778  1.00  0.00    -0.297 OA
HETATM   15  C21 UNL     1       4.946   8.904   9.887  1.00  0.00     0.080 C 
HETATM   16  C22 UNL     1       3.488   8.643  10.232  1.00  0.00     0.017 C 
HETATM   17  C23 UNL     1       3.296   7.836  11.539  1.00  0.00    -0.031 C 
HETATM   18  C24 UNL     1       3.818   6.390  11.296  1.00  0.00     0.016 C 
HETATM   19  C25 UNL     1       1.755   7.682  11.934  1.00  0.00     0.024 C 
HETATM   20  C26 UNL     1       0.754   8.641  11.253  1.00  0.00     0.010 C 
HETATM   21  C27 UNL     1      -0.739   8.313  11.535  1.00  0.00     0.011 C 
HETATM   22  C28 UNL     1      -0.993   7.427  12.780  1.00  0.00    -0.029 C 
HETATM   23  C29 UNL     1      -0.927   5.917  12.381  1.00  0.00     0.016 C 
ENDROOT
BRANCH   1  24
HETATM   24  C6  UNL     1      -3.677   7.065  12.960  1.00  0.00    -0.011 C 
HETATM   25  C7  UNL     1      -4.858   8.025  13.138  1.00  0.00     0.010 C 
BRANCH  24  26
HETATM   26  C5  UNL     1      -3.983   5.704  13.653  1.00  0.00     0.040 C 
BRANCH  26  27
HETATM   27  C4  UNL     1      -4.364   4.552  12.704  1.00  0.00     0.142 C 
BRANCH  27  28
HETATM   28  C3  UNL     1      -5.775   4.080  12.948  1.00  0.00     0.018 C 
HETATM   29  C2  UNL     1      -6.405   3.040  12.363  1.00  0.00     0.010 C 
HETATM   30  C1  UNL     1      -7.789   2.606  12.733  1.00  0.00     0.055 C 
BRANCH  29  31
HETATM   31  C30 UNL     1      -5.769   2.220  11.310  1.00  0.00     0.171 C 
HETATM   32  O3  UNL     1      -5.707   1.005  11.304  1.00  0.00    -0.646 OA
BRANCH  31  33
HETATM   33  O4  UNL     1      -5.326   2.970  10.286  1.00  0.00    -0.773 OA
HETATM   34  H46 UNL     1      -4.897   2.321   9.693  1.00  0.00     0.167 HD
ENDBRANCH  31  33
ENDBRANCH  29  31
ENDBRANCH  27  28
BRANCH  27  35
HETATM   35  O1  UNL     1      -3.459   3.473  12.911  1.00  0.00    -0.392 OA
HETATM   36  H6  UNL     1      -3.627   3.116  13.799  1.00  0.00     0.210 HD
ENDBRANCH  27  35
ENDBRANCH  26  27
ENDBRANCH  24  26
ENDBRANCH   1  24
TORSDOF 7
ENDMDL
MODEL 8
REMARK minimizedAffinity -8.80758667
REMARK  7 active torsions:
REMARK  status: ('A' for Active; 'I' for Inactive)
REMARK    1  A    between atoms: C2_2  and  C30_32 
REMARK    2  A    between atoms: C3_3  and  C4_4 
REMARK    3  A    between atoms: C4_4  and  O1_5 
REMARK    4  A    between atoms: C4_4  and  C5_6 
REMARK    5  A    between atoms: C5_6  and  C6_7 
REMARK    6  A    between atoms: C6_7  and  C8_9 
REMARK    7  A    between atoms: C30_32  and  O4_34 
ROOT
HETATM    1  C8  UNL     1      -5.776   4.766  13.822  1.00  0.00    -0.002 C 
HETATM    2  C9  UNL     1      -5.317   4.324  12.395  1.00  0.00     0.007 C 
HETATM    3  C10 UNL     1      -3.979   5.032  12.096  1.00  0.00     0.015 C 
HETATM    4  C11 UNL     1      -3.530   5.582  13.460  1.00  0.00    -0.013 C 
HETATM    5  C12 UNL     1      -2.866   4.375  14.216  1.00  0.00     0.021 C 
HETATM    6  C13 UNL     1      -2.486   6.701  13.492  1.00  0.00    -0.070 C 
HETATM    7  C14 UNL     1      -1.392   6.641  12.709  1.00  0.00    -0.022 C 
HETATM    8  C15 UNL     1      -0.151   7.442  12.957  1.00  0.00     0.034 C 
HETATM    9  C16 UNL     1      -0.067   7.878  14.437  1.00  0.00     0.013 C 
HETATM   10  C17 UNL     1       1.325   8.491  14.831  1.00  0.00     0.018 C 
HETATM   11  C18 UNL     1       2.389   7.361  14.829  1.00  0.00     0.023 C 
HETATM   12  C19 UNL     1       1.854   9.600  13.907  1.00  0.00     0.023 C 
HETATM   13  C20 UNL     1       1.244   9.059  16.256  1.00  0.00     0.135 C 
HETATM   14  O2  UNL     1       2.135   8.891  17.090  1.00  0.00    -0.297 OA
HETATM   15  C21 UNL     1       0.046   9.908  16.597  1.00  0.00     0.080 C 
HETATM   16  C22 UNL     1      -1.230   9.133  16.307  1.00  0.00     0.017 C 
HETATM   17  C23 UNL     1      -1.357   8.679  14.833  1.00  0.00    -0.031 C 
HETATM   18  C24 UNL     1      -1.560   9.946  13.952  1.00  0.00     0.016 C 
HETATM   19  C25 UNL     1      -2.649   7.768  14.590  1.00  0.00     0.024 C 
HETATM   20  C26 UNL     1      -3.320   7.152  15.836  1.00  0.00     0.010 C 
HETATM   21  C27 UNL     1      -4.671   6.439  15.549  1.00  0.00     0.011 C 
HETATM   22  C28 UNL     1      -4.902   6.042  14.070  1.00  0.00    -0.029 C 
HETATM   23  C29 UNL     1      -5.571   7.225  13.298  1.00  0.00     0.016 C 
ENDROOT
BRANCH   1  24
HETATM   24  C6  UNL     1      -7.331   4.837  13.943  1.00  0.00    -0.011 C 
HETATM   25  C7  UNL     1      -8.033   3.972  12.891  1.00  0.00     0.010 C 
BRANCH  24  26
HETATM   26  C5  UNL     1      -7.798   6.318  13.818  1.00  0.00     0.040 C 
BRANCH  26  27
HETATM   27  C4  UNL     1      -8.929   6.736  14.777  1.00  0.00     0.142 C 
BRANCH  27  28
HETATM   28  C3  UNL     1      -8.800   8.183  15.183  1.00  0.00     0.018 C 
HETATM   29  C2  UNL     1      -9.690   9.175  14.974  1.00  0.00     0.010 C 
HETATM   30  C1  UNL     1      -9.499  10.569  15.487  1.00  0.00     0.055 C 
BRANCH  29  31
HETATM   31  C30 UNL     1     -10.949   8.966  14.231  1.00  0.00     0.171 C 
HETATM   32  O3  UNL     1     -11.734   8.054  14.415  1.00  0.00    -0.646 OA
BRANCH  31  33
HETATM   33  O4  UNL     1     -11.193   9.961  13.360  1.00  0.00    -0.773 OA
HETATM   34  H46 UNL     1     -12.017   9.681  12.913  1.00  0.00     0.167 HD
ENDBRANCH  31  33
ENDBRANCH  29  31
ENDBRANCH  27  28
BRANCH  27  35
HETATM   35  O1  UNL     1      -8.873   5.910  15.934  1.00  0.00    -0.392 OA
HETATM   36  H6  UNL     1      -8.058   6.133  16.415  1.00  0.00     0.210 HD
ENDBRANCH  27  35
ENDBRANCH  26  27
ENDBRANCH  24  26
ENDBRANCH   1  24
TORSDOF 7
ENDMDL
MODEL 9
REMARK minimizedAffinity -8.75205421
REMARK  7 active torsions:
REMARK  status: ('A' for Active; 'I' for Inactive)
REMARK    1  A    between atoms: C2_2  and  C30_32 
REMARK    2  A    between atoms: C3_3  and  C4_4 
REMARK    3  A    between atoms: C4_4  and  O1_5 
REMARK    4  A    between atoms: C4_4  and  C5_6 
REMARK    5  A    between atoms: C5_6  and  C6_7 
REMARK    6  A    between atoms: C6_7  and  C8_9 
REMARK    7  A    between atoms: C30_32  and  O4_34 
ROOT
HETATM    1  C8  UNL     1      -2.438   8.250  15.321  1.00  0.00    -0.002 C 
HETATM    2  C9  UNL     1      -1.428   8.111  16.506  1.00  0.00     0.007 C 
HETATM    3  C10 UNL     1      -0.038   7.822  15.902  1.00  0.00     0.015 C 
HETATM    4  C11 UNL     1      -0.203   8.137  14.406  1.00  0.00    -0.013 C 
HETATM    5  C12 UNL     1      -0.073   9.698  14.277  1.00  0.00     0.021 C 
HETATM    6  C13 UNL     1       0.817   7.565  13.418  1.00  0.00    -0.070 C 
HETATM    7  C14 UNL     1       2.135   7.610  13.690  1.00  0.00    -0.022 C 
HETATM    8  C15 UNL     1       3.201   7.463  12.649  1.00  0.00     0.034 C 
HETATM    9  C16 UNL     1       2.649   7.808  11.248  1.00  0.00     0.013 C 
HETATM   10  C17 UNL     1       3.764   7.933  10.148  1.00  0.00     0.018 C 
HETATM   11  C18 UNL     1       4.599   9.212  10.424  1.00  0.00     0.023 C 
HETATM   12  C19 UNL     1       4.758   6.763  10.067  1.00  0.00     0.023 C 
HETATM   13  C20 UNL     1       3.103   8.090   8.770  1.00  0.00     0.135 C 
HETATM   14  O2  UNL     1       3.500   8.900   7.932  1.00  0.00    -0.297 OA
HETATM   15  C21 UNL     1       1.969   7.155   8.435  1.00  0.00     0.080 C 
HETATM   16  C22 UNL     1       0.894   7.250   9.505  1.00  0.00     0.017 C 
HETATM   17  C23 UNL     1       1.403   6.909  10.927  1.00  0.00    -0.031 C 
HETATM   18  C24 UNL     1       1.744   5.391  10.967  1.00  0.00     0.016 C 
HETATM   19  C25 UNL     1       0.280   7.132  12.042  1.00  0.00     0.024 C 
HETATM   20  C26 UNL     1      -0.939   7.996  11.651  1.00  0.00     0.010 C 
HETATM   21  C27 UNL     1      -2.076   8.016  12.710  1.00  0.00     0.011 C 
HETATM   22  C28 UNL     1      -1.651   7.592  14.137  1.00  0.00    -0.029 C 
HETATM   23  C29 UNL     1      -1.780   6.042  14.294  1.00  0.00     0.016 C 
ENDROOT
BRANCH   1  24
HETATM   24  C6  UNL     1      -3.865   7.743  15.701  1.00  0.00    -0.011 C 
HETATM   25  C7  UNL     1      -3.942   6.213  15.742  1.00  0.00     0.010 C 
BRANCH  24  26
HETATM   26  C5  UNL     1      -4.907   8.307  14.690  1.00  0.00     0.040 C 
BRANCH  26  27
HETATM   27  C4  UNL     1      -6.378   7.984  15.011  1.00  0.00     0.142 C 
BRANCH  27  28
HETATM   28  C3  UNL     1      -6.950   6.988  14.033  1.00  0.00     0.018 C 
HETATM   29  C2  UNL     1      -8.217   6.528  13.978  1.00  0.00     0.010 C 
HETATM   30  C1  UNL     1      -8.704   5.593  12.915  1.00  0.00     0.055 C 
BRANCH  29  31
HETATM   31  C30 UNL     1      -9.248   6.927  14.959  1.00  0.00     0.171 C 
HETATM   32  O3  UNL     1      -9.936   7.928  14.892  1.00  0.00    -0.646 OA
BRANCH  31  33
HETATM   33  O4  UNL     1      -9.414   6.002  15.920  1.00  0.00    -0.773 OA
HETATM   34  H46 UNL     1     -10.079   6.403  16.515  1.00  0.00     0.167 HD
ENDBRANCH  31  33
ENDBRANCH  29  31
ENDBRANCH  27  28
BRANCH  27  35
HETATM   35  O1  UNL     1      -7.131   9.190  14.956  1.00  0.00    -0.392 OA
HETATM   36  H6  UNL     1      -7.148   9.483  14.030  1.00  0.00     0.210 HD
ENDBRANCH  27  35
ENDBRANCH  26  27
ENDBRANCH  24  26
ENDBRANCH   1  24
TORSDOF 7
ENDMDL
