MODEL 1
REMARK minimizedAffinity -7.16432905
REMARK CNNscore 0.423358321
REMARK CNNaffinity 5.78165054
REMARK  4 active torsions:
REMARK  status: ('A' for Active; 'I' for Inactive)
REMARK    1  A    between atoms: C4_4  and  C5_5 
REMARK    2  A    between atoms: C5_5  and  C6_6 
REMARK    3  A    between atoms: C6_6  and  C7_7 
REMARK    4  A    between atoms: C7_7  and  C9_9 
ROOT
HETATM    1  C9  UNL     1       3.819   7.650  11.876  1.00  0.00    -0.002 C 
HETATM    2  C10 UNL     1       4.354   8.106  10.493  1.00  0.00     0.007 C 
HETATM    3  C11 UNL     1       5.717   8.790  10.751  1.00  0.00     0.015 C 
HETATM    4  C12 UNL     1       6.087   8.414  12.205  1.00  0.00    -0.013 C 
HETATM    5  C13 UNL     1       6.744   6.997  12.118  1.00  0.00     0.021 C 
HETATM    6  C14 UNL     1       7.066   9.274  13.001  1.00  0.00    -0.070 C 
HETATM    7  C15 UNL     1       7.856  10.197  12.427  1.00  0.00    -0.022 C 
HETATM    8  C16 UNL     1       8.928  10.964  13.144  1.00  0.00     0.038 C 
HETATM    9  C17 UNL     1       9.393  10.325  14.493  1.00  0.00    -0.019 C 
HETATM   10  C18 UNL     1      10.174   9.017  14.114  1.00  0.00     0.017 C 
HETATM   11  C19 UNL     1      10.371  11.321  15.309  1.00  0.00     0.021 C 
HETATM   12  C20 UNL     1      10.172  12.821  14.964  1.00  0.00     0.024 C 
HETATM   13  C21 UNL     1      11.878  11.055  15.069  1.00  0.00     0.024 C 
HETATM   14  C22 UNL     1      10.162  11.153  16.826  1.00  0.00     0.135 C 
HETATM   15  O1  UNL     1      10.401  12.060  17.627  1.00  0.00    -0.297 OA
HETATM   16  C23 UNL     1       9.748   9.797  17.335  1.00  0.00     0.080 C 
HETATM   17  C24 UNL     1       8.490   9.254  16.667  1.00  0.00     0.018 C 
HETATM   18  C25 UNL     1       8.081   9.943  15.332  1.00  0.00    -0.028 C 
HETATM   19  C26 UNL     1       7.249  11.209  15.693  1.00  0.00     0.016 C 
HETATM   20  C27 UNL     1       7.165   8.930  14.500  1.00  0.00     0.024 C 
HETATM   21  C28 UNL     1       5.782   8.638  15.167  1.00  0.00     0.010 C 
HETATM   22  C29 UNL     1       4.772   7.865  14.297  1.00  0.00     0.011 C 
HETATM   23  C30 UNL     1       4.675   8.471  12.885  1.00  0.00    -0.029 C 
HETATM   24  C31 UNL     1       4.131   9.925  13.014  1.00  0.00     0.016 C 
ENDROOT
BRANCH   1  25
HETATM   25  C7  UNL     1       2.270   7.619  12.050  1.00  0.00    -0.014 C 
HETATM   26  C8  UNL     1       1.816   6.147  12.040  1.00  0.00     0.010 C 
BRANCH  25  27
HETATM   27  C6  UNL     1       1.466   8.422  10.996  1.00  0.00     0.008 C 
BRANCH  27  28
HETATM   28  C5  UNL     1       0.581   7.563  10.073  1.00  0.00     0.028 C 
BRANCH  28  29
HETATM   29  C4  UNL     1       0.886   7.718   8.610  1.00  0.00    -0.025 C 
HETATM   30  C2  UNL     1       1.779   7.037   7.867  1.00  0.00    -0.091 C 
HETATM   31  C1  UNL     1       2.695   5.956   8.371  1.00  0.00     0.042 C 
HETATM   32  C3  UNL     1       1.936   7.338   6.398  1.00  0.00     0.042 C 
ENDBRANCH  28  29
ENDBRANCH  27  28
ENDBRANCH  25  27
ENDBRANCH   1  25
TORSDOF 4
ENDMDL
MODEL 2
REMARK minimizedAffinity -6.27057171
REMARK CNNscore 0.379024923
REMARK CNNaffinity 5.53641653
REMARK  4 active torsions:
REMARK  status: ('A' for Active; 'I' for Inactive)
REMARK    1  A    between atoms: C4_4  and  C5_5 
REMARK    2  A    between atoms: C5_5  and  C6_6 
REMARK    3  A    between atoms: C6_6  and  C7_7 
REMARK    4  A    between atoms: C7_7  and  C9_9 
ROOT
HETATM    1  C9  UNL     1      -5.500 -10.581   4.101  1.00  0.00    -0.002 C 
HETATM    2  C10 UNL     1      -6.790 -11.272   3.587  1.00  0.00     0.007 C 
HETATM    3  C11 UNL     1      -7.803 -11.239   4.756  1.00  0.00     0.015 C 
HETATM    4  C12 UNL     1      -7.204 -10.245   5.779  1.00  0.00    -0.013 C 
HETATM    5  C13 UNL     1      -7.633  -8.825   5.284  1.00  0.00     0.021 C 
HETATM    6  C14 UNL     1      -7.613 -10.309   7.249  1.00  0.00    -0.070 C 
HETATM    7  C15 UNL     1      -8.681 -11.003   7.677  1.00  0.00    -0.022 C 
HETATM    8  C16 UNL     1      -9.200 -10.982   9.085  1.00  0.00     0.038 C 
HETATM    9  C17 UNL     1      -8.712  -9.768   9.940  1.00  0.00    -0.019 C 
HETATM   10  C18 UNL     1      -9.423  -8.499   9.348  1.00  0.00     0.017 C 
HETATM   11  C19 UNL     1      -9.121  -9.940  11.494  1.00  0.00     0.021 C 
HETATM   12  C20 UNL     1      -9.324 -11.416  11.932  1.00  0.00     0.024 C 
HETATM   13  C21 UNL     1     -10.443  -9.229  11.878  1.00  0.00     0.024 C 
HETATM   14  C22 UNL     1      -8.044  -9.321  12.405  1.00  0.00     0.135 C 
HETATM   15  O1  UNL     1      -7.861  -9.706  13.562  1.00  0.00    -0.297 OA
HETATM   16  C23 UNL     1      -7.269  -8.141  11.878  1.00  0.00     0.080 C 
HETATM   17  C24 UNL     1      -6.596  -8.406  10.536  1.00  0.00     0.018 C 
HETATM   18  C25 UNL     1      -7.127  -9.636   9.743  1.00  0.00    -0.028 C 
HETATM   19  C26 UNL     1      -6.380 -10.895  10.277  1.00  0.00     0.016 C 
HETATM   20  C27 UNL     1      -6.773  -9.430   8.197  1.00  0.00     0.024 C 
HETATM   21  C28 UNL     1      -5.242  -9.464   7.889  1.00  0.00     0.010 C 
HETATM   22  C29 UNL     1      -4.862  -9.513   6.397  1.00  0.00     0.011 C 
HETATM   23  C30 UNL     1      -5.679 -10.582   5.649  1.00  0.00    -0.029 C 
HETATM   24  C31 UNL     1      -5.320 -11.976   6.245  1.00  0.00     0.016 C 
ENDROOT
BRANCH   1  25
HETATM   25  C7  UNL     1      -4.151 -11.082   3.498  1.00  0.00    -0.014 C 
HETATM   26  C8  UNL     1      -3.199  -9.876   3.388  1.00  0.00     0.010 C 
BRANCH  25  27
HETATM   27  C6  UNL     1      -4.260 -11.790   2.124  1.00  0.00     0.008 C 
BRANCH  27  28
HETATM   28  C5  UNL     1      -3.704 -10.980   0.938  1.00  0.00     0.028 C 
BRANCH  28  29
HETATM   29  C4  UNL     1      -4.762 -10.400   0.041  1.00  0.00    -0.025 C 
HETATM   30  C2  UNL     1      -5.023 -10.701  -1.245  1.00  0.00    -0.091 C 
HETATM   31  C1  UNL     1      -4.272 -11.703  -2.079  1.00  0.00     0.042 C 
HETATM   32  C3  UNL     1      -6.142 -10.007  -1.979  1.00  0.00     0.042 C 
ENDBRANCH  28  29
ENDBRANCH  27  28
ENDBRANCH  25  27
ENDBRANCH   1  25
TORSDOF 4
ENDMDL
MODEL 3
REMARK minimizedAffinity -6.32859325
REMARK CNNscore 0.370766103
REMARK CNNaffinity 6.1775589
REMARK  4 active torsions:
REMARK  status: ('A' for Active; 'I' for Inactive)
REMARK    1  A    between atoms: C4_4  and  C5_5 
REMARK    2  A    between atoms: C5_5  and  C6_6 
REMARK    3  A    between atoms: C6_6  and  C7_7 
REMARK    4  A    between atoms: C7_7  and  C9_9 
ROOT
HETATM    1  C9  UNL     1      -3.012  10.345  15.086  1.00  0.00    -0.002 C 
HETATM    2  C10 UNL     1      -3.963   9.950  16.246  1.00  0.00     0.007 C 
HETATM    3  C11 UNL     1      -3.198  10.232  17.560  1.00  0.00     0.015 C 
HETATM    4  C12 UNL     1      -1.979  11.086  17.139  1.00  0.00    -0.013 C 
HETATM    5  C13 UNL     1      -2.506  12.557  17.058  1.00  0.00     0.021 C 
HETATM    6  C14 UNL     1      -0.733  11.144  18.022  1.00  0.00    -0.070 C 
HETATM    7  C15 UNL     1      -0.724  10.715  19.296  1.00  0.00    -0.022 C 
HETATM    8  C16 UNL     1       0.430  10.879  20.240  1.00  0.00     0.038 C 
HETATM    9  C17 UNL     1       1.467  11.970  19.816  1.00  0.00    -0.019 C 
HETATM   10  C18 UNL     1       0.746  13.353  19.994  1.00  0.00     0.017 C 
HETATM   11  C19 UNL     1       2.784  11.924  20.751  1.00  0.00     0.021 C 
HETATM   12  C20 UNL     1       3.044  10.540  21.405  1.00  0.00     0.024 C 
HETATM   13  C21 UNL     1       2.748  12.920  21.937  1.00  0.00     0.024 C 
HETATM   14  C22 UNL     1       4.035  12.304  19.935  1.00  0.00     0.135 C 
HETATM   15  O1  UNL     1       5.163  11.911  20.240  1.00  0.00    -0.297 OA
HETATM   16  C23 UNL     1       3.863  13.270  18.792  1.00  0.00     0.080 C 
HETATM   17  C24 UNL     1       2.808  12.836  17.782  1.00  0.00     0.018 C 
HETATM   18  C25 UNL     1       1.815  11.740  18.269  1.00  0.00    -0.028 C 
HETATM   19  C26 UNL     1       2.493  10.357  18.037  1.00  0.00     0.016 C 
HETATM   20  C27 UNL     1       0.488  11.831  17.380  1.00  0.00     0.024 C 
HETATM   21  C28 UNL     1       0.704  11.449  15.881  1.00  0.00     0.010 C 
HETATM   22  C29 UNL     1      -0.578  11.288  15.042  1.00  0.00     0.011 C 
HETATM   23  C30 UNL     1      -1.614  10.414  15.771  1.00  0.00    -0.029 C 
HETATM   24  C31 UNL     1      -1.014   8.988  15.945  1.00  0.00     0.016 C 
ENDROOT
BRANCH   1  25
HETATM   25  C7  UNL     1      -3.162   9.543  13.756  1.00  0.00    -0.014 C 
HETATM   26  C8  UNL     1      -3.915   8.236  14.069  1.00  0.00     0.010 C 
BRANCH  25  27
HETATM   27  C6  UNL     1      -1.837   9.221  13.021  1.00  0.00     0.008 C 
BRANCH  27  28
HETATM   28  C5  UNL     1      -1.728   7.777  12.497  1.00  0.00     0.028 C 
BRANCH  28  29
HETATM   29  C4  UNL     1      -0.356   7.401  12.013  1.00  0.00    -0.025 C 
HETATM   30  C2  UNL     1       0.089   6.191  11.623  1.00  0.00    -0.091 C 
HETATM   31  C1  UNL     1      -0.720   4.924  11.606  1.00  0.00     0.042 C 
HETATM   32  C3  UNL     1       1.514   6.016  11.160  1.00  0.00     0.042 C 
ENDBRANCH  28  29
ENDBRANCH  27  28
ENDBRANCH  25  27
ENDBRANCH   1  25
TORSDOF 4
ENDMDL
MODEL 4
REMARK minimizedAffinity -6.62121677
REMARK CNNscore 0.355130076
REMARK CNNaffinity 5.6306138
REMARK  4 active torsions:
REMARK  status: ('A' for Active; 'I' for Inactive)
REMARK    1  A    between atoms: C4_4  and  C5_5 
REMARK    2  A    between atoms: C5_5  and  C6_6 
REMARK    3  A    between atoms: C6_6  and  C7_7 
REMARK    4  A    between atoms: C7_7  and  C9_9 
ROOT
HETATM    1  C9  UNL     1       3.721   7.685  11.182  1.00  0.00    -0.002 C 
HETATM    2  C10 UNL     1       4.292   8.314   9.885  1.00  0.00     0.007 C 
HETATM    3  C11 UNL     1       5.609   9.023  10.281  1.00  0.00     0.015 C 
HETATM    4  C12 UNL     1       5.933   8.503  11.701  1.00  0.00    -0.013 C 
HETATM    5  C13 UNL     1       6.660   7.134  11.491  1.00  0.00     0.021 C 
HETATM    6  C14 UNL     1       6.836   9.309  12.632  1.00  0.00    -0.070 C 
HETATM    7  C15 UNL     1       7.605  10.324  12.200  1.00  0.00    -0.022 C 
HETATM    8  C16 UNL     1       8.608  11.051  13.047  1.00  0.00     0.038 C 
HETATM    9  C17 UNL     1       9.045  10.286  14.339  1.00  0.00    -0.019 C 
HETATM   10  C18 UNL     1       9.902   9.063  13.856  1.00  0.00     0.017 C 
HETATM   11  C19 UNL     1       9.939  11.225  15.304  1.00  0.00     0.021 C 
HETATM   12  C20 UNL     1       9.685  12.744  15.116  1.00  0.00     0.024 C 
HETATM   13  C21 UNL     1      11.466  11.052  15.109  1.00  0.00     0.024 C 
HETATM   14  C22 UNL     1       9.674  10.881  16.782  1.00  0.00     0.135 C 
HETATM   15  O1  UNL     1       9.835  11.702  17.688  1.00  0.00    -0.297 OA
HETATM   16  C23 UNL     1       9.303   9.460  17.120  1.00  0.00     0.080 C 
HETATM   17  C24 UNL     1       8.102   8.943  16.337  1.00  0.00     0.018 C 
HETATM   18  C25 UNL     1       7.718   9.758  15.067  1.00  0.00    -0.028 C 
HETATM   19  C26 UNL     1       6.812  10.940  15.525  1.00  0.00     0.016 C 
HETATM   20  C27 UNL     1       6.887   8.806  14.088  1.00  0.00     0.024 C 
HETATM   21  C28 UNL     1       5.492   8.383  14.652  1.00  0.00     0.010 C 
HETATM   22  C29 UNL     1       4.559   7.669  13.655  1.00  0.00     0.011 C 
HETATM   23  C30 UNL     1       4.493   8.424  12.315  1.00  0.00    -0.029 C 
HETATM   24  C31 UNL     1       3.875   9.830  12.576  1.00  0.00     0.016 C 
ENDROOT
BRANCH   1  25
HETATM   25  C7  UNL     1       2.168   7.570  11.278  1.00  0.00    -0.014 C 
HETATM   26  C8  UNL     1       1.819   6.116  11.652  1.00  0.00     0.010 C 
BRANCH  25  27
HETATM   27  C6  UNL     1       1.391   7.984  10.004  1.00  0.00     0.008 C 
BRANCH  27  28
HETATM   28  C5  UNL     1      -0.142   7.940  10.144  1.00  0.00     0.028 C 
BRANCH  28  29
HETATM   29  C4  UNL     1      -0.685   8.830  11.226  1.00  0.00    -0.025 C 
HETATM   30  C2  UNL     1      -1.351   8.477  12.343  1.00  0.00    -0.091 C 
HETATM   31  C1  UNL     1      -1.711   7.072  12.739  1.00  0.00     0.042 C 
HETATM   32  C3  UNL     1      -1.814   9.528  13.320  1.00  0.00     0.042 C 
ENDBRANCH  28  29
ENDBRANCH  27  28
ENDBRANCH  25  27
ENDBRANCH   1  25
TORSDOF 4
ENDMDL
MODEL 5
REMARK minimizedAffinity -8.23225403
REMARK CNNscore 0.347901762
REMARK CNNaffinity 6.68223715
REMARK  4 active torsions:
REMARK  status: ('A' for Active; 'I' for Inactive)
REMARK    1  A    between atoms: C4_4  and  C5_5 
REMARK    2  A    between atoms: C5_5  and  C6_6 
REMARK    3  A    between atoms: C6_6  and  C7_7 
REMARK    4  A    between atoms: C7_7  and  C9_9 
ROOT
HETATM    1  C9  UNL     1      -5.933   6.360  14.739  1.00  0.00    -0.002 C 
HETATM    2  C10 UNL     1      -6.061   5.259  13.654  1.00  0.00     0.007 C 
HETATM    3  C11 UNL     1      -4.682   5.159  12.961  1.00  0.00     0.015 C 
HETATM    4  C12 UNL     1      -3.715   5.949  13.875  1.00  0.00    -0.013 C 
HETATM    5  C13 UNL     1      -3.292   4.948  15.000  1.00  0.00     0.021 C 
HETATM    6  C14 UNL     1      -2.412   6.515  13.316  1.00  0.00    -0.070 C 
HETATM    7  C15 UNL     1      -1.904   6.136  12.131  1.00  0.00    -0.022 C 
HETATM    8  C16 UNL     1      -0.563   6.558  11.606  1.00  0.00     0.038 C 
HETATM    9  C17 UNL     1       0.418   7.104  12.694  1.00  0.00    -0.019 C 
HETATM   10  C18 UNL     1       0.825   5.872  13.577  1.00  0.00     0.017 C 
HETATM   11  C19 UNL     1       1.741   7.748  12.023  1.00  0.00     0.021 C 
HETATM   12  C20 UNL     1       1.529   8.247  10.568  1.00  0.00     0.024 C 
HETATM   13  C21 UNL     1       2.940   6.770  11.936  1.00  0.00     0.024 C 
HETATM   14  C22 UNL     1       2.243   8.938  12.863  1.00  0.00     0.135 C 
HETATM   15  O1  UNL     1       2.899   9.859  12.371  1.00  0.00    -0.297 OA
HETATM   16  C23 UNL     1       2.001   8.904  14.350  1.00  0.00     0.080 C 
HETATM   17  C24 UNL     1       0.537   8.704  14.723  1.00  0.00     0.018 C 
HETATM   18  C25 UNL     1      -0.384   8.165  13.588  1.00  0.00    -0.028 C 
HETATM   19  C26 UNL     1      -0.848   9.388  12.742  1.00  0.00     0.016 C 
HETATM   20  C27 UNL     1      -1.661   7.474  14.260  1.00  0.00     0.024 C 
HETATM   21  C28 UNL     1      -2.598   8.474  15.010  1.00  0.00     0.010 C 
HETATM   22  C29 UNL     1      -3.955   7.903  15.464  1.00  0.00     0.011 C 
HETATM   23  C30 UNL     1      -4.643   7.129  14.325  1.00  0.00    -0.029 C 
HETATM   24  C31 UNL     1      -4.945   8.129  13.168  1.00  0.00     0.016 C 
ENDROOT
BRANCH   1  25
HETATM   25  C7  UNL     1      -7.224   7.173  15.067  1.00  0.00    -0.014 C 
HETATM   26  C8  UNL     1      -7.456   7.107  16.588  1.00  0.00     0.010 C 
BRANCH  25  27
HETATM   27  C6  UNL     1      -8.503   6.717  14.321  1.00  0.00     0.008 C 
BRANCH  27  28
HETATM   28  C5  UNL     1      -9.734   7.613  14.552  1.00  0.00     0.028 C 
BRANCH  28  29
HETATM   29  C4  UNL     1     -11.016   7.047  14.010  1.00  0.00    -0.025 C 
HETATM   30  C2  UNL     1     -12.072   7.710  13.500  1.00  0.00    -0.091 C 
HETATM   31  C1  UNL     1     -12.194   9.204  13.382  1.00  0.00     0.042 C 
HETATM   32  C3  UNL     1     -13.276   6.954  12.996  1.00  0.00     0.042 C 
ENDBRANCH  28  29
ENDBRANCH  27  28
ENDBRANCH  25  27
ENDBRANCH   1  25
TORSDOF 4
ENDMDL
MODEL 6
REMARK minimizedAffinity -7.61000347
REMARK CNNscore 0.344483823
REMARK CNNaffinity 6.78716898
REMARK  4 active torsions:
REMARK  status: ('A' for Active; 'I' for Inactive)
REMARK    1  A    between atoms: C4_4  and  C5_5 
REMARK    2  A    between atoms: C5_5  and  C6_6 
REMARK    3  A    between atoms: C6_6  and  C7_7 
REMARK    4  A    between atoms: C7_7  and  C9_9 
ROOT
HETATM    1  C9  UNL     1      -6.112   4.887  13.835  1.00  0.00    -0.002 C 
HETATM    2  C10 UNL     1      -5.960   4.327  12.397  1.00  0.00     0.007 C 
HETATM    3  C11 UNL     1      -4.517   4.655  11.946  1.00  0.00     0.015 C 
HETATM    4  C12 UNL     1      -3.780   5.083  13.236  1.00  0.00    -0.013 C 
HETATM    5  C13 UNL     1      -3.330   3.752  13.923  1.00  0.00     0.021 C 
HETATM    6  C14 UNL     1      -2.526   5.952  13.159  1.00  0.00    -0.070 C 
HETATM    7  C15 UNL     1      -1.846   6.147  12.016  1.00  0.00    -0.022 C 
HETATM    8  C16 UNL     1      -0.537   6.874  11.918  1.00  0.00     0.038 C 
HETATM    9  C17 UNL     1       0.232   7.012  13.272  1.00  0.00    -0.019 C 
HETATM   10  C18 UNL     1       0.726   5.570  13.646  1.00  0.00     0.017 C 
HETATM   11  C19 UNL     1       1.505   7.998  13.127  1.00  0.00     0.021 C 
HETATM   12  C20 UNL     1       1.372   9.032  11.977  1.00  0.00     0.024 C 
HETATM   13  C21 UNL     1       2.840   7.263  12.848  1.00  0.00     0.024 C 
HETATM   14  C22 UNL     1       1.732   8.776  14.438  1.00  0.00     0.135 C 
HETATM   15  O1  UNL     1       2.289   9.876  14.461  1.00  0.00    -0.297 OA
HETATM   16  C23 UNL     1       1.345   8.107  15.731  1.00  0.00     0.080 C 
HETATM   17  C24 UNL     1      -0.103   7.632  15.761  1.00  0.00     0.018 C 
HETATM   18  C25 UNL     1      -0.809   7.526  14.377  1.00  0.00    -0.028 C 
HETATM   19  C26 UNL     1      -1.362   8.939  14.024  1.00  0.00     0.016 C 
HETATM   20  C27 UNL     1      -2.030   6.501  14.511  1.00  0.00     0.024 C 
HETATM   21  C28 UNL     1      -3.180   7.007  15.440  1.00  0.00     0.010 C 
HETATM   22  C29 UNL     1      -4.475   6.173  15.412  1.00  0.00     0.011 C 
HETATM   23  C30 UNL     1      -4.917   5.878  13.967  1.00  0.00    -0.029 C 
HETATM   24  C31 UNL     1      -5.244   7.232  13.271  1.00  0.00     0.016 C 
ENDROOT
BRANCH   1  25
HETATM   25  C7  UNL     1      -7.537   5.364  14.252  1.00  0.00    -0.014 C 
HETATM   26  C8  UNL     1      -8.335   5.665  12.969  1.00  0.00     0.010 C 
BRANCH  25  27
HETATM   27  C6  UNL     1      -7.578   6.593  15.194  1.00  0.00     0.008 C 
BRANCH  27  28
HETATM   28  C5  UNL     1      -8.958   6.880  15.816  1.00  0.00     0.028 C 
BRANCH  28  29
HETATM   29  C4  UNL     1      -9.648   8.087  15.246  1.00  0.00    -0.025 C 
HETATM   30  C2  UNL     1     -10.801   8.140  14.550  1.00  0.00    -0.091 C 
HETATM   31  C1  UNL     1     -11.652   6.957  14.176  1.00  0.00     0.042 C 
HETATM   32  C3  UNL     1     -11.339   9.462  14.065  1.00  0.00     0.042 C 
ENDBRANCH  28  29
ENDBRANCH  27  28
ENDBRANCH  25  27
ENDBRANCH   1  25
TORSDOF 4
ENDMDL
MODEL 7
REMARK minimizedAffinity -7.52185869
REMARK CNNscore 0.333074242
REMARK CNNaffinity 6.4478569
REMARK  4 active torsions:
REMARK  status: ('A' for Active; 'I' for Inactive)
REMARK    1  A    between atoms: C4_4  and  C5_5 
REMARK    2  A    between atoms: C5_5  and  C6_6 
REMARK    3  A    between atoms: C6_6  and  C7_7 
REMARK    4  A    between atoms: C7_7  and  C9_9 
ROOT
HETATM    1  C9  UNL     1     -10.262   8.018  15.024  1.00  0.00    -0.002 C 
HETATM    2  C10 UNL     1      -9.983   9.526  14.794  1.00  0.00     0.007 C 
HETATM    3  C11 UNL     1     -11.316  10.155  14.322  1.00  0.00     0.015 C 
HETATM    4  C12 UNL     1     -12.391   9.082  14.616  1.00  0.00    -0.013 C 
HETATM    5  C13 UNL     1     -12.766   9.266  16.123  1.00  0.00     0.021 C 
HETATM    6  C14 UNL     1     -13.717   9.090  13.858  1.00  0.00    -0.070 C 
HETATM    7  C15 UNL     1     -14.136  10.142  13.135  1.00  0.00    -0.022 C 
HETATM    8  C16 UNL     1     -15.487  10.249  12.491  1.00  0.00     0.038 C 
HETATM    9  C17 UNL     1     -16.561   9.270  13.067  1.00  0.00    -0.019 C 
HETATM   10  C18 UNL     1     -16.887   9.780  14.516  1.00  0.00     0.017 C 
HETATM   11  C19 UNL     1     -17.908   9.283  12.175  1.00  0.00     0.021 C 
HETATM   12  C20 UNL     1     -17.683   9.717  10.701  1.00  0.00     0.024 C 
HETATM   13  C21 UNL     1     -19.005  10.240  12.706  1.00  0.00     0.024 C 
HETATM   14  C22 UNL     1     -18.556   7.885  12.162  1.00  0.00     0.135 C 
HETATM   15  O1  UNL     1     -19.274   7.502  11.236  1.00  0.00    -0.297 OA
HETATM   16  C23 UNL     1     -18.376   7.013  13.377  1.00  0.00     0.080 C 
HETATM   17  C24 UNL     1     -16.917   6.806  13.766  1.00  0.00     0.018 C 
HETATM   18  C25 UNL     1     -15.902   7.811  13.148  1.00  0.00    -0.028 C 
HETATM   19  C26 UNL     1     -15.519   7.282  11.734  1.00  0.00     0.016 C 
HETATM   20  C27 UNL     1     -14.595   7.841  14.070  1.00  0.00     0.024 C 
HETATM   21  C28 UNL     1     -13.790   6.502  14.067  1.00  0.00     0.010 C 
HETATM   22  C29 UNL     1     -12.406   6.555  14.741  1.00  0.00     0.011 C 
HETATM   23  C30 UNL     1     -11.599   7.776  14.263  1.00  0.00    -0.029 C 
HETATM   24  C31 UNL     1     -11.344   7.624  12.734  1.00  0.00     0.016 C 
ENDROOT
BRANCH   1  25
HETATM   25  C7  UNL     1      -9.069   7.043  14.782  1.00  0.00    -0.014 C 
HETATM   26  C8  UNL     1      -7.766   7.865  14.814  1.00  0.00     0.010 C 
BRANCH  25  27
HETATM   27  C6  UNL     1      -9.137   6.220  13.472  1.00  0.00     0.008 C 
BRANCH  27  28
HETATM   28  C5  UNL     1      -7.768   5.873  12.859  1.00  0.00     0.028 C 
BRANCH  28  29
HETATM   29  C4  UNL     1      -7.621   4.432  12.460  1.00  0.00    -0.025 C 
HETATM   30  C2  UNL     1      -6.507   3.675  12.454  1.00  0.00    -0.091 C 
HETATM   31  C1  UNL     1      -5.131   4.141  12.846  1.00  0.00     0.042 C 
HETATM   32  C3  UNL     1      -6.566   2.233  12.020  1.00  0.00     0.042 C 
ENDBRANCH  28  29
ENDBRANCH  27  28
ENDBRANCH  25  27
ENDBRANCH   1  25
TORSDOF 4
ENDMDL
MODEL 8
REMARK minimizedAffinity -7.06075001
REMARK CNNscore 0.316499352
REMARK CNNaffinity 6.81566954
REMARK  4 active torsions:
REMARK  status: ('A' for Active; 'I' for Inactive)
REMARK    1  A    between atoms: C4_4  and  C5_5 
REMARK    2  A    between atoms: C5_5  and  C6_6 
REMARK    3  A    between atoms: C6_6  and  C7_7 
REMARK    4  A    between atoms: C7_7  and  C9_9 
ROOT
HETATM    1  C9  UNL     1      -8.006   6.064  14.386  1.00  0.00    -0.002 C 
HETATM    2  C10 UNL     1      -7.779   5.051  15.538  1.00  0.00     0.007 C 
HETATM    3  C11 UNL     1      -6.302   5.200  15.974  1.00  0.00     0.015 C 
HETATM    4  C12 UNL     1      -5.818   6.509  15.307  1.00  0.00    -0.013 C 
HETATM    5  C13 UNL     1      -6.281   7.661  16.259  1.00  0.00     0.021 C 
HETATM    6  C14 UNL     1      -4.329   6.749  15.064  1.00  0.00    -0.070 C 
HETATM    7  C15 UNL     1      -3.370   6.010  15.648  1.00  0.00    -0.022 C 
HETATM    8  C16 UNL     1      -1.900   6.295  15.550  1.00  0.00     0.038 C 
HETATM    9  C17 UNL     1      -1.548   7.752  15.106  1.00  0.00    -0.019 C 
HETATM   10  C18 UNL     1      -1.947   8.685  16.304  1.00  0.00     0.017 C 
HETATM   11  C19 UNL     1       0.032   7.909  14.803  1.00  0.00     0.021 C 
HETATM   12  C20 UNL     1       0.733   6.580  14.413  1.00  0.00     0.024 C 
HETATM   13  C21 UNL     1       0.851   8.452  16.001  1.00  0.00     0.024 C 
HETATM   14  C22 UNL     1       0.261   8.917  13.660  1.00  0.00     0.135 C 
HETATM   15  O1  UNL     1       1.259   8.876  12.937  1.00  0.00    -0.297 OA
HETATM   16  C23 UNL     1      -0.729  10.043  13.504  1.00  0.00     0.080 C 
HETATM   17  C24 UNL     1      -2.172   9.570  13.375  1.00  0.00     0.018 C 
HETATM   18  C25 UNL     1      -2.448   8.105  13.827  1.00  0.00    -0.028 C 
HETATM   19  C26 UNL     1      -2.117   7.173  12.624  1.00  0.00     0.016 C 
HETATM   20  C27 UNL     1      -4.001   7.972  14.186  1.00  0.00     0.024 C 
HETATM   21  C28 UNL     1      -4.949   8.130  12.954  1.00  0.00     0.010 C 
HETATM   22  C29 UNL     1      -6.428   7.773  13.201  1.00  0.00     0.011 C 
HETATM   23  C30 UNL     1      -6.561   6.423  13.929  1.00  0.00    -0.029 C 
HETATM   24  C31 UNL     1      -5.982   5.311  13.005  1.00  0.00     0.016 C 
ENDROOT
BRANCH   1  25
HETATM   25  C7  UNL     1      -9.062   5.671  13.308  1.00  0.00    -0.014 C 
HETATM   26  C8  UNL     1      -8.338   5.541  11.954  1.00  0.00     0.010 C 
BRANCH  25  27
HETATM   27  C6  UNL     1     -10.263   6.639  13.168  1.00  0.00     0.008 C 
BRANCH  27  28
HETATM   28  C5  UNL     1     -10.790   7.205  14.500  1.00  0.00     0.028 C 
BRANCH  28  29
HETATM   29  C4  UNL     1     -12.121   7.894  14.391  1.00  0.00    -0.025 C 
HETATM   30  C2  UNL     1     -13.346   7.340  14.325  1.00  0.00    -0.091 C 
HETATM   31  C1  UNL     1     -13.641   5.865  14.331  1.00  0.00     0.042 C 
HETATM   32  C3  UNL     1     -14.573   8.211  14.224  1.00  0.00     0.042 C 
ENDBRANCH  28  29
ENDBRANCH  27  28
ENDBRANCH  25  27
ENDBRANCH   1  25
TORSDOF 4
ENDMDL
MODEL 9
REMARK minimizedAffinity -6.99119473
REMARK CNNscore 0.301953197
REMARK CNNaffinity 6.0020833
REMARK  4 active torsions:
REMARK  status: ('A' for Active; 'I' for Inactive)
REMARK    1  A    between atoms: C4_4  and  C5_5 
REMARK    2  A    between atoms: C5_5  and  C6_6 
REMARK    3  A    between atoms: C6_6  and  C7_7 
REMARK    4  A    between atoms: C7_7  and  C9_9 
ROOT
HETATM    1  C9  UNL     1      12.803  -6.354   7.127  1.00  0.00    -0.002 C 
HETATM    2  C10 UNL     1      11.500  -5.627   6.701  1.00  0.00     0.007 C 
HETATM    3  C11 UNL     1      11.640  -5.320   5.192  1.00  0.00     0.015 C 
HETATM    4  C12 UNL     1      12.847  -6.164   4.720  1.00  0.00    -0.013 C 
HETATM    5  C13 UNL     1      12.275  -7.593   4.440  1.00  0.00     0.021 C 
HETATM    6  C14 UNL     1      13.617  -5.775   3.460  1.00  0.00    -0.070 C 
HETATM    7  C15 UNL     1      13.145  -4.894   2.562  1.00  0.00    -0.022 C 
HETATM    8  C16 UNL     1      13.799  -4.586   1.247  1.00  0.00     0.038 C 
HETATM    9  C17 UNL     1      14.821  -5.665   0.761  1.00  0.00    -0.019 C 
HETATM   10  C18 UNL     1      13.975  -6.931   0.378  1.00  0.00     0.017 C 
HETATM   11  C19 UNL     1      15.645  -5.154  -0.533  1.00  0.00     0.021 C 
HETATM   12  C20 UNL     1      15.735  -3.609  -0.652  1.00  0.00     0.024 C 
HETATM   13  C21 UNL     1      15.045  -5.621  -1.883  1.00  0.00     0.024 C 
HETATM   14  C22 UNL     1      17.081  -5.711  -0.508  1.00  0.00     0.135 C 
HETATM   15  O1  UNL     1      18.018  -5.139  -1.069  1.00  0.00    -0.297 OA
HETATM   16  C23 UNL     1      17.306  -7.052   0.142  1.00  0.00     0.080 C 
HETATM   17  C24 UNL     1      16.793  -7.127   1.575  1.00  0.00     0.018 C 
HETATM   18  C25 UNL     1      15.785  -6.016   1.992  1.00  0.00    -0.028 C 
HETATM   19  C26 UNL     1      16.614  -4.775   2.438  1.00  0.00     0.016 C 
HETATM   20  C27 UNL     1      14.930  -6.551   3.234  1.00  0.00     0.024 C 
HETATM   21  C28 UNL     1      15.768  -6.755   4.537  1.00  0.00     0.010 C 
HETATM   22  C29 UNL     1      14.955  -7.035   5.815  1.00  0.00     0.011 C 
HETATM   23  C30 UNL     1      13.791  -6.039   5.965  1.00  0.00    -0.029 C 
HETATM   24  C31 UNL     1      14.389  -4.609   6.122  1.00  0.00     0.016 C 
ENDROOT
BRANCH   1  25
HETATM   25  C7  UNL     1      13.275  -6.137   8.598  1.00  0.00    -0.014 C 
HETATM   26  C8  UNL     1      12.086  -5.579   9.404  1.00  0.00     0.010 C 
BRANCH  25  27
HETATM   27  C6  UNL     1      14.505  -5.213   8.773  1.00  0.00     0.008 C 
BRANCH  27  28
HETATM   28  C5  UNL     1      15.802  -5.939   9.176  1.00  0.00     0.028 C 
BRANCH  28  29
HETATM   29  C4  UNL     1      16.631  -5.200  10.187  1.00  0.00    -0.025 C 
HETATM   30  C2  UNL     1      17.703  -5.642  10.873  1.00  0.00    -0.091 C 
HETATM   31  C1  UNL     1      18.298  -7.019  10.774  1.00  0.00     0.042 C 
HETATM   32  C3  UNL     1      18.411  -4.736  11.849  1.00  0.00     0.042 C 
ENDBRANCH  28  29
ENDBRANCH  27  28
ENDBRANCH  25  27
ENDBRANCH   1  25
TORSDOF 4
ENDMDL
