MODEL 1
REMARK minimizedAffinity -9.93877411
REMARK  10 active torsions:
REMARK  status: ('A' for Active; 'I' for Inactive)
REMARK    1  A    between atoms: C14_14  and  C15_15 
REMARK    2  A    between atoms: C15_15  and  C17_17 
REMARK    3  A    between atoms: C17_17  and  C18_18 
REMARK    4  A    between atoms: C18_18  and  C19_19 
REMARK    5  A    between atoms: C20_20  and  C22_22 
REMARK    6  A    between atoms: C22_22  and  O2_24 
REMARK    7  A    between atoms: C27_29  and  C28_30 
REMARK    8  A    between atoms: C28_30  and  C29_31 
REMARK    9  A    between atoms: C29_31  and  C30_32 
REMARK   10  A    between atoms: C30_32  and  O4_34 
ROOT
HETATM    1  C1  UNL     1      -1.954  50.065 -16.250  1.00  0.00     0.043 C 
HETATM    2  C2  UNL     1      -1.203  50.529 -17.484  1.00  0.00    -0.085 C 
HETATM    3  C3  UNL     1       0.258  50.171 -17.384  1.00  0.00     0.043 C 
HETATM    4  C4  UNL     1      -1.824  51.134 -18.534  1.00  0.00    -0.073 C 
HETATM    5  C5  UNL     1      -3.346  51.111 -18.596  1.00  0.00     0.035 C 
HETATM    6  C6  UNL     1      -3.914  51.317 -20.000  1.00  0.00     0.010 C 
HETATM    7  C7  UNL     1      -3.120  50.587 -21.118  1.00  0.00     0.003 C 
HETATM    8  C8  UNL     1      -1.529  50.828 -21.039  1.00  0.00    -0.032 C 
HETATM    9  C9  UNL     1      -0.775  49.491 -20.805  1.00  0.00     0.016 C 
HETATM   10  C10 UNL     1      -0.959  51.410 -22.371  1.00  0.00     0.011 C 
HETATM   11  C11 UNL     1      -1.486  50.826 -23.700  1.00  0.00     0.011 C 
HETATM   12  C12 UNL     1      -2.892  50.202 -23.654  1.00  0.00    -0.032 C 
HETATM   13  C13 UNL     1      -2.776  48.654 -23.463  1.00  0.00     0.016 C 
HETATM   14  C14 UNL     1      -3.792  50.438 -24.920  1.00  0.00    -0.002 C 
HETATM   15  C23 UNL     1      -5.230  50.262 -24.338  1.00  0.00     0.006 C 
HETATM   16  C24 UNL     1      -5.121  50.315 -22.802  1.00  0.00     0.011 C 
HETATM   17  C25 UNL     1      -3.725  50.910 -22.531  1.00  0.00    -0.032 C 
HETATM   18  C26 UNL     1      -3.886  52.459 -22.712  1.00  0.00     0.016 C 
HETATM   19  C27 UNL     1      -1.226  51.782 -19.804  1.00  0.00     0.024 C 
ENDROOT
BRANCH  14  20
HETATM   20  C15 UNL     1      -3.551  49.589 -26.207  1.00  0.00    -0.014 C 
HETATM   21  C16 UNL     1      -4.191  48.199 -26.079  1.00  0.00     0.010 C 
BRANCH  20  22
HETATM   22  C17 UNL     1      -2.031  49.437 -26.497  1.00  0.00     0.008 C 
BRANCH  22  23
HETATM   23  C18 UNL     1      -1.366  50.706 -27.057  1.00  0.00     0.028 C 
BRANCH  23  24
HETATM   24  C19 UNL     1       0.121  50.768 -26.858  1.00  0.00    -0.013 C 
HETATM   25  C20 UNL     1       0.997  51.621 -27.427  1.00  0.00     0.008 C 
HETATM   26  C21 UNL     1       0.670  52.680 -28.436  1.00  0.00     0.055 C 
BRANCH  25  27
HETATM   27  C22 UNL     1       2.421  51.469 -27.026  1.00  0.00     0.171 C 
HETATM   28  O1  UNL     1       2.855  50.774 -26.124  1.00  0.00    -0.646 OA
BRANCH  27  29
HETATM   29  O2  UNL     1       3.246  52.213 -27.780  1.00  0.00    -0.773 OA
HETATM   30  H35 UNL     1       4.130  52.024 -27.402  1.00  0.00     0.167 HD
ENDBRANCH  27  29
ENDBRANCH  25  27
ENDBRANCH  23  24
ENDBRANCH  22  23
ENDBRANCH  20  22
ENDBRANCH  14  20
BRANCH  19  31
HETATM   31  C28 UNL     1       0.203  52.389 -19.713  1.00  0.00     0.020 C 
BRANCH  31  32
HETATM   32  C29 UNL     1       0.725  52.912 -21.057  1.00  0.00     0.110 C 
BRANCH  32  33
HETATM   33  C30 UNL     1       1.608  54.122 -20.966  1.00  0.00     0.139 C 
HETATM   34  O3  UNL     1       1.879  54.888 -21.876  1.00  0.00    -0.650 OA
BRANCH  33  35
HETATM   35  O4  UNL     1       2.133  54.295 -19.739  1.00  0.00    -0.776 OA
HETATM   36  H48 UNL     1       2.652  55.121 -19.829  1.00  0.00     0.167 HD
ENDBRANCH  33  35
ENDBRANCH  32  33
ENDBRANCH  31  32
ENDBRANCH  19  31
TORSDOF 10
ENDMDL
MODEL 2
REMARK minimizedAffinity -9.32346439
REMARK  10 active torsions:
REMARK  status: ('A' for Active; 'I' for Inactive)
REMARK    1  A    between atoms: C14_14  and  C15_15 
REMARK    2  A    between atoms: C15_15  and  C17_17 
REMARK    3  A    between atoms: C17_17  and  C18_18 
REMARK    4  A    between atoms: C18_18  and  C19_19 
REMARK    5  A    between atoms: C20_20  and  C22_22 
REMARK    6  A    between atoms: C22_22  and  O2_24 
REMARK    7  A    between atoms: C27_29  and  C28_30 
REMARK    8  A    between atoms: C28_30  and  C29_31 
REMARK    9  A    between atoms: C29_31  and  C30_32 
REMARK   10  A    between atoms: C30_32  and  O4_34 
ROOT
HETATM    1  C1  UNL     1      -8.906  47.163 -22.678  1.00  0.00     0.043 C 
HETATM    2  C2  UNL     1      -7.783  47.848 -23.435  1.00  0.00    -0.085 C 
HETATM    3  C3  UNL     1      -8.335  48.862 -24.405  1.00  0.00     0.043 C 
HETATM    4  C4  UNL     1      -6.470  47.583 -23.193  1.00  0.00    -0.073 C 
HETATM    5  C5  UNL     1      -6.102  46.777 -21.953  1.00  0.00     0.035 C 
HETATM    6  C6  UNL     1      -4.662  46.980 -21.483  1.00  0.00     0.010 C 
HETATM    7  C7  UNL     1      -4.165  48.449 -21.581  1.00  0.00     0.003 C 
HETATM    8  C8  UNL     1      -4.468  49.136 -23.007  1.00  0.00    -0.032 C 
HETATM    9  C9  UNL     1      -5.411  50.360 -22.845  1.00  0.00     0.016 C 
HETATM   10  C10 UNL     1      -3.170  49.685 -23.678  1.00  0.00     0.011 C 
HETATM   11  C11 UNL     1      -2.145  50.416 -22.783  1.00  0.00     0.011 C 
HETATM   12  C12 UNL     1      -2.156  50.034 -21.292  1.00  0.00    -0.032 C 
HETATM   13  C13 UNL     1      -3.017  51.065 -20.491  1.00  0.00     0.016 C 
HETATM   14  C14 UNL     1      -0.754  49.966 -20.588  1.00  0.00    -0.002 C 
HETATM   15  C23 UNL     1      -1.035  49.009 -19.387  1.00  0.00     0.006 C 
HETATM   16  C24 UNL     1      -2.383  48.310 -19.654  1.00  0.00     0.011 C 
HETATM   17  C25 UNL     1      -2.659  48.556 -21.150  1.00  0.00    -0.032 C 
HETATM   18  C26 UNL     1      -1.798  47.494 -21.918  1.00  0.00     0.016 C 
HETATM   19  C27 UNL     1      -5.203  48.073 -23.932  1.00  0.00     0.024 C 
ENDROOT
BRANCH  14  20
HETATM   20  C15 UNL     1      -0.043  51.287 -20.156  1.00  0.00    -0.014 C 
HETATM   21  C16 UNL     1      -0.599  51.802 -18.821  1.00  0.00     0.010 C 
BRANCH  20  22
HETATM   22  C17 UNL     1      -0.202  52.387 -21.245  1.00  0.00     0.008 C 
BRANCH  22  23
HETATM   23  C18 UNL     1       0.751  52.231 -22.442  1.00  0.00     0.028 C 
BRANCH  23  24
HETATM   24  C19 UNL     1       0.470  53.164 -23.585  1.00  0.00    -0.013 C 
HETATM   25  C20 UNL     1       0.247  52.846 -24.876  1.00  0.00     0.008 C 
HETATM   26  C21 UNL     1       0.279  51.468 -25.465  1.00  0.00     0.055 C 
BRANCH  25  27
HETATM   27  C22 UNL     1      -0.030  53.981 -25.796  1.00  0.00     0.171 C 
HETATM   28  O1  UNL     1       0.247  55.153 -25.613  1.00  0.00    -0.646 OA
BRANCH  27  29
HETATM   29  O2  UNL     1      -0.659  53.589 -26.916  1.00  0.00    -0.773 OA
HETATM   30  H35 UNL     1      -0.782  54.425 -27.411  1.00  0.00     0.167 HD
ENDBRANCH  27  29
ENDBRANCH  25  27
ENDBRANCH  23  24
ENDBRANCH  22  23
ENDBRANCH  20  22
ENDBRANCH  14  20
BRANCH  19  31
HETATM   31  C28 UNL     1      -5.324  48.414 -25.444  1.00  0.00     0.020 C 
BRANCH  31  32
HETATM   32  C29 UNL     1      -3.980  48.376 -26.183  1.00  0.00     0.110 C 
BRANCH  32  33
HETATM   33  C30 UNL     1      -4.045  48.751 -27.634  1.00  0.00     0.139 C 
HETATM   34  O3  UNL     1      -4.208  47.986 -28.570  1.00  0.00    -0.650 OA
BRANCH  33  35
HETATM   35  O4  UNL     1      -3.871  50.069 -27.843  1.00  0.00    -0.776 OA
HETATM   36  H48 UNL     1      -3.964  50.159 -28.814  1.00  0.00     0.167 HD
ENDBRANCH  33  35
ENDBRANCH  32  33
ENDBRANCH  31  32
ENDBRANCH  19  31
TORSDOF 10
ENDMDL
MODEL 3
REMARK minimizedAffinity -9.20611954
REMARK  10 active torsions:
REMARK  status: ('A' for Active; 'I' for Inactive)
REMARK    1  A    between atoms: C14_14  and  C15_15 
REMARK    2  A    between atoms: C15_15  and  C17_17 
REMARK    3  A    between atoms: C17_17  and  C18_18 
REMARK    4  A    between atoms: C18_18  and  C19_19 
REMARK    5  A    between atoms: C20_20  and  C22_22 
REMARK    6  A    between atoms: C22_22  and  O2_24 
REMARK    7  A    between atoms: C27_29  and  C28_30 
REMARK    8  A    between atoms: C28_30  and  C29_31 
REMARK    9  A    between atoms: C29_31  and  C30_32 
REMARK   10  A    between atoms: C30_32  and  O4_34 
ROOT
HETATM    1  C1  UNL     1      -1.877  50.367 -16.200  1.00  0.00     0.043 C 
HETATM    2  C2  UNL     1      -1.174  50.623 -17.520  1.00  0.00    -0.085 C 
HETATM    3  C3  UNL     1       0.286  50.257 -17.426  1.00  0.00     0.043 C 
HETATM    4  C4  UNL     1      -1.831  51.073 -18.625  1.00  0.00    -0.073 C 
HETATM    5  C5  UNL     1      -3.355  51.070 -18.621  1.00  0.00     0.035 C 
HETATM    6  C6  UNL     1      -3.980  51.071 -20.016  1.00  0.00     0.010 C 
HETATM    7  C7  UNL     1      -3.244  50.165 -21.041  1.00  0.00     0.003 C 
HETATM    8  C8  UNL     1      -1.648  50.385 -21.063  1.00  0.00    -0.032 C 
HETATM    9  C9  UNL     1      -0.901  49.085 -20.658  1.00  0.00     0.016 C 
HETATM   10  C10 UNL     1      -1.128  50.746 -22.490  1.00  0.00     0.011 C 
HETATM   11  C11 UNL     1      -1.718  49.977 -23.692  1.00  0.00     0.011 C 
HETATM   12  C12 UNL     1      -3.129  49.395 -23.495  1.00  0.00    -0.032 C 
HETATM   13  C13 UNL     1      -3.024  47.892 -23.074  1.00  0.00     0.016 C 
HETATM   14  C14 UNL     1      -4.079  49.453 -24.745  1.00  0.00    -0.002 C 
HETATM   15  C23 UNL     1      -5.493  49.394 -24.086  1.00  0.00     0.006 C 
HETATM   16  C24 UNL     1      -5.318  49.678 -22.580  1.00  0.00     0.011 C 
HETATM   17  C25 UNL     1      -3.905  50.280 -22.460  1.00  0.00    -0.032 C 
HETATM   18  C26 UNL     1      -4.053  51.787 -22.869  1.00  0.00     0.016 C 
HETATM   19  C27 UNL     1      -1.280  51.510 -20.001  1.00  0.00     0.024 C 
ENDROOT
BRANCH  14  20
HETATM   20  C15 UNL     1      -3.905  48.413 -25.896  1.00  0.00    -0.014 C 
HETATM   21  C16 UNL     1      -2.974  48.952 -26.991  1.00  0.00     0.010 C 
BRANCH  20  22
HETATM   22  C17 UNL     1      -5.280  48.039 -26.520  1.00  0.00     0.008 C 
BRANCH  22  23
HETATM   23  C18 UNL     1      -5.244  47.825 -28.043  1.00  0.00     0.028 C 
BRANCH  23  24
HETATM   24  C19 UNL     1      -6.522  48.173 -28.749  1.00  0.00    -0.013 C 
HETATM   25  C20 UNL     1      -6.723  48.307 -30.076  1.00  0.00     0.008 C 
HETATM   26  C21 UNL     1      -5.681  48.181 -31.145  1.00  0.00     0.055 C 
BRANCH  25  27
HETATM   27  C22 UNL     1      -8.110  48.637 -30.502  1.00  0.00     0.171 C 
HETATM   28  O1  UNL     1      -8.699  48.196 -31.473  1.00  0.00    -0.646 OA
BRANCH  27  29
HETATM   29  O2  UNL     1      -8.699  49.523 -29.683  1.00  0.00    -0.773 OA
HETATM   30  H35 UNL     1      -9.584  49.649 -30.085  1.00  0.00     0.167 HD
ENDBRANCH  27  29
ENDBRANCH  25  27
ENDBRANCH  23  24
ENDBRANCH  22  23
ENDBRANCH  20  22
ENDBRANCH  14  20
BRANCH  19  31
HETATM   31  C28 UNL     1       0.159  52.096 -20.062  1.00  0.00     0.020 C 
BRANCH  31  32
HETATM   32  C29 UNL     1       0.373  53.053 -21.241  1.00  0.00     0.110 C 
BRANCH  32  33
HETATM   33  C30 UNL     1       1.393  54.128 -21.006  1.00  0.00     0.139 C 
HETATM   34  O3  UNL     1       1.862  54.875 -21.849  1.00  0.00    -0.650 OA
BRANCH  33  35
HETATM   35  O4  UNL     1       1.799  54.194 -19.725  1.00  0.00    -0.776 OA
HETATM   36  H48 UNL     1       2.430  54.944 -19.724  1.00  0.00     0.167 HD
ENDBRANCH  33  35
ENDBRANCH  32  33
ENDBRANCH  31  32
ENDBRANCH  19  31
TORSDOF 10
ENDMDL
MODEL 4
REMARK minimizedAffinity -9.04401493
REMARK  10 active torsions:
REMARK  status: ('A' for Active; 'I' for Inactive)
REMARK    1  A    between atoms: C14_14  and  C15_15 
REMARK    2  A    between atoms: C15_15  and  C17_17 
REMARK    3  A    between atoms: C17_17  and  C18_18 
REMARK    4  A    between atoms: C18_18  and  C19_19 
REMARK    5  A    between atoms: C20_20  and  C22_22 
REMARK    6  A    between atoms: C22_22  and  O2_24 
REMARK    7  A    between atoms: C27_29  and  C28_30 
REMARK    8  A    between atoms: C28_30  and  C29_31 
REMARK    9  A    between atoms: C29_31  and  C30_32 
REMARK   10  A    between atoms: C30_32  and  O4_34 
ROOT
HETATM    1  C1  UNL     1      -0.038  53.029 -27.570  1.00  0.00     0.043 C 
HETATM    2  C2  UNL     1      -0.093  52.959 -26.055  1.00  0.00    -0.085 C 
HETATM    3  C3  UNL     1       0.182  54.311 -25.449  1.00  0.00     0.043 C 
HETATM    4  C4  UNL     1      -0.405  51.814 -25.387  1.00  0.00    -0.073 C 
HETATM    5  C5  UNL     1      -0.973  50.639 -26.173  1.00  0.00     0.035 C 
HETATM    6  C6  UNL     1      -1.766  49.647 -25.322  1.00  0.00     0.010 C 
HETATM    7  C7  UNL     1      -2.662  50.313 -24.242  1.00  0.00     0.003 C 
HETATM    8  C8  UNL     1      -1.893  51.424 -23.365  1.00  0.00    -0.032 C 
HETATM    9  C9  UNL     1      -2.540  52.824 -23.549  1.00  0.00     0.016 C 
HETATM   10  C10 UNL     1      -1.971  51.119 -21.836  1.00  0.00     0.011 C 
HETATM   11  C11 UNL     1      -3.318  50.623 -21.264  1.00  0.00     0.011 C 
HETATM   12  C12 UNL     1      -4.251  49.907 -22.257  1.00  0.00    -0.032 C 
HETATM   13  C13 UNL     1      -5.300  50.922 -22.819  1.00  0.00     0.016 C 
HETATM   14  C14 UNL     1      -5.058  48.687 -21.685  1.00  0.00    -0.002 C 
HETATM   15  C23 UNL     1      -5.368  47.864 -22.975  1.00  0.00     0.006 C 
HETATM   16  C24 UNL     1      -4.460  48.401 -24.099  1.00  0.00     0.011 C 
HETATM   17  C25 UNL     1      -3.382  49.225 -23.369  1.00  0.00    -0.032 C 
HETATM   18  C26 UNL     1      -2.342  48.179 -22.838  1.00  0.00     0.016 C 
HETATM   19  C27 UNL     1      -0.389  51.511 -23.871  1.00  0.00     0.024 C 
ENDROOT
BRANCH  14  20
HETATM   20  C15 UNL     1      -6.326  48.942 -20.810  1.00  0.00    -0.014 C 
HETATM   21  C16 UNL     1      -6.514  47.828 -19.772  1.00  0.00     0.010 C 
BRANCH  20  22
HETATM   22  C17 UNL     1      -7.600  49.048 -21.697  1.00  0.00     0.008 C 
BRANCH  22  23
HETATM   23  C18 UNL     1      -7.548  48.199 -22.978  1.00  0.00     0.028 C 
BRANCH  23  24
HETATM   24  C19 UNL     1      -8.479  48.656 -24.064  1.00  0.00    -0.013 C 
HETATM   25  C20 UNL     1      -8.546  48.214 -25.337  1.00  0.00     0.008 C 
HETATM   26  C21 UNL     1      -7.654  47.185 -25.962  1.00  0.00     0.055 C 
BRANCH  25  27
HETATM   27  C22 UNL     1      -9.590  48.833 -26.196  1.00  0.00     0.171 C 
HETATM   28  O1  UNL     1     -10.265  48.274 -27.042  1.00  0.00    -0.646 OA
BRANCH  27  29
HETATM   29  O2  UNL     1      -9.736  50.147 -25.956  1.00  0.00    -0.773 OA
HETATM   30  H35 UNL     1     -10.435  50.416 -26.588  1.00  0.00     0.167 HD
ENDBRANCH  27  29
ENDBRANCH  25  27
ENDBRANCH  23  24
ENDBRANCH  22  23
ENDBRANCH  20  22
ENDBRANCH  14  20
BRANCH  19  31
HETATM   31  C28 UNL     1       0.613  52.298 -22.978  1.00  0.00     0.020 C 
BRANCH  31  32
HETATM   32  C29 UNL     1      -0.052  52.973 -21.771  1.00  0.00     0.110 C 
BRANCH  32  33
HETATM   33  C30 UNL     1       0.819  53.945 -21.031  1.00  0.00     0.139 C 
HETATM   34  O3  UNL     1       1.672  54.667 -21.521  1.00  0.00    -0.650 OA
BRANCH  33  35
HETATM   35  O4  UNL     1       0.597  53.942 -19.704  1.00  0.00    -0.776 OA
HETATM   36  H48 UNL     1       1.208  54.631 -19.370  1.00  0.00     0.167 HD
ENDBRANCH  33  35
ENDBRANCH  32  33
ENDBRANCH  31  32
ENDBRANCH  19  31
TORSDOF 10
ENDMDL
MODEL 5
REMARK minimizedAffinity -8.88868332
REMARK  10 active torsions:
REMARK  status: ('A' for Active; 'I' for Inactive)
REMARK    1  A    between atoms: C14_14  and  C15_15 
REMARK    2  A    between atoms: C15_15  and  C17_17 
REMARK    3  A    between atoms: C17_17  and  C18_18 
REMARK    4  A    between atoms: C18_18  and  C19_19 
REMARK    5  A    between atoms: C20_20  and  C22_22 
REMARK    6  A    between atoms: C22_22  and  O2_24 
REMARK    7  A    between atoms: C27_29  and  C28_30 
REMARK    8  A    between atoms: C28_30  and  C29_31 
REMARK    9  A    between atoms: C29_31  and  C30_32 
REMARK   10  A    between atoms: C30_32  and  O4_34 
ROOT
HETATM    1  C1  UNL     1      -7.422  46.949 -22.710  1.00  0.00     0.043 C 
HETATM    2  C2  UNL     1      -6.413  47.971 -23.199  1.00  0.00    -0.085 C 
HETATM    3  C3  UNL     1      -7.082  49.011 -24.059  1.00  0.00     0.043 C 
HETATM    4  C4  UNL     1      -5.101  47.935 -22.835  1.00  0.00    -0.073 C 
HETATM    5  C5  UNL     1      -4.680  47.008 -21.701  1.00  0.00     0.035 C 
HETATM    6  C6  UNL     1      -3.369  47.408 -21.025  1.00  0.00     0.010 C 
HETATM    7  C7  UNL     1      -3.200  48.939 -20.826  1.00  0.00     0.003 C 
HETATM    8  C8  UNL     1      -3.515  49.798 -22.152  1.00  0.00    -0.032 C 
HETATM    9  C9  UNL     1      -4.714  50.758 -21.922  1.00  0.00     0.016 C 
HETATM   10  C10 UNL     1      -2.314  50.709 -22.557  1.00  0.00     0.011 C 
HETATM   11  C11 UNL     1      -1.561  51.456 -21.434  1.00  0.00     0.011 C 
HETATM   12  C12 UNL     1      -1.624  50.816 -20.036  1.00  0.00    -0.032 C 
HETATM   13  C13 UNL     1      -2.760  51.492 -19.199  1.00  0.00     0.016 C 
HETATM   14  C14 UNL     1      -0.312  50.906 -19.178  1.00  0.00    -0.002 C 
HETATM   15  C23 UNL     1      -0.484  49.710 -18.188  1.00  0.00     0.006 C 
HETATM   16  C24 UNL     1      -1.615  48.814 -18.733  1.00  0.00     0.011 C 
HETATM   17  C25 UNL     1      -1.801  49.267 -20.194  1.00  0.00    -0.032 C 
HETATM   18  C26 UNL     1      -0.660  48.557 -21.003  1.00  0.00     0.016 C 
HETATM   19  C27 UNL     1      -3.910  48.795 -23.319  1.00  0.00     0.024 C 
ENDROOT
BRANCH  14  20
HETATM   20  C15 UNL     1       0.049  52.241 -18.455  1.00  0.00    -0.014 C 
HETATM   21  C16 UNL     1       0.213  53.387 -19.463  1.00  0.00     0.010 C 
BRANCH  20  22
HETATM   22  C17 UNL     1       1.355  52.089 -17.624  1.00  0.00     0.008 C 
BRANCH  22  23
HETATM   23  C18 UNL     1       1.211  52.488 -16.145  1.00  0.00     0.028 C 
BRANCH  23  24
HETATM   24  C19 UNL     1       2.012  51.647 -15.194  1.00  0.00    -0.013 C 
HETATM   25  C20 UNL     1       3.353  51.585 -15.072  1.00  0.00     0.008 C 
HETATM   26  C21 UNL     1       4.351  52.323 -15.910  1.00  0.00     0.055 C 
BRANCH  25  27
HETATM   27  C22 UNL     1       3.878  50.675 -14.019  1.00  0.00     0.171 C 
HETATM   28  O1  UNL     1       4.805  49.891 -14.128  1.00  0.00    -0.646 OA
BRANCH  27  29
HETATM   29  O2  UNL     1       3.202  50.785 -12.864  1.00  0.00    -0.773 OA
HETATM   30  H35 UNL     1       3.643  50.133 -12.280  1.00  0.00     0.167 HD
ENDBRANCH  27  29
ENDBRANCH  25  27
ENDBRANCH  23  24
ENDBRANCH  22  23
ENDBRANCH  20  22
ENDBRANCH  14  20
BRANCH  19  31
HETATM   31  C28 UNL     1      -3.964  49.373 -24.762  1.00  0.00     0.020 C 
BRANCH  31  32
HETATM   32  C29 UNL     1      -3.316  48.456 -25.807  1.00  0.00     0.110 C 
BRANCH  32  33
HETATM   33  C30 UNL     1      -3.304  49.000 -27.205  1.00  0.00     0.139 C 
HETATM   34  O3  UNL     1      -2.997  50.133 -27.536  1.00  0.00    -0.650 OA
BRANCH  33  35
HETATM   35  O4  UNL     1      -3.708  48.100 -28.120  1.00  0.00    -0.776 OA
HETATM   36  H48 UNL     1      -3.623  48.584 -28.968  1.00  0.00     0.167 HD
ENDBRANCH  33  35
ENDBRANCH  32  33
ENDBRANCH  31  32
ENDBRANCH  19  31
TORSDOF 10
ENDMDL
MODEL 6
REMARK minimizedAffinity -8.86721802
REMARK  10 active torsions:
REMARK  status: ('A' for Active; 'I' for Inactive)
REMARK    1  A    between atoms: C14_14  and  C15_15 
REMARK    2  A    between atoms: C15_15  and  C17_17 
REMARK    3  A    between atoms: C17_17  and  C18_18 
REMARK    4  A    between atoms: C18_18  and  C19_19 
REMARK    5  A    between atoms: C20_20  and  C22_22 
REMARK    6  A    between atoms: C22_22  and  O2_24 
REMARK    7  A    between atoms: C27_29  and  C28_30 
REMARK    8  A    between atoms: C28_30  and  C29_31 
REMARK    9  A    between atoms: C29_31  and  C30_32 
REMARK   10  A    between atoms: C30_32  and  O4_34 
ROOT
HETATM    1  C1  UNL     1       0.866  51.397 -26.159  1.00  0.00     0.043 C 
HETATM    2  C2  UNL     1      -0.416  51.385 -25.347  1.00  0.00    -0.085 C 
HETATM    3  C3  UNL     1      -1.471  50.552 -26.029  1.00  0.00     0.043 C 
HETATM    4  C4  UNL     1      -0.526  52.015 -24.144  1.00  0.00    -0.073 C 
HETATM    5  C5  UNL     1       0.741  52.523 -23.466  1.00  0.00     0.035 C 
HETATM    6  C6  UNL     1       0.603  52.714 -21.955  1.00  0.00     0.010 C 
HETATM    7  C7  UNL     1      -0.217  51.600 -21.248  1.00  0.00     0.003 C 
HETATM    8  C8  UNL     1      -1.617  51.273 -21.973  1.00  0.00    -0.032 C 
HETATM    9  C9  UNL     1      -1.654  49.803 -22.474  1.00  0.00     0.016 C 
HETATM   10  C10 UNL     1      -2.828  51.419 -21.000  1.00  0.00     0.011 C 
HETATM   11  C11 UNL     1      -2.672  50.876 -19.562  1.00  0.00     0.011 C 
HETATM   12  C12 UNL     1      -1.233  50.803 -19.020  1.00  0.00    -0.032 C 
HETATM   13  C13 UNL     1      -0.669  49.357 -19.218  1.00  0.00     0.016 C 
HETATM   14  C14 UNL     1      -1.051  51.159 -17.501  1.00  0.00    -0.002 C 
HETATM   15  C23 UNL     1       0.450  51.587 -17.442  1.00  0.00     0.006 C 
HETATM   16  C24 UNL     1       0.926  51.816 -18.890  1.00  0.00     0.011 C 
HETATM   17  C25 UNL     1      -0.371  51.911 -19.716  1.00  0.00    -0.032 C 
HETATM   18  C26 UNL     1      -0.894  53.375 -19.510  1.00  0.00     0.016 C 
HETATM   19  C27 UNL     1      -1.762  52.223 -23.239  1.00  0.00     0.024 C 
ENDROOT
BRANCH  14  20
HETATM   20  C15 UNL     1      -1.423  50.105 -16.411  1.00  0.00    -0.014 C 
HETATM   21  C16 UNL     1      -2.921  49.775 -16.452  1.00  0.00     0.010 C 
BRANCH  20  22
HETATM   22  C17 UNL     1      -1.042  50.616 -14.992  1.00  0.00     0.008 C 
BRANCH  22  23
HETATM   23  C18 UNL     1      -2.116  50.359 -13.921  1.00  0.00     0.028 C 
BRANCH  23  24
HETATM   24  C19 UNL     1      -2.820  51.595 -13.438  1.00  0.00    -0.013 C 
HETATM   25  C20 UNL     1      -3.256  51.865 -12.191  1.00  0.00     0.008 C 
HETATM   26  C21 UNL     1      -3.170  50.949 -11.008  1.00  0.00     0.055 C 
BRANCH  25  27
HETATM   27  C22 UNL     1      -3.904  53.188 -11.991  1.00  0.00     0.171 C 
HETATM   28  O1  UNL     1      -4.137  53.734 -10.927  1.00  0.00    -0.646 OA
BRANCH  27  29
HETATM   29  O2  UNL     1      -4.242  53.772 -13.152  1.00  0.00    -0.773 OA
HETATM   30  H35 UNL     1      -4.658  54.613 -12.870  1.00  0.00     0.167 HD
ENDBRANCH  27  29
ENDBRANCH  25  27
ENDBRANCH  23  24
ENDBRANCH  22  23
ENDBRANCH  20  22
ENDBRANCH  14  20
BRANCH  19  31
HETATM   31  C28 UNL     1      -3.160  52.292 -23.915  1.00  0.00     0.020 C 
BRANCH  31  32
HETATM   32  C29 UNL     1      -4.320  52.285 -22.910  1.00  0.00     0.110 C 
BRANCH  32  33
HETATM   33  C30 UNL     1      -5.410  51.298 -23.209  1.00  0.00     0.139 C 
HETATM   34  O3  UNL     1      -5.943  50.548 -22.409  1.00  0.00    -0.650 OA
BRANCH  33  35
HETATM   35  O4  UNL     1      -5.758  51.279 -24.509  1.00  0.00    -0.776 OA
HETATM   36  H48 UNL     1      -6.482  50.620 -24.541  1.00  0.00     0.167 HD
ENDBRANCH  33  35
ENDBRANCH  32  33
ENDBRANCH  31  32
ENDBRANCH  19  31
TORSDOF 10
ENDMDL
MODEL 7
REMARK minimizedAffinity -8.63671303
REMARK  10 active torsions:
REMARK  status: ('A' for Active; 'I' for Inactive)
REMARK    1  A    between atoms: C14_14  and  C15_15 
REMARK    2  A    between atoms: C15_15  and  C17_17 
REMARK    3  A    between atoms: C17_17  and  C18_18 
REMARK    4  A    between atoms: C18_18  and  C19_19 
REMARK    5  A    between atoms: C20_20  and  C22_22 
REMARK    6  A    between atoms: C22_22  and  O2_24 
REMARK    7  A    between atoms: C27_29  and  C28_30 
REMARK    8  A    between atoms: C28_30  and  C29_31 
REMARK    9  A    between atoms: C29_31  and  C30_32 
REMARK   10  A    between atoms: C30_32  and  O4_34 
ROOT
HETATM    1  C1  UNL     1       0.765  51.302 -26.177  1.00  0.00     0.043 C 
HETATM    2  C2  UNL     1      -0.473  51.310 -25.299  1.00  0.00    -0.085 C 
HETATM    3  C3  UNL     1      -1.541  50.417 -25.879  1.00  0.00     0.043 C 
HETATM    4  C4  UNL     1      -0.537  52.004 -24.130  1.00  0.00    -0.073 C 
HETATM    5  C5  UNL     1       0.749  52.577 -23.547  1.00  0.00     0.035 C 
HETATM    6  C6  UNL     1       0.683  52.851 -22.045  1.00  0.00     0.010 C 
HETATM    7  C7  UNL     1      -0.073  51.763 -21.234  1.00  0.00     0.003 C 
HETATM    8  C8  UNL     1      -1.500  51.365 -21.868  1.00  0.00    -0.032 C 
HETATM    9  C9  UNL     1      -1.526  49.868 -22.283  1.00  0.00     0.016 C 
HETATM   10  C10 UNL     1      -2.663  51.541 -20.843  1.00  0.00     0.011 C 
HETATM   11  C11 UNL     1      -2.422  51.084 -19.387  1.00  0.00     0.011 C 
HETATM   12  C12 UNL     1      -0.957  51.073 -18.916  1.00  0.00    -0.032 C 
HETATM   13  C13 UNL     1      -0.369  49.630 -19.062  1.00  0.00     0.016 C 
HETATM   14  C14 UNL     1      -0.707  51.519 -17.431  1.00  0.00    -0.002 C 
HETATM   15  C23 UNL     1       0.784  51.981 -17.473  1.00  0.00     0.006 C 
HETATM   16  C24 UNL     1       1.182  52.136 -18.955  1.00  0.00     0.011 C 
HETATM   17  C25 UNL     1      -0.157  52.157 -19.717  1.00  0.00    -0.032 C 
HETATM   18  C26 UNL     1      -0.705  53.619 -19.566  1.00  0.00     0.016 C 
HETATM   19  C27 UNL     1      -1.731  52.238 -23.176  1.00  0.00     0.024 C 
ENDROOT
BRANCH  14  20
HETATM   20  C15 UNL     1      -0.999  50.521 -16.266  1.00  0.00    -0.014 C 
HETATM   21  C16 UNL     1      -2.482  50.130 -16.233  1.00  0.00     0.010 C 
BRANCH  20  22
HETATM   22  C17 UNL     1      -0.592  51.134 -14.895  1.00  0.00     0.008 C 
BRANCH  22  23
HETATM   23  C18 UNL     1       0.779  51.832 -14.899  1.00  0.00     0.028 C 
BRANCH  23  24
HETATM   24  C19 UNL     1       1.875  51.054 -14.230  1.00  0.00    -0.013 C 
HETATM   25  C20 UNL     1       3.203  51.146 -14.443  1.00  0.00     0.008 C 
HETATM   26  C21 UNL     1       3.877  52.029 -15.448  1.00  0.00     0.055 C 
BRANCH  25  27
HETATM   27  C22 UNL     1       4.066  50.263 -13.614  1.00  0.00     0.171 C 
HETATM   28  O1  UNL     1       4.882  49.453 -14.017  1.00  0.00    -0.646 OA
BRANCH  27  29
HETATM   29  O2  UNL     1       3.858  50.435 -12.298  1.00  0.00    -0.773 OA
HETATM   30  H35 UNL     1       4.475  49.795 -11.886  1.00  0.00     0.167 HD
ENDBRANCH  27  29
ENDBRANCH  25  27
ENDBRANCH  23  24
ENDBRANCH  22  23
ENDBRANCH  20  22
ENDBRANCH  14  20
BRANCH  19  31
HETATM   31  C28 UNL     1      -3.163  52.239 -23.781  1.00  0.00     0.020 C 
BRANCH  31  32
HETATM   32  C29 UNL     1      -4.268  52.126 -22.723  1.00  0.00     0.110 C 
BRANCH  32  33
HETATM   33  C30 UNL     1      -5.288  51.057 -22.984  1.00  0.00     0.139 C 
HETATM   34  O3  UNL     1      -5.479  50.061 -22.307  1.00  0.00    -0.650 OA
BRANCH  33  35
HETATM   35  O4  UNL     1      -6.000  51.275 -24.105  1.00  0.00    -0.776 OA
HETATM   36  H48 UNL     1      -6.628  50.523 -24.125  1.00  0.00     0.167 HD
ENDBRANCH  33  35
ENDBRANCH  32  33
ENDBRANCH  31  32
ENDBRANCH  19  31
TORSDOF 10
ENDMDL
MODEL 8
REMARK minimizedAffinity -8.58493996
REMARK  10 active torsions:
REMARK  status: ('A' for Active; 'I' for Inactive)
REMARK    1  A    between atoms: C14_14  and  C15_15 
REMARK    2  A    between atoms: C15_15  and  C17_17 
REMARK    3  A    between atoms: C17_17  and  C18_18 
REMARK    4  A    between atoms: C18_18  and  C19_19 
REMARK    5  A    between atoms: C20_20  and  C22_22 
REMARK    6  A    between atoms: C22_22  and  O2_24 
REMARK    7  A    between atoms: C27_29  and  C28_30 
REMARK    8  A    between atoms: C28_30  and  C29_31 
REMARK    9  A    between atoms: C29_31  and  C30_32 
REMARK   10  A    between atoms: C30_32  and  O4_34 
ROOT
HETATM    1  C1  UNL     1      -1.703  50.836 -16.265  1.00  0.00     0.043 C 
HETATM    2  C2  UNL     1      -0.993  50.939 -17.602  1.00  0.00    -0.085 C 
HETATM    3  C3  UNL     1       0.430  50.456 -17.488  1.00  0.00     0.043 C 
HETATM    4  C4  UNL     1      -1.620  51.368 -18.732  1.00  0.00    -0.073 C 
HETATM    5  C5  UNL     1      -3.138  51.497 -18.723  1.00  0.00     0.035 C 
HETATM    6  C6  UNL     1      -3.774  51.457 -20.113  1.00  0.00     0.010 C 
HETATM    7  C7  UNL     1      -3.128  50.423 -21.075  1.00  0.00     0.003 C 
HETATM    8  C8  UNL     1      -1.519  50.502 -21.118  1.00  0.00    -0.032 C 
HETATM    9  C9  UNL     1      -0.883  49.173 -20.627  1.00  0.00     0.016 C 
HETATM   10  C10 UNL     1      -0.984  50.719 -22.568  1.00  0.00     0.011 C 
HETATM   11  C11 UNL     1      -1.649  49.923 -23.713  1.00  0.00     0.011 C 
HETATM   12  C12 UNL     1      -3.103  49.479 -23.471  1.00  0.00    -0.032 C 
HETATM   13  C13 UNL     1      -3.123  48.005 -22.949  1.00  0.00     0.016 C 
HETATM   14  C14 UNL     1      -4.056  49.534 -24.719  1.00  0.00    -0.002 C 
HETATM   15  C23 UNL     1      -5.464  49.643 -24.052  1.00  0.00     0.006 C 
HETATM   16  C24 UNL     1      -5.250  50.013 -22.571  1.00  0.00     0.011 C 
HETATM   17  C25 UNL     1      -3.789  50.497 -22.497  1.00  0.00    -0.032 C 
HETATM   18  C26 UNL     1      -3.812  51.980 -23.008  1.00  0.00     0.016 C 
HETATM   19  C27 UNL     1      -1.046  51.660 -20.138  1.00  0.00     0.024 C 
ENDROOT
BRANCH  14  20
HETATM   20  C15 UNL     1      -3.982  48.407 -25.796  1.00  0.00    -0.014 C 
HETATM   21  C16 UNL     1      -2.691  48.514 -26.619  1.00  0.00     0.010 C 
BRANCH  20  22
HETATM   22  C17 UNL     1      -5.212  48.465 -26.747  1.00  0.00     0.008 C 
BRANCH  22  23
HETATM   23  C18 UNL     1      -6.241  47.346 -26.516  1.00  0.00     0.028 C 
BRANCH  23  24
HETATM   24  C19 UNL     1      -7.575  47.822 -26.019  1.00  0.00    -0.013 C 
HETATM   25  C20 UNL     1      -8.606  48.300 -26.745  1.00  0.00     0.008 C 
HETATM   26  C21 UNL     1      -8.621  48.506 -28.229  1.00  0.00     0.055 C 
BRANCH  25  27
HETATM   27  C22 UNL     1      -9.828  48.678 -25.986  1.00  0.00     0.171 C 
HETATM   28  O1  UNL     1     -10.495  47.954 -25.268  1.00  0.00    -0.646 OA
BRANCH  27  29
HETATM   29  O2  UNL     1     -10.166  49.964 -26.171  1.00  0.00    -0.773 OA
HETATM   30  H35 UNL     1     -10.977  50.065 -25.630  1.00  0.00     0.167 HD
ENDBRANCH  27  29
ENDBRANCH  25  27
ENDBRANCH  23  24
ENDBRANCH  22  23
ENDBRANCH  20  22
ENDBRANCH  14  20
BRANCH  19  31
HETATM   31  C28 UNL     1       0.437  52.115 -20.244  1.00  0.00     0.020 C 
BRANCH  31  32
HETATM   32  C29 UNL     1       0.892  52.366 -21.687  1.00  0.00     0.110 C 
BRANCH  32  33
HETATM   33  C30 UNL     1       1.194  53.799 -22.015  1.00  0.00     0.139 C 
HETATM   34  O3  UNL     1       1.007  54.348 -23.088  1.00  0.00    -0.650 OA
BRANCH  33  35
HETATM   35  O4  UNL     1       1.746  54.467 -20.986  1.00  0.00    -0.776 OA
HETATM   36  H48 UNL     1       1.858  55.374 -21.337  1.00  0.00     0.167 HD
ENDBRANCH  33  35
ENDBRANCH  32  33
ENDBRANCH  31  32
ENDBRANCH  19  31
TORSDOF 10
ENDMDL
MODEL 9
REMARK minimizedAffinity -8.43220425
REMARK  10 active torsions:
REMARK  status: ('A' for Active; 'I' for Inactive)
REMARK    1  A    between atoms: C14_14  and  C15_15 
REMARK    2  A    between atoms: C15_15  and  C17_17 
REMARK    3  A    between atoms: C17_17  and  C18_18 
REMARK    4  A    between atoms: C18_18  and  C19_19 
REMARK    5  A    between atoms: C20_20  and  C22_22 
REMARK    6  A    between atoms: C22_22  and  O2_24 
REMARK    7  A    between atoms: C27_29  and  C28_30 
REMARK    8  A    between atoms: C28_30  and  C29_31 
REMARK    9  A    between atoms: C29_31  and  C30_32 
REMARK   10  A    between atoms: C30_32  and  O4_34 
ROOT
HETATM    1  C1  UNL     1       0.032  53.529 -27.561  1.00  0.00     0.043 C 
HETATM    2  C2  UNL     1      -0.024  53.335 -26.057  1.00  0.00    -0.085 C 
HETATM    3  C3  UNL     1       0.246  54.634 -25.342  1.00  0.00     0.043 C 
HETATM    4  C4  UNL     1      -0.334  52.139 -25.485  1.00  0.00    -0.073 C 
HETATM    5  C5  UNL     1      -0.898  51.030 -26.365  1.00  0.00     0.035 C 
HETATM    6  C6  UNL     1      -1.689  49.970 -25.600  1.00  0.00     0.010 C 
HETATM    7  C7  UNL     1      -2.588  50.542 -24.470  1.00  0.00     0.003 C 
HETATM    8  C8  UNL     1      -1.823  51.580 -23.504  1.00  0.00    -0.032 C 
HETATM    9  C9  UNL     1      -2.474  52.989 -23.574  1.00  0.00     0.016 C 
HETATM   10  C10 UNL     1      -1.902  51.151 -22.006  1.00  0.00     0.011 C 
HETATM   11  C11 UNL     1      -3.248  50.606 -21.478  1.00  0.00     0.011 C 
HETATM   12  C12 UNL     1      -4.178  49.971 -22.527  1.00  0.00    -0.032 C 
HETATM   13  C13 UNL     1      -5.229  51.025 -23.006  1.00  0.00     0.016 C 
HETATM   14  C14 UNL     1      -4.982  48.706 -22.058  1.00  0.00    -0.002 C 
HETATM   15  C23 UNL     1      -5.289  47.991 -23.411  1.00  0.00     0.006 C 
HETATM   16  C24 UNL     1      -4.381  48.620 -24.487  1.00  0.00     0.011 C 
HETATM   17  C25 UNL     1      -3.306  49.385 -23.690  1.00  0.00    -0.032 C 
HETATM   18  C26 UNL     1      -2.263  48.302 -23.245  1.00  0.00     0.016 C 
HETATM   19  C27 UNL     1      -0.318  51.713 -23.999  1.00  0.00     0.024 C 
ENDROOT
BRANCH  14  20
HETATM   20  C15 UNL     1      -6.252  48.885 -21.167  1.00  0.00    -0.014 C 
HETATM   21  C16 UNL     1      -7.343  49.666 -21.913  1.00  0.00     0.010 C 
BRANCH  20  22
HETATM   22  C17 UNL     1      -5.902  49.619 -19.841  1.00  0.00     0.008 C 
BRANCH  22  23
HETATM   23  C18 UNL     1      -5.348  48.700 -18.739  1.00  0.00     0.028 C 
BRANCH  23  24
HETATM   24  C19 UNL     1      -3.916  48.962 -18.373  1.00  0.00    -0.013 C 
HETATM   25  C20 UNL     1      -2.821  48.289 -18.783  1.00  0.00     0.008 C 
HETATM   26  C21 UNL     1      -2.807  47.083 -19.671  1.00  0.00     0.055 C 
BRANCH  25  27
HETATM   27  C22 UNL     1      -1.514  48.786 -18.277  1.00  0.00     0.171 C 
HETATM   28  O1  UNL     1      -0.800  49.623 -18.799  1.00  0.00    -0.646 OA
BRANCH  27  29
HETATM   29  O2  UNL     1      -1.154  48.195 -17.126  1.00  0.00    -0.773 OA
HETATM   30  H35 UNL     1      -0.287  48.606 -16.922  1.00  0.00     0.167 HD
ENDBRANCH  27  29
ENDBRANCH  25  27
ENDBRANCH  23  24
ENDBRANCH  22  23
ENDBRANCH  20  22
ENDBRANCH  14  20
BRANCH  19  31
HETATM   31  C28 UNL     1       0.680  52.426 -23.043  1.00  0.00     0.020 C 
BRANCH  31  32
HETATM   32  C29 UNL     1       0.072  52.767 -21.677  1.00  0.00     0.110 C 
BRANCH  32  33
HETATM   33  C30 UNL     1       0.794  53.837 -20.912  1.00  0.00     0.139 C 
HETATM   34  O3  UNL     1       1.659  54.578 -21.349  1.00  0.00    -0.650 OA
BRANCH  33  35
HETATM   35  O4  UNL     1       0.418  53.903 -19.622  1.00  0.00    -0.776 OA
HETATM   36  H48 UNL     1       0.946  54.649 -19.269  1.00  0.00     0.167 HD
ENDBRANCH  33  35
ENDBRANCH  32  33
ENDBRANCH  31  32
ENDBRANCH  19  31
TORSDOF 10
ENDMDL
