MODEL 1
REMARK minimizedAffinity -10.3937502
REMARK  7 active torsions:
REMARK  status: ('A' for Active; 'I' for Inactive)
REMARK    1  A    between atoms: C4_4  and  C5_5 
REMARK    2  A    between atoms: C5_5  and  C6_6 
REMARK    3  A    between atoms: C6_6  and  C7_7 
REMARK    4  A    between atoms: C7_7  and  C9_9 
REMARK    5  A    between atoms: C18_18  and  O1_19 
REMARK    6  A    between atoms: O1_19  and  C19_20 
REMARK    7  A    between atoms: C19_20  and  C20_22 
ROOT
HETATM    1  C9  UNL     1      -6.090   6.727  13.716  1.00  0.00    -0.002 C 
HETATM    2  C10 UNL     1      -6.058   8.263  13.931  1.00  0.00     0.006 C 
HETATM    3  C11 UNL     1      -4.597   8.717  13.811  1.00  0.00     0.010 C 
HETATM    4  C12 UNL     1      -3.851   7.467  13.358  1.00  0.00     0.023 C 
HETATM    5  C13 UNL     1      -2.355   7.375  13.520  1.00  0.00    -0.070 C 
HETATM    6  C14 UNL     1      -1.542   8.429  13.695  1.00  0.00     0.004 C 
HETATM    7  C15 UNL     1      -0.108   8.290  13.703  1.00  0.00     0.004 C 
HETATM    8  C16 UNL     1       0.498   7.161  13.293  1.00  0.00    -0.069 C 
HETATM    9  C17 UNL     1       1.961   7.157  12.932  1.00  0.00     0.067 C 
HETATM   10  C18 UNL     1       2.115   6.951  11.415  1.00  0.00     0.136 C 
HETATM   11  C26 UNL     1       1.295   5.756  10.904  1.00  0.00     0.034 C 
HETATM   12  C27 UNL     1      -0.162   5.749  11.400  1.00  0.00     0.017 C 
HETATM   13  C28 UNL     1      -0.283   5.889  12.939  1.00  0.00    -0.013 C 
HETATM   14  C29 UNL     1       0.350   4.650  13.626  1.00  0.00     0.021 C 
HETATM   15  C30 UNL     1      -1.777   5.966  13.452  1.00  0.00     0.027 C 
HETATM   16  C31 UNL     1      -2.762   5.023  12.727  1.00  0.00     0.011 C 
HETATM   17  C32 UNL     1      -4.160   4.970  13.385  1.00  0.00     0.011 C 
HETATM   18  C33 UNL     1      -4.616   6.301  14.039  1.00  0.00    -0.033 C 
HETATM   19  C34 UNL     1      -4.388   6.248  15.573  1.00  0.00     0.016 C 
ENDROOT
BRANCH  10  20
HETATM   20  O1  UNL     1       3.516   6.720  11.160  1.00  0.00    -0.312 OA
BRANCH  20  21
HETATM   21  C19 UNL     1       3.821   5.991  10.058  1.00  0.00     0.293 C 
HETATM   22  O2  UNL     1       4.508   4.983  10.030  1.00  0.00    -0.259 OA
BRANCH  21  23
HETATM   23  C20 UNL     1       3.206   6.601   8.849  1.00  0.00     0.039 A 
HETATM   24  C21 UNL     1       3.183   8.000   8.750  1.00  0.00     0.017 A 
HETATM   25  C22 UNL     1       2.615   8.618   7.633  1.00  0.00     0.001 A 
HETATM   26  C23 UNL     1       2.070   7.843   6.609  1.00  0.00     0.000 A 
HETATM   27  C24 UNL     1       2.091   6.451   6.698  1.00  0.00     0.001 A 
HETATM   28  C25 UNL     1       2.657   5.830   7.814  1.00  0.00     0.017 A 
ENDBRANCH  21  23
ENDBRANCH  20  21
ENDBRANCH  10  20
BRANCH   1  29
HETATM   29  C7  UNL     1      -7.256   6.027  14.475  1.00  0.00    -0.014 C 
HETATM   30  C8  UNL     1      -7.249   6.371  15.972  1.00  0.00     0.010 C 
BRANCH  29  31
HETATM   31  C6  UNL     1      -7.213   4.475  14.357  1.00  0.00     0.008 C 
BRANCH  31  32
HETATM   32  C5  UNL     1      -7.884   3.902  13.101  1.00  0.00     0.028 C 
BRANCH  32  33
HETATM   33  C4  UNL     1      -7.224   2.614  12.684  1.00  0.00    -0.025 C 
HETATM   34  C2  UNL     1      -6.304   2.425  11.716  1.00  0.00    -0.091 C 
HETATM   35  C1  UNL     1      -5.774   1.043  11.425  1.00  0.00     0.042 C 
HETATM   36  C3  UNL     1      -5.719   3.499  10.842  1.00  0.00     0.042 C 
ENDBRANCH  32  33
ENDBRANCH  31  32
ENDBRANCH  29  31
ENDBRANCH   1  29
TORSDOF 7
ENDMDL
MODEL 2
REMARK minimizedAffinity -10.1618748
REMARK  7 active torsions:
REMARK  status: ('A' for Active; 'I' for Inactive)
REMARK    1  A    between atoms: C4_4  and  C5_5 
REMARK    2  A    between atoms: C5_5  and  C6_6 
REMARK    3  A    between atoms: C6_6  and  C7_7 
REMARK    4  A    between atoms: C7_7  and  C9_9 
REMARK    5  A    between atoms: C18_18  and  O1_19 
REMARK    6  A    between atoms: O1_19  and  C19_20 
REMARK    7  A    between atoms: C19_20  and  C20_22 
ROOT
HETATM    1  C9  UNL     1       2.081   6.991  12.372  1.00  0.00    -0.002 C 
HETATM    2  C10 UNL     1       2.058   8.523  12.130  1.00  0.00     0.006 C 
HETATM    3  C11 UNL     1       0.623   9.009  12.374  1.00  0.00     0.010 C 
HETATM    4  C12 UNL     1      -0.101   7.784  12.920  1.00  0.00     0.023 C 
HETATM    5  C13 UNL     1      -1.607   7.720  12.898  1.00  0.00    -0.070 C 
HETATM    6  C14 UNL     1      -2.413   8.786  12.777  1.00  0.00     0.004 C 
HETATM    7  C15 UNL     1      -3.843   8.676  12.904  1.00  0.00     0.004 C 
HETATM    8  C16 UNL     1      -4.430   7.568  13.391  1.00  0.00    -0.069 C 
HETATM    9  C17 UNL     1      -5.854   7.601  13.885  1.00  0.00     0.067 C 
HETATM   10  C18 UNL     1      -5.870   7.428  15.413  1.00  0.00     0.136 C 
HETATM   11  C26 UNL     1      -5.029   6.225  15.872  1.00  0.00     0.034 C 
HETATM   12  C27 UNL     1      -3.625   6.179  15.244  1.00  0.00     0.017 C 
HETATM   13  C28 UNL     1      -3.643   6.287  13.698  1.00  0.00    -0.013 C 
HETATM   14  C29 UNL     1      -4.360   5.049  13.097  1.00  0.00     0.021 C 
HETATM   15  C30 UNL     1      -2.202   6.324  13.048  1.00  0.00     0.027 C 
HETATM   16  C31 UNL     1      -1.173   5.375  13.699  1.00  0.00     0.011 C 
HETATM   17  C32 UNL     1       0.158   5.281  12.916  1.00  0.00     0.011 C 
HETATM   18  C33 UNL     1       0.576   6.590  12.195  1.00  0.00    -0.033 C 
HETATM   19  C34 UNL     1       0.206   6.512  10.690  1.00  0.00     0.016 C 
ENDROOT
BRANCH  10  20
HETATM   20  O1  UNL     1      -7.246   7.230  15.801  1.00  0.00    -0.312 OA
BRANCH  20  21
HETATM   21  C19 UNL     1      -8.154   7.150  14.797  1.00  0.00     0.293 C 
HETATM   22  O2  UNL     1      -8.963   8.010  14.489  1.00  0.00    -0.259 OA
BRANCH  21  23
HETATM   23  C20 UNL     1      -8.049   5.835  14.109  1.00  0.00     0.039 A 
HETATM   24  C21 UNL     1      -7.744   4.704  14.880  1.00  0.00     0.017 A 
HETATM   25  C22 UNL     1      -7.633   3.449  14.278  1.00  0.00     0.001 A 
HETATM   26  C23 UNL     1      -7.828   3.316  12.903  1.00  0.00     0.000 A 
HETATM   27  C24 UNL     1      -8.133   4.436  12.128  1.00  0.00     0.001 A 
HETATM   28  C25 UNL     1      -8.244   5.693  12.727  1.00  0.00     0.017 A 
ENDBRANCH  21  23
ENDBRANCH  20  21
ENDBRANCH  10  20
BRANCH   1  29
HETATM   29  C7  UNL     1       3.159   6.252  11.524  1.00  0.00    -0.014 C 
HETATM   30  C8  UNL     1       4.252   7.214  11.031  1.00  0.00     0.010 C 
BRANCH  29  31
HETATM   31  C6  UNL     1       2.567   5.544  10.271  1.00  0.00     0.008 C 
BRANCH  31  32
HETATM   32  C5  UNL     1       3.436   5.631   9.008  1.00  0.00     0.028 C 
BRANCH  32  33
HETATM   33  C4  UNL     1       2.599   5.995   7.809  1.00  0.00    -0.025 C 
HETATM   34  C2  UNL     1       2.290   7.225   7.351  1.00  0.00    -0.091 C 
HETATM   35  C1  UNL     1       1.410   7.391   6.139  1.00  0.00     0.042 C 
HETATM   36  C3  UNL     1       2.748   8.524   7.954  1.00  0.00     0.042 C 
ENDBRANCH  32  33
ENDBRANCH  31  32
ENDBRANCH  29  31
ENDBRANCH   1  29
TORSDOF 7
ENDMDL
MODEL 3
REMARK minimizedAffinity -9.96447945
REMARK  7 active torsions:
REMARK  status: ('A' for Active; 'I' for Inactive)
REMARK    1  A    between atoms: C4_4  and  C5_5 
REMARK    2  A    between atoms: C5_5  and  C6_6 
REMARK    3  A    between atoms: C6_6  and  C7_7 
REMARK    4  A    between atoms: C7_7  and  C9_9 
REMARK    5  A    between atoms: C18_18  and  O1_19 
REMARK    6  A    between atoms: O1_19  and  C19_20 
REMARK    7  A    between atoms: C19_20  and  C20_22 
ROOT
HETATM    1  C9  UNL     1      -6.227   6.270  13.735  1.00  0.00    -0.002 C 
HETATM    2  C10 UNL     1      -6.457   7.799  13.853  1.00  0.00     0.006 C 
HETATM    3  C11 UNL     1      -5.115   8.491  13.580  1.00  0.00     0.010 C 
HETATM    4  C12 UNL     1      -4.191   7.361  13.140  1.00  0.00     0.023 C 
HETATM    5  C13 UNL     1      -2.695   7.545  13.177  1.00  0.00    -0.070 C 
HETATM    6  C14 UNL     1      -2.075   8.735  13.217  1.00  0.00     0.004 C 
HETATM    7  C15 UNL     1      -0.643   8.850  13.109  1.00  0.00     0.004 C 
HETATM    8  C16 UNL     1       0.124   7.817  12.717  1.00  0.00    -0.069 C 
HETATM    9  C17 UNL     1       1.533   8.042  12.231  1.00  0.00     0.067 C 
HETATM   10  C18 UNL     1       1.608   7.754  10.722  1.00  0.00     0.136 C 
HETATM   11  C26 UNL     1       0.982   6.398  10.357  1.00  0.00     0.034 C 
HETATM   12  C27 UNL     1      -0.409   6.174  10.977  1.00  0.00     0.017 C 
HETATM   13  C28 UNL     1      -0.439   6.405  12.510  1.00  0.00    -0.013 C 
HETATM   14  C29 UNL     1       0.457   5.350  13.213  1.00  0.00     0.021 C 
HETATM   15  C30 UNL     1      -1.880   6.258  13.144  1.00  0.00     0.027 C 
HETATM   16  C31 UNL     1      -2.729   5.106  12.565  1.00  0.00     0.011 C 
HETATM   17  C32 UNL     1      -4.042   4.858  13.345  1.00  0.00     0.011 C 
HETATM   18  C33 UNL     1      -4.680   6.134  13.954  1.00  0.00    -0.033 C 
HETATM   19  C34 UNL     1      -4.332   6.236  15.463  1.00  0.00     0.016 C 
ENDROOT
BRANCH  10  20
HETATM   20  O1  UNL     1       3.005   7.753  10.361  1.00  0.00    -0.312 OA
BRANCH  20  21
HETATM   21  C19 UNL     1       3.694   6.611  10.604  1.00  0.00     0.293 C 
HETATM   22  O2  UNL     1       3.358   5.484  10.277  1.00  0.00    -0.259 OA
BRANCH  21  23
HETATM   23  C20 UNL     1       4.943   6.911  11.355  1.00  0.00     0.039 A 
HETATM   24  C21 UNL     1       4.875   7.819  12.421  1.00  0.00     0.017 A 
HETATM   25  C22 UNL     1       6.022   8.133  13.154  1.00  0.00     0.001 A 
HETATM   26  C23 UNL     1       7.242   7.540  12.828  1.00  0.00     0.000 A 
HETATM   27  C24 UNL     1       7.318   6.634  11.770  1.00  0.00     0.001 A 
HETATM   28  C25 UNL     1       6.174   6.318  11.034  1.00  0.00     0.017 A 
ENDBRANCH  21  23
ENDBRANCH  20  21
ENDBRANCH  10  20
BRANCH   1  29
HETATM   29  C7  UNL     1      -7.188   5.435  14.633  1.00  0.00    -0.014 C 
HETATM   30  C8  UNL     1      -6.991   5.749  16.124  1.00  0.00     0.010 C 
BRANCH  29  31
HETATM   31  C6  UNL     1      -7.003   3.899  14.457  1.00  0.00     0.008 C 
BRANCH  31  32
HETATM   32  C5  UNL     1      -7.602   3.319  13.167  1.00  0.00     0.028 C 
BRANCH  32  33
HETATM   33  C4  UNL     1      -6.713   3.613  11.987  1.00  0.00    -0.025 C 
HETATM   34  C2  UNL     1      -6.007   2.743  11.238  1.00  0.00    -0.091 C 
HETATM   35  C1  UNL     1      -5.145   3.234  10.103  1.00  0.00     0.042 C 
HETATM   36  C3  UNL     1      -5.978   1.251  11.424  1.00  0.00     0.042 C 
ENDBRANCH  32  33
ENDBRANCH  31  32
ENDBRANCH  29  31
ENDBRANCH   1  29
TORSDOF 7
ENDMDL
MODEL 4
REMARK minimizedAffinity -9.93682671
REMARK  7 active torsions:
REMARK  status: ('A' for Active; 'I' for Inactive)
REMARK    1  A    between atoms: C4_4  and  C5_5 
REMARK    2  A    between atoms: C5_5  and  C6_6 
REMARK    3  A    between atoms: C6_6  and  C7_7 
REMARK    4  A    between atoms: C7_7  and  C9_9 
REMARK    5  A    between atoms: C18_18  and  O1_19 
REMARK    6  A    between atoms: O1_19  and  C19_20 
REMARK    7  A    between atoms: C19_20  and  C20_22 
ROOT
HETATM    1  C9  UNL     1      -4.992   7.479  14.811  1.00  0.00    -0.002 C 
HETATM    2  C10 UNL     1      -4.641   6.388  15.856  1.00  0.00     0.006 C 
HETATM    3  C11 UNL     1      -3.199   5.938  15.588  1.00  0.00     0.010 C 
HETATM    4  C12 UNL     1      -2.698   6.898  14.515  1.00  0.00     0.023 C 
HETATM    5  C13 UNL     1      -1.489   6.546  13.686  1.00  0.00    -0.070 C 
HETATM    6  C14 UNL     1      -0.571   5.629  14.029  1.00  0.00     0.004 C 
HETATM    7  C15 UNL     1       0.635   5.437  13.265  1.00  0.00     0.004 C 
HETATM    8  C16 UNL     1       1.029   6.318  12.327  1.00  0.00    -0.069 C 
HETATM    9  C17 UNL     1       2.450   6.328  11.825  1.00  0.00     0.067 C 
HETATM   10  C18 UNL     1       3.156   7.605  12.310  1.00  0.00     0.136 C 
HETATM   11  C26 UNL     1       2.334   8.872  12.021  1.00  0.00     0.034 C 
HETATM   12  C27 UNL     1       0.859   8.761  12.449  1.00  0.00     0.017 C 
HETATM   13  C28 UNL     1       0.154   7.499  11.888  1.00  0.00    -0.013 C 
HETATM   14  C29 UNL     1       0.087   7.585  10.340  1.00  0.00     0.021 C 
HETATM   15  C30 UNL     1      -1.337   7.333  12.389  1.00  0.00     0.027 C 
HETATM   16  C31 UNL     1      -2.146   8.645  12.466  1.00  0.00     0.011 C 
HETATM   17  C32 UNL     1      -3.649   8.425  12.756  1.00  0.00     0.011 C 
HETATM   18  C33 UNL     1      -3.959   7.205  13.664  1.00  0.00    -0.033 C 
HETATM   19  C34 UNL     1      -4.410   5.998  12.800  1.00  0.00     0.016 C 
ENDROOT
BRANCH  10  20
HETATM   20  O1  UNL     1       4.418   7.680  11.615  1.00  0.00    -0.312 OA
BRANCH  20  21
HETATM   21  C19 UNL     1       4.446   8.432  10.487  1.00  0.00     0.293 C 
HETATM   22  O2  UNL     1       4.987   9.519  10.360  1.00  0.00    -0.259 OA
BRANCH  21  23
HETATM   23  C20 UNL     1       3.700   7.753   9.394  1.00  0.00     0.039 A 
HETATM   24  C21 UNL     1       3.059   8.550   8.434  1.00  0.00     0.017 A 
HETATM   25  C22 UNL     1       2.344   7.958   7.390  1.00  0.00     0.001 A 
HETATM   26  C23 UNL     1       2.267   6.568   7.298  1.00  0.00     0.000 A 
HETATM   27  C24 UNL     1       2.904   5.768   8.248  1.00  0.00     0.001 A 
HETATM   28  C25 UNL     1       3.618   6.357   9.294  1.00  0.00     0.017 A 
ENDBRANCH  21  23
ENDBRANCH  20  21
ENDBRANCH  10  20
BRANCH   1  29
HETATM   29  C7  UNL     1      -6.509   7.523  14.458  1.00  0.00    -0.014 C 
HETATM   30  C8  UNL     1      -7.266   8.537  15.330  1.00  0.00     0.010 C 
BRANCH  29  31
HETATM   31  C6  UNL     1      -7.214   6.147  14.633  1.00  0.00     0.008 C 
BRANCH  31  32
HETATM   32  C5  UNL     1      -7.857   5.582  13.358  1.00  0.00     0.028 C 
BRANCH  32  33
HETATM   33  C4  UNL     1      -7.885   4.077  13.397  1.00  0.00    -0.025 C 
HETATM   34  C2  UNL     1      -7.200   3.210  12.624  1.00  0.00    -0.091 C 
HETATM   35  C1  UNL     1      -7.382   1.723  12.796  1.00  0.00     0.042 C 
HETATM   36  C3  UNL     1      -6.222   3.584  11.545  1.00  0.00     0.042 C 
ENDBRANCH  32  33
ENDBRANCH  31  32
ENDBRANCH  29  31
ENDBRANCH   1  29
TORSDOF 7
ENDMDL
MODEL 5
REMARK minimizedAffinity -9.90911293
REMARK  7 active torsions:
REMARK  status: ('A' for Active; 'I' for Inactive)
REMARK    1  A    between atoms: C4_4  and  C5_5 
REMARK    2  A    between atoms: C5_5  and  C6_6 
REMARK    3  A    between atoms: C6_6  and  C7_7 
REMARK    4  A    between atoms: C7_7  and  C9_9 
REMARK    5  A    between atoms: C18_18  and  O1_19 
REMARK    6  A    between atoms: O1_19  and  C19_20 
REMARK    7  A    between atoms: C19_20  and  C20_22 
ROOT
HETATM    1  C9  UNL     1       1.527   7.419  12.901  1.00  0.00    -0.002 C 
HETATM    2  C10 UNL     1       1.347   8.949  12.726  1.00  0.00     0.006 C 
HETATM    3  C11 UNL     1      -0.153   9.253  12.835  1.00  0.00     0.010 C 
HETATM    4  C12 UNL     1      -0.778   7.925  13.243  1.00  0.00     0.023 C 
HETATM    5  C13 UNL     1      -2.256   7.690  13.055  1.00  0.00    -0.070 C 
HETATM    6  C14 UNL     1      -3.166   8.664  12.896  1.00  0.00     0.004 C 
HETATM    7  C15 UNL     1      -4.579   8.384  12.862  1.00  0.00     0.004 C 
HETATM    8  C16 UNL     1      -5.076   7.190  13.232  1.00  0.00    -0.069 C 
HETATM    9  C17 UNL     1      -6.536   7.032  13.570  1.00  0.00     0.067 C 
HETATM   10  C18 UNL     1      -6.689   6.770  15.078  1.00  0.00     0.136 C 
HETATM   11  C26 UNL     1      -5.761   5.647  15.570  1.00  0.00     0.034 C 
HETATM   12  C27 UNL     1      -4.305   5.798  15.097  1.00  0.00     0.017 C 
HETATM   13  C28 UNL     1      -4.178   5.992  13.564  1.00  0.00    -0.013 C 
HETATM   14  C29 UNL     1      -4.676   4.716  12.834  1.00  0.00     0.021 C 
HETATM   15  C30 UNL     1      -2.692   6.230  13.077  1.00  0.00     0.027 C 
HETATM   16  C31 UNL     1      -1.629   5.368  13.792  1.00  0.00     0.011 C 
HETATM   17  C32 UNL     1      -0.223   5.472  13.154  1.00  0.00     0.011 C 
HETATM   18  C33 UNL     1       0.107   6.859  12.543  1.00  0.00    -0.033 C 
HETATM   19  C34 UNL     1      -0.095   6.826  11.005  1.00  0.00     0.016 C 
ENDROOT
BRANCH  10  20
HETATM   20  O1  UNL     1      -8.063   6.395  15.305  1.00  0.00    -0.312 OA
BRANCH  20  21
HETATM   21  C19 UNL     1      -8.867   7.339  15.855  1.00  0.00     0.293 C 
HETATM   22  O2  UNL     1      -8.830   7.731  17.010  1.00  0.00    -0.259 OA
BRANCH  21  23
HETATM   23  C20 UNL     1      -9.841   7.839  14.848  1.00  0.00     0.039 A 
HETATM   24  C21 UNL     1     -10.335   6.935  13.896  1.00  0.00     0.017 A 
HETATM   25  C22 UNL     1     -11.249   7.360  12.929  1.00  0.00     0.001 A 
HETATM   26  C23 UNL     1     -11.678   8.687  12.910  1.00  0.00     0.000 A 
HETATM   27  C24 UNL     1     -11.193   9.593  13.854  1.00  0.00     0.001 A 
HETATM   28  C25 UNL     1     -10.277   9.172  14.822  1.00  0.00     0.017 A 
ENDBRANCH  21  23
ENDBRANCH  20  21
ENDBRANCH  10  20
BRANCH   1  29
HETATM   29  C7  UNL     1       2.767   6.858  12.142  1.00  0.00    -0.014 C 
HETATM   30  C8  UNL     1       3.657   7.985  11.595  1.00  0.00     0.010 C 
BRANCH  29  31
HETATM   31  C6  UNL     1       2.383   5.948  10.939  1.00  0.00     0.008 C 
BRANCH  31  32
HETATM   32  C5  UNL     1       3.386   5.955   9.776  1.00  0.00     0.028 C 
BRANCH  32  33
HETATM   33  C4  UNL     1       2.672   6.084   8.456  1.00  0.00    -0.025 C 
HETATM   34  C2  UNL     1       2.491   7.192   7.712  1.00  0.00    -0.091 C 
HETATM   35  C1  UNL     1       1.719   7.128   6.418  1.00  0.00     0.042 C 
HETATM   36  C3  UNL     1       2.999   8.567   8.050  1.00  0.00     0.042 C 
ENDBRANCH  32  33
ENDBRANCH  31  32
ENDBRANCH  29  31
ENDBRANCH   1  29
TORSDOF 7
ENDMDL
MODEL 6
REMARK minimizedAffinity -9.87900162
REMARK  7 active torsions:
REMARK  status: ('A' for Active; 'I' for Inactive)
REMARK    1  A    between atoms: C4_4  and  C5_5 
REMARK    2  A    between atoms: C5_5  and  C6_6 
REMARK    3  A    between atoms: C6_6  and  C7_7 
REMARK    4  A    between atoms: C7_7  and  C9_9 
REMARK    5  A    between atoms: C18_18  and  O1_19 
REMARK    6  A    between atoms: O1_19  and  C19_20 
REMARK    7  A    between atoms: C19_20  and  C20_22 
ROOT
HETATM    1  C9  UNL     1      -6.181   6.490  13.394  1.00  0.00    -0.002 C 
HETATM    2  C10 UNL     1      -6.155   8.033  13.552  1.00  0.00     0.006 C 
HETATM    3  C11 UNL     1      -4.689   8.481  13.478  1.00  0.00     0.010 C 
HETATM    4  C12 UNL     1      -3.927   7.215  13.105  1.00  0.00     0.023 C 
HETATM    5  C13 UNL     1      -2.440   7.128  13.335  1.00  0.00    -0.070 C 
HETATM    6  C14 UNL     1      -1.633   8.187  13.505  1.00  0.00     0.004 C 
HETATM    7  C15 UNL     1      -0.201   8.047  13.581  1.00  0.00     0.004 C 
HETATM    8  C16 UNL     1       0.419   6.904  13.240  1.00  0.00    -0.069 C 
HETATM    9  C17 UNL     1       1.897   6.885  12.943  1.00  0.00     0.067 C 
HETATM   10  C18 UNL     1       2.116   6.623  11.443  1.00  0.00     0.136 C 
HETATM   11  C26 UNL     1       1.316   5.409  10.942  1.00  0.00     0.034 C 
HETATM   12  C27 UNL     1      -0.161   5.422  11.375  1.00  0.00     0.017 C 
HETATM   13  C28 UNL     1      -0.349   5.620  12.901  1.00  0.00    -0.013 C 
HETATM   14  C29 UNL     1       0.251   4.407  13.660  1.00  0.00     0.021 C 
HETATM   15  C30 UNL     1      -1.863   5.717  13.345  1.00  0.00     0.027 C 
HETATM   16  C31 UNL     1      -2.818   4.748  12.614  1.00  0.00     0.011 C 
HETATM   17  C32 UNL     1      -4.243   4.721  13.213  1.00  0.00     0.011 C 
HETATM   18  C33 UNL     1      -4.724   6.076  13.796  1.00  0.00    -0.033 C 
HETATM   19  C34 UNL     1      -4.562   6.080  15.339  1.00  0.00     0.016 C 
ENDROOT
BRANCH  10  20
HETATM   20  O1  UNL     1       3.526   6.381  11.258  1.00  0.00    -0.312 OA
BRANCH  20  21
HETATM   21  C19 UNL     1       3.898   5.835  10.073  1.00  0.00     0.293 C 
HETATM   22  O2  UNL     1       4.650   4.886   9.924  1.00  0.00    -0.259 OA
BRANCH  21  23
HETATM   23  C20 UNL     1       3.269   6.571   8.944  1.00  0.00     0.039 A 
HETATM   24  C21 UNL     1       2.726   5.826   7.887  1.00  0.00     0.017 A 
HETATM   25  C22 UNL     1       2.127   6.473   6.804  1.00  0.00     0.001 A 
HETATM   26  C23 UNL     1       2.063   7.866   6.772  1.00  0.00     0.000 A 
HETATM   27  C24 UNL     1       2.598   8.615   7.820  1.00  0.00     0.001 A 
HETATM   28  C25 UNL     1       3.200   7.971   8.904  1.00  0.00     0.017 A 
ENDBRANCH  21  23
ENDBRANCH  20  21
ENDBRANCH  10  20
BRANCH   1  29
HETATM   29  C7  UNL     1      -7.381   5.820  14.127  1.00  0.00    -0.014 C 
HETATM   30  C8  UNL     1      -8.446   5.322  13.138  1.00  0.00     0.010 C 
BRANCH  29  31
HETATM   31  C6  UNL     1      -8.092   6.775  15.129  1.00  0.00     0.008 C 
BRANCH  31  32
HETATM   32  C5  UNL     1      -9.173   7.673  14.511  1.00  0.00     0.028 C 
BRANCH  32  33
HETATM   33  C4  UNL     1     -10.549   7.166  14.856  1.00  0.00    -0.025 C 
HETATM   34  C2  UNL     1     -11.634   7.091  14.059  1.00  0.00    -0.091 C 
HETATM   35  C1  UNL     1     -12.944   6.575  14.597  1.00  0.00     0.042 C 
HETATM   36  C3  UNL     1     -11.687   7.494  12.611  1.00  0.00     0.042 C 
ENDBRANCH  32  33
ENDBRANCH  31  32
ENDBRANCH  29  31
ENDBRANCH   1  29
TORSDOF 7
ENDMDL
MODEL 7
REMARK minimizedAffinity -9.8467741
REMARK  7 active torsions:
REMARK  status: ('A' for Active; 'I' for Inactive)
REMARK    1  A    between atoms: C4_4  and  C5_5 
REMARK    2  A    between atoms: C5_5  and  C6_6 
REMARK    3  A    between atoms: C6_6  and  C7_7 
REMARK    4  A    between atoms: C7_7  and  C9_9 
REMARK    5  A    between atoms: C18_18  and  O1_19 
REMARK    6  A    between atoms: O1_19  and  C19_20 
REMARK    7  A    between atoms: C19_20  and  C20_22 
ROOT
HETATM    1  C9  UNL     1       0.833   6.819  11.755  1.00  0.00    -0.002 C 
HETATM    2  C10 UNL     1       0.786   5.609  10.785  1.00  0.00     0.006 C 
HETATM    3  C11 UNL     1      -0.597   4.957  10.926  1.00  0.00     0.010 C 
HETATM    4  C12 UNL     1      -1.369   5.905  11.835  1.00  0.00     0.023 C 
HETATM    5  C13 UNL     1      -2.611   5.431  12.547  1.00  0.00    -0.070 C 
HETATM    6  C14 UNL     1      -3.330   4.356  12.189  1.00  0.00     0.004 C 
HETATM    7  C15 UNL     1      -4.584   4.035  12.822  1.00  0.00     0.004 C 
HETATM    8  C16 UNL     1      -5.222   4.911  13.619  1.00  0.00    -0.069 C 
HETATM    9  C17 UNL     1      -6.682   4.735  13.948  1.00  0.00     0.067 C 
HETATM   10  C18 UNL     1      -7.500   5.842  13.263  1.00  0.00     0.136 C 
HETATM   11  C26 UNL     1      -6.919   7.242  13.523  1.00  0.00     0.034 C 
HETATM   12  C27 UNL     1      -5.401   7.333  13.283  1.00  0.00     0.017 C 
HETATM   13  C28 UNL     1      -4.596   6.247  14.041  1.00  0.00    -0.013 C 
HETATM   14  C29 UNL     1      -4.745   6.461  15.571  1.00  0.00     0.021 C 
HETATM   15  C30 UNL     1      -3.045   6.281  13.736  1.00  0.00     0.027 C 
HETATM   16  C31 UNL     1      -2.436   7.696  13.628  1.00  0.00     0.011 C 
HETATM   17  C32 UNL     1      -0.892   7.695  13.538  1.00  0.00     0.011 C 
HETATM   18  C33 UNL     1      -0.289   6.474  12.795  1.00  0.00    -0.033 C 
HETATM   19  C34 UNL     1       0.219   5.424  13.817  1.00  0.00     0.016 C 
ENDROOT
BRANCH  10  20
HETATM   20  O1  UNL     1      -8.839   5.769  13.795  1.00  0.00    -0.312 OA
BRANCH  20  21
HETATM   21  C19 UNL     1      -9.128   6.598  14.828  1.00  0.00     0.293 C 
HETATM   22  O2  UNL     1      -8.734   6.480  15.978  1.00  0.00    -0.259 OA
BRANCH  21  23
HETATM   23  C20 UNL     1     -10.025   7.695  14.376  1.00  0.00     0.039 A 
HETATM   24  C21 UNL     1     -10.946   7.421  13.355  1.00  0.00     0.017 A 
HETATM   25  C22 UNL     1     -11.808   8.420  12.895  1.00  0.00     0.001 A 
HETATM   26  C23 UNL     1     -11.756   9.697  13.455  1.00  0.00     0.000 A 
HETATM   27  C24 UNL     1     -10.844   9.978  14.472  1.00  0.00     0.001 A 
HETATM   28  C25 UNL     1      -9.980   8.982  14.933  1.00  0.00     0.017 A 
ENDBRANCH  21  23
ENDBRANCH  20  21
ENDBRANCH  10  20
BRANCH   1  29
HETATM   29  C7  UNL     1       2.267   7.131  12.277  1.00  0.00    -0.014 C 
HETATM   30  C8  UNL     1       2.402   8.592  12.732  1.00  0.00     0.010 C 
BRANCH  29  31
HETATM   31  C6  UNL     1       3.370   6.876  11.209  1.00  0.00     0.008 C 
BRANCH  31  32
HETATM   32  C5  UNL     1       3.526   7.988  10.161  1.00  0.00     0.028 C 
BRANCH  32  33
HETATM   33  C4  UNL     1       3.216   7.469   8.782  1.00  0.00    -0.025 C 
HETATM   34  C2  UNL     1       2.094   7.647   8.057  1.00  0.00    -0.091 C 
HETATM   35  C1  UNL     1       1.958   7.021   6.692  1.00  0.00     0.042 C 
HETATM   36  C3  UNL     1       0.891   8.441   8.485  1.00  0.00     0.042 C 
ENDBRANCH  32  33
ENDBRANCH  31  32
ENDBRANCH  29  31
ENDBRANCH   1  29
TORSDOF 7
ENDMDL
MODEL 8
REMARK minimizedAffinity -9.69852352
REMARK  7 active torsions:
REMARK  status: ('A' for Active; 'I' for Inactive)
REMARK    1  A    between atoms: C4_4  and  C5_5 
REMARK    2  A    between atoms: C5_5  and  C6_6 
REMARK    3  A    between atoms: C6_6  and  C7_7 
REMARK    4  A    between atoms: C7_7  and  C9_9 
REMARK    5  A    between atoms: C18_18  and  O1_19 
REMARK    6  A    between atoms: O1_19  and  C19_20 
REMARK    7  A    between atoms: C19_20  and  C20_22 
ROOT
HETATM    1  C9  UNL     1       1.686   6.769  11.494  1.00  0.00    -0.002 C 
HETATM    2  C10 UNL     1       1.487   5.240  11.319  1.00  0.00     0.006 C 
HETATM    3  C11 UNL     1       0.174   4.862  12.017  1.00  0.00     0.010 C 
HETATM    4  C12 UNL     1      -0.436   6.199  12.422  1.00  0.00     0.023 C 
HETATM    5  C13 UNL     1      -1.506   6.255  13.483  1.00  0.00    -0.070 C 
HETATM    6  C14 UNL     1      -2.252   5.208  13.867  1.00  0.00     0.004 C 
HETATM    7  C15 UNL     1      -3.354   5.356  14.784  1.00  0.00     0.004 C 
HETATM    8  C16 UNL     1      -3.851   6.563  15.108  1.00  0.00    -0.069 C 
HETATM    9  C17 UNL     1      -5.217   6.693  15.732  1.00  0.00     0.067 C 
HETATM   10  C18 UNL     1      -6.179   7.351  14.728  1.00  0.00     0.136 C 
HETATM   11  C26 UNL     1      -5.595   8.636  14.118  1.00  0.00     0.034 C 
HETATM   12  C27 UNL     1      -4.154   8.474  13.603  1.00  0.00     0.017 C 
HETATM   13  C28 UNL     1      -3.191   7.872  14.658  1.00  0.00    -0.013 C 
HETATM   14  C29 UNL     1      -3.051   8.853  15.853  1.00  0.00     0.021 C 
HETATM   15  C30 UNL     1      -1.728   7.626  14.112  1.00  0.00     0.027 C 
HETATM   16  C31 UNL     1      -1.187   8.732  13.181  1.00  0.00     0.011 C 
HETATM   17  C32 UNL     1       0.311   8.566  12.835  1.00  0.00     0.011 C 
HETATM   18  C33 UNL     1       0.792   7.094  12.740  1.00  0.00    -0.033 C 
HETATM   19  C34 UNL     1       1.513   6.683  14.051  1.00  0.00     0.016 C 
ENDROOT
BRANCH  10  20
HETATM   20  O1  UNL     1      -7.390   7.665  15.447  1.00  0.00    -0.312 OA
BRANCH  20  21
HETATM   21  C19 UNL     1      -8.516   7.024  15.050  1.00  0.00     0.293 C 
HETATM   22  O2  UNL     1      -9.662   7.362  15.299  1.00  0.00    -0.259 OA
BRANCH  21  23
HETATM   23  C20 UNL     1      -8.170   5.811  14.261  1.00  0.00     0.039 A 
HETATM   24  C21 UNL     1      -8.306   5.864  12.867  1.00  0.00     0.017 A 
HETATM   25  C22 UNL     1      -7.995   4.750  12.085  1.00  0.00     0.001 A 
HETATM   26  C23 UNL     1      -7.544   3.577  12.691  1.00  0.00     0.000 A 
HETATM   27  C24 UNL     1      -7.403   3.515  14.077  1.00  0.00     0.001 A 
HETATM   28  C25 UNL     1      -7.715   4.628  14.862  1.00  0.00     0.017 A 
ENDBRANCH  21  23
ENDBRANCH  20  21
ENDBRANCH  10  20
BRANCH   1  29
HETATM   29  C7  UNL     1       3.186   7.192  11.516  1.00  0.00    -0.014 C 
HETATM   30  C8  UNL     1       3.374   8.584  12.138  1.00  0.00     0.010 C 
BRANCH  29  31
HETATM   31  C6  UNL     1       3.827   7.229  10.099  1.00  0.00     0.008 C 
BRANCH  31  32
HETATM   32  C5  UNL     1       3.694   5.928   9.294  1.00  0.00     0.028 C 
BRANCH  32  33
HETATM   33  C4  UNL     1       2.771   6.120   8.119  1.00  0.00    -0.025 C 
HETATM   34  C2  UNL     1       2.427   7.272   7.509  1.00  0.00    -0.091 C 
HETATM   35  C1  UNL     1       1.460   7.266   6.352  1.00  0.00     0.042 C 
HETATM   36  C3  UNL     1       2.926   8.641   7.878  1.00  0.00     0.042 C 
ENDBRANCH  32  33
ENDBRANCH  31  32
ENDBRANCH  29  31
ENDBRANCH   1  29
TORSDOF 7
ENDMDL
MODEL 9
REMARK minimizedAffinity -9.58701897
REMARK  7 active torsions:
REMARK  status: ('A' for Active; 'I' for Inactive)
REMARK    1  A    between atoms: C4_4  and  C5_5 
REMARK    2  A    between atoms: C5_5  and  C6_6 
REMARK    3  A    between atoms: C6_6  and  C7_7 
REMARK    4  A    between atoms: C7_7  and  C9_9 
REMARK    5  A    between atoms: C18_18  and  O1_19 
REMARK    6  A    between atoms: O1_19  and  C19_20 
REMARK    7  A    between atoms: C19_20  and  C20_22 
ROOT
HETATM    1  C9  UNL     1      -5.566   6.747  14.697  1.00  0.00    -0.002 C 
HETATM    2  C10 UNL     1      -4.627   5.551  14.390  1.00  0.00     0.006 C 
HETATM    3  C11 UNL     1      -3.206   5.963  14.794  1.00  0.00     0.010 C 
HETATM    4  C12 UNL     1      -3.387   7.310  15.484  1.00  0.00     0.023 C 
HETATM    5  C13 UNL     1      -2.211   8.238  15.659  1.00  0.00    -0.070 C 
HETATM    6  C14 UNL     1      -0.925   7.857  15.594  1.00  0.00     0.004 C 
HETATM    7  C15 UNL     1       0.152   8.761  15.909  1.00  0.00     0.004 C 
HETATM    8  C16 UNL     1      -0.067   9.941  16.518  1.00  0.00    -0.069 C 
HETATM    9  C17 UNL     1       1.060  10.684  17.189  1.00  0.00     0.067 C 
HETATM   10  C18 UNL     1       0.853  10.662  18.713  1.00  0.00     0.136 C 
HETATM   11  C26 UNL     1      -0.568  11.093  19.114  1.00  0.00     0.034 C 
HETATM   12  C27 UNL     1      -1.676  10.387  18.313  1.00  0.00     0.017 C 
HETATM   13  C28 UNL     1      -1.477  10.484  16.779  1.00  0.00    -0.013 C 
HETATM   14  C29 UNL     1      -1.583  11.967  16.333  1.00  0.00     0.021 C 
HETATM   15  C30 UNL     1      -2.565   9.692  15.948  1.00  0.00     0.027 C 
HETATM   16  C31 UNL     1      -4.003   9.788  16.503  1.00  0.00     0.011 C 
HETATM   17  C32 UNL     1      -5.068   9.181  15.560  1.00  0.00     0.011 C 
HETATM   18  C33 UNL     1      -4.578   7.963  14.733  1.00  0.00    -0.033 C 
HETATM   19  C34 UNL     1      -4.210   8.409  13.294  1.00  0.00     0.016 C 
ENDROOT
BRANCH  10  20
HETATM   20  O1  UNL     1       1.813  11.575  19.283  1.00  0.00    -0.312 OA
BRANCH  20  21
HETATM   21  C19 UNL     1       3.074  11.105  19.449  1.00  0.00     0.293 C 
HETATM   22  O2  UNL     1       3.930  11.021  18.582  1.00  0.00    -0.259 OA
BRANCH  21  23
HETATM   23  C20 UNL     1       3.286  10.677  20.857  1.00  0.00     0.039 A 
HETATM   24  C21 UNL     1       2.443   9.688  21.385  1.00  0.00     0.017 A 
HETATM   25  C22 UNL     1       2.602   9.256  22.703  1.00  0.00     0.001 A 
HETATM   26  C23 UNL     1       3.605   9.806  23.501  1.00  0.00     0.000 A 
HETATM   27  C24 UNL     1       4.450  10.788  22.984  1.00  0.00     0.001 A 
HETATM   28  C25 UNL     1       4.293  11.224  21.666  1.00  0.00     0.017 A 
ENDBRANCH  21  23
ENDBRANCH  20  21
ENDBRANCH  10  20
BRANCH   1  29
HETATM   29  C7  UNL     1      -6.803   6.813  13.751  1.00  0.00    -0.014 C 
HETATM   30  C8  UNL     1      -8.110   7.001  14.537  1.00  0.00     0.010 C 
BRANCH  29  31
HETATM   31  C6  UNL     1      -6.969   5.536  12.877  1.00  0.00     0.008 C 
BRANCH  31  32
HETATM   32  C5  UNL     1      -7.121   4.228  13.666  1.00  0.00     0.028 C 
BRANCH  32  33
HETATM   33  C4  UNL     1      -7.075   3.039  12.742  1.00  0.00    -0.025 C 
HETATM   34  C2  UNL     1      -6.029   2.580  12.025  1.00  0.00    -0.091 C 
HETATM   35  C1  UNL     1      -6.185   1.379  11.127  1.00  0.00     0.042 C 
HETATM   36  C3  UNL     1      -4.646   3.171  12.018  1.00  0.00     0.042 C 
ENDBRANCH  32  33
ENDBRANCH  31  32
ENDBRANCH  29  31
ENDBRANCH   1  29
TORSDOF 7
ENDMDL
