MODEL 1
REMARK minimizedAffinity -7.32367754
REMARK CNNscore 0.29465276
REMARK CNNaffinity 7.30885124
REMARK  11 active torsions:
REMARK  status: ('A' for Active; 'I' for Inactive)
REMARK    1  A    between atoms: C13_13  and  S1_14 
REMARK    2  A    between atoms: C25_30  and  O5_31 
REMARK    3  A    between atoms: C31_37  and  C32_38 
REMARK    4  A    between atoms: C32_38  and  O6_39 
REMARK    5  A    between atoms: C40_47  and  C41_48 
REMARK    6  A    between atoms: C40_47  and  N1_59 
REMARK    7  A    between atoms: C41_48  and  C42_49 
REMARK    8  A    between atoms: C42_49  and  C43_50 
REMARK    9  A    between atoms: C42_49  and  C44_52 
REMARK   10  A    between atoms: C43_50  and  O7_51 
REMARK   11  A    between atoms: C44_52  and  C45_53 
REMARK       I    between atoms: C51_61  and  N2_62 
REMARK       I    between atoms: C51_61  and  N3_63 
ROOT
HETATM    1  C1  UNL     1       7.527  12.498  17.712  1.00  0.00     0.011 C 
HETATM    2  C2  UNL     1       8.422  13.698  17.422  1.00  0.00    -0.009 C 
HETATM    3  C3  UNL     1       7.564  14.913  17.035  1.00  0.00     0.009 C 
HETATM    4  C4  UNL     1       8.423  16.091  16.587  1.00  0.00     0.039 C 
HETATM    5  C5  UNL     1       9.606  16.348  17.480  1.00  0.00    -0.049 C 
HETATM    6  C6  UNL     1      10.101  17.647  17.638  1.00  0.00     0.044 C 
HETATM    7  C7  UNL     1      11.144  17.886  18.536  1.00  0.00     0.073 C 
HETATM    8  C8  UNL     1      11.884  16.832  19.058  1.00  0.00     0.037 C 
HETATM    9  C9  UNL     1      11.415  15.534  18.891  1.00  0.00     0.011 C 
HETATM   10  C10 UNL     1      10.209  15.305  18.203  1.00  0.00    -0.046 C 
HETATM   11  C11 UNL     1       9.407  14.040  18.566  1.00  0.00     0.037 C 
HETATM   12  C12 UNL     1       8.779  14.397  19.953  1.00  0.00     0.126 C 
HETATM   13  C13 UNL     1       8.233  13.347  20.922  1.00  0.00     0.153 C 
HETATM   14  C14 UNL     1       7.519  13.917  22.234  1.00  0.00     0.053 C 
HETATM   15  C15 UNL     1       6.250  13.055  22.453  1.00  0.00    -0.013 C 
HETATM   16  C16 UNL     1       5.055  13.548  22.841  1.00  0.00    -0.050 C 
HETATM   17  C17 UNL     1       4.971  14.965  23.323  1.00  0.00     0.043 C 
HETATM   18  C18 UNL     1       5.659  15.830  22.263  1.00  0.00     0.014 C 
HETATM   19  C19 UNL     1       5.035  15.671  20.824  1.00  0.00     0.039 C 
HETATM   20  C20 UNL     1       3.649  14.964  20.738  1.00  0.00     0.130 C 
HETATM   21  O4  UNL     1       3.860  13.554  20.887  1.00  0.00    -0.371 OA
HETATM   22  C21 UNL     1       3.758  13.072  22.244  1.00  0.00     0.185 C 
HETATM   23  C22 UNL     1       3.322  11.616  22.205  1.00  0.00    -0.006 A 
HETATM   24  C23 UNL     1       3.931  10.625  22.988  1.00  0.00     0.014 A 
HETATM   25  C24 UNL     1       3.450   9.312  22.974  1.00  0.00     0.037 A 
HETATM   26  C25 UNL     1       2.348   8.981  22.192  1.00  0.00     0.067 A 
HETATM   27  C26 UNL     1       1.705   9.939  21.416  1.00  0.00     0.057 A 
HETATM   28  C27 UNL     1       2.181  11.252  21.425  1.00  0.00     0.029 A 
HETATM   29  C28 UNL     1       1.521  12.250  20.623  1.00  0.00    -0.066 C 
HETATM   30  C29 UNL     1       1.303  13.265  20.017  1.00  0.00    -0.101 C 
HETATM   31  C30 UNL     1       1.421  14.615  19.435  1.00  0.00     0.103 C 
HETATM   32  C31 UNL     1       2.888  15.166  19.389  1.00  0.00     0.049 C 
HETATM   33  C33 UNL     1       7.195  15.488  22.402  1.00  0.00     0.100 C 
HETATM   34  C34 UNL     1       8.172  16.578  21.950  1.00  0.00    -0.040 A 
HETATM   35  C35 UNL     1       9.490  16.566  22.436  1.00  0.00     0.009 A 
HETATM   36  C36 UNL     1      10.439  17.504  21.997  1.00  0.00     0.012 A 
HETATM   37  C37 UNL     1      10.108  18.504  21.063  1.00  0.00    -0.003 A 
HETATM   38  C38 UNL     1       8.771  18.555  20.637  1.00  0.00     0.012 A 
HETATM   39  C39 UNL     1       7.824  17.616  21.075  1.00  0.00     0.009 A 
HETATM   40  C40 UNL     1      11.205  19.412  20.420  1.00  0.00     0.171 C 
HETATM   41  O8  UNL     1      11.302  19.183  18.955  1.00  0.00    -0.316 OA
HETATM   42 NA1  UNL     1       7.680  16.446  20.478  1.00  0.00    -0.240 Na
ENDROOT
BRANCH  40  43
HETATM   43  C41 UNL     1      10.790  20.927  20.509  1.00  0.00     0.074 C 
BRANCH  43  44
HETATM   44  C42 UNL     1       9.600  21.313  21.422  1.00  0.00     0.018 C 
BRANCH  44  45
HETATM   45  C43 UNL     1       8.802  22.538  20.964  1.00  0.00     0.169 C 
BRANCH  45  46
HETATM   46  O7  UNL     1       9.632  23.652  20.689  1.00  0.00    -0.400 OA
HETATM   47  H45 UNL     1       9.341  24.015  19.830  1.00  0.00     0.209 HD
ENDBRANCH  45  46
ENDBRANCH  44  45
BRANCH  44  48
HETATM   48  C44 UNL     1      10.029  21.414  22.910  1.00  0.00     0.045 C 
BRANCH  48  49
HETATM   49  C45 UNL     1       9.523  20.371  23.878  1.00  0.00    -0.058 A 
HETATM   50  C46 UNL     1      10.394  19.726  24.764  1.00  0.00     0.007 A 
HETATM   51  C47 UNL     1       9.915  18.772  25.666  1.00  0.00     0.001 A 
HETATM   52  C48 UNL     1       8.559  18.456  25.696  1.00  0.00     0.000 A 
HETATM   53  C49 UNL     1       7.680  19.091  24.821  1.00  0.00     0.001 A 
HETATM   54  C50 UNL     1       8.158  20.043  23.919  1.00  0.00     0.007 A 
ENDBRANCH  48  49
ENDBRANCH  44  48
ENDBRANCH  43  44
ENDBRANCH  40  43
BRANCH  40  55
HETATM   55  N1  UNL     1      12.480  19.301  21.166  1.00  0.00    -0.336 N 
HETATM   56  C51 UNL     1      13.578  19.725  20.667  1.00  0.00     0.124 C 
HETATM   57  N2  UNL     1      14.704  19.649  21.407  1.00  0.00    -0.279 NA
HETATM   58  N3  UNL     1      13.809  20.309  19.473  1.00  0.00    -0.279 NA
HETATM   59  H53 UNL     1      15.516  19.301  20.916  1.00  0.00     0.126 HD
HETATM   60  H54 UNL     1      14.529  19.108  22.248  1.00  0.00     0.126 HD
HETATM   61  H55 UNL     1      13.053  20.179  18.805  1.00  0.00     0.126 HD
HETATM   62  H56 UNL     1      14.718  20.163  19.059  1.00  0.00     0.126 HD
ATOM     63  H1  UNL     1      12.483  18.879  22.095  1.00  0.00     0.165 HD
ENDBRANCH  40  55
BRANCH  13  64
HETATM   64  S1  UNL     1       9.560  12.205  21.464  1.00  0.00     0.108 S 
HETATM   65  O1  UNL     1       9.089  11.708  22.756  1.00  0.00    -0.595 OA
HETATM   66  O2  UNL     1      10.760  13.036  21.531  1.00  0.00    -0.595 OA
HETATM   67  O3  UNL     1       9.612  11.193  20.411  1.00  0.00    -0.595 OA
ENDBRANCH  13  64
BRANCH  32  68
HETATM   68  C32 UNL     1       3.646  14.613  18.171  1.00  0.00     0.172 C 
BRANCH  68  69
HETATM   69  O6  UNL     1       3.005  14.884  16.937  1.00  0.00    -0.400 OA
HETATM   70  H34 UNL     1       2.048  14.711  17.068  1.00  0.00     0.209 HD
ENDBRANCH  68  69
ENDBRANCH  32  68
BRANCH  26  71
HETATM   71  O5  UNL     1       1.917   7.685  22.216  1.00  0.00    -0.361 OA
HETATM   72  H27 UNL     1       1.176   7.599  21.596  1.00  0.00     0.217 HD
ENDBRANCH  26  71
TORSDOF 11
ENDMDL
MODEL 2
REMARK minimizedAffinity -9.16560555
REMARK CNNscore 0.188800901
REMARK CNNaffinity 7.38526297
REMARK  11 active torsions:
REMARK  status: ('A' for Active; 'I' for Inactive)
REMARK    1  A    between atoms: C13_13  and  S1_14 
REMARK    2  A    between atoms: C25_30  and  O5_31 
REMARK    3  A    between atoms: C31_37  and  C32_38 
REMARK    4  A    between atoms: C32_38  and  O6_39 
REMARK    5  A    between atoms: C40_47  and  C41_48 
REMARK    6  A    between atoms: C40_47  and  N1_59 
REMARK    7  A    between atoms: C41_48  and  C42_49 
REMARK    8  A    between atoms: C42_49  and  C43_50 
REMARK    9  A    between atoms: C42_49  and  C44_52 
REMARK   10  A    between atoms: C43_50  and  O7_51 
REMARK   11  A    between atoms: C44_52  and  C45_53 
REMARK       I    between atoms: C51_61  and  N2_62 
REMARK       I    between atoms: C51_61  and  N3_63 
ROOT
HETATM    1  C1  UNL     1       3.014  14.328  12.906  1.00  0.00     0.011 C 
HETATM    2  C2  UNL     1       3.678  14.901  14.153  1.00  0.00    -0.009 C 
HETATM    3  C3  UNL     1       2.750  14.738  15.367  1.00  0.00     0.009 C 
HETATM    4  C4  UNL     1       3.308  15.436  16.603  1.00  0.00     0.039 C 
HETATM    5  C5  UNL     1       4.774  15.182  16.827  1.00  0.00    -0.049 C 
HETATM    6  C6  UNL     1       5.296  15.166  18.124  1.00  0.00     0.044 C 
HETATM    7  C7  UNL     1       6.641  14.842  18.326  1.00  0.00     0.073 C 
HETATM    8  C8  UNL     1       7.530  14.818  17.259  1.00  0.00     0.037 C 
HETATM    9  C9  UNL     1       7.026  14.854  15.964  1.00  0.00     0.011 C 
HETATM   10  C10 UNL     1       5.637  14.914  15.751  1.00  0.00    -0.046 C 
HETATM   11  C11 UNL     1       5.088  14.326  14.436  1.00  0.00     0.037 C 
HETATM   12  C12 UNL     1       5.186  12.783  14.664  1.00  0.00     0.126 C 
HETATM   13  C13 UNL     1       5.149  11.762  13.524  1.00  0.00     0.153 C 
HETATM   14  C14 UNL     1       5.137  10.226  13.967  1.00  0.00     0.053 C 
HETATM   15  C15 UNL     1       4.112   9.512  13.051  1.00  0.00    -0.013 C 
HETATM   16  C16 UNL     1       3.242   8.570  13.474  1.00  0.00    -0.050 C 
HETATM   17  C17 UNL     1       3.406   7.989  14.845  1.00  0.00     0.043 C 
HETATM   18  C18 UNL     1       3.525   9.171  15.812  1.00  0.00     0.014 C 
HETATM   19  C19 UNL     1       2.297  10.158  15.746  1.00  0.00     0.039 C 
HETATM   20  C20 UNL     1       1.027   9.645  15.004  1.00  0.00     0.130 C 
HETATM   21  O4  UNL     1       1.271   9.730  13.594  1.00  0.00    -0.371 OA
HETATM   22  C21 UNL     1       1.813   8.529  13.005  1.00  0.00     0.185 C 
HETATM   23  C22 UNL     1       1.397   8.482  11.543  1.00  0.00    -0.006 A 
HETATM   24  C23 UNL     1       2.294   8.160  10.514  1.00  0.00     0.014 A 
HETATM   25  C24 UNL     1       1.851   8.058   9.192  1.00  0.00     0.037 A 
HETATM   26  C25 UNL     1       0.508   8.259   8.887  1.00  0.00     0.067 A 
HETATM   27  C26 UNL     1      -0.415   8.561   9.882  1.00  0.00     0.057 A 
HETATM   28  C27 UNL     1       0.020   8.664  11.206  1.00  0.00     0.029 A 
HETATM   29  C28 UNL     1      -0.930   8.978  12.241  1.00  0.00    -0.066 C 
HETATM   30  C29 UNL     1      -1.398   9.325  13.293  1.00  0.00    -0.101 C 
HETATM   31  C30 UNL     1      -1.555   9.779  14.687  1.00  0.00     0.103 C 
HETATM   32  C31 UNL     1      -0.276  10.459  15.287  1.00  0.00     0.049 C 
HETATM   33  C33 UNL     1       4.943   9.795  15.509  1.00  0.00     0.100 C 
HETATM   34  C34 UNL     1       5.604  10.558  16.662  1.00  0.00    -0.040 A 
HETATM   35  C35 UNL     1       6.996  10.748  16.654  1.00  0.00     0.009 A 
HETATM   36  C36 UNL     1       7.636  11.499  17.653  1.00  0.00     0.012 A 
HETATM   37  C37 UNL     1       6.915  12.083  18.711  1.00  0.00    -0.003 A 
HETATM   38  C38 UNL     1       5.534  11.828  18.754  1.00  0.00     0.012 A 
HETATM   39  C39 UNL     1       4.895  11.078  17.754  1.00  0.00     0.009 A 
HETATM   40  C40 UNL     1       7.590  13.085  19.701  1.00  0.00     0.171 C 
HETATM   41  O8  UNL     1       6.987  14.439  19.590  1.00  0.00    -0.316 OA
HETATM   42 NA1  UNL     1       4.478  11.635  16.630  1.00  0.00    -0.240 Na
ENDROOT
BRANCH  40  43
HETATM   43  C41 UNL     1       7.278  12.686  21.191  1.00  0.00     0.074 C 
BRANCH  43  44
HETATM   44  C42 UNL     1       5.872  13.001  21.759  1.00  0.00     0.018 C 
BRANCH  44  45
HETATM   45  C43 UNL     1       5.663  14.451  22.206  1.00  0.00     0.169 C 
BRANCH  45  46
HETATM   46  O7  UNL     1       6.886  15.142  22.387  1.00  0.00    -0.400 OA
HETATM   47  H45 UNL     1       6.791  16.005  21.939  1.00  0.00     0.209 HD
ENDBRANCH  45  46
ENDBRANCH  44  45
BRANCH  44  48
HETATM   48  C44 UNL     1       5.454  11.983  22.853  1.00  0.00     0.045 C 
BRANCH  48  49
HETATM   49  C45 UNL     1       4.369  10.983  22.530  1.00  0.00    -0.058 A 
HETATM   50  C46 UNL     1       4.089   9.917  23.395  1.00  0.00     0.007 A 
HETATM   51  C47 UNL     1       3.074   9.005  23.095  1.00  0.00     0.001 A 
HETATM   52  C48 UNL     1       2.324   9.151  21.931  1.00  0.00     0.000 A 
HETATM   53  C49 UNL     1       2.590  10.207  21.062  1.00  0.00     0.001 A 
HETATM   54  C50 UNL     1       3.605  11.118  21.361  1.00  0.00     0.007 A 
ENDBRANCH  48  49
ENDBRANCH  44  48
ENDBRANCH  43  44
ENDBRANCH  40  43
BRANCH  40  55
HETATM   55  N1  UNL     1       9.065  13.034  19.573  1.00  0.00    -0.336 N 
HETATM   56  C51 UNL     1       9.804  13.952  20.069  1.00  0.00     0.124 C 
HETATM   57  N2  UNL     1      11.145  13.834  19.972  1.00  0.00    -0.279 NA
HETATM   58  N3  UNL     1       9.454  15.062  20.751  1.00  0.00    -0.279 NA
HETATM   59  H53 UNL     1      11.630  14.674  19.689  1.00  0.00     0.126 HD
HETATM   60  H54 UNL     1      11.380  13.056  19.362  1.00  0.00     0.126 HD
HETATM   61  H55 UNL     1       8.472  15.307  20.650  1.00  0.00     0.126 HD
HETATM   62  H56 UNL     1      10.061  15.863  20.666  1.00  0.00     0.126 HD
ATOM     63  H1  UNL     1       9.499  12.254  19.081  1.00  0.00     0.165 HD
ENDBRANCH  40  55
BRANCH  13  64
HETATM   64  S1  UNL     1       6.565  12.001  12.387  1.00  0.00     0.108 S 
HETATM   65  O1  UNL     1       7.676  12.342  13.276  1.00  0.00    -0.595 OA
HETATM   66  O2  UNL     1       6.147  13.079  11.494  1.00  0.00    -0.595 OA
HETATM   67  O3  UNL     1       6.705  10.711  11.715  1.00  0.00    -0.595 OA
ENDBRANCH  13  64
BRANCH  32  68
HETATM   68  C32 UNL     1      -0.181  11.931  14.854  1.00  0.00     0.172 C 
BRANCH  68  69
HETATM   69  O6  UNL     1      -1.246  12.341  14.014  1.00  0.00    -0.400 OA
HETATM   70  H34 UNL     1      -1.389  11.622  13.361  1.00  0.00     0.209 HD
ENDBRANCH  68  69
ENDBRANCH  32  68
BRANCH  26  71
HETATM   71  O5  UNL     1       0.128   8.144   7.580  1.00  0.00    -0.361 OA
HETATM   72  H27 UNL     1      -0.818   8.351   7.520  1.00  0.00     0.217 HD
ENDBRANCH  26  71
TORSDOF 11
ENDMDL
MODEL 3
REMARK minimizedAffinity -8.68118477
REMARK CNNscore 0.162706122
REMARK CNNaffinity 6.96300888
REMARK  11 active torsions:
REMARK  status: ('A' for Active; 'I' for Inactive)
REMARK    1  A    between atoms: C13_13  and  S1_14 
REMARK    2  A    between atoms: C25_30  and  O5_31 
REMARK    3  A    between atoms: C31_37  and  C32_38 
REMARK    4  A    between atoms: C32_38  and  O6_39 
REMARK    5  A    between atoms: C40_47  and  C41_48 
REMARK    6  A    between atoms: C40_47  and  N1_59 
REMARK    7  A    between atoms: C41_48  and  C42_49 
REMARK    8  A    between atoms: C42_49  and  C43_50 
REMARK    9  A    between atoms: C42_49  and  C44_52 
REMARK   10  A    between atoms: C43_50  and  O7_51 
REMARK   11  A    between atoms: C44_52  and  C45_53 
REMARK       I    between atoms: C51_61  and  N2_62 
REMARK       I    between atoms: C51_61  and  N3_63 
ROOT
HETATM    1  C1  UNL     1     -18.378   6.792  26.691  1.00  0.00     0.011 C 
HETATM    2  C2  UNL     1     -17.650   7.953  26.021  1.00  0.00    -0.009 C 
HETATM    3  C3  UNL     1     -16.332   8.243  26.756  1.00  0.00     0.009 C 
HETATM    4  C4  UNL     1     -15.647   9.493  26.215  1.00  0.00     0.039 C 
HETATM    5  C5  UNL     1     -15.620   9.564  24.712  1.00  0.00    -0.049 C 
HETATM    6  C6  UNL     1     -14.567  10.210  24.056  1.00  0.00     0.044 C 
HETATM    7  C7  UNL     1     -14.507  10.193  22.660  1.00  0.00     0.073 C 
HETATM    8  C8  UNL     1     -15.608   9.800  21.910  1.00  0.00     0.037 C 
HETATM    9  C9  UNL     1     -16.671   9.175  22.552  1.00  0.00     0.011 C 
HETATM   10  C10 UNL     1     -16.620   8.949  23.939  1.00  0.00    -0.046 C 
HETATM   11  C11 UNL     1     -17.422   7.760  24.502  1.00  0.00     0.037 C 
HETATM   12  C12 UNL     1     -16.577   6.518  24.068  1.00  0.00     0.126 C 
HETATM   13  C13 UNL     1     -17.137   5.095  24.026  1.00  0.00     0.153 C 
HETATM   14  C14 UNL     1     -16.085   3.944  23.676  1.00  0.00     0.053 C 
HETATM   15  C15 UNL     1     -16.391   2.763  24.632  1.00  0.00    -0.013 C 
HETATM   16  C16 UNL     1     -15.447   2.015  25.240  1.00  0.00    -0.050 C 
HETATM   17  C17 UNL     1     -14.018   2.150  24.810  1.00  0.00     0.043 C 
HETATM   18  C18 UNL     1     -13.695   3.647  24.825  1.00  0.00     0.014 C 
HETATM   19  C19 UNL     1     -13.943   4.326  26.227  1.00  0.00     0.039 C 
HETATM   20  C20 UNL     1     -14.135   3.369  27.442  1.00  0.00     0.130 C 
HETATM   21  O4  UNL     1     -15.463   2.833  27.379  1.00  0.00    -0.371 OA
HETATM   22  C21 UNL     1     -15.571   1.577  26.675  1.00  0.00     0.185 C 
HETATM   23  C22 UNL     1     -16.761   0.814  27.234  1.00  0.00    -0.006 A 
HETATM   24  C23 UNL     1     -17.702   0.178  26.411  1.00  0.00     0.014 A 
HETATM   25  C24 UNL     1     -18.740  -0.573  26.969  1.00  0.00     0.037 A 
HETATM   26  C25 UNL     1     -18.840  -0.711  28.350  1.00  0.00     0.067 A 
HETATM   27  C26 UNL     1     -17.915  -0.111  29.199  1.00  0.00     0.057 A 
HETATM   28  C27 UNL     1     -16.875   0.641  28.648  1.00  0.00     0.029 A 
HETATM   29  C28 UNL     1     -15.914   1.266  29.520  1.00  0.00    -0.066 C 
HETATM   30  C29 UNL     1     -15.045   1.990  29.928  1.00  0.00    -0.101 C 
HETATM   31  C30 UNL     1     -13.980   3.006  30.016  1.00  0.00     0.103 C 
HETATM   32  C31 UNL     1     -13.987   4.045  28.842  1.00  0.00     0.049 C 
HETATM   33  C33 UNL     1     -14.501   4.244  23.605  1.00  0.00     0.100 C 
HETATM   34  C34 UNL     1     -13.938   5.528  22.988  1.00  0.00    -0.040 A 
HETATM   35  C35 UNL     1     -14.291   5.873  21.673  1.00  0.00     0.009 A 
HETATM   36  C36 UNL     1     -13.855   7.073  21.090  1.00  0.00     0.012 A 
HETATM   37  C37 UNL     1     -13.034   7.976  21.791  1.00  0.00    -0.003 A 
HETATM   38  C38 UNL     1     -12.624   7.591  23.079  1.00  0.00     0.012 A 
HETATM   39  C39 UNL     1     -13.062   6.391  23.660  1.00  0.00     0.009 A 
HETATM   40  C40 UNL     1     -12.719   9.398  21.226  1.00  0.00     0.171 C 
HETATM   41  O8  UNL     1     -13.284  10.460  22.100  1.00  0.00    -0.316 OA
HETATM   42 NA1  UNL     1     -14.213   6.313  24.305  1.00  0.00    -0.240 Na
ENDROOT
BRANCH  40  43
HETATM   43  C41 UNL     1     -11.174   9.686  21.283  1.00  0.00     0.074 C 
BRANCH  43  44
HETATM   44  C42 UNL     1     -10.640  10.636  22.384  1.00  0.00     0.018 C 
BRANCH  44  45
HETATM   45  C43 UNL     1     -11.394  10.571  23.716  1.00  0.00     0.169 C 
BRANCH  45  46
HETATM   46  O7  UNL     1     -10.535  10.729  24.831  1.00  0.00    -0.400 OA
HETATM   47  H45 UNL     1     -10.960  11.377  25.426  1.00  0.00     0.209 HD
ENDBRANCH  45  46
ENDBRANCH  44  45
BRANCH  44  48
HETATM   48  C44 UNL     1     -10.489  12.090  21.865  1.00  0.00     0.045 C 
BRANCH  48  49
HETATM   49  C45 UNL     1      -9.104  12.686  21.786  1.00  0.00    -0.058 A 
HETATM   50  C46 UNL     1      -8.298  12.793  22.926  1.00  0.00     0.007 A 
HETATM   51  C47 UNL     1      -7.012  13.333  22.841  1.00  0.00     0.001 A 
HETATM   52  C48 UNL     1      -6.514  13.767  21.615  1.00  0.00     0.000 A 
HETATM   53  C49 UNL     1      -7.304  13.665  20.472  1.00  0.00     0.001 A 
HETATM   54  C50 UNL     1      -8.589  13.127  20.556  1.00  0.00     0.007 A 
ENDBRANCH  48  49
ENDBRANCH  44  48
ENDBRANCH  43  44
ENDBRANCH  40  43
BRANCH  40  55
HETATM   55  N1  UNL     1     -13.092   9.487  19.796  1.00  0.00    -0.336 N 
HETATM   56  C51 UNL     1     -12.255   9.194  18.875  1.00  0.00     0.124 C 
HETATM   57  N2  UNL     1     -12.658   9.240  17.588  1.00  0.00    -0.279 NA
HETATM   58  N3  UNL     1     -10.975   8.780  18.978  1.00  0.00    -0.279 NA
HETATM   59  H53 UNL     1     -12.015   9.694  16.954  1.00  0.00     0.126 HD
HETATM   60  H54 UNL     1     -13.581   9.660  17.530  1.00  0.00     0.126 HD
HETATM   61  H55 UNL     1     -10.567   8.949  19.894  1.00  0.00     0.126 HD
HETATM   62  H56 UNL     1     -10.351   9.029  18.225  1.00  0.00     0.126 HD
ATOM     63  H1  UNL     1     -14.032   9.788  19.540  1.00  0.00     0.165 HD
ENDBRANCH  40  55
BRANCH  13  64
HETATM   64  S1  UNL     1     -18.515   4.971  22.823  1.00  0.00     0.108 S 
HETATM   65  O1  UNL     1     -19.528   5.883  23.355  1.00  0.00    -0.595 OA
HETATM   66  O2  UNL     1     -18.895   3.561  22.838  1.00  0.00    -0.595 OA
HETATM   67  O3  UNL     1     -17.923   5.401  21.557  1.00  0.00    -0.595 OA
ENDBRANCH  13  64
BRANCH  32  68
HETATM   68  C32 UNL     1     -15.019   5.156  29.097  1.00  0.00     0.172 C 
BRANCH  68  69
HETATM   69  O6  UNL     1     -15.165   5.487  30.467  1.00  0.00    -0.400 OA
HETATM   70  H34 UNL     1     -15.187   4.641  30.965  1.00  0.00     0.209 HD
ENDBRANCH  68  69
ENDBRANCH  32  68
BRANCH  26  71
HETATM   71  O5  UNL     1     -19.871  -1.458  28.844  1.00  0.00    -0.361 OA
HETATM   72  H27 UNL     1     -19.833  -1.427  29.813  1.00  0.00     0.217 HD
ENDBRANCH  26  71
TORSDOF 11
ENDMDL
MODEL 4
REMARK minimizedAffinity -8.47539234
REMARK CNNscore 0.159045175
REMARK CNNaffinity 7.19276571
REMARK  11 active torsions:
REMARK  status: ('A' for Active; 'I' for Inactive)
REMARK    1  A    between atoms: C13_13  and  S1_14 
REMARK    2  A    between atoms: C25_30  and  O5_31 
REMARK    3  A    between atoms: C31_37  and  C32_38 
REMARK    4  A    between atoms: C32_38  and  O6_39 
REMARK    5  A    between atoms: C40_47  and  C41_48 
REMARK    6  A    between atoms: C40_47  and  N1_59 
REMARK    7  A    between atoms: C41_48  and  C42_49 
REMARK    8  A    between atoms: C42_49  and  C43_50 
REMARK    9  A    between atoms: C42_49  and  C44_52 
REMARK   10  A    between atoms: C43_50  and  O7_51 
REMARK   11  A    between atoms: C44_52  and  C45_53 
REMARK       I    between atoms: C51_61  and  N2_62 
REMARK       I    between atoms: C51_61  and  N3_63 
ROOT
HETATM    1  C1  UNL     1       3.764  10.818  16.757  1.00  0.00     0.011 C 
HETATM    2  C2  UNL     1       2.325  10.782  16.254  1.00  0.00    -0.009 C 
HETATM    3  C3  UNL     1       1.436  10.027  17.254  1.00  0.00     0.009 C 
HETATM    4  C4  UNL     1       0.022   9.833  16.718  1.00  0.00     0.039 C 
HETATM    5  C5  UNL     1      -0.559  11.070  16.089  1.00  0.00    -0.049 C 
HETATM    6  C6  UNL     1      -1.938  11.301  16.129  1.00  0.00     0.044 C 
HETATM    7  C7  UNL     1      -2.456  12.494  15.619  1.00  0.00     0.073 C 
HETATM    8  C8  UNL     1      -1.673  13.321  14.823  1.00  0.00     0.037 C 
HETATM    9  C9  UNL     1      -0.304  13.091  14.756  1.00  0.00     0.011 C 
HETATM   10  C10 UNL     1       0.268  12.035  15.489  1.00  0.00    -0.046 C 
HETATM   11  C11 UNL     1       1.742  12.176  15.916  1.00  0.00     0.037 C 
HETATM   12  C12 UNL     1       1.680  13.215  17.083  1.00  0.00     0.126 C 
HETATM   13  C13 UNL     1       2.900  13.997  17.575  1.00  0.00     0.153 C 
HETATM   14  C14 UNL     1       2.662  14.920  18.858  1.00  0.00     0.053 C 
HETATM   15  C15 UNL     1       3.900  14.731  19.771  1.00  0.00    -0.013 C 
HETATM   16  C16 UNL     1       3.842  14.628  21.116  1.00  0.00    -0.050 C 
HETATM   17  C17 UNL     1       2.556  14.944  21.818  1.00  0.00     0.043 C 
HETATM   18  C18 UNL     1       1.460  14.142  21.110  1.00  0.00     0.014 C 
HETATM   19  C19 UNL     1       1.738  12.590  21.084  1.00  0.00     0.039 C 
HETATM   20  C20 UNL     1       2.852  12.064  22.038  1.00  0.00     0.130 C 
HETATM   21  O4  UNL     1       4.122  12.380  21.456  1.00  0.00    -0.371 OA
HETATM   22  C21 UNL     1       4.682  13.642  21.882  1.00  0.00     0.185 C 
HETATM   23  C22 UNL     1       6.196  13.553  21.782  1.00  0.00    -0.006 A 
HETATM   24  C23 UNL     1       6.975  14.573  21.215  1.00  0.00     0.014 A 
HETATM   25  C24 UNL     1       8.370  14.481  21.210  1.00  0.00     0.037 A 
HETATM   26  C25 UNL     1       9.000  13.382  21.784  1.00  0.00     0.067 A 
HETATM   27  C26 UNL     1       8.264  12.360  22.373  1.00  0.00     0.057 A 
HETATM   28  C27 UNL     1       6.869  12.445  22.382  1.00  0.00     0.029 A 
HETATM   29  C28 UNL     1       6.099  11.390  22.989  1.00  0.00    -0.066 C 
HETATM   30  C29 UNL     1       5.180  10.673  23.285  1.00  0.00    -0.101 C 
HETATM   31  C30 UNL     1       3.837  10.077  23.404  1.00  0.00     0.103 C 
HETATM   32  C31 UNL     1       2.838  10.521  22.280  1.00  0.00     0.049 C 
HETATM   33  C33 UNL     1       1.292  14.847  19.706  1.00  0.00     0.100 C 
HETATM   34  C34 UNL     1      -0.078  14.698  19.038  1.00  0.00    -0.040 A 
HETATM   35  C35 UNL     1      -0.470  15.625  18.056  1.00  0.00     0.009 A 
HETATM   36  C36 UNL     1      -1.686  15.489  17.368  1.00  0.00     0.012 A 
HETATM   37  C37 UNL     1      -2.571  14.430  17.639  1.00  0.00    -0.003 A 
HETATM   38  C38 UNL     1      -2.208  13.549  18.672  1.00  0.00     0.012 A 
HETATM   39  C39 UNL     1      -0.991  13.685  19.358  1.00  0.00     0.009 A 
HETATM   40  C40 UNL     1      -3.819  14.159  16.738  1.00  0.00     0.171 C 
HETATM   41  O8  UNL     1      -3.710  12.847  16.049  1.00  0.00    -0.316 OA
HETATM   42 NA1  UNL     1       0.130  13.161  18.893  1.00  0.00    -0.240 Na
ENDROOT
BRANCH  40  43
HETATM   43  C41 UNL     1      -5.110  13.983  17.619  1.00  0.00     0.074 C 
BRANCH  43  44
HETATM   44  C42 UNL     1      -5.453  15.084  18.653  1.00  0.00     0.018 C 
BRANCH  44  45
HETATM   45  C43 UNL     1      -4.891  16.473  18.332  1.00  0.00     0.169 C 
BRANCH  45  46
HETATM   46  O7  UNL     1      -5.804  17.269  17.600  1.00  0.00    -0.400 OA
HETATM   47  H45 UNL     1      -5.821  18.146  18.029  1.00  0.00     0.209 HD
ENDBRANCH  45  46
ENDBRANCH  44  45
BRANCH  44  48
HETATM   48  C44 UNL     1      -5.120  14.636  20.101  1.00  0.00     0.045 C 
BRANCH  48  49
HETATM   49  C45 UNL     1      -6.220  14.028  20.938  1.00  0.00    -0.058 A 
HETATM   50  C46 UNL     1      -7.517  13.882  20.429  1.00  0.00     0.007 A 
HETATM   51  C47 UNL     1      -8.525  13.306  21.206  1.00  0.00     0.001 A 
HETATM   52  C48 UNL     1      -8.248  12.863  22.497  1.00  0.00     0.000 A 
HETATM   53  C49 UNL     1      -6.962  13.000  23.015  1.00  0.00     0.001 A 
HETATM   54  C50 UNL     1      -5.955  13.577  22.241  1.00  0.00     0.007 A 
ENDBRANCH  48  49
ENDBRANCH  44  48
ENDBRANCH  43  44
ENDBRANCH  40  43
BRANCH  40  55
HETATM   55  N1  UNL     1      -4.089  15.319  15.857  1.00  0.00    -0.336 N 
HETATM   56  C51 UNL     1      -4.886  15.222  14.862  1.00  0.00     0.124 C 
HETATM   57  N2  UNL     1      -5.141  16.321  14.120  1.00  0.00    -0.279 NA
HETATM   58  N3  UNL     1      -5.591  14.158  14.427  1.00  0.00    -0.279 NA
HETATM   59  H53 UNL     1      -5.115  16.178  13.120  1.00  0.00     0.126 HD
HETATM   60  H54 UNL     1      -4.517  17.075  14.395  1.00  0.00     0.126 HD
HETATM   61  H55 UNL     1      -5.262  13.272  14.803  1.00  0.00     0.126 HD
HETATM   62  H56 UNL     1      -5.783  14.108  13.438  1.00  0.00     0.126 HD
ATOM     63  H1  UNL     1      -3.631  16.210  16.047  1.00  0.00     0.165 HD
ENDBRANCH  40  55
BRANCH  13  64
HETATM   64  S1  UNL     1       3.576  15.060  16.244  1.00  0.00     0.108 S 
HETATM   65  O1  UNL     1       4.525  14.191  15.549  1.00  0.00    -0.595 OA
HETATM   66  O2  UNL     1       4.182  16.190  16.943  1.00  0.00    -0.595 OA
HETATM   67  O3  UNL     1       2.404  15.428  15.451  1.00  0.00    -0.595 OA
ENDBRANCH  13  64
BRANCH  32  68
HETATM   68  C32 UNL     1       3.051   9.700  20.998  1.00  0.00     0.172 C 
BRANCH  68  69
HETATM   69  O6  UNL     1       2.201  10.088  19.933  1.00  0.00    -0.400 OA
HETATM   70  H34 UNL     1       1.306  10.221  20.315  1.00  0.00     0.209 HD
ENDBRANCH  68  69
ENDBRANCH  32  68
BRANCH  26  71
HETATM   71  O5  UNL     1      10.366  13.343  21.755  1.00  0.00    -0.361 OA
HETATM   72  H27 UNL     1      10.655  12.506  22.151  1.00  0.00     0.217 HD
ENDBRANCH  26  71
TORSDOF 11
ENDMDL
MODEL 5
REMARK minimizedAffinity -7.95050478
REMARK CNNscore 0.151789084
REMARK CNNaffinity 7.00466156
REMARK  11 active torsions:
REMARK  status: ('A' for Active; 'I' for Inactive)
REMARK    1  A    between atoms: C13_13  and  S1_14 
REMARK    2  A    between atoms: C25_30  and  O5_31 
REMARK    3  A    between atoms: C31_37  and  C32_38 
REMARK    4  A    between atoms: C32_38  and  O6_39 
REMARK    5  A    between atoms: C40_47  and  C41_48 
REMARK    6  A    between atoms: C40_47  and  N1_59 
REMARK    7  A    between atoms: C41_48  and  C42_49 
REMARK    8  A    between atoms: C42_49  and  C43_50 
REMARK    9  A    between atoms: C42_49  and  C44_52 
REMARK   10  A    between atoms: C43_50  and  O7_51 
REMARK   11  A    between atoms: C44_52  and  C45_53 
REMARK       I    between atoms: C51_61  and  N2_62 
REMARK       I    between atoms: C51_61  and  N3_63 
ROOT
HETATM    1  C1  UNL     1       4.543  12.493  16.528  1.00  0.00     0.011 C 
HETATM    2  C2  UNL     1       3.286  12.723  15.695  1.00  0.00    -0.009 C 
HETATM    3  C3  UNL     1       2.166  11.780  16.163  1.00  0.00     0.009 C 
HETATM    4  C4  UNL     1       0.940  11.867  15.259  1.00  0.00     0.039 C 
HETATM    5  C5  UNL     1       0.546  13.276  14.912  1.00  0.00    -0.049 C 
HETATM    6  C6  UNL     1      -0.795  13.595  14.676  1.00  0.00     0.044 C 
HETATM    7  C7  UNL     1      -1.161  14.923  14.441  1.00  0.00     0.073 C 
HETATM    8  C8  UNL     1      -0.197  15.882  14.155  1.00  0.00     0.037 C 
HETATM    9  C9  UNL     1       1.142  15.572  14.366  1.00  0.00     0.011 C 
HETATM   10  C10 UNL     1       1.501  14.305  14.861  1.00  0.00    -0.046 C 
HETATM   11  C11 UNL     1       2.812  14.196  15.664  1.00  0.00     0.037 C 
HETATM   12  C12 UNL     1       2.448  14.848  17.037  1.00  0.00     0.126 C 
HETATM   13  C13 UNL     1       3.496  15.350  18.032  1.00  0.00     0.153 C 
HETATM   14  C14 UNL     1       2.931  15.872  19.433  1.00  0.00     0.053 C 
HETATM   15  C15 UNL     1       3.886  15.325  20.524  1.00  0.00    -0.013 C 
HETATM   16  C16 UNL     1       3.478  14.836  21.714  1.00  0.00    -0.050 C 
HETATM   17  C17 UNL     1       2.053  15.034  22.135  1.00  0.00     0.043 C 
HETATM   18  C18 UNL     1       1.181  14.566  20.967  1.00  0.00     0.014 C 
HETATM   19  C19 UNL     1       1.455  13.073  20.540  1.00  0.00     0.039 C 
HETATM   20  C20 UNL     1       2.280  12.202  21.535  1.00  0.00     0.130 C 
HETATM   21  O4  UNL     1       3.658  12.573  21.412  1.00  0.00    -0.371 OA
HETATM   22  C21 UNL     1       4.087  13.604  22.328  1.00  0.00     0.185 C 
HETATM   23  C22 UNL     1       5.575  13.428  22.587  1.00  0.00    -0.006 A 
HETATM   24  C23 UNL     1       6.475  14.503  22.570  1.00  0.00     0.014 A 
HETATM   25  C24 UNL     1       7.823  14.305  22.885  1.00  0.00     0.037 A 
HETATM   26  C25 UNL     1       8.280  13.039  23.236  1.00  0.00     0.067 A 
HETATM   27  C26 UNL     1       7.415  11.951  23.282  1.00  0.00     0.057 A 
HETATM   28  C27 UNL     1       6.067  12.142  22.968  1.00  0.00     0.029 A 
HETATM   29  C28 UNL     1       5.164  11.020  23.013  1.00  0.00    -0.066 C 
HETATM   30  C29 UNL     1       4.199  10.325  22.838  1.00  0.00    -0.101 C 
HETATM   31  C30 UNL     1       2.871   9.829  22.431  1.00  0.00     0.103 C 
HETATM   32  C31 UNL     1       2.201  10.662  21.284  1.00  0.00     0.049 C 
HETATM   33  C33 UNL     1       1.387  15.663  19.849  1.00  0.00     0.100 C 
HETATM   34  C34 UNL     1       0.239  15.828  18.847  1.00  0.00    -0.040 A 
HETATM   35  C35 UNL     1       0.119  17.030  18.130  1.00  0.00     0.009 A 
HETATM   36  C36 UNL     1      -0.875  17.201  17.152  1.00  0.00     0.012 A 
HETATM   37  C37 UNL     1      -1.801  16.183  16.858  1.00  0.00    -0.003 A 
HETATM   38  C38 UNL     1      -1.721  15.011  17.630  1.00  0.00     0.012 A 
HETATM   39  C39 UNL     1      -0.727  14.842  18.606  1.00  0.00     0.009 A 
HETATM   40  C40 UNL     1      -2.768  16.290  15.636  1.00  0.00     0.171 C 
HETATM   41  O8  UNL     1      -2.484  15.233  14.631  1.00  0.00    -0.316 OA
HETATM   42 NA1  UNL     1       0.477  14.390  18.298  1.00  0.00    -0.240 Na
ENDROOT
BRANCH  40  43
HETATM   43  C41 UNL     1      -4.246  15.967  16.071  1.00  0.00     0.074 C 
BRANCH  43  44
HETATM   44  C42 UNL     1      -5.032  14.897  15.274  1.00  0.00     0.018 C 
BRANCH  44  45
HETATM   45  C43 UNL     1      -6.430  15.325  14.820  1.00  0.00     0.169 C 
BRANCH  45  46
HETATM   46  O7  UNL     1      -6.458  16.656  14.338  1.00  0.00    -0.400 OA
HETATM   47  H45 UNL     1      -6.955  16.642  13.497  1.00  0.00     0.209 HD
ENDBRANCH  45  46
ENDBRANCH  44  45
BRANCH  44  48
HETATM   48  C44 UNL     1      -5.045  13.530  16.008  1.00  0.00     0.045 C 
BRANCH  48  49
HETATM   49  C45 UNL     1      -5.296  13.513  17.497  1.00  0.00    -0.058 A 
HETATM   50  C46 UNL     1      -6.472  14.051  18.037  1.00  0.00     0.007 A 
HETATM   51  C47 UNL     1      -6.702  14.019  19.414  1.00  0.00     0.001 A 
HETATM   52  C48 UNL     1      -5.763  13.444  20.268  1.00  0.00     0.000 A 
HETATM   53  C49 UNL     1      -4.590  12.904  19.745  1.00  0.00     0.001 A 
HETATM   54  C50 UNL     1      -4.359  12.937  18.369  1.00  0.00     0.007 A 
ENDBRANCH  48  49
ENDBRANCH  44  48
ENDBRANCH  43  44
ENDBRANCH  40  43
BRANCH  40  55
HETATM   55  N1  UNL     1      -2.798  17.675  15.112  1.00  0.00    -0.336 N 
HETATM   56  C51 UNL     1      -3.241  17.929  13.940  1.00  0.00     0.124 C 
HETATM   57  N2  UNL     1      -3.296  19.213  13.528  1.00  0.00    -0.279 NA
HETATM   58  N3  UNL     1      -3.730  17.088  13.006  1.00  0.00    -0.279 NA
HETATM   59  H53 UNL     1      -2.954  19.377  12.591  1.00  0.00     0.126 HD
HETATM   60  H54 UNL     1      -2.820  19.812  14.197  1.00  0.00     0.126 HD
HETATM   61  H55 UNL     1      -3.499  16.113  13.177  1.00  0.00     0.126 HD
HETATM   62  H56 UNL     1      -3.602  17.351  12.040  1.00  0.00     0.126 HD
ATOM     63  H1  UNL     1      -2.459  18.439  15.696  1.00  0.00     0.165 HD
ENDBRANCH  40  55
BRANCH  13  64
HETATM   64  S1  UNL     1       4.497  16.700  17.300  1.00  0.00     0.108 S 
HETATM   65  O1  UNL     1       5.599  16.000  16.638  1.00  0.00    -0.595 OA
HETATM   66  O2  UNL     1       4.896  17.525  18.438  1.00  0.00    -0.595 OA
HETATM   67  O3  UNL     1       3.576  17.373  16.387  1.00  0.00    -0.595 OA
ENDBRANCH  13  64
BRANCH  32  68
HETATM   68  C32 UNL     1       2.743  10.240  19.909  1.00  0.00     0.172 C 
BRANCH  68  69
HETATM   69  O6  UNL     1       1.725  10.002  18.951  1.00  0.00    -0.400 OA
HETATM   70  H34 UNL     1       1.020   9.491  19.405  1.00  0.00     0.209 HD
ENDBRANCH  68  69
ENDBRANCH  32  68
BRANCH  26  71
HETATM   71  O5  UNL     1       9.606  12.901  23.537  1.00  0.00    -0.361 OA
HETATM   72  H27 UNL     1       9.780  11.964  23.719  1.00  0.00     0.217 HD
ENDBRANCH  26  71
TORSDOF 11
ENDMDL
MODEL 6
REMARK minimizedAffinity -8.29425907
REMARK CNNscore 0.145883739
REMARK CNNaffinity 6.87562704
REMARK  11 active torsions:
REMARK  status: ('A' for Active; 'I' for Inactive)
REMARK    1  A    between atoms: C13_13  and  S1_14 
REMARK    2  A    between atoms: C25_30  and  O5_31 
REMARK    3  A    between atoms: C31_37  and  C32_38 
REMARK    4  A    between atoms: C32_38  and  O6_39 
REMARK    5  A    between atoms: C40_47  and  C41_48 
REMARK    6  A    between atoms: C40_47  and  N1_59 
REMARK    7  A    between atoms: C41_48  and  C42_49 
REMARK    8  A    between atoms: C42_49  and  C43_50 
REMARK    9  A    between atoms: C42_49  and  C44_52 
REMARK   10  A    between atoms: C43_50  and  O7_51 
REMARK   11  A    between atoms: C44_52  and  C45_53 
REMARK       I    between atoms: C51_61  and  N2_62 
REMARK       I    between atoms: C51_61  and  N3_63 
ROOT
HETATM    1  C1  UNL     1       2.397  15.724  16.916  1.00  0.00     0.011 C 
HETATM    2  C2  UNL     1       1.576  14.878  15.948  1.00  0.00    -0.009 C 
HETATM    3  C3  UNL     1       2.410  13.688  15.451  1.00  0.00     0.009 C 
HETATM    4  C4  UNL     1       1.683  12.903  14.364  1.00  0.00     0.039 C 
HETATM    5  C5  UNL     1       0.236  12.638  14.678  1.00  0.00    -0.049 C 
HETATM    6  C6  UNL     1      -0.390  11.484  14.197  1.00  0.00     0.044 C 
HETATM    7  C7  UNL     1      -1.708  11.205  14.567  1.00  0.00     0.073 C 
HETATM    8  C8  UNL     1      -2.497  12.181  15.163  1.00  0.00     0.037 C 
HETATM    9  C9  UNL     1      -1.892  13.342  15.628  1.00  0.00     0.011 C 
HETATM   10  C10 UNL     1      -0.502  13.515  15.492  1.00  0.00    -0.046 C 
HETATM   11  C11 UNL     1       0.212  14.418  16.516  1.00  0.00     0.037 C 
HETATM   12  C12 UNL     1       0.248  13.537  17.808  1.00  0.00     0.126 C 
HETATM   13  C13 UNL     1       0.482  14.110  19.207  1.00  0.00     0.153 C 
HETATM   14  C14 UNL     1       0.607  13.037  20.385  1.00  0.00     0.053 C 
HETATM   15  C15 UNL     1       1.772  13.511  21.291  1.00  0.00    -0.013 C 
HETATM   16  C16 UNL     1       2.692  12.689  21.838  1.00  0.00    -0.050 C 
HETATM   17  C17 UNL     1       2.471  11.207  21.784  1.00  0.00     0.043 C 
HETATM   18  C18 UNL     1       2.155  10.863  20.326  1.00  0.00     0.014 C 
HETATM   19  C19 UNL     1       3.280  11.317  19.318  1.00  0.00     0.039 C 
HETATM   20  C20 UNL     1       4.653  11.716  19.938  1.00  0.00     0.130 C 
HETATM   21  O4  UNL     1       4.521  13.027  20.502  1.00  0.00    -0.371 OA
HETATM   22  C21 UNL     1       4.153  13.045  21.898  1.00  0.00     0.185 C 
HETATM   23  C22 UNL     1       4.693  14.322  22.521  1.00  0.00    -0.006 A 
HETATM   24  C23 UNL     1       3.923  15.134  23.366  1.00  0.00     0.014 A 
HETATM   25  C24 UNL     1       4.484  16.260  23.974  1.00  0.00     0.037 A 
HETATM   26  C25 UNL     1       5.821  16.578  23.758  1.00  0.00     0.067 A 
HETATM   27  C26 UNL     1       6.623  15.788  22.941  1.00  0.00     0.057 A 
HETATM   28  C27 UNL     1       6.069  14.660  22.331  1.00  0.00     0.029 A 
HETATM   29  C28 UNL     1       6.892  13.838  21.483  1.00  0.00    -0.066 C 
HETATM   30  C29 UNL     1       7.233  13.031  20.659  1.00  0.00    -0.101 C 
HETATM   31  C30 UNL     1       7.226  11.975  19.630  1.00  0.00     0.103 C 
HETATM   32  C31 UNL     1       5.840  11.778  18.924  1.00  0.00     0.049 C 
HETATM   33  C33 UNL     1       0.712  11.457  20.078  1.00  0.00     0.100 C 
HETATM   34  C34 UNL     1      -0.116  10.779  18.981  1.00  0.00    -0.040 A 
HETATM   35  C35 UNL     1      -1.514  10.915  18.990  1.00  0.00     0.009 A 
HETATM   36  C36 UNL     1      -2.308  10.370  17.968  1.00  0.00     0.012 A 
HETATM   37  C37 UNL     1      -1.740   9.654  16.898  1.00  0.00    -0.003 A 
HETATM   38  C38 UNL     1      -0.350   9.459  16.933  1.00  0.00     0.012 A 
HETATM   39  C39 UNL     1       0.443  10.005  17.955  1.00  0.00     0.009 A 
HETATM   40  C40 UNL     1      -2.593   9.228  15.660  1.00  0.00     0.171 C 
HETATM   41  O8  UNL     1      -2.119   9.904  14.424  1.00  0.00    -0.316 OA
HETATM   42 NA1  UNL     1       0.897  11.245  17.892  1.00  0.00    -0.240 Na
ENDROOT
BRANCH  40  43
HETATM   43  C41 UNL     1      -2.369   7.706  15.332  1.00  0.00     0.074 C 
BRANCH  43  44
HETATM   44  C42 UNL     1      -1.268   7.325  14.312  1.00  0.00     0.018 C 
BRANCH  44  45
HETATM   45  C43 UNL     1       0.150   7.760  14.695  1.00  0.00     0.169 C 
BRANCH  45  46
HETATM   46  O7  UNL     1       0.973   6.665  15.053  1.00  0.00    -0.400 OA
HETATM   47  H45 UNL     1       1.820   6.783  14.581  1.00  0.00     0.209 HD
ENDBRANCH  45  46
ENDBRANCH  44  45
BRANCH  44  48
HETATM   48  C44 UNL     1      -1.646   7.759  12.870  1.00  0.00     0.045 C 
BRANCH  48  49
HETATM   49  C45 UNL     1      -0.652   7.513  11.760  1.00  0.00    -0.058 A 
HETATM   50  C46 UNL     1      -0.240   8.552  10.917  1.00  0.00     0.007 A 
HETATM   51  C47 UNL     1       0.690   8.318   9.901  1.00  0.00     0.001 A 
HETATM   52  C48 UNL     1       1.224   7.045   9.721  1.00  0.00     0.000 A 
HETATM   53  C49 UNL     1       0.825   6.001  10.554  1.00  0.00     0.001 A 
HETATM   54  C50 UNL     1      -0.105   6.234  11.568  1.00  0.00     0.007 A 
ENDBRANCH  48  49
ENDBRANCH  44  48
ENDBRANCH  43  44
ENDBRANCH  40  43
BRANCH  40  55
HETATM   55  N1  UNL     1      -4.039   9.369  15.947  1.00  0.00    -0.336 N 
HETATM   56  C51 UNL     1      -4.910   9.278  15.015  1.00  0.00     0.124 C 
HETATM   57  N2  UNL     1      -6.218   9.361  15.335  1.00  0.00    -0.279 NA
HETATM   58  N3  UNL     1      -4.736   9.058  13.696  1.00  0.00    -0.279 NA
HETATM   59  H53 UNL     1      -6.770   9.955  14.731  1.00  0.00     0.126 HD
HETATM   60  H54 UNL     1      -6.320   9.639  16.307  1.00  0.00     0.126 HD
HETATM   61  H55 UNL     1      -3.782   9.216  13.380  1.00  0.00     0.126 HD
HETATM   62  H56 UNL     1      -5.420   9.457  13.070  1.00  0.00     0.126 HD
ATOM     63  H1  UNL     1      -4.346   9.542  16.904  1.00  0.00     0.165 HD
ENDBRANCH  40  55
BRANCH  13  64
HETATM   64  S1  UNL     1      -0.850  15.283  19.665  1.00  0.00     0.108 S 
HETATM   65  O1  UNL     1      -0.676  15.467  21.106  1.00  0.00    -0.595 OA
HETATM   66  O2  UNL     1      -2.087  14.607  19.282  1.00  0.00    -0.595 OA
HETATM   67  O3  UNL     1      -0.567  16.474  18.867  1.00  0.00    -0.595 OA
ENDBRANCH  13  64
BRANCH  32  68
HETATM   68  C32 UNL     1       5.637  12.817  17.809  1.00  0.00     0.172 C 
BRANCH  68  69
HETATM   69  O6  UNL     1       5.502  14.142  18.293  1.00  0.00    -0.400 OA
HETATM   70  H34 UNL     1       4.907  14.103  19.073  1.00  0.00     0.209 HD
ENDBRANCH  68  69
ENDBRANCH  32  68
BRANCH  26  71
HETATM   71  O5  UNL     1       6.321  17.688  24.378  1.00  0.00    -0.361 OA
HETATM   72  H27 UNL     1       7.243  17.803  24.101  1.00  0.00     0.217 HD
ENDBRANCH  26  71
TORSDOF 11
ENDMDL
MODEL 7
REMARK minimizedAffinity -8.28035736
REMARK CNNscore 0.130286604
REMARK CNNaffinity 7.14592695
REMARK  11 active torsions:
REMARK  status: ('A' for Active; 'I' for Inactive)
REMARK    1  A    between atoms: C13_13  and  S1_14 
REMARK    2  A    between atoms: C25_30  and  O5_31 
REMARK    3  A    between atoms: C31_37  and  C32_38 
REMARK    4  A    between atoms: C32_38  and  O6_39 
REMARK    5  A    between atoms: C40_47  and  C41_48 
REMARK    6  A    between atoms: C40_47  and  N1_59 
REMARK    7  A    between atoms: C41_48  and  C42_49 
REMARK    8  A    between atoms: C42_49  and  C43_50 
REMARK    9  A    between atoms: C42_49  and  C44_52 
REMARK   10  A    between atoms: C43_50  and  O7_51 
REMARK   11  A    between atoms: C44_52  and  C45_53 
REMARK       I    between atoms: C51_61  and  N2_62 
REMARK       I    between atoms: C51_61  and  N3_63 
ROOT
HETATM    1  C1  UNL     1     -16.595  11.260  21.272  1.00  0.00     0.011 C 
HETATM    2  C2  UNL     1     -16.919   9.770  21.311  1.00  0.00    -0.009 C 
HETATM    3  C3  UNL     1     -15.961   9.000  20.389  1.00  0.00     0.009 C 
HETATM    4  C4  UNL     1     -16.346   7.528  20.277  1.00  0.00     0.039 C 
HETATM    5  C5  UNL     1     -16.681   6.892  21.599  1.00  0.00    -0.049 C 
HETATM    6  C6  UNL     1     -16.435   5.531  21.808  1.00  0.00     0.044 C 
HETATM    7  C7  UNL     1     -16.669   4.970  23.066  1.00  0.00     0.073 C 
HETATM    8  C8  UNL     1     -17.402   5.661  24.023  1.00  0.00     0.037 C 
HETATM    9  C9  UNL     1     -17.672   7.009  23.819  1.00  0.00     0.011 C 
HETATM   10  C10 UNL     1     -17.205   7.652  22.658  1.00  0.00    -0.046 C 
HETATM   11  C11 UNL     1     -16.942   9.168  22.736  1.00  0.00     0.037 C 
HETATM   12  C12 UNL     1     -15.617   9.261  23.562  1.00  0.00     0.126 C 
HETATM   13  C13 UNL     1     -15.151  10.542  24.259  1.00  0.00     0.153 C 
HETATM   14  C14 UNL     1     -13.711  10.472  24.949  1.00  0.00     0.053 C 
HETATM   15  C15 UNL     1     -13.000  11.809  24.617  1.00  0.00    -0.013 C 
HETATM   16  C16 UNL     1     -11.695  11.912  24.286  1.00  0.00    -0.050 C 
HETATM   17  C17 UNL     1     -10.799  10.725  24.468  1.00  0.00     0.043 C 
HETATM   18  C18 UNL     1     -11.495   9.542  23.789  1.00  0.00     0.014 C 
HETATM   19  C19 UNL     1     -11.817   9.795  22.266  1.00  0.00     0.039 C 
HETATM   20  C20 UNL     1     -11.108  11.010  21.595  1.00  0.00     0.130 C 
HETATM   21  O4  UNL     1     -11.778  12.204  22.016  1.00  0.00    -0.371 OA
HETATM   22  C21 UNL     1     -11.215  12.827  23.191  1.00  0.00     0.185 C 
HETATM   23  C22 UNL     1     -11.511  14.317  23.134  1.00  0.00    -0.006 A 
HETATM   24  C23 UNL     1     -11.988  15.034  24.241  1.00  0.00     0.014 A 
HETATM   25  C24 UNL     1     -12.177  16.417  24.163  1.00  0.00     0.037 A 
HETATM   26  C25 UNL     1     -11.879  17.098  22.987  1.00  0.00     0.067 A 
HETATM   27  C26 UNL     1     -11.387  16.426  21.874  1.00  0.00     0.057 A 
HETATM   28  C27 UNL     1     -11.195  15.043  21.945  1.00  0.00     0.029 A 
HETATM   29  C28 UNL     1     -10.687  14.339  20.795  1.00  0.00    -0.066 C 
HETATM   30  C29 UNL     1     -10.407  13.454  20.032  1.00  0.00    -0.101 C 
HETATM   31  C30 UNL     1     -10.229  12.127  19.413  1.00  0.00     0.103 C 
HETATM   32  C31 UNL     1     -11.131  11.005  20.033  1.00  0.00     0.049 C 
HETATM   33  C33 UNL     1     -12.727   9.214  24.721  1.00  0.00     0.100 C 
HETATM   34  C34 UNL     1     -13.240   7.771  24.677  1.00  0.00    -0.040 A 
HETATM   35  C35 UNL     1     -13.995   7.275  25.753  1.00  0.00     0.009 A 
HETATM   36  C36 UNL     1     -14.544   5.983  25.727  1.00  0.00     0.012 A 
HETATM   37  C37 UNL     1     -14.351   5.124  24.629  1.00  0.00    -0.003 A 
HETATM   38  C38 UNL     1     -13.534   5.598  23.589  1.00  0.00     0.012 A 
HETATM   39  C39 UNL     1     -12.988   6.891  23.616  1.00  0.00     0.009 A 
HETATM   40  C40 UNL     1     -15.127   3.774  24.506  1.00  0.00     0.171 C 
HETATM   41  O8  UNL     1     -16.036   3.782  23.330  1.00  0.00    -0.316 OA
HETATM   42 NA1  UNL     1     -13.668   7.941  23.188  1.00  0.00    -0.240 Na
ENDROOT
BRANCH  40  43
HETATM   43  C41 UNL     1     -14.138   2.596  24.172  1.00  0.00     0.074 C 
BRANCH  43  44
HETATM   44  C42 UNL     1     -12.804   2.509  24.954  1.00  0.00     0.018 C 
BRANCH  44  45
HETATM   45  C43 UNL     1     -11.601   2.032  24.134  1.00  0.00     0.169 C 
BRANCH  45  46
HETATM   46  O7  UNL     1     -11.265   0.683  24.402  1.00  0.00    -0.400 OA
HETATM   47  H45 UNL     1     -11.137   0.247  23.537  1.00  0.00     0.209 HD
ENDBRANCH  45  46
ENDBRANCH  44  45
BRANCH  44  48
HETATM   48  C44 UNL     1     -12.966   1.714  26.277  1.00  0.00     0.045 C 
BRANCH  48  49
HETATM   49  C45 UNL     1     -12.735   2.435  27.584  1.00  0.00    -0.058 A 
HETATM   50  C46 UNL     1     -13.315   3.686  27.830  1.00  0.00     0.007 A 
HETATM   51  C47 UNL     1     -13.108   4.339  29.047  1.00  0.00     0.001 A 
HETATM   52  C48 UNL     1     -12.323   3.748  30.034  1.00  0.00     0.000 A 
HETATM   53  C49 UNL     1     -11.741   2.503  29.804  1.00  0.00     0.001 A 
HETATM   54  C50 UNL     1     -11.946   1.850  28.587  1.00  0.00     0.007 A 
ENDBRANCH  48  49
ENDBRANCH  44  48
ENDBRANCH  43  44
ENDBRANCH  40  43
BRANCH  40  55
HETATM   55  N1  UNL     1     -15.759   3.413  25.796  1.00  0.00    -0.336 N 
HETATM   56  C51 UNL     1     -16.655   2.504  25.862  1.00  0.00     0.124 C 
HETATM   57  N2  UNL     1     -17.163   2.175  27.069  1.00  0.00    -0.279 NA
HETATM   58  N3  UNL     1     -17.179   1.742  24.880  1.00  0.00    -0.279 NA
HETATM   59  H53 UNL     1     -18.169   2.081  27.098  1.00  0.00     0.126 HD
HETATM   60  H54 UNL     1     -16.839   2.834  27.771  1.00  0.00     0.126 HD
HETATM   61  H55 UNL     1     -17.001   2.104  23.947  1.00  0.00     0.126 HD
HETATM   62  H56 UNL     1     -18.133   1.434  24.998  1.00  0.00     0.126 HD
ATOM     63  H1  UNL     1     -15.474   3.899  26.646  1.00  0.00     0.165 HD
ENDBRANCH  40  55
BRANCH  13  64
HETATM   64  S1  UNL     1     -16.355  11.064  25.538  1.00  0.00     0.108 S 
HETATM   65  O1  UNL     1     -17.388  10.030  25.491  1.00  0.00    -0.595 OA
HETATM   66  O2  UNL     1     -16.797  12.389  25.112  1.00  0.00    -0.595 OA
HETATM   67  O3  UNL     1     -15.576  11.082  26.775  1.00  0.00    -0.595 OA
ENDBRANCH  13  64
BRANCH  32  68
HETATM   68  C32 UNL     1     -12.550  11.052  19.444  1.00  0.00     0.172 C 
BRANCH  68  69
HETATM   69  O6  UNL     1     -12.572  11.085  18.027  1.00  0.00    -0.400 OA
HETATM   70  H34 UNL     1     -11.877  11.719  17.746  1.00  0.00     0.209 HD
ENDBRANCH  68  69
ENDBRANCH  32  68
BRANCH  26  71
HETATM   71  O5  UNL     1     -12.080  18.449  22.965  1.00  0.00    -0.361 OA
HETATM   72  H27 UNL     1     -11.869  18.773  22.076  1.00  0.00     0.217 HD
ENDBRANCH  26  71
TORSDOF 11
ENDMDL
MODEL 8
REMARK minimizedAffinity -7.29371119
REMARK CNNscore 0.11578346
REMARK CNNaffinity 6.65146589
REMARK  11 active torsions:
REMARK  status: ('A' for Active; 'I' for Inactive)
REMARK    1  A    between atoms: C13_13  and  S1_14 
REMARK    2  A    between atoms: C25_30  and  O5_31 
REMARK    3  A    between atoms: C31_37  and  C32_38 
REMARK    4  A    between atoms: C32_38  and  O6_39 
REMARK    5  A    between atoms: C40_47  and  C41_48 
REMARK    6  A    between atoms: C40_47  and  N1_59 
REMARK    7  A    between atoms: C41_48  and  C42_49 
REMARK    8  A    between atoms: C42_49  and  C43_50 
REMARK    9  A    between atoms: C42_49  and  C44_52 
REMARK   10  A    between atoms: C43_50  and  O7_51 
REMARK   11  A    between atoms: C44_52  and  C45_53 
REMARK       I    between atoms: C51_61  and  N2_62 
REMARK       I    between atoms: C51_61  and  N3_63 
ROOT
HETATM    1  C1  UNL     1      16.486  -6.483   6.254  1.00  0.00     0.011 C 
HETATM    2  C2  UNL     1      15.907  -7.892   6.181  1.00  0.00    -0.009 C 
HETATM    3  C3  UNL     1      14.372  -7.829   6.147  1.00  0.00     0.009 C 
HETATM    4  C4  UNL     1      13.749  -9.219   6.229  1.00  0.00     0.039 C 
HETATM    5  C5  UNL     1      14.410 -10.230   5.333  1.00  0.00    -0.049 C 
HETATM    6  C6  UNL     1      13.669 -11.285   4.793  1.00  0.00     0.044 C 
HETATM    7  C7  UNL     1      14.273 -12.167   3.893  1.00  0.00     0.073 C 
HETATM    8  C8  UNL     1      15.654 -12.191   3.746  1.00  0.00     0.037 C 
HETATM    9  C9  UNL     1      16.406 -11.160   4.295  1.00  0.00     0.011 C 
HETATM   10  C10 UNL     1      15.767 -10.114   4.987  1.00  0.00    -0.046 C 
HETATM   11  C11 UNL     1      16.467  -8.742   5.014  1.00  0.00     0.037 C 
HETATM   12  C12 UNL     1      16.237  -8.192   3.569  1.00  0.00     0.126 C 
HETATM   13  C13 UNL     1      17.067  -7.059   2.960  1.00  0.00     0.153 C 
HETATM   14  C14 UNL     1      16.599  -6.554   1.517  1.00  0.00     0.053 C 
HETATM   15  C15 UNL     1      16.690  -5.007   1.543  1.00  0.00    -0.013 C 
HETATM   16  C16 UNL     1      15.775  -4.184   0.988  1.00  0.00    -0.050 C 
HETATM   17  C17 UNL     1      14.725  -4.760   0.087  1.00  0.00     0.043 C 
HETATM   18  C18 UNL     1      14.093  -5.933   0.844  1.00  0.00     0.014 C 
HETATM   19  C19 UNL     1      13.493  -5.524   2.243  1.00  0.00     0.039 C 
HETATM   20  C20 UNL     1      13.313  -3.999   2.507  1.00  0.00     0.130 C 
HETATM   21  O4  UNL     1      14.600  -3.445   2.810  1.00  0.00    -0.371 OA
HETATM   22  C21 UNL     1      15.313  -2.923   1.668  1.00  0.00     0.185 C 
HETATM   23  C22 UNL     1      16.245  -1.822   2.147  1.00  0.00    -0.006 A 
HETATM   24  C23 UNL     1      17.580  -1.730   1.728  1.00  0.00     0.014 A 
HETATM   25  C24 UNL     1      18.381  -0.659   2.137  1.00  0.00     0.037 A 
HETATM   26  C25 UNL     1      17.853   0.336   2.953  1.00  0.00     0.067 A 
HETATM   27  C26 UNL     1      16.529   0.290   3.375  1.00  0.00     0.057 A 
HETATM   28  C27 UNL     1      15.723  -0.777   2.970  1.00  0.00     0.029 A 
HETATM   29  C28 UNL     1      14.351  -0.832   3.403  1.00  0.00    -0.066 C 
HETATM   30  C29 UNL     1      13.250  -1.245   3.657  1.00  0.00    -0.101 C 
HETATM   31  C30 UNL     1      12.063  -2.110   3.793  1.00  0.00     0.103 C 
HETATM   32  C31 UNL     1      12.375  -3.644   3.705  1.00  0.00     0.049 C 
HETATM   33  C33 UNL     1      15.212  -7.048   0.860  1.00  0.00     0.100 C 
HETATM   34  C34 UNL     1      14.720  -8.494   0.976  1.00  0.00    -0.040 A 
HETATM   35  C35 UNL     1      15.555  -9.542   0.554  1.00  0.00     0.009 A 
HETATM   36  C36 UNL     1      15.175 -10.885   0.705  1.00  0.00     0.012 A 
HETATM   37  C37 UNL     1      13.937 -11.241   1.272  1.00  0.00    -0.003 A 
HETATM   38  C38 UNL     1      13.076 -10.188   1.625  1.00  0.00     0.012 A 
HETATM   39  C39 UNL     1      13.458  -8.846   1.474  1.00  0.00     0.009 A 
HETATM   40  C40 UNL     1      13.601 -12.724   1.630  1.00  0.00     0.171 C 
HETATM   41  O8  UNL     1      13.428 -12.897   3.096  1.00  0.00    -0.316 OA
HETATM   42 NA1  UNL     1      14.158  -8.216   2.403  1.00  0.00    -0.240 Na
ENDROOT
BRANCH  40  43
HETATM   43  C41 UNL     1      12.189 -13.123   1.063  1.00  0.00     0.074 C 
BRANCH  43  44
HETATM   44  C42 UNL     1      11.064 -13.474   2.067  1.00  0.00     0.018 C 
BRANCH  44  45
HETATM   45  C43 UNL     1      11.134 -14.888   2.652  1.00  0.00     0.169 C 
BRANCH  45  46
HETATM   46  O7  UNL     1      11.395 -14.884   4.044  1.00  0.00    -0.400 OA
HETATM   47  H45 UNL     1      10.759 -15.505   4.451  1.00  0.00     0.209 HD
ENDBRANCH  45  46
ENDBRANCH  44  45
BRANCH  44  48
HETATM   48  C44 UNL     1       9.659 -13.144   1.494  1.00  0.00     0.045 C 
BRANCH  48  49
HETATM   49  C45 UNL     1       8.932 -11.931   2.022  1.00  0.00    -0.058 A 
HETATM   50  C46 UNL     1       9.501 -11.124   3.016  1.00  0.00     0.007 A 
HETATM   51  C47 UNL     1       8.827  -9.995   3.488  1.00  0.00     0.001 A 
HETATM   52  C48 UNL     1       7.581  -9.656   2.969  1.00  0.00     0.000 A 
HETATM   53  C49 UNL     1       7.003 -10.448   1.978  1.00  0.00     0.001 A 
HETATM   54  C50 UNL     1       7.675 -11.577   1.507  1.00  0.00     0.007 A 
ENDBRANCH  48  49
ENDBRANCH  44  48
ENDBRANCH  43  44
ENDBRANCH  40  43
BRANCH  40  55
HETATM   55  N1  UNL     1      14.566 -13.648   0.990  1.00  0.00    -0.336 N 
HETATM   56  C51 UNL     1      14.779 -14.816   1.466  1.00  0.00     0.124 C 
HETATM   57  N2  UNL     1      15.628 -15.640   0.817  1.00  0.00    -0.279 NA
HETATM   58  N3  UNL     1      14.234 -15.415   2.545  1.00  0.00    -0.279 NA
HETATM   59  H53 UNL     1      16.288 -16.126   1.408  1.00  0.00     0.126 HD
HETATM   60  H54 UNL     1      16.108 -15.131   0.080  1.00  0.00     0.126 HD
HETATM   61  H55 UNL     1      13.776 -14.767   3.181  1.00  0.00     0.126 HD
HETATM   62  H56 UNL     1      14.804 -16.093   3.029  1.00  0.00     0.126 HD
ATOM     63  H1  UNL     1      15.070 -13.348   0.156  1.00  0.00     0.165 HD
ENDBRANCH  40  55
BRANCH  13  64
HETATM   64  S1  UNL     1      18.832  -7.536   2.837  1.00  0.00     0.108 S 
HETATM   65  O1  UNL     1      19.395  -7.134   4.126  1.00  0.00    -0.595 OA
HETATM   66  O2  UNL     1      19.339  -6.787   1.690  1.00  0.00    -0.595 OA
HETATM   67  O3  UNL     1      18.797  -8.981   2.619  1.00  0.00    -0.595 OA
ENDBRANCH  13  64
BRANCH  32  68
HETATM   68  C32 UNL     1      12.879  -4.181   5.055  1.00  0.00     0.172 C 
BRANCH  68  69
HETATM   69  O6  UNL     1      14.113  -3.615   5.461  1.00  0.00    -0.400 OA
HETATM   70  H34 UNL     1      14.692  -3.592   4.669  1.00  0.00     0.209 HD
ENDBRANCH  68  69
ENDBRANCH  32  68
BRANCH  26  71
HETATM   71  O5  UNL     1      18.677   1.362   3.322  1.00  0.00    -0.361 OA
HETATM   72  H27 UNL     1      18.185   1.948   3.917  1.00  0.00     0.217 HD
ENDBRANCH  26  71
TORSDOF 11
ENDMDL
MODEL 9
REMARK minimizedAffinity -7.23306608
REMARK CNNscore 0.108256102
REMARK CNNaffinity 6.9681077
REMARK  11 active torsions:
REMARK  status: ('A' for Active; 'I' for Inactive)
REMARK    1  A    between atoms: C13_13  and  S1_14 
REMARK    2  A    between atoms: C25_30  and  O5_31 
REMARK    3  A    between atoms: C31_37  and  C32_38 
REMARK    4  A    between atoms: C32_38  and  O6_39 
REMARK    5  A    between atoms: C40_47  and  C41_48 
REMARK    6  A    between atoms: C40_47  and  N1_59 
REMARK    7  A    between atoms: C41_48  and  C42_49 
REMARK    8  A    between atoms: C42_49  and  C43_50 
REMARK    9  A    between atoms: C42_49  and  C44_52 
REMARK   10  A    between atoms: C43_50  and  O7_51 
REMARK   11  A    between atoms: C44_52  and  C45_53 
REMARK       I    between atoms: C51_61  and  N2_62 
REMARK       I    between atoms: C51_61  and  N3_63 
ROOT
HETATM    1  C1  UNL     1      -2.650  16.881  16.215  1.00  0.00     0.011 C 
HETATM    2  C2  UNL     1      -2.699  15.576  15.427  1.00  0.00    -0.009 C 
HETATM    3  C3  UNL     1      -1.363  15.348  14.703  1.00  0.00     0.009 C 
HETATM    4  C4  UNL     1      -1.421  14.134  13.781  1.00  0.00     0.039 C 
HETATM    5  C5  UNL     1      -2.072  12.932  14.408  1.00  0.00    -0.049 C 
HETATM    6  C6  UNL     1      -1.677  11.642  14.036  1.00  0.00     0.044 C 
HETATM    7  C7  UNL     1      -2.226  10.535  14.687  1.00  0.00     0.073 C 
HETATM    8  C8  UNL     1      -3.353  10.672  15.488  1.00  0.00     0.037 C 
HETATM    9  C9  UNL     1      -3.770  11.948  15.849  1.00  0.00     0.011 C 
HETATM   10  C10 UNL     1      -3.053  13.074  15.404  1.00  0.00    -0.046 C 
HETATM   11  C11 UNL     1      -3.104  14.345  16.274  1.00  0.00     0.037 C 
HETATM   12  C12 UNL     1      -2.182  13.990  17.485  1.00  0.00     0.126 C 
HETATM   13  C13 UNL     1      -2.217  14.744  18.816  1.00  0.00     0.153 C 
HETATM   14  C14 UNL     1      -1.114  14.313  19.889  1.00  0.00     0.053 C 
HETATM   15  C15 UNL     1      -0.579  15.623  20.521  1.00  0.00    -0.013 C 
HETATM   16  C16 UNL     1       0.720  15.852  20.809  1.00  0.00    -0.050 C 
HETATM   17  C17 UNL     1       1.693  14.715  20.747  1.00  0.00     0.043 C 
HETATM   18  C18 UNL     1       1.493  14.039  19.387  1.00  0.00     0.014 C 
HETATM   19  C19 UNL     1       1.674  15.023  18.167  1.00  0.00     0.039 C 
HETATM   20  C20 UNL     1       2.345  16.396  18.471  1.00  0.00     0.130 C 
HETATM   21  O4  UNL     1       1.371  17.235  19.104  1.00  0.00    -0.371 OA
HETATM   22  C21 UNL     1       1.377  17.180  20.547  1.00  0.00     0.185 C 
HETATM   23  C22 UNL     1       0.861  18.507  21.080  1.00  0.00    -0.006 A 
HETATM   24  C23 UNL     1      -0.085  18.588  22.113  1.00  0.00     0.014 A 
HETATM   25  C24 UNL     1      -0.477  19.829  22.621  1.00  0.00     0.037 A 
HETATM   26  C25 UNL     1       0.083  20.999  22.117  1.00  0.00     0.067 A 
HETATM   27  C26 UNL     1       1.037  20.960  21.107  1.00  0.00     0.057 A 
HETATM   28  C27 UNL     1       1.434  19.722  20.594  1.00  0.00     0.029 A 
HETATM   29  C28 UNL     1       2.421  19.673  19.546  1.00  0.00    -0.066 C 
HETATM   30  C29 UNL     1       3.098  19.279  18.634  1.00  0.00    -0.101 C 
HETATM   31  C30 UNL     1       3.708  18.433  17.592  1.00  0.00     0.103 C 
HETATM   32  C31 UNL     1       2.861  17.169  17.216  1.00  0.00     0.049 C 
HETATM   33  C33 UNL     1       0.093  13.316  19.501  1.00  0.00     0.100 C 
HETATM   34  C34 UNL     1      -0.110  12.096  18.596  1.00  0.00    -0.040 A 
HETATM   35  C35 UNL     1      -1.089  11.146  18.932  1.00  0.00     0.009 A 
HETATM   36  C36 UNL     1      -1.358  10.049  18.098  1.00  0.00     0.012 A 
HETATM   37  C37 UNL     1      -0.652   9.846  16.898  1.00  0.00    -0.003 A 
HETATM   38  C38 UNL     1       0.375  10.758  16.605  1.00  0.00     0.012 A 
HETATM   39  C39 UNL     1       0.642  11.855  17.439  1.00  0.00     0.009 A 
HETATM   40  C40 UNL     1      -1.087   8.751  15.872  1.00  0.00     0.171 C 
HETATM   41  O8  UNL     1      -1.524   9.361  14.588  1.00  0.00    -0.316 OA
HETATM   42 NA1  UNL     1      -0.023  12.992  17.325  1.00  0.00    -0.240 Na
ENDROOT
BRANCH  40  43
HETATM   43  C41 UNL     1       0.147   7.877  15.439  1.00  0.00     0.074 C 
BRANCH  43  44
HETATM   44  C42 UNL     1       0.146   7.248  14.024  1.00  0.00     0.018 C 
BRANCH  44  45
HETATM   45  C43 UNL     1       0.029   5.721  13.993  1.00  0.00     0.169 C 
BRANCH  45  46
HETATM   46  O7  UNL     1      -0.678   5.210  15.109  1.00  0.00    -0.400 OA
HETATM   47  H45 UNL     1      -1.325   4.565  14.763  1.00  0.00     0.209 HD
ENDBRANCH  45  46
ENDBRANCH  44  45
BRANCH  44  48
HETATM   48  C44 UNL     1       1.331   7.763  13.165  1.00  0.00     0.045 C 
BRANCH  48  49
HETATM   49  C45 UNL     1       1.160   7.826  11.666  1.00  0.00    -0.058 A 
HETATM   50  C46 UNL     1       0.058   8.471  11.091  1.00  0.00     0.007 A 
HETATM   51  C47 UNL     1      -0.084   8.537   9.703  1.00  0.00     0.001 A 
HETATM   52  C48 UNL     1       0.876   7.964   8.873  1.00  0.00     0.000 A 
HETATM   53  C49 UNL     1       1.980   7.321   9.431  1.00  0.00     0.001 A 
HETATM   54  C50 UNL     1       2.121   7.254  10.818  1.00  0.00     0.007 A 
ENDBRANCH  48  49
ENDBRANCH  44  48
ENDBRANCH  43  44
ENDBRANCH  40  43
BRANCH  40  55
HETATM   55  N1  UNL     1      -2.050   7.809  16.488  1.00  0.00    -0.336 N 
HETATM   56  C51 UNL     1      -2.911   7.185  15.778  1.00  0.00     0.124 C 
HETATM   57  N2  UNL     1      -3.732   6.298  16.379  1.00  0.00    -0.279 NA
HETATM   58  N3  UNL     1      -3.123   7.232  14.447  1.00  0.00    -0.279 NA
HETATM   59  H53 UNL     1      -4.704   6.362  16.108  1.00  0.00     0.126 HD
HETATM   60  H54 UNL     1      -3.632   6.363  17.388  1.00  0.00     0.126 HD
HETATM   61  H55 UNL     1      -2.696   8.038  13.997  1.00  0.00     0.126 HD
HETATM   62  H56 UNL     1      -4.066   7.066  14.127  1.00  0.00     0.126 HD
ATOM     63  H1  UNL     1      -2.026   7.656  17.496  1.00  0.00     0.165 HD
ENDBRANCH  40  55
BRANCH  13  64
HETATM   64  S1  UNL     1      -3.859  14.585  19.615  1.00  0.00     0.108 S 
HETATM   65  O1  UNL     1      -3.622  15.015  20.993  1.00  0.00    -0.595 OA
HETATM   66  O2  UNL     1      -4.208  13.174  19.468  1.00  0.00    -0.595 OA
HETATM   67  O3  UNL     1      -4.720  15.480  18.844  1.00  0.00    -0.595 OA
ENDBRANCH  13  64
BRANCH  32  68
HETATM   68  C32 UNL     1       1.746  17.530  16.221  1.00  0.00     0.172 C 
BRANCH  68  69
HETATM   69  O6  UNL     1       2.199  18.302  15.122  1.00  0.00    -0.400 OA
HETATM   70  H34 UNL     1       2.807  18.984  15.483  1.00  0.00     0.209 HD
ENDBRANCH  68  69
ENDBRANCH  32  68
BRANCH  26  71
HETATM   71  O5  UNL     1      -0.333  22.186  22.651  1.00  0.00    -0.361 OA
HETATM   72  H27 UNL     1       0.109  22.906  22.174  1.00  0.00     0.217 HD
ENDBRANCH  26  71
TORSDOF 11
ENDMDL
