MODEL 1
REMARK minimizedAffinity -9.00286102
REMARK CNNscore 0.732243896
REMARK CNNaffinity 7.03835917
REMARK  6 active torsions:
REMARK  status: ('A' for Active; 'I' for Inactive)
REMARK    1  A    between atoms: O1_2  and  C2_3 
REMARK    2  A    between atoms: C7_9  and  C8_10 
REMARK    3  A    between atoms: C8_10  and  C9_11 
REMARK    4  A    between atoms: C9_11  and  N2_12 
REMARK       I    between atoms: N2_12  and  C10_13 
REMARK    5  A    between atoms: C10_13  and  C11_15 
REMARK    6  A    between atoms: C16_21  and  C17_22 
ROOT
HETATM    1  C11 UNL     1       1.130  51.285 -14.981  1.00  0.00     0.034 A 
HETATM    2  C12 UNL     1       0.725  49.965 -15.222  1.00  0.00     0.020 A 
HETATM    3  C13 UNL     1       0.273  49.587 -16.488  1.00  0.00     0.040 A 
HETATM    4  C14 UNL     1       0.215  50.533 -17.510  1.00  0.00     0.103 A 
HETATM    5  O3  UNL     1      -0.236  50.111 -18.731  1.00  0.00    -0.303 OA
HETATM    6  C15 UNL     1      -0.332  51.042 -19.772  1.00  0.00     0.144 A 
HETATM    7  C16 UNL     1      -0.803  50.588 -20.948  1.00  0.00     0.054 C 
HETATM    8  C23 UNL     1       0.084  52.474 -19.555  1.00  0.00     0.280 A 
HETATM    9  O4  UNL     1       0.055  53.348 -20.415  1.00  0.00    -0.265 OA
HETATM   10  N3  UNL     1       0.523  52.781 -18.296  1.00  0.00    -0.319 N 
HETATM   11  C24 UNL     1       0.600  51.848 -17.267  1.00  0.00     0.070 A 
HETATM   12  C25 UNL     1       1.056  52.237 -16.007  1.00  0.00     0.049 A 
HETATM   13  H20 UNL     1       0.791  53.746 -18.154  1.00  0.00     0.169 HD
ENDROOT
BRANCH   1  14
HETATM   14  C10 UNL     1       1.602  51.640 -13.615  1.00  0.00     0.251 C 
HETATM   15  N2  UNL     1       0.979  52.713 -13.012  1.00  0.00    -0.357 N 
HETATM   16  H12 UNL     1       0.391  53.322 -13.562  1.00  0.00     0.162 HD
HETATM   17  O2  UNL     1       2.520  51.012 -13.102  1.00  0.00    -0.268 OA
BRANCH  15  18
HETATM   18  C9  UNL     1       1.411  53.195 -11.710  1.00  0.00     0.127 C 
BRANCH  18  19
HETATM   19  C8  UNL     1       0.235  53.510 -10.782  1.00  0.00     0.060 C 
BRANCH  19  20
HETATM   20  C7  UNL     1       0.584  54.540  -9.754  1.00  0.00    -0.029 A 
HETATM   21  C6  UNL     1      -0.286  55.150  -8.872  1.00  0.00     0.096 A 
HETATM   22  N1  UNL     1       0.428  56.030  -8.103  1.00  0.00    -0.365 N 
HETATM   23  C5  UNL     1       1.755  56.005  -8.461  1.00  0.00     0.043 A 
HETATM   24  H6  UNL     1       0.043  56.616  -7.376  1.00  0.00     0.165 HD
HETATM   25  C4  UNL     1       2.841  56.725  -7.953  1.00  0.00     0.033 A 
HETATM   26  C26 UNL     1       1.884  55.082  -9.497  1.00  0.00     0.001 A 
HETATM   27  C3  UNL     1       4.102  56.495  -8.522  1.00  0.00     0.039 A 
HETATM   28  C2  UNL     1       4.269  55.579  -9.560  1.00  0.00     0.069 A 
HETATM   29  C27 UNL     1       3.163  54.871 -10.051  1.00  0.00     0.051 A 
BRANCH  28  30
HETATM   30  O1  UNL     1       5.452  55.281 -10.183  1.00  0.00    -0.356 OA
HETATM   31  C1  UNL     1       6.478  54.712  -9.381  1.00  0.00     0.210 C 
ENDBRANCH  28  30
ENDBRANCH  19  20
ENDBRANCH  18  19
ENDBRANCH  15  18
ENDBRANCH   1  14
BRANCH   7  32
HETATM   32  C17 UNL     1      -1.013  51.342 -22.184  1.00  0.00    -0.032 A 
HETATM   33  C18 UNL     1      -2.273  51.886 -22.463  1.00  0.00     0.011 A 
HETATM   34  C19 UNL     1      -2.479  52.617 -23.635  1.00  0.00     0.003 A 
HETATM   35  C20 UNL     1      -1.428  52.809 -24.531  1.00  0.00     0.024 A 
HETATM   36  C21 UNL     1      -0.174  52.268 -24.252  1.00  0.00     0.034 A 
HETATM   37 CL1  UNL     1       1.124  52.509 -25.357  1.00  0.00    -0.084 Cl
HETATM   38  C22 UNL     1       0.040  51.538 -23.083  1.00  0.00     0.035 A 
ENDBRANCH   7  32
TORSDOF 6
ENDMDL
MODEL 2
REMARK minimizedAffinity -8.86288357
REMARK CNNscore 0.670768559
REMARK CNNaffinity 7.02498055
REMARK  6 active torsions:
REMARK  status: ('A' for Active; 'I' for Inactive)
REMARK    1  A    between atoms: O1_2  and  C2_3 
REMARK    2  A    between atoms: C7_9  and  C8_10 
REMARK    3  A    between atoms: C8_10  and  C9_11 
REMARK    4  A    between atoms: C9_11  and  N2_12 
REMARK       I    between atoms: N2_12  and  C10_13 
REMARK    5  A    between atoms: C10_13  and  C11_15 
REMARK    6  A    between atoms: C16_21  and  C17_22 
ROOT
HETATM    1  C11 UNL     1       1.020  51.315 -14.809  1.00  0.00     0.034 A 
HETATM    2  C12 UNL     1       0.740  49.982 -15.139  1.00  0.00     0.020 A 
HETATM    3  C13 UNL     1       0.433  49.632 -16.455  1.00  0.00     0.040 A 
HETATM    4  C14 UNL     1       0.394  50.617 -17.440  1.00  0.00     0.103 A 
HETATM    5  O3  UNL     1       0.087  50.221 -18.714  1.00  0.00    -0.303 OA
HETATM    6  C15 UNL     1       0.013  51.189 -19.721  1.00  0.00     0.144 A 
HETATM    7  C16 UNL     1      -0.315  50.758 -20.953  1.00  0.00     0.054 C 
HETATM    8  C23 UNL     1       0.297  52.636 -19.410  1.00  0.00     0.280 A 
HETATM    9  O4  UNL     1       0.279  53.545 -20.234  1.00  0.00    -0.265 OA
HETATM   10  N3  UNL     1       0.598  52.915 -18.105  1.00  0.00    -0.319 N 
HETATM   11  C24 UNL     1       0.654  51.944 -17.111  1.00  0.00     0.070 A 
HETATM   12  C25 UNL     1       0.965  52.306 -15.800  1.00  0.00     0.049 A 
HETATM   13  H20 UNL     1       0.777  53.890 -17.900  1.00  0.00     0.169 HD
ENDROOT
BRANCH   1  14
HETATM   14  C10 UNL     1       1.339  51.640 -13.393  1.00  0.00     0.251 C 
HETATM   15  N2  UNL     1       2.653  51.960 -13.119  1.00  0.00    -0.357 N 
HETATM   16  H12 UNL     1       3.365  51.780 -13.812  1.00  0.00     0.162 HD
HETATM   17  O2  UNL     1       0.464  51.579 -12.538  1.00  0.00    -0.268 OA
BRANCH  15  18
HETATM   18  C9  UNL     1       3.093  52.220 -11.758  1.00  0.00     0.127 C 
BRANCH  18  19
HETATM   19  C8  UNL     1       2.314  53.361 -11.098  1.00  0.00     0.060 C 
BRANCH  19  20
HETATM   20  C7  UNL     1       3.217  54.395 -10.504  1.00  0.00    -0.029 A 
HETATM   21  C6  UNL     1       2.976  55.753 -10.428  1.00  0.00     0.096 A 
HETATM   22  N1  UNL     1       4.048  56.346  -9.817  1.00  0.00    -0.365 N 
HETATM   23  C5  UNL     1       4.989  55.401  -9.484  1.00  0.00     0.043 A 
HETATM   24  H6  UNL     1       4.141  57.335  -9.633  1.00  0.00     0.165 HD
HETATM   25  C4  UNL     1       6.228  55.543  -8.850  1.00  0.00     0.033 A 
HETATM   26  C26 UNL     1       4.498  54.166  -9.905  1.00  0.00     0.001 A 
HETATM   27  C3  UNL     1       6.991  54.386  -8.639  1.00  0.00     0.039 A 
HETATM   28  C2  UNL     1       6.532  53.134  -9.047  1.00  0.00     0.069 A 
HETATM   29  C27 UNL     1       5.287  53.020  -9.681  1.00  0.00     0.051 A 
BRANCH  28  30
HETATM   30  O1  UNL     1       7.196  51.947  -8.889  1.00  0.00    -0.356 OA
HETATM   31  C1  UNL     1       6.829  50.881  -9.754  1.00  0.00     0.210 C 
ENDBRANCH  28  30
ENDBRANCH  19  20
ENDBRANCH  18  19
ENDBRANCH  15  18
ENDBRANCH   1  14
BRANCH   7  32
HETATM   32  C17 UNL     1      -0.471  51.551 -22.172  1.00  0.00    -0.032 A 
HETATM   33  C18 UNL     1       0.640  52.189 -22.736  1.00  0.00     0.011 A 
HETATM   34  C19 UNL     1       0.501  52.939 -23.906  1.00  0.00     0.003 A 
HETATM   35  C20 UNL     1      -0.747  53.051 -24.518  1.00  0.00     0.024 A 
HETATM   36  C21 UNL     1      -1.853  52.415 -23.956  1.00  0.00     0.034 A 
HETATM   37 CL1  UNL     1      -3.392  52.552 -24.715  1.00  0.00    -0.084 Cl
HETATM   38  C22 UNL     1      -1.722  51.664 -22.788  1.00  0.00     0.035 A 
ENDBRANCH   7  32
TORSDOF 6
ENDMDL
MODEL 3
REMARK minimizedAffinity -9.48713684
REMARK CNNscore 0.446463674
REMARK CNNaffinity 6.9811883
REMARK  6 active torsions:
REMARK  status: ('A' for Active; 'I' for Inactive)
REMARK    1  A    between atoms: O1_2  and  C2_3 
REMARK    2  A    between atoms: C7_9  and  C8_10 
REMARK    3  A    between atoms: C8_10  and  C9_11 
REMARK    4  A    between atoms: C9_11  and  N2_12 
REMARK       I    between atoms: N2_12  and  C10_13 
REMARK    5  A    between atoms: C10_13  and  C11_15 
REMARK    6  A    between atoms: C16_21  and  C17_22 
ROOT
HETATM    1  C11 UNL     1       1.548  51.330 -15.093  1.00  0.00     0.034 A 
HETATM    2  C12 UNL     1       0.977  50.056 -15.220  1.00  0.00     0.020 A 
HETATM    3  C13 UNL     1       0.353  49.680 -16.411  1.00  0.00     0.040 A 
HETATM    4  C14 UNL     1       0.290  50.583 -17.471  1.00  0.00     0.103 A 
HETATM    5  O3  UNL     1      -0.334  50.165 -18.616  1.00  0.00    -0.303 OA
HETATM    6  C15 UNL     1      -0.439  51.055 -19.690  1.00  0.00     0.144 A 
HETATM    7  C16 UNL     1      -1.080  50.610 -20.786  1.00  0.00     0.054 C 
HETATM    8  C23 UNL     1       0.152  52.438 -19.594  1.00  0.00     0.280 A 
HETATM    9  O4  UNL     1       0.128  53.273 -20.493  1.00  0.00    -0.265 OA
HETATM   10  N3  UNL     1       0.755  52.745 -18.405  1.00  0.00    -0.319 N 
HETATM   11  C24 UNL     1       0.840  51.854 -17.341  1.00  0.00     0.070 A 
HETATM   12  C25 UNL     1       1.469  52.240 -16.156  1.00  0.00     0.049 A 
HETATM   13  H20 UNL     1       1.141  53.679 -18.343  1.00  0.00     0.169 HD
ENDROOT
BRANCH   1  14
HETATM   14  C10 UNL     1       2.200  51.686 -13.804  1.00  0.00     0.251 C 
HETATM   15  N2  UNL     1       1.427  52.382 -12.898  1.00  0.00    -0.357 N 
HETATM   16  H12 UNL     1       0.551  52.786 -13.198  1.00  0.00     0.162 HD
HETATM   17  O2  UNL     1       3.373  51.391 -13.608  1.00  0.00    -0.268 OA
BRANCH  15  18
HETATM   18  C9  UNL     1       1.984  52.847 -11.639  1.00  0.00     0.127 C 
BRANCH  18  19
HETATM   19  C8  UNL     1       1.047  52.593 -10.454  1.00  0.00     0.060 C 
BRANCH  19  20
HETATM   20  C7  UNL     1      -0.180  53.446 -10.508  1.00  0.00    -0.029 A 
HETATM   21  C6  UNL     1      -0.226  54.826 -10.475  1.00  0.00     0.096 A 
HETATM   22  N1  UNL     1      -1.537  55.215 -10.545  1.00  0.00    -0.365 N 
HETATM   23  C5  UNL     1      -2.356  54.114 -10.630  1.00  0.00     0.043 A 
HETATM   24  H6  UNL     1      -1.863  56.171 -10.537  1.00  0.00     0.165 HD
HETATM   25  C4  UNL     1      -3.748  54.029 -10.723  1.00  0.00     0.033 A 
HETATM   26  C26 UNL     1      -1.534  52.988 -10.606  1.00  0.00     0.001 A 
HETATM   27  C3  UNL     1      -4.322  52.752 -10.793  1.00  0.00     0.039 A 
HETATM   28  C2  UNL     1      -3.532  51.602 -10.772  1.00  0.00     0.069 A 
HETATM   29  C27 UNL     1      -2.138  51.716 -10.678  1.00  0.00     0.051 A 
BRANCH  28  30
HETATM   30  O1  UNL     1      -3.990  50.314 -10.836  1.00  0.00    -0.356 OA
HETATM   31  C1  UNL     1      -5.319  50.078 -10.392  1.00  0.00     0.210 C 
ENDBRANCH  28  30
ENDBRANCH  19  20
ENDBRANCH  18  19
ENDBRANCH  15  18
ENDBRANCH   1  14
BRANCH   7  32
HETATM   32  C17 UNL     1      -1.338  51.330 -22.032  1.00  0.00    -0.032 A 
HETATM   33  C18 UNL     1      -2.612  51.856 -22.283  1.00  0.00     0.011 A 
HETATM   34  C19 UNL     1      -2.864  52.555 -23.466  1.00  0.00     0.003 A 
HETATM   35  C20 UNL     1      -1.844  52.733 -24.400  1.00  0.00     0.024 A 
HETATM   36  C21 UNL     1      -0.576  52.211 -24.149  1.00  0.00     0.034 A 
HETATM   37 CL1  UNL     1       0.682  52.436 -25.303  1.00  0.00    -0.084 Cl
HETATM   38  C22 UNL     1      -0.317  51.513 -22.970  1.00  0.00     0.035 A 
ENDBRANCH   7  32
TORSDOF 6
ENDMDL
MODEL 4
REMARK minimizedAffinity -9.4192915
REMARK CNNscore 0.309818953
REMARK CNNaffinity 7.31600332
REMARK  6 active torsions:
REMARK  status: ('A' for Active; 'I' for Inactive)
REMARK    1  A    between atoms: O1_2  and  C2_3 
REMARK    2  A    between atoms: C7_9  and  C8_10 
REMARK    3  A    between atoms: C8_10  and  C9_11 
REMARK    4  A    between atoms: C9_11  and  N2_12 
REMARK       I    between atoms: N2_12  and  C10_13 
REMARK    5  A    between atoms: C10_13  and  C11_15 
REMARK    6  A    between atoms: C16_21  and  C17_22 
ROOT
HETATM    1  C11 UNL     1       0.406  52.979 -21.780  1.00  0.00     0.034 A 
HETATM    2  C12 UNL     1      -0.636  52.067 -21.561  1.00  0.00     0.020 A 
HETATM    3  C13 UNL     1      -0.852  51.538 -20.286  1.00  0.00     0.040 A 
HETATM    4  C14 UNL     1      -0.019  51.914 -19.234  1.00  0.00     0.103 A 
HETATM    5  O3  UNL     1      -0.273  51.366 -18.005  1.00  0.00    -0.303 OA
HETATM    6  C15 UNL     1       0.561  51.701 -16.933  1.00  0.00     0.144 A 
HETATM    7  C16 UNL     1       0.287  51.121 -15.750  1.00  0.00     0.054 C 
HETATM    8  C23 UNL     1       1.698  52.670 -17.125  1.00  0.00     0.280 A 
HETATM    9  O4  UNL     1       2.462  53.037 -16.238  1.00  0.00    -0.265 OA
HETATM   10  N3  UNL     1       1.856  53.157 -18.394  1.00  0.00    -0.319 N 
HETATM   11  C24 UNL     1       1.027  52.805 -19.454  1.00  0.00     0.070 A 
HETATM   12  C25 UNL     1       1.251  53.342 -20.723  1.00  0.00     0.049 A 
HETATM   13  H20 UNL     1       2.627  53.799 -18.519  1.00  0.00     0.169 HD
ENDROOT
BRANCH   1  14
HETATM   14  C10 UNL     1       0.599  53.512 -23.156  1.00  0.00     0.251 C 
HETATM   15  N2  UNL     1      -0.090  52.869 -24.164  1.00  0.00    -0.357 N 
HETATM   16  H12 UNL     1      -0.526  51.977 -23.979  1.00  0.00     0.162 HD
HETATM   17  O2  UNL     1       1.364  54.449 -23.348  1.00  0.00    -0.268 OA
BRANCH  15  18
HETATM   18  C9  UNL     1       0.082  53.257 -25.554  1.00  0.00     0.127 C 
BRANCH  18  19
HETATM   19  C8  UNL     1      -0.800  52.442 -26.504  1.00  0.00     0.060 C 
BRANCH  19  20
HETATM   20  C7  UNL     1      -1.470  51.297 -25.813  1.00  0.00    -0.029 A 
HETATM   21  C6  UNL     1      -1.306  50.922 -24.494  1.00  0.00     0.096 A 
HETATM   22  N1  UNL     1      -2.093  49.826 -24.257  1.00  0.00    -0.365 N 
HETATM   23  C5  UNL     1      -2.776  49.476 -25.398  1.00  0.00     0.043 A 
HETATM   24  H6  UNL     1      -2.166  49.340 -23.375  1.00  0.00     0.165 HD
HETATM   25  C4  UNL     1      -3.686  48.438 -25.624  1.00  0.00     0.033 A 
HETATM   26  C26 UNL     1      -2.404  50.379 -26.393  1.00  0.00     0.001 A 
HETATM   27  C3  UNL     1      -4.233  48.316 -26.909  1.00  0.00     0.039 A 
HETATM   28  C2  UNL     1      -3.884  49.200 -27.929  1.00  0.00     0.069 A 
HETATM   29  C27 UNL     1      -2.970  50.232 -27.676  1.00  0.00     0.051 A 
BRANCH  28  30
HETATM   30  O1  UNL     1      -4.359  49.170 -29.213  1.00  0.00    -0.356 OA
HETATM   31  C1  UNL     1      -5.353  48.199 -29.511  1.00  0.00     0.210 C 
ENDBRANCH  28  30
ENDBRANCH  19  20
ENDBRANCH  18  19
ENDBRANCH  15  18
ENDBRANCH   1  14
BRANCH   7  32
HETATM   32  C17 UNL     1       0.999  51.284 -14.482  1.00  0.00    -0.032 A 
HETATM   33  C18 UNL     1       0.508  52.170 -13.516  1.00  0.00     0.011 A 
HETATM   34  C19 UNL     1       1.175  52.324 -12.298  1.00  0.00     0.003 A 
HETATM   35  C20 UNL     1       2.334  51.590 -12.042  1.00  0.00     0.024 A 
HETATM   36  C21 UNL     1       2.821  50.707 -13.004  1.00  0.00     0.034 A 
HETATM   37 CL1  UNL     1       4.249  49.800 -12.683  1.00  0.00    -0.084 Cl
HETATM   38  C22 UNL     1       2.160  50.548 -14.221  1.00  0.00     0.035 A 
ENDBRANCH   7  32
TORSDOF 6
ENDMDL
MODEL 5
REMARK minimizedAffinity -8.62822342
REMARK CNNscore 0.269488007
REMARK CNNaffinity 6.86296844
REMARK  6 active torsions:
REMARK  status: ('A' for Active; 'I' for Inactive)
REMARK    1  A    between atoms: O1_2  and  C2_3 
REMARK    2  A    between atoms: C7_9  and  C8_10 
REMARK    3  A    between atoms: C8_10  and  C9_11 
REMARK    4  A    between atoms: C9_11  and  N2_12 
REMARK       I    between atoms: N2_12  and  C10_13 
REMARK    5  A    between atoms: C10_13  and  C11_15 
REMARK    6  A    between atoms: C16_21  and  C17_22 
ROOT
HETATM    1  C11 UNL     1      -0.417  51.378 -18.329  1.00  0.00     0.034 A 
HETATM    2  C12 UNL     1       0.471  52.463 -18.306  1.00  0.00     0.020 A 
HETATM    3  C13 UNL     1       0.909  53.039 -19.501  1.00  0.00     0.040 A 
HETATM    4  C14 UNL     1       0.467  52.524 -20.718  1.00  0.00     0.103 A 
HETATM    5  O3  UNL     1       0.926  53.125 -21.859  1.00  0.00    -0.303 OA
HETATM    6  C15 UNL     1       0.524  52.615 -23.098  1.00  0.00     0.144 A 
HETATM    7  C16 UNL     1       1.019  53.222 -24.192  1.00  0.00     0.054 C 
HETATM    8  C23 UNL     1      -0.422  51.444 -23.170  1.00  0.00     0.280 A 
HETATM    9  O4  UNL     1      -0.845  50.949 -24.210  1.00  0.00    -0.265 OA
HETATM   10  N3  UNL     1      -0.820  50.927 -21.967  1.00  0.00    -0.319 N 
HETATM   11  C24 UNL     1      -0.400  51.436 -20.742  1.00  0.00     0.070 A 
HETATM   12  C25 UNL     1      -0.847  50.853 -19.555  1.00  0.00     0.049 A 
HETATM   13  H20 UNL     1      -1.447  50.135 -22.022  1.00  0.00     0.169 HD
ENDROOT
BRANCH   1  14
HETATM   14  C10 UNL     1      -0.853  50.796 -17.031  1.00  0.00     0.251 C 
HETATM   15  N2  UNL     1       0.056  50.862 -15.995  1.00  0.00    -0.357 N 
HETATM   16  H12 UNL     1       1.015  51.109 -16.188  1.00  0.00     0.162 HD
HETATM   17  O2  UNL     1      -1.952  50.264 -16.937  1.00  0.00    -0.268 OA
BRANCH  15  18
HETATM   18  C9  UNL     1      -0.234  50.258 -14.705  1.00  0.00     0.127 C 
BRANCH  18  19
HETATM   19  C8  UNL     1      -0.470  51.300 -13.609  1.00  0.00     0.060 C 
BRANCH  19  20
HETATM   20  C7  UNL     1       0.810  51.804 -13.021  1.00  0.00    -0.029 A 
HETATM   21  C6  UNL     1       2.088  51.470 -13.423  1.00  0.00     0.096 A 
HETATM   22  N1  UNL     1       2.978  52.143 -12.630  1.00  0.00    -0.365 N 
HETATM   23  C5  UNL     1       2.308  52.920 -11.715  1.00  0.00     0.043 A 
HETATM   24  H6  UNL     1       3.984  52.084 -12.701  1.00  0.00     0.165 HD
HETATM   25  C4  UNL     1       2.799  53.769 -10.719  1.00  0.00     0.033 A 
HETATM   26  C26 UNL     1       0.944  52.726 -11.933  1.00  0.00     0.001 A 
HETATM   27  C3  UNL     1       1.867  54.444  -9.917  1.00  0.00     0.039 A 
HETATM   28  C2  UNL     1       0.495  54.275 -10.106  1.00  0.00     0.069 A 
HETATM   29  C27 UNL     1       0.030  53.416 -11.112  1.00  0.00     0.051 A 
BRANCH  28  30
HETATM   30  O1  UNL     1      -0.494  54.884  -9.381  1.00  0.00    -0.356 OA
HETATM   31  C1  UNL     1      -1.507  55.561 -10.113  1.00  0.00     0.210 C 
ENDBRANCH  28  30
ENDBRANCH  19  20
ENDBRANCH  18  19
ENDBRANCH  15  18
ENDBRANCH   1  14
BRANCH   7  32
HETATM   32  C17 UNL     1       0.773  52.888 -25.595  1.00  0.00    -0.032 A 
HETATM   33  C18 UNL     1       1.517  51.875 -26.211  1.00  0.00     0.011 A 
HETATM   34  C19 UNL     1       1.281  51.542 -27.547  1.00  0.00     0.003 A 
HETATM   35  C20 UNL     1       0.299  52.219 -28.270  1.00  0.00     0.024 A 
HETATM   36  C21 UNL     1      -0.443  53.226 -27.655  1.00  0.00     0.034 A 
HETATM   37 CL1  UNL     1      -1.657  54.056 -28.549  1.00  0.00    -0.084 Cl
HETATM   38  C22 UNL     1      -0.213  53.563 -26.322  1.00  0.00     0.035 A 
ENDBRANCH   7  32
TORSDOF 6
ENDMDL
MODEL 6
REMARK minimizedAffinity -9.13547993
REMARK CNNscore 0.205721676
REMARK CNNaffinity 6.71307373
REMARK  6 active torsions:
REMARK  status: ('A' for Active; 'I' for Inactive)
REMARK    1  A    between atoms: O1_2  and  C2_3 
REMARK    2  A    between atoms: C7_9  and  C8_10 
REMARK    3  A    between atoms: C8_10  and  C9_11 
REMARK    4  A    between atoms: C9_11  and  N2_12 
REMARK       I    between atoms: N2_12  and  C10_13 
REMARK    5  A    between atoms: C10_13  and  C11_15 
REMARK    6  A    between atoms: C16_21  and  C17_22 
ROOT
HETATM    1  C11 UNL     1      -1.115  51.468 -18.380  1.00  0.00     0.034 A 
HETATM    2  C12 UNL     1      -0.024  52.344 -18.286  1.00  0.00     0.020 A 
HETATM    3  C13 UNL     1       0.594  52.825 -19.442  1.00  0.00     0.040 A 
HETATM    4  C14 UNL     1       0.129  52.420 -20.692  1.00  0.00     0.103 A 
HETATM    5  O3  UNL     1       0.770  52.920 -21.793  1.00  0.00    -0.303 OA
HETATM    6  C15 UNL     1       0.346  52.513 -23.063  1.00  0.00     0.144 A 
HETATM    7  C16 UNL     1       1.020  53.012 -24.115  1.00  0.00     0.054 C 
HETATM    8  C23 UNL     1      -0.816  51.565 -23.211  1.00  0.00     0.280 A 
HETATM    9  O4  UNL     1      -1.269  51.176 -24.282  1.00  0.00    -0.265 OA
HETATM   10  N3  UNL     1      -1.384  51.134 -22.042  1.00  0.00    -0.319 N 
HETATM   11  C24 UNL     1      -0.942  51.536 -20.786  1.00  0.00     0.070 A 
HETATM   12  C25 UNL     1      -1.570  51.052 -19.638  1.00  0.00     0.049 A 
HETATM   13  H20 UNL     1      -2.156  50.490 -22.148  1.00  0.00     0.169 HD
ENDROOT
BRANCH   1  14
HETATM   14  C10 UNL     1      -1.738  50.981 -17.120  1.00  0.00     0.251 C 
HETATM   15  N2  UNL     1      -0.893  50.376 -16.212  1.00  0.00    -0.357 N 
HETATM   16  H12 UNL     1       0.040  50.114 -16.497  1.00  0.00     0.162 HD
HETATM   17  O2  UNL     1      -2.946  51.095 -16.950  1.00  0.00    -0.268 OA
BRANCH  15  18
HETATM   18  C9  UNL     1      -1.406  49.795 -14.983  1.00  0.00     0.127 C 
BRANCH  18  19
HETATM   19  C8  UNL     1      -0.462  50.006 -13.795  1.00  0.00     0.060 C 
BRANCH  19  20
HETATM   20  C7  UNL     1      -0.803  51.233 -13.011  1.00  0.00    -0.029 A 
HETATM   21  C6  UNL     1      -0.048  52.387 -12.917  1.00  0.00     0.096 A 
HETATM   22  N1  UNL     1      -0.709  53.268 -12.103  1.00  0.00    -0.365 N 
HETATM   23  C5  UNL     1      -1.889  52.716 -11.663  1.00  0.00     0.043 A 
HETATM   24  H6  UNL     1      -0.383  54.191 -11.856  1.00  0.00     0.165 HD
HETATM   25  C4  UNL     1      -2.876  53.244 -10.826  1.00  0.00     0.033 A 
HETATM   26  C26 UNL     1      -1.975  51.438 -12.214  1.00  0.00     0.001 A 
HETATM   27  C3  UNL     1      -3.990  52.442 -10.540  1.00  0.00     0.039 A 
HETATM   28  C2  UNL     1      -4.110  51.158 -11.073  1.00  0.00     0.069 A 
HETATM   29  C27 UNL     1      -3.105  50.652 -11.909  1.00  0.00     0.051 A 
BRANCH  28  30
HETATM   30  O1  UNL     1      -5.153  50.297 -10.858  1.00  0.00    -0.356 OA
HETATM   31  C1  UNL     1      -5.120  49.528  -9.663  1.00  0.00     0.210 C 
ENDBRANCH  28  30
ENDBRANCH  19  20
ENDBRANCH  18  19
ENDBRANCH  15  18
ENDBRANCH   1  14
BRANCH   7  32
HETATM   32  C17 UNL     1       0.795  52.745 -25.536  1.00  0.00    -0.032 A 
HETATM   33  C18 UNL     1       1.480  51.699 -26.166  1.00  0.00     0.011 A 
HETATM   34  C19 UNL     1       1.262  51.431 -27.519  1.00  0.00     0.003 A 
HETATM   35  C20 UNL     1       0.358  52.205 -28.246  1.00  0.00     0.024 A 
HETATM   36  C21 UNL     1      -0.325  53.245 -27.618  1.00  0.00     0.034 A 
HETATM   37 CL1  UNL     1      -1.444  54.196 -28.516  1.00  0.00    -0.084 Cl
HETATM   38  C22 UNL     1      -0.113  53.518 -26.267  1.00  0.00     0.035 A 
ENDBRANCH   7  32
TORSDOF 6
ENDMDL
MODEL 7
REMARK minimizedAffinity -8.89369011
REMARK CNNscore 0.196142852
REMARK CNNaffinity 6.72512293
REMARK  6 active torsions:
REMARK  status: ('A' for Active; 'I' for Inactive)
REMARK    1  A    between atoms: O1_2  and  C2_3 
REMARK    2  A    between atoms: C7_9  and  C8_10 
REMARK    3  A    between atoms: C8_10  and  C9_11 
REMARK    4  A    between atoms: C9_11  and  N2_12 
REMARK       I    between atoms: N2_12  and  C10_13 
REMARK    5  A    between atoms: C10_13  and  C11_15 
REMARK    6  A    between atoms: C16_21  and  C17_22 
ROOT
HETATM    1  C11 UNL     1       0.124  51.537 -17.490  1.00  0.00     0.034 A 
HETATM    2  C12 UNL     1       1.024  52.564 -17.807  1.00  0.00     0.020 A 
HETATM    3  C13 UNL     1       1.202  52.960 -19.134  1.00  0.00     0.040 A 
HETATM    4  C14 UNL     1       0.488  52.320 -20.146  1.00  0.00     0.103 A 
HETATM    5  O3  UNL     1       0.699  52.746 -21.430  1.00  0.00    -0.303 OA
HETATM    6  C15 UNL     1       0.019  52.108 -22.472  1.00  0.00     0.144 A 
HETATM    7  C16 UNL     1       0.276  52.544 -23.719  1.00  0.00     0.054 C 
HETATM    8  C23 UNL     1      -0.951  50.992 -22.179  1.00  0.00     0.280 A 
HETATM    9  O4  UNL     1      -1.607  50.395 -23.027  1.00  0.00    -0.265 OA
HETATM   10  N3  UNL     1      -1.087  50.654 -20.860  1.00  0.00    -0.319 N 
HETATM   11  C24 UNL     1      -0.393  51.288 -19.835  1.00  0.00     0.070 A 
HETATM   12  C25 UNL     1      -0.581  50.886 -18.512  1.00  0.00     0.049 A 
HETATM   13  H20 UNL     1      -1.731  49.898 -20.671  1.00  0.00     0.169 HD
ENDROOT
BRANCH   1  14
HETATM   14  C10 UNL     1      -0.030  51.148 -16.063  1.00  0.00     0.251 C 
HETATM   15  N2  UNL     1      -0.671  49.951 -15.819  1.00  0.00    -0.357 N 
HETATM   16  H12 UNL     1      -1.171  49.493 -16.567  1.00  0.00     0.162 HD
HETATM   17  O2  UNL     1       0.373  51.894 -15.178  1.00  0.00    -0.268 OA
BRANCH  15  18
HETATM   18  C9  UNL     1      -0.943  49.510 -14.461  1.00  0.00     0.127 C 
BRANCH  18  19
HETATM   19  C8  UNL     1      -2.440  49.498 -14.137  1.00  0.00     0.060 C 
BRANCH  19  20
HETATM   20  C7  UNL     1      -2.950  50.853 -13.764  1.00  0.00    -0.029 A 
HETATM   21  C6  UNL     1      -3.438  51.816 -14.627  1.00  0.00     0.096 A 
HETATM   22  N1  UNL     1      -3.800  52.911 -13.889  1.00  0.00    -0.365 N 
HETATM   23  C5  UNL     1      -3.564  52.685 -12.554  1.00  0.00     0.043 A 
HETATM   24  H6  UNL     1      -4.186  53.766 -14.265  1.00  0.00     0.165 HD
HETATM   25  C4  UNL     1      -3.780  53.510 -11.446  1.00  0.00     0.033 A 
HETATM   26  C26 UNL     1      -3.028  51.402 -12.443  1.00  0.00     0.001 A 
HETATM   27  C3  UNL     1      -3.437  53.010 -10.182  1.00  0.00     0.039 A 
HETATM   28  C2  UNL     1      -2.898  51.732 -10.032  1.00  0.00     0.069 A 
HETATM   29  C27 UNL     1      -2.691  50.926 -11.160  1.00  0.00     0.051 A 
BRANCH  28  30
HETATM   30  O1  UNL     1      -2.531  51.151  -8.848  1.00  0.00    -0.356 OA
HETATM   31  C1  UNL     1      -1.224  50.598  -8.777  1.00  0.00     0.210 C 
ENDBRANCH  28  30
ENDBRANCH  19  20
ENDBRANCH  18  19
ENDBRANCH  15  18
ENDBRANCH   1  14
BRANCH   7  32
HETATM   32  C17 UNL     1      -0.283  52.050 -24.977  1.00  0.00    -0.032 A 
HETATM   33  C18 UNL     1      -0.141  52.805 -26.148  1.00  0.00     0.011 A 
HETATM   34  C19 UNL     1      -0.662  52.336 -27.356  1.00  0.00     0.003 A 
HETATM   35  C20 UNL     1      -1.324  51.109 -27.399  1.00  0.00     0.024 A 
HETATM   36  C21 UNL     1      -1.465  50.357 -26.233  1.00  0.00     0.034 A 
HETATM   37 CL1  UNL     1      -2.279  48.841 -26.290  1.00  0.00    -0.084 Cl
HETATM   38  C22 UNL     1      -0.946  50.819 -25.024  1.00  0.00     0.035 A 
ENDBRANCH   7  32
TORSDOF 6
ENDMDL
MODEL 8
REMARK minimizedAffinity -9.14324188
REMARK CNNscore 0.188592568
REMARK CNNaffinity 6.46412611
REMARK  6 active torsions:
REMARK  status: ('A' for Active; 'I' for Inactive)
REMARK    1  A    between atoms: O1_2  and  C2_3 
REMARK    2  A    between atoms: C7_9  and  C8_10 
REMARK    3  A    between atoms: C8_10  and  C9_11 
REMARK    4  A    between atoms: C9_11  and  N2_12 
REMARK       I    between atoms: N2_12  and  C10_13 
REMARK    5  A    between atoms: C10_13  and  C11_15 
REMARK    6  A    between atoms: C16_21  and  C17_22 
ROOT
HETATM    1  C11 UNL     1       0.624  51.223 -16.089  1.00  0.00     0.034 A 
HETATM    2  C12 UNL     1       1.465  52.332 -16.261  1.00  0.00     0.020 A 
HETATM    3  C13 UNL     1       1.629  52.902 -17.525  1.00  0.00     0.040 A 
HETATM    4  C14 UNL     1       0.961  52.356 -18.620  1.00  0.00     0.103 A 
HETATM    5  O3  UNL     1       1.157  52.952 -19.836  1.00  0.00    -0.303 OA
HETATM    6  C15 UNL     1       0.523  52.413 -20.961  1.00  0.00     0.144 A 
HETATM    7  C16 UNL     1       0.763  53.017 -22.139  1.00  0.00     0.054 C 
HETATM    8  C23 UNL     1      -0.382  51.215 -20.825  1.00  0.00     0.280 A 
HETATM    9  O4  UNL     1      -0.995  50.693 -21.750  1.00  0.00    -0.265 OA
HETATM   10  N3  UNL     1      -0.507  50.705 -19.561  1.00  0.00    -0.319 N 
HETATM   11  C24 UNL     1       0.141  51.244 -18.454  1.00  0.00     0.070 A 
HETATM   12  C25 UNL     1      -0.033  50.668 -17.195  1.00  0.00     0.049 A 
HETATM   13  H20 UNL     1      -1.107  49.896 -19.478  1.00  0.00     0.169 HD
ENDROOT
BRANCH   1  14
HETATM   14  C10 UNL     1       0.484  50.649 -14.724  1.00  0.00     0.251 C 
HETATM   15  N2  UNL     1       0.695  51.515 -13.671  1.00  0.00    -0.357 N 
HETATM   16  H12 UNL     1       1.115  52.417 -13.844  1.00  0.00     0.162 HD
HETATM   17  O2  UNL     1       0.228  49.459 -14.583  1.00  0.00    -0.268 OA
BRANCH  15  18
HETATM   18  C9  UNL     1       0.659  51.044 -12.296  1.00  0.00     0.127 C 
BRANCH  18  19
HETATM   19  C8  UNL     1       1.036  52.138 -11.292  1.00  0.00     0.060 C 
BRANCH  19  20
HETATM   20  C7  UNL     1      -0.086  53.098 -11.053  1.00  0.00    -0.029 A 
HETATM   21  C6  UNL     1       0.023  54.464 -10.878  1.00  0.00     0.096 A 
HETATM   22  N1  UNL     1      -1.233  54.975 -10.685  1.00  0.00    -0.365 N 
HETATM   23  C5  UNL     1      -2.168  53.969 -10.736  1.00  0.00     0.043 A 
HETATM   24  H6  UNL     1      -1.449  55.949 -10.528  1.00  0.00     0.165 HD
HETATM   25  C4  UNL     1      -3.559  54.020 -10.598  1.00  0.00     0.033 A 
HETATM   26  C26 UNL     1      -1.479  52.778 -10.963  1.00  0.00     0.001 A 
HETATM   27  C3  UNL     1      -4.270  52.816 -10.694  1.00  0.00     0.039 A 
HETATM   28  C2  UNL     1      -3.615  51.606 -10.919  1.00  0.00     0.069 A 
HETATM   29  C27 UNL     1      -2.220  51.582 -11.054  1.00  0.00     0.051 A 
BRANCH  28  30
HETATM   30  O1  UNL     1      -4.213  50.379 -11.029  1.00  0.00    -0.356 OA
HETATM   31  C1  UNL     1      -5.400  50.169 -10.276  1.00  0.00     0.210 C 
ENDBRANCH  28  30
ENDBRANCH  19  20
ENDBRANCH  18  19
ENDBRANCH  15  18
ENDBRANCH   1  14
BRANCH   7  32
HETATM   32  C17 UNL     1       0.243  52.655 -23.458  1.00  0.00    -0.032 A 
HETATM   33  C18 UNL     1      -0.386  51.417 -23.644  1.00  0.00     0.011 A 
HETATM   34  C19 UNL     1      -0.895  51.069 -24.897  1.00  0.00     0.003 A 
HETATM   35  C20 UNL     1      -0.780  51.956 -25.967  1.00  0.00     0.024 A 
HETATM   36  C21 UNL     1      -0.155  53.188 -25.780  1.00  0.00     0.034 A 
HETATM   37 CL1  UNL     1      -0.018  54.283 -27.102  1.00  0.00    -0.084 Cl
HETATM   38  C22 UNL     1       0.355  53.543 -24.532  1.00  0.00     0.035 A 
ENDBRANCH   7  32
TORSDOF 6
ENDMDL
MODEL 9
REMARK minimizedAffinity -9.18568039
REMARK CNNscore 0.172553003
REMARK CNNaffinity 6.50133324
REMARK  6 active torsions:
REMARK  status: ('A' for Active; 'I' for Inactive)
REMARK    1  A    between atoms: O1_2  and  C2_3 
REMARK    2  A    between atoms: C7_9  and  C8_10 
REMARK    3  A    between atoms: C8_10  and  C9_11 
REMARK    4  A    between atoms: C9_11  and  N2_12 
REMARK       I    between atoms: N2_12  and  C10_13 
REMARK    5  A    between atoms: C10_13  and  C11_15 
REMARK    6  A    between atoms: C16_21  and  C17_22 
ROOT
HETATM    1  C11 UNL     1      -0.518  50.965 -18.329  1.00  0.00     0.034 A 
HETATM    2  C12 UNL     1       0.330  52.077 -18.228  1.00  0.00     0.020 A 
HETATM    3  C13 UNL     1       0.773  52.731 -19.380  1.00  0.00     0.040 A 
HETATM    4  C14 UNL     1       0.377  52.265 -20.632  1.00  0.00     0.103 A 
HETATM    5  O3  UNL     1       0.840  52.942 -21.729  1.00  0.00    -0.303 OA
HETATM    6  C15 UNL     1       0.484  52.485 -23.002  1.00  0.00     0.144 A 
HETATM    7  C16 UNL     1       0.981  53.166 -24.051  1.00  0.00     0.054 C 
HETATM    8  C23 UNL     1      -0.418  51.288 -23.158  1.00  0.00     0.280 A 
HETATM    9  O4  UNL     1      -0.799  50.834 -24.232  1.00  0.00    -0.265 OA
HETATM   10  N3  UNL     1      -0.823  50.694 -21.994  1.00  0.00    -0.319 N 
HETATM   11  C24 UNL     1      -0.449  51.151 -20.735  1.00  0.00     0.070 A 
HETATM   12  C25 UNL     1      -0.901  50.491 -19.591  1.00  0.00     0.049 A 
HETATM   13  H20 UNL     1      -1.420  49.884 -22.105  1.00  0.00     0.169 HD
ENDROOT
BRANCH   1  14
HETATM   14  C10 UNL     1      -0.961  50.300 -17.074  1.00  0.00     0.251 C 
HETATM   15  N2  UNL     1      -0.793  51.017 -15.908  1.00  0.00    -0.357 N 
HETATM   16  H12 UNL     1      -0.219  51.849 -15.913  1.00  0.00     0.162 HD
HETATM   17  O2  UNL     1      -1.413  49.162 -17.111  1.00  0.00    -0.268 OA
BRANCH  15  18
HETATM   18  C9  UNL     1      -1.120  50.436 -14.617  1.00  0.00     0.127 C 
BRANCH  18  19
HETATM   19  C8  UNL     1      -0.361  51.102 -13.465  1.00  0.00     0.060 C 
BRANCH  19  20
HETATM   20  C7  UNL     1      -1.266  51.889 -12.571  1.00  0.00    -0.029 A 
HETATM   21  C6  UNL     1      -2.619  51.683 -12.381  1.00  0.00     0.096 A 
HETATM   22  N1  UNL     1      -3.074  52.616 -11.488  1.00  0.00    -0.365 N 
HETATM   23  C5  UNL     1      -2.043  53.430 -11.082  1.00  0.00     0.043 A 
HETATM   24  H6  UNL     1      -4.029  52.701 -11.168  1.00  0.00     0.165 HD
HETATM   25  C4  UNL     1      -2.039  54.505 -10.188  1.00  0.00     0.033 A 
HETATM   26  C26 UNL     1      -0.896  53.000 -11.747  1.00  0.00     0.001 A 
HETATM   27  C3  UNL     1      -0.822  55.165  -9.965  1.00  0.00     0.039 A 
HETATM   28  C2  UNL     1       0.346  54.764 -10.612  1.00  0.00     0.069 A 
HETATM   29  C27 UNL     1       0.314  53.683 -11.504  1.00  0.00     0.051 A 
BRANCH  28  30
HETATM   30  O1  UNL     1       1.581  55.337 -10.464  1.00  0.00    -0.356 OA
HETATM   31  C1  UNL     1       2.408  54.832  -9.425  1.00  0.00     0.210 C 
ENDBRANCH  28  30
ENDBRANCH  19  20
ENDBRANCH  18  19
ENDBRANCH  15  18
ENDBRANCH   1  14
BRANCH   7  32
HETATM   32  C17 UNL     1       0.778  52.899 -25.475  1.00  0.00    -0.032 A 
HETATM   33  C18 UNL     1       1.542  51.916 -26.115  1.00  0.00     0.011 A 
HETATM   34  C19 UNL     1       1.348  51.646 -27.472  1.00  0.00     0.003 A 
HETATM   35  C20 UNL     1       0.387  52.357 -28.192  1.00  0.00     0.024 A 
HETATM   36  C21 UNL     1      -0.374  53.334 -27.553  1.00  0.00     0.034 A 
HETATM   37 CL1  UNL     1      -1.561  54.207 -28.444  1.00  0.00    -0.084 Cl
HETATM   38  C22 UNL     1      -0.186  53.608 -26.199  1.00  0.00     0.035 A 
ENDBRANCH   7  32
TORSDOF 6
ENDMDL
