MODEL 1
REMARK minimizedAffinity -8.1479311
REMARK CNNscore 0.764306903
REMARK CNNaffinity 7.62833166
REMARK  7 active torsions:
REMARK  status: ('A' for Active; 'I' for Inactive)
REMARK    1  A    between atoms: C2_2  and  C3_3 
REMARK    2  A    between atoms: C4_4  and  C5_5 
REMARK    3  A    between atoms: C5_5  and  O2_7 
REMARK    4  A    between atoms: O2_7  and  C6_8 
REMARK    5  A    between atoms: C6_8  and  C8_10 
REMARK    6  A    between atoms: C18_22  and  O4_23 
REMARK    7  A    between atoms: C20_26  and  O6_27 
ROOT
HETATM    1  C8  UNL     1       0.297  52.625 -11.263  1.00  0.00     0.028 C 
HETATM    2  C9  UNL     1      -0.865  52.756 -10.291  1.00  0.00     0.011 C 
HETATM    3  C10 UNL     1      -0.228  53.506  -9.124  1.00  0.00     0.044 C 
HETATM    4  C11 UNL     1       1.292  53.092  -9.076  1.00  0.00     0.097 C 
HETATM    5  O3  UNL     1       1.570  52.530  -7.788  1.00  0.00    -0.373 OA
HETATM    6  C12 UNL     1       0.894  51.356  -7.381  1.00  0.00     0.199 C 
HETATM    7  C13 UNL     1       1.726  50.115  -7.701  1.00  0.00     0.298 C 
HETATM    8  N1  UNL     1       2.293  50.099  -9.060  1.00  0.00     0.087 N 
HETATM    9  C14 UNL     1       2.781  48.757  -9.387  1.00  0.00     0.310 C 
HETATM   10  C15 UNL     1       1.361  50.610 -10.066  1.00  0.00     0.285 C 
HETATM   11  C16 UNL     1       1.480  52.144 -10.343  1.00  0.00     0.030 C 
HETATM   12  C17 UNL     1       2.803  52.416 -11.121  1.00  0.00     0.050 C 
HETATM   13  C18 UNL     1       4.021  52.734 -10.259  1.00  0.00     0.159 C 
HETATM   14  C19 UNL     1       3.784  53.948  -9.297  1.00  0.00     0.124 C 
HETATM   15  O5  UNL     1       4.233  53.555  -7.969  1.00  0.00    -0.336 OA
HETATM   16  C20 UNL     1       5.251  54.387  -7.437  1.00  0.00     0.163 C 
HETATM   17  C21 UNL     1       6.483  54.306  -8.329  1.00  0.00     0.069 C 
HETATM   18  C22 UNL     1       6.150  54.903  -9.690  1.00  0.00     0.018 C 
HETATM   19  C23 UNL     1       4.628  55.208  -9.782  1.00  0.00    -0.002 C 
HETATM   20  C24 UNL     1       4.308  55.670 -11.217  1.00  0.00     0.019 C 
HETATM   21  C25 UNL     1       4.336  56.331  -8.745  1.00  0.00     0.005 C 
HETATM   22  C26 UNL     1       2.862  56.744  -8.790  1.00  0.00     0.033 C 
HETATM   23  C27 UNL     1       1.921  55.576  -8.875  1.00  0.00    -0.017 C 
HETATM   24  C28 UNL     1       2.281  54.292  -9.108  1.00  0.00    -0.011 C 
HETATM   25  C29 UNL     1       4.740  55.825  -7.341  1.00  0.00     0.074 C 
ENDROOT
BRANCH   1  26
HETATM   26  C6  UNL     1      -0.013  51.875 -12.582  1.00  0.00     0.133 C 
HETATM   27  C7  UNL     1      -1.394  52.111 -13.187  1.00  0.00     0.040 C 
BRANCH  26  28
HETATM   28  O2  UNL     1       0.894  52.353 -13.613  1.00  0.00    -0.312 OA
BRANCH  28  29
HETATM   29  C5  UNL     1       1.443  51.428 -14.451  1.00  0.00     0.296 C 
HETATM   30  O1  UNL     1       2.047  50.433 -14.071  1.00  0.00    -0.259 OA
BRANCH  29  31
HETATM   31  C4  UNL     1       1.300  51.811 -15.859  1.00  0.00     0.069 A 
HETATM   32  C3  UNL     1       2.219  52.569 -16.581  1.00  0.00     0.025 A 
HETATM   33  N2  UNL     1       1.723  52.741 -17.848  1.00  0.00    -0.368 N 
HETATM   34  C32 UNL     1       0.511  52.121 -17.963  1.00  0.00     0.096 A 
HETATM   35  H46 UNL     1       2.182  53.263 -18.587  1.00  0.00     0.165 HD
HETATM   36  C30 UNL     1       0.210  51.522 -16.755  1.00  0.00    -0.028 A 
HETATM   37  C31 UNL     1      -1.015  50.726 -16.462  1.00  0.00     0.050 C 
BRANCH  32  38
HETATM   38  C2  UNL     1       3.529  53.173 -16.180  1.00  0.00     0.054 C 
HETATM   39  C1  UNL     1       4.663  52.156 -16.212  1.00  0.00     0.011 C 
ENDBRANCH  32  38
ENDBRANCH  29  31
ENDBRANCH  28  29
ENDBRANCH  26  28
ENDBRANCH   1  26
BRANCH  13  40
HETATM   40  O4  UNL     1       4.487  51.561  -9.597  1.00  0.00    -0.392 OA
HETATM   41  H27 UNL     1       3.764  51.283  -8.990  1.00  0.00     0.210 HD
ENDBRANCH  13  40
BRANCH  16  42
HETATM   42  O6  UNL     1       5.563  53.900  -6.150  1.00  0.00    -0.365 OA
HETATM   43  H28 UNL     1       5.201  52.994  -6.194  1.00  0.00     0.213 HD
ENDBRANCH  16  42
TORSDOF 7
ENDMDL
MODEL 2
REMARK minimizedAffinity -8.63478374
REMARK CNNscore 0.682790279
REMARK CNNaffinity 7.56639147
REMARK  7 active torsions:
REMARK  status: ('A' for Active; 'I' for Inactive)
REMARK    1  A    between atoms: C2_2  and  C3_3 
REMARK    2  A    between atoms: C4_4  and  C5_5 
REMARK    3  A    between atoms: C5_5  and  O2_7 
REMARK    4  A    between atoms: O2_7  and  C6_8 
REMARK    5  A    between atoms: C6_8  and  C8_10 
REMARK    6  A    between atoms: C18_22  and  O4_23 
REMARK    7  A    between atoms: C20_26  and  O6_27 
ROOT
HETATM    1  C8  UNL     1      -2.292  48.876 -20.002  1.00  0.00     0.028 C 
HETATM    2  C9  UNL     1      -1.340  47.744 -20.358  1.00  0.00     0.011 C 
HETATM    3  C10 UNL     1      -2.031  47.105 -21.560  1.00  0.00     0.044 C 
HETATM    4  C11 UNL     1      -3.582  47.308 -21.370  1.00  0.00     0.097 C 
HETATM    5  O3  UNL     1      -4.213  46.022 -21.371  1.00  0.00    -0.373 OA
HETATM    6  C12 UNL     1      -3.876  45.081 -20.369  1.00  0.00     0.199 C 
HETATM    7  C13 UNL     1      -4.860  45.161 -19.202  1.00  0.00     0.298 C 
HETATM    8  N1  UNL     1      -5.141  46.530 -18.738  1.00  0.00     0.087 N 
HETATM    9  C14 UNL     1      -5.813  46.493 -17.437  1.00  0.00     0.310 C 
HETATM   10  C15 UNL     1      -3.948  47.377 -18.722  1.00  0.00     0.285 C 
HETATM   11  C16 UNL     1      -3.703  48.180 -20.042  1.00  0.00     0.030 C 
HETATM   12  C17 UNL     1      -4.768  49.314 -20.148  1.00  0.00     0.050 C 
HETATM   13  C18 UNL     1      -6.043  48.952 -20.903  1.00  0.00     0.159 C 
HETATM   14  C19 UNL     1      -5.762  48.434 -22.355  1.00  0.00     0.124 C 
HETATM   15  O5  UNL     1      -6.531  47.213 -22.546  1.00  0.00    -0.336 OA
HETATM   16  C20 UNL     1      -7.448  47.274 -23.628  1.00  0.00     0.163 C 
HETATM   17  C21 UNL     1      -8.473  48.367 -23.356  1.00  0.00     0.069 C 
HETATM   18  C22 UNL     1      -7.768  49.717 -23.352  1.00  0.00     0.018 C 
HETATM   19  C23 UNL     1      -6.228  49.518 -23.426  1.00  0.00    -0.002 C 
HETATM   20  C24 UNL     1      -5.548  50.892 -23.273  1.00  0.00     0.019 C 
HETATM   21  C25 UNL     1      -5.927  48.886 -24.817  1.00  0.00     0.005 C 
HETATM   22  C26 UNL     1      -4.421  48.692 -25.012  1.00  0.00     0.033 C 
HETATM   23  C27 UNL     1      -3.732  48.132 -23.800  1.00  0.00    -0.017 C 
HETATM   24  C28 UNL     1      -4.287  47.997 -22.572  1.00  0.00    -0.011 C 
HETATM   25  C29 UNL     1      -6.690  47.547 -24.927  1.00  0.00     0.074 C 
ENDROOT
BRANCH   1  26
HETATM   26  C6  UNL     1      -1.885  49.735 -18.780  1.00  0.00     0.133 C 
HETATM   27  C7  UNL     1      -1.314  48.983 -17.582  1.00  0.00     0.040 C 
BRANCH  26  28
HETATM   28  O2  UNL     1      -0.799  50.618 -19.174  1.00  0.00    -0.312 OA
BRANCH  28  29
HETATM   29  C5  UNL     1      -1.082  51.607 -20.069  1.00  0.00     0.296 C 
HETATM   30  O1  UNL     1      -2.132  51.686 -20.694  1.00  0.00    -0.259 OA
BRANCH  29  31
HETATM   31  C4  UNL     1       0.054  52.514 -20.260  1.00  0.00     0.069 A 
HETATM   32  C3  UNL     1       0.825  53.060 -19.236  1.00  0.00     0.025 A 
HETATM   33  N2  UNL     1       1.769  53.876 -19.806  1.00  0.00    -0.368 N 
HETATM   34  C32 UNL     1       1.627  53.875 -21.165  1.00  0.00     0.096 A 
HETATM   35  H46 UNL     1       2.462  54.411 -19.294  1.00  0.00     0.165 HD
HETATM   36  C30 UNL     1       0.580  53.037 -21.495  1.00  0.00    -0.028 A 
HETATM   37  C31 UNL     1       0.108  52.739 -22.876  1.00  0.00     0.050 C 
BRANCH  32  38
HETATM   38  C2  UNL     1       0.743  52.902 -17.749  1.00  0.00     0.054 C 
HETATM   39  C1  UNL     1       2.058  52.420 -17.150  1.00  0.00     0.011 C 
ENDBRANCH  32  38
ENDBRANCH  29  31
ENDBRANCH  28  29
ENDBRANCH  26  28
ENDBRANCH   1  26
BRANCH  13  40
HETATM   40  O4  UNL     1      -6.853  48.072 -20.128  1.00  0.00    -0.392 OA
HETATM   41  H27 UNL     1      -6.332  47.244 -20.020  1.00  0.00     0.210 HD
ENDBRANCH  13  40
BRANCH  16  42
HETATM   42  O6  UNL     1      -8.095  46.023 -23.701  1.00  0.00    -0.365 OA
HETATM   43  H28 UNL     1      -7.919  45.662 -22.810  1.00  0.00     0.213 HD
ENDBRANCH  16  42
TORSDOF 7
ENDMDL
MODEL 3
REMARK minimizedAffinity -7.06352854
REMARK CNNscore 0.675342262
REMARK CNNaffinity 7.0786376
REMARK  7 active torsions:
REMARK  status: ('A' for Active; 'I' for Inactive)
REMARK    1  A    between atoms: C2_2  and  C3_3 
REMARK    2  A    between atoms: C4_4  and  C5_5 
REMARK    3  A    between atoms: C5_5  and  O2_7 
REMARK    4  A    between atoms: O2_7  and  C6_8 
REMARK    5  A    between atoms: C6_8  and  C8_10 
REMARK    6  A    between atoms: C18_22  and  O4_23 
REMARK    7  A    between atoms: C20_26  and  O6_27 
ROOT
HETATM    1  C8  UNL     1      -1.307  53.375 -10.848  1.00  0.00     0.028 C 
HETATM    2  C9  UNL     1      -2.004  54.616 -10.312  1.00  0.00     0.011 C 
HETATM    3  C10 UNL     1      -0.867  55.344  -9.599  1.00  0.00     0.044 C 
HETATM    4  C11 UNL     1       0.131  54.246  -9.069  1.00  0.00     0.097 C 
HETATM    5  O3  UNL     1       0.255  54.391  -7.650  1.00  0.00    -0.373 OA
HETATM    6  C12 UNL     1      -0.887  54.224  -6.831  1.00  0.00     0.199 C 
HETATM    7  C13 UNL     1      -0.973  52.789  -6.312  1.00  0.00     0.298 C 
HETATM    8  N1  UNL     1      -0.757  51.758  -7.341  1.00  0.00     0.087 N 
HETATM    9  C14 UNL     1      -1.180  50.448  -6.840  1.00  0.00     0.310 C 
HETATM   10  C15 UNL     1      -1.389  52.094  -8.617  1.00  0.00     0.285 C 
HETATM   11  C16 UNL     1      -0.470  52.874  -9.614  1.00  0.00     0.030 C 
HETATM   12  C17 UNL     1       0.619  51.903 -10.164  1.00  0.00     0.050 C 
HETATM   13  C18 UNL     1       1.927  51.868  -9.379  1.00  0.00     0.159 C 
HETATM   14  C19 UNL     1       2.587  53.281  -9.236  1.00  0.00     0.124 C 
HETATM   15  O5  UNL     1       2.952  53.460  -7.838  1.00  0.00    -0.336 OA
HETATM   16  C20 UNL     1       4.335  53.699  -7.631  1.00  0.00     0.163 C 
HETATM   17  C21 UNL     1       5.131  52.493  -8.112  1.00  0.00     0.069 C 
HETATM   18  C22 UNL     1       4.969  52.363  -9.621  1.00  0.00     0.018 C 
HETATM   19  C23 UNL     1       3.900  53.369 -10.134  1.00  0.00    -0.002 C 
HETATM   20  C24 UNL     1       3.661  53.107 -11.633  1.00  0.00     0.019 C 
HETATM   21  C25 UNL     1       4.478  54.794  -9.891  1.00  0.00     0.005 C 
HETATM   22  C26 UNL     1       3.516  55.867 -10.409  1.00  0.00     0.033 C 
HETATM   23  C27 UNL     1       2.081  55.599 -10.056  1.00  0.00    -0.017 C 
HETATM   24  C28 UNL     1       1.603  54.447  -9.528  1.00  0.00    -0.011 C 
HETATM   25  C29 UNL     1       4.755  54.965  -8.379  1.00  0.00     0.074 C 
ENDROOT
BRANCH   1  26
HETATM   26  C6  UNL     1      -2.206  52.385 -11.629  1.00  0.00     0.133 C 
HETATM   27  C7  UNL     1      -3.645  52.827 -11.876  1.00  0.00     0.040 C 
BRANCH  26  28
HETATM   28  O2  UNL     1      -1.666  52.225 -12.969  1.00  0.00    -0.312 OA
BRANCH  28  29
HETATM   29  C5  UNL     1      -1.187  50.995 -13.315  1.00  0.00     0.296 C 
HETATM   30  O1  UNL     1      -1.101  50.051 -12.540  1.00  0.00    -0.259 OA
BRANCH  29  31
HETATM   31  C4  UNL     1      -0.708  50.964 -14.700  1.00  0.00     0.069 A 
HETATM   32  C3  UNL     1       0.623  51.093 -15.091  1.00  0.00     0.025 A 
HETATM   33  N2  UNL     1       0.669  51.043 -16.461  1.00  0.00    -0.368 N 
HETATM   34  C32 UNL     1      -0.592  50.889 -16.964  1.00  0.00     0.096 A 
HETATM   35  H46 UNL     1       1.512  51.121 -17.018  1.00  0.00     0.165 HD
HETATM   36  C30 UNL     1      -1.480  50.827 -15.908  1.00  0.00    -0.028 A 
HETATM   37  C31 UNL     1      -2.954  50.644 -16.023  1.00  0.00     0.050 C 
BRANCH  32  38
HETATM   38  C2  UNL     1       1.872  51.284 -14.287  1.00  0.00     0.054 C 
HETATM   39  C1  UNL     1       3.023  51.812 -15.133  1.00  0.00     0.011 C 
ENDBRANCH  32  38
ENDBRANCH  29  31
ENDBRANCH  28  29
ENDBRANCH  26  28
ENDBRANCH   1  26
BRANCH  13  40
HETATM   40  O4  UNL     1       1.750  51.190  -8.138  1.00  0.00    -0.392 OA
HETATM   41  H27 UNL     1       1.113  51.731  -7.619  1.00  0.00     0.210 HD
ENDBRANCH  13  40
BRANCH  16  42
HETATM   42  O6  UNL     1       4.528  53.874  -6.244  1.00  0.00    -0.365 OA
HETATM   43  H28 UNL     1       3.715  53.470  -5.883  1.00  0.00     0.213 HD
ENDBRANCH  16  42
TORSDOF 7
ENDMDL
MODEL 4
REMARK minimizedAffinity -8.59784985
REMARK CNNscore 0.668248773
REMARK CNNaffinity 7.61081505
REMARK  7 active torsions:
REMARK  status: ('A' for Active; 'I' for Inactive)
REMARK    1  A    between atoms: C2_2  and  C3_3 
REMARK    2  A    between atoms: C4_4  and  C5_5 
REMARK    3  A    between atoms: C5_5  and  O2_7 
REMARK    4  A    between atoms: O2_7  and  C6_8 
REMARK    5  A    between atoms: C6_8  and  C8_10 
REMARK    6  A    between atoms: C18_22  and  O4_23 
REMARK    7  A    between atoms: C20_26  and  O6_27 
ROOT
HETATM    1  C8  UNL     1      -1.929  49.078 -20.465  1.00  0.00     0.028 C 
HETATM    2  C9  UNL     1      -0.997  47.947 -20.871  1.00  0.00     0.011 C 
HETATM    3  C10 UNL     1      -1.807  47.232 -21.950  1.00  0.00     0.044 C 
HETATM    4  C11 UNL     1      -3.330  47.416 -21.591  1.00  0.00     0.097 C 
HETATM    5  O3  UNL     1      -3.924  46.121 -21.453  1.00  0.00    -0.373 OA
HETATM    6  C12 UNL     1      -3.452  45.241 -20.451  1.00  0.00     0.199 C 
HETATM    7  C13 UNL     1      -4.296  45.365 -19.183  1.00  0.00     0.298 C 
HETATM    8  N1  UNL     1      -4.556  46.751 -18.760  1.00  0.00     0.087 N 
HETATM    9  C14 UNL     1      -5.072  46.772 -17.389  1.00  0.00     0.310 C 
HETATM   10  C15 UNL     1      -3.390  47.619 -18.926  1.00  0.00     0.285 C 
HETATM   11  C16 UNL     1      -3.318  48.356 -20.304  1.00  0.00     0.030 C 
HETATM   12  C17 UNL     1      -4.415  49.462 -20.344  1.00  0.00     0.050 C 
HETATM   13  C18 UNL     1      -5.760  49.037 -20.926  1.00  0.00     0.159 C 
HETATM   14  C19 UNL     1      -5.635  48.448 -22.372  1.00  0.00     0.124 C 
HETATM   15  O5  UNL     1      -6.392  47.204 -22.410  1.00  0.00    -0.336 OA
HETATM   16  C20 UNL     1      -7.428  47.190 -23.379  1.00  0.00     0.163 C 
HETATM   17  C21 UNL     1      -8.441  48.277 -23.046  1.00  0.00     0.069 C 
HETATM   18  C22 UNL     1      -7.774  49.638 -23.194  1.00  0.00     0.018 C 
HETATM   19  C23 UNL     1      -6.248  49.463 -23.436  1.00  0.00    -0.002 C 
HETATM   20  C24 UNL     1      -5.589  50.857 -23.433  1.00  0.00     0.019 C 
HETATM   21  C25 UNL     1      -6.094  48.764 -24.818  1.00  0.00     0.005 C 
HETATM   22  C26 UNL     1      -4.616  48.587 -25.177  1.00  0.00     0.033 C 
HETATM   23  C27 UNL     1      -3.778  48.106 -24.026  1.00  0.00    -0.017 C 
HETATM   24  C28 UNL     1      -4.185  48.026 -22.737  1.00  0.00    -0.011 C 
HETATM   25  C29 UNL     1      -6.832  47.406 -24.770  1.00  0.00     0.074 C 
ENDROOT
BRANCH   1  26
HETATM   26  C6  UNL     1      -1.406  50.009 -19.344  1.00  0.00     0.133 C 
HETATM   27  C7  UNL     1      -0.522  49.361 -18.282  1.00  0.00     0.040 C 
BRANCH  26  28
HETATM   28  O2  UNL     1      -0.538  51.011 -19.940  1.00  0.00    -0.312 OA
BRANCH  28  29
HETATM   29  C5  UNL     1      -1.041  51.754 -20.968  1.00  0.00     0.296 C 
HETATM   30  O1  UNL     1      -2.177  51.630 -21.409  1.00  0.00    -0.259 OA
BRANCH  29  31
HETATM   31  C4  UNL     1      -0.035  52.654 -21.538  1.00  0.00     0.069 A 
HETATM   32  C3  UNL     1       0.248  52.784 -22.896  1.00  0.00     0.025 A 
HETATM   33  N2  UNL     1       1.263  53.696 -23.031  1.00  0.00    -0.368 N 
HETATM   34  C32 UNL     1       1.646  54.154 -21.803  1.00  0.00     0.096 A 
HETATM   35  H46 UNL     1       1.678  53.979 -23.913  1.00  0.00     0.165 HD
HETATM   36  C30 UNL     1       0.863  53.541 -20.844  1.00  0.00    -0.028 A 
HETATM   37  C31 UNL     1       0.944  53.777 -19.375  1.00  0.00     0.050 C 
BRANCH  32  38
HETATM   38  C2  UNL     1      -0.341  52.106 -24.094  1.00  0.00     0.054 C 
HETATM   39  C1  UNL     1      -1.567  52.838 -24.622  1.00  0.00     0.011 C 
ENDBRANCH  32  38
ENDBRANCH  29  31
ENDBRANCH  28  29
ENDBRANCH  26  28
ENDBRANCH   1  26
BRANCH  13  40
HETATM   40  O4  UNL     1      -6.453  48.185 -20.018  1.00  0.00    -0.392 OA
HETATM   41  H27 UNL     1      -5.904  47.374 -19.929  1.00  0.00     0.210 HD
ENDBRANCH  13  40
BRANCH  16  42
HETATM   42  O6  UNL     1      -8.049  45.925 -23.313  1.00  0.00    -0.365 OA
HETATM   43  H28 UNL     1      -7.762  45.615 -22.431  1.00  0.00     0.213 HD
ENDBRANCH  16  42
TORSDOF 7
ENDMDL
MODEL 5
REMARK minimizedAffinity -7.42247534
REMARK CNNscore 0.654584944
REMARK CNNaffinity 7.0289607
REMARK  7 active torsions:
REMARK  status: ('A' for Active; 'I' for Inactive)
REMARK    1  A    between atoms: C2_2  and  C3_3 
REMARK    2  A    between atoms: C4_4  and  C5_5 
REMARK    3  A    between atoms: C5_5  and  O2_7 
REMARK    4  A    between atoms: O2_7  and  C6_8 
REMARK    5  A    between atoms: C6_8  and  C8_10 
REMARK    6  A    between atoms: C18_22  and  O4_23 
REMARK    7  A    between atoms: C20_26  and  O6_27 
ROOT
HETATM    1  C8  UNL     1       1.057  54.332 -10.019  1.00  0.00     0.028 C 
HETATM    2  C9  UNL     1       2.262  53.769 -10.757  1.00  0.00     0.011 C 
HETATM    3  C10 UNL     1       1.658  52.584 -11.507  1.00  0.00     0.044 C 
HETATM    4  C11 UNL     1       0.464  52.039 -10.636  1.00  0.00     0.097 C 
HETATM    5  O3  UNL     1       0.711  50.661 -10.337  1.00  0.00    -0.373 OA
HETATM    6  C12 UNL     1       1.858  50.306  -9.587  1.00  0.00     0.199 C 
HETATM    7  C13 UNL     1       1.517  50.192  -8.102  1.00  0.00     0.298 C 
HETATM    8  N1  UNL     1       0.718  51.311  -7.575  1.00  0.00     0.087 N 
HETATM    9  C14 UNL     1       0.724  51.289  -6.110  1.00  0.00     0.310 C 
HETATM   10  C15 UNL     1       1.139  52.606  -8.112  1.00  0.00     0.285 C 
HETATM   11  C16 UNL     1       0.382  53.050  -9.406  1.00  0.00     0.030 C 
HETATM   12  C17 UNL     1      -1.079  53.440  -9.029  1.00  0.00     0.050 C 
HETATM   13  C18 UNL     1      -2.106  52.314  -9.119  1.00  0.00     0.159 C 
HETATM   14  C19 UNL     1      -2.149  51.645 -10.535  1.00  0.00     0.124 C 
HETATM   15  O5  UNL     1      -2.111  50.202 -10.344  1.00  0.00    -0.336 OA
HETATM   16  C20 UNL     1      -3.228  49.519 -10.891  1.00  0.00     0.163 C 
HETATM   17  C21 UNL     1      -4.497  49.993 -10.195  1.00  0.00     0.069 C 
HETATM   18  C22 UNL     1      -4.724  51.462 -10.526  1.00  0.00     0.018 C 
HETATM   19  C23 UNL     1      -3.496  52.036 -11.289  1.00  0.00    -0.002 C 
HETATM   20  C24 UNL     1      -3.701  53.552 -11.475  1.00  0.00     0.019 C 
HETATM   21  C25 UNL     1      -3.439  51.297 -12.658  1.00  0.00     0.005 C 
HETATM   22  C26 UNL     1      -2.285  51.826 -13.514  1.00  0.00     0.033 C 
HETATM   23  C27 UNL     1      -1.010  52.016 -12.741  1.00  0.00    -0.017 C 
HETATM   24  C28 UNL     1      -0.891  51.951 -11.394  1.00  0.00    -0.011 C 
HETATM   25  C29 UNL     1      -3.300  49.780 -12.396  1.00  0.00     0.074 C 
ENDROOT
BRANCH   1  26
HETATM   26  C6  UNL     1       1.335  55.565  -9.124  1.00  0.00     0.133 C 
HETATM   27  C7  UNL     1       0.445  55.725  -7.895  1.00  0.00     0.040 C 
BRANCH  26  28
HETATM   28  O2  UNL     1       2.669  55.439  -8.561  1.00  0.00    -0.312 OA
BRANCH  28  29
HETATM   29  C5  UNL     1       3.562  56.438  -8.819  1.00  0.00     0.296 C 
HETATM   30  O1  UNL     1       3.673  56.992  -9.906  1.00  0.00    -0.259 OA
BRANCH  29  31
HETATM   31  C4  UNL     1       4.429  56.709  -7.668  1.00  0.00     0.069 A 
HETATM   32  C3  UNL     1       5.693  56.158  -7.470  1.00  0.00     0.025 A 
HETATM   33  N2  UNL     1       6.175  56.626  -6.274  1.00  0.00    -0.368 N 
HETATM   34  C32 UNL     1       5.259  57.458  -5.695  1.00  0.00     0.096 A 
HETATM   35  H46 UNL     1       7.073  56.380  -5.872  1.00  0.00     0.165 HD
HETATM   36  C30 UNL     1       4.161  57.547  -6.528  1.00  0.00    -0.028 A 
HETATM   37  C31 UNL     1       2.944  58.369  -6.276  1.00  0.00     0.050 C 
BRANCH  32  38
HETATM   38  C2  UNL     1       6.492  55.202  -8.300  1.00  0.00     0.054 C 
HETATM   39  C1  UNL     1       6.068  55.220  -9.763  1.00  0.00     0.011 C 
ENDBRANCH  32  38
ENDBRANCH  29  31
ENDBRANCH  28  29
ENDBRANCH  26  28
ENDBRANCH   1  26
BRANCH  13  40
HETATM   40  O4  UNL     1      -1.929  51.387  -8.051  1.00  0.00    -0.392 OA
HETATM   41  H27 UNL     1      -1.041  50.984  -8.184  1.00  0.00     0.210 HD
ENDBRANCH  13  40
BRANCH  16  42
HETATM   42  O6  UNL     1      -3.039  48.142 -10.649  1.00  0.00    -0.365 OA
HETATM   43  H28 UNL     1      -2.375  48.161  -9.932  1.00  0.00     0.213 HD
ENDBRANCH  16  42
TORSDOF 7
ENDMDL
MODEL 6
REMARK minimizedAffinity -7.80086422
REMARK CNNscore 0.651169121
REMARK CNNaffinity 6.727911
REMARK  7 active torsions:
REMARK  status: ('A' for Active; 'I' for Inactive)
REMARK    1  A    between atoms: C2_2  and  C3_3 
REMARK    2  A    between atoms: C4_4  and  C5_5 
REMARK    3  A    between atoms: C5_5  and  O2_7 
REMARK    4  A    between atoms: O2_7  and  C6_8 
REMARK    5  A    between atoms: C6_8  and  C8_10 
REMARK    6  A    between atoms: C18_22  and  O4_23 
REMARK    7  A    between atoms: C20_26  and  O6_27 
ROOT
HETATM    1  C8  UNL     1      -0.492  53.601 -10.204  1.00  0.00     0.028 C 
HETATM    2  C9  UNL     1      -1.322  53.589  -8.929  1.00  0.00     0.011 C 
HETATM    3  C10 UNL     1      -0.321  54.084  -7.888  1.00  0.00     0.044 C 
HETATM    4  C11 UNL     1       1.109  53.616  -8.353  1.00  0.00     0.097 C 
HETATM    5  O3  UNL     1       1.685  52.814  -7.316  1.00  0.00    -0.373 OA
HETATM    6  C12 UNL     1       1.050  51.609  -6.934  1.00  0.00     0.199 C 
HETATM    7  C13 UNL     1       1.649  50.422  -7.687  1.00  0.00     0.298 C 
HETATM    8  N1  UNL     1       1.811  50.640  -9.135  1.00  0.00     0.087 N 
HETATM    9  C14 UNL     1       2.070  49.366  -9.811  1.00  0.00     0.310 C 
HETATM   10  C15 UNL     1       0.684  51.362  -9.725  1.00  0.00     0.285 C 
HETATM   11  C16 UNL     1       0.854  52.916  -9.762  1.00  0.00     0.030 C 
HETATM   12  C17 UNL     1       1.926  53.282 -10.832  1.00  0.00     0.050 C 
HETATM   13  C18 UNL     1       3.359  53.391 -10.319  1.00  0.00     0.159 C 
HETATM   14  C19 UNL     1       3.505  54.411  -9.139  1.00  0.00     0.124 C 
HETATM   15  O5  UNL     1       4.271  53.762  -8.085  1.00  0.00    -0.336 OA
HETATM   16  C20 UNL     1       5.466  54.444  -7.738  1.00  0.00     0.163 C 
HETATM   17  C21 UNL     1       6.389  54.488  -8.948  1.00  0.00     0.069 C 
HETATM   18  C22 UNL     1       5.742  55.340 -10.033  1.00  0.00     0.018 C 
HETATM   19  C23 UNL     1       4.287  55.710  -9.628  1.00  0.00    -0.002 C 
HETATM   20  C24 UNL     1       3.622  56.443 -10.808  1.00  0.00     0.019 C 
HETATM   21  C25 UNL     1       4.395  56.629  -8.375  1.00  0.00     0.005 C 
HETATM   22  C26 UNL     1       3.009  57.093  -7.921  1.00  0.00     0.033 C 
HETATM   23  C27 UNL     1       1.983  55.996  -7.926  1.00  0.00    -0.017 C 
HETATM   24  C28 UNL     1       2.151  54.766  -8.467  1.00  0.00    -0.011 C 
HETATM   25  C29 UNL     1       5.128  55.855  -7.256  1.00  0.00     0.074 C 
ENDROOT
BRANCH   1  26
HETATM   26  C6  UNL     1      -1.221  53.123 -11.484  1.00  0.00     0.133 C 
HETATM   27  C7  UNL     1      -0.335  52.651 -12.633  1.00  0.00     0.040 C 
BRANCH  26  28
HETATM   28  O2  UNL     1      -2.007  51.944 -11.158  1.00  0.00    -0.312 OA
BRANCH  28  29
HETATM   29  C5  UNL     1      -3.271  51.867 -11.665  1.00  0.00     0.296 C 
HETATM   30  O1  UNL     1      -4.018  52.829 -11.792  1.00  0.00    -0.259 OA
BRANCH  29  31
HETATM   31  C4  UNL     1      -3.659  50.484 -11.959  1.00  0.00     0.069 A 
HETATM   32  C3  UNL     1      -3.218  49.742 -13.052  1.00  0.00     0.025 A 
HETATM   33  N2  UNL     1      -3.820  48.511 -12.999  1.00  0.00    -0.368 N 
HETATM   34  C32 UNL     1      -4.639  48.439 -11.908  1.00  0.00     0.096 A 
HETATM   35  H46 UNL     1      -3.688  47.768 -13.677  1.00  0.00     0.165 HD
HETATM   36  C30 UNL     1      -4.567  49.638 -11.227  1.00  0.00    -0.028 A 
HETATM   37  C31 UNL     1      -5.293  49.967  -9.968  1.00  0.00     0.050 C 
BRANCH  32  38
HETATM   38  C2  UNL     1      -2.285  50.093 -14.170  1.00  0.00     0.054 C 
HETATM   39  C1  UNL     1      -2.985  50.873 -15.276  1.00  0.00     0.011 C 
ENDBRANCH  32  38
ENDBRANCH  29  31
ENDBRANCH  28  29
ENDBRANCH  26  28
ENDBRANCH   1  26
BRANCH  13  40
HETATM   40  O4  UNL     1       3.887  52.099 -10.029  1.00  0.00    -0.392 OA
HETATM   41  H27 UNL     1       3.341  51.739  -9.294  1.00  0.00     0.210 HD
ENDBRANCH  13  40
BRANCH  16  42
HETATM   42  O6  UNL     1       6.080  53.714  -6.698  1.00  0.00    -0.365 OA
HETATM   43  H28 UNL     1       5.642  52.845  -6.787  1.00  0.00     0.213 HD
ENDBRANCH  16  42
TORSDOF 7
ENDMDL
MODEL 7
REMARK minimizedAffinity -9.7169466
REMARK CNNscore 0.587461352
REMARK CNNaffinity 7.45829153
REMARK  7 active torsions:
REMARK  status: ('A' for Active; 'I' for Inactive)
REMARK    1  A    between atoms: C2_2  and  C3_3 
REMARK    2  A    between atoms: C4_4  and  C5_5 
REMARK    3  A    between atoms: C5_5  and  O2_7 
REMARK    4  A    between atoms: O2_7  and  C6_8 
REMARK    5  A    between atoms: C6_8  and  C8_10 
REMARK    6  A    between atoms: C18_22  and  O4_23 
REMARK    7  A    between atoms: C20_26  and  O6_27 
ROOT
HETATM    1  C8  UNL     1      -3.563  50.270 -24.455  1.00  0.00     0.028 C 
HETATM    2  C9  UNL     1      -4.461  51.496 -24.537  1.00  0.00     0.011 C 
HETATM    3  C10 UNL     1      -4.801  51.748 -23.070  1.00  0.00     0.044 C 
HETATM    4  C11 UNL     1      -4.800  50.350 -22.343  1.00  0.00     0.097 C 
HETATM    5  O3  UNL     1      -6.086  50.145 -21.749  1.00  0.00    -0.373 OA
HETATM    6  C12 UNL     1      -7.234  50.088 -22.575  1.00  0.00     0.199 C 
HETATM    7  C13 UNL     1      -7.570  48.641 -22.932  1.00  0.00     0.298 C 
HETATM    8  N1  UNL     1      -6.415  47.840 -23.370  1.00  0.00     0.087 N 
HETATM    9  C14 UNL     1      -6.872  46.597 -23.997  1.00  0.00     0.310 C 
HETATM   10  C15 UNL     1      -5.502  48.592 -24.231  1.00  0.00     0.285 C 
HETATM   11  C16 UNL     1      -4.345  49.321 -23.473  1.00  0.00     0.030 C 
HETATM   12  C17 UNL     1      -3.327  48.258 -22.960  1.00  0.00     0.050 C 
HETATM   13  C18 UNL     1      -3.579  47.731 -21.550  1.00  0.00     0.159 C 
HETATM   14  C19 UNL     1      -3.646  48.872 -20.479  1.00  0.00     0.124 C 
HETATM   15  O5  UNL     1      -4.830  48.645 -19.663  1.00  0.00    -0.336 OA
HETATM   16  C20 UNL     1      -4.555  48.485 -18.281  1.00  0.00     0.163 C 
HETATM   17  C21 UNL     1      -3.678  47.257 -18.082  1.00  0.00     0.069 C 
HETATM   18  C22 UNL     1      -2.323  47.504 -18.734  1.00  0.00     0.018 C 
HETATM   19  C23 UNL     1      -2.355  48.829 -19.547  1.00  0.00    -0.002 C 
HETATM   20  C24 UNL     1      -1.021  48.969 -20.306  1.00  0.00     0.019 C 
HETATM   21  C25 UNL     1      -2.546  49.980 -18.516  1.00  0.00     0.005 C 
HETATM   22  C26 UNL     1      -2.541  51.342 -19.213  1.00  0.00     0.033 C 
HETATM   23  C27 UNL     1      -3.351  51.365 -20.479  1.00  0.00    -0.017 C 
HETATM   24  C28 UNL     1      -3.871  50.279 -21.098  1.00  0.00    -0.011 C 
HETATM   25  C29 UNL     1      -3.865  49.741 -17.747  1.00  0.00     0.074 C 
ENDROOT
BRANCH   1  26
HETATM   26  C6  UNL     1      -3.043  49.728 -25.808  1.00  0.00     0.133 C 
HETATM   27  C7  UNL     1      -3.979  48.792 -26.568  1.00  0.00     0.040 C 
BRANCH  26  28
HETATM   28  O2  UNL     1      -2.869  50.845 -26.721  1.00  0.00    -0.312 OA
BRANCH  28  29
HETATM   29  C5  UNL     1      -2.355  52.002 -26.214  1.00  0.00     0.296 C 
HETATM   30  O1  UNL     1      -2.995  53.040 -26.091  1.00  0.00    -0.259 OA
BRANCH  29  31
HETATM   31  C4  UNL     1      -0.925  51.882 -25.915  1.00  0.00     0.069 A 
HETATM   32  C3  UNL     1      -0.358  51.992 -24.647  1.00  0.00     0.025 A 
HETATM   33  N2  UNL     1       1.000  51.851 -24.777  1.00  0.00    -0.368 N 
HETATM   34  C32 UNL     1       1.325  51.658 -26.090  1.00  0.00     0.096 A 
HETATM   35  H46 UNL     1       1.665  51.896 -24.013  1.00  0.00     0.165 HD
HETATM   36  C30 UNL     1       0.162  51.661 -26.834  1.00  0.00    -0.028 A 
HETATM   37  C31 UNL     1       0.073  51.463 -28.308  1.00  0.00     0.050 C 
BRANCH  32  38
HETATM   38  C2  UNL     1      -0.981  52.242 -23.308  1.00  0.00     0.054 C 
HETATM   39  C1  UNL     1      -0.048  51.866 -22.164  1.00  0.00     0.011 C 
ENDBRANCH  32  38
ENDBRANCH  29  31
ENDBRANCH  28  29
ENDBRANCH  26  28
ENDBRANCH   1  26
BRANCH  13  40
HETATM   40  O4  UNL     1      -4.709  46.862 -21.533  1.00  0.00    -0.392 OA
HETATM   41  H27 UNL     1      -5.484  47.416 -21.781  1.00  0.00     0.210 HD
ENDBRANCH  13  40
BRANCH  16  42
HETATM   42  O6  UNL     1      -5.790  48.299 -17.625  1.00  0.00    -0.365 OA
HETATM   43  H28 UNL     1      -6.367  48.038 -18.369  1.00  0.00     0.213 HD
ENDBRANCH  16  42
TORSDOF 7
ENDMDL
MODEL 8
REMARK minimizedAffinity -9.51146412
REMARK CNNscore 0.544226766
REMARK CNNaffinity 7.39821863
REMARK  7 active torsions:
REMARK  status: ('A' for Active; 'I' for Inactive)
REMARK    1  A    between atoms: C2_2  and  C3_3 
REMARK    2  A    between atoms: C4_4  and  C5_5 
REMARK    3  A    between atoms: C5_5  and  O2_7 
REMARK    4  A    between atoms: O2_7  and  C6_8 
REMARK    5  A    between atoms: C6_8  and  C8_10 
REMARK    6  A    between atoms: C18_22  and  O4_23 
REMARK    7  A    between atoms: C20_26  and  O6_27 
ROOT
HETATM    1  C8  UNL     1      -3.619  50.346 -24.465  1.00  0.00     0.028 C 
HETATM    2  C9  UNL     1      -4.576  51.527 -24.540  1.00  0.00     0.011 C 
HETATM    3  C10 UNL     1      -4.901  51.774 -23.069  1.00  0.00     0.044 C 
HETATM    4  C11 UNL     1      -4.820  50.384 -22.332  1.00  0.00     0.097 C 
HETATM    5  O3  UNL     1      -6.084  50.124 -21.711  1.00  0.00    -0.373 OA
HETATM    6  C12 UNL     1      -7.242  50.005 -22.516  1.00  0.00     0.199 C 
HETATM    7  C13 UNL     1      -7.516  48.541 -22.855  1.00  0.00     0.298 C 
HETATM    8  N1  UNL     1      -6.331  47.792 -23.309  1.00  0.00     0.087 N 
HETATM    9  C14 UNL     1      -6.740  46.523 -23.917  1.00  0.00     0.310 C 
HETATM   10  C15 UNL     1      -5.471  48.579 -24.193  1.00  0.00     0.285 C 
HETATM   11  C16 UNL     1      -4.337  49.369 -23.461  1.00  0.00     0.030 C 
HETATM   12  C17 UNL     1      -3.260  48.360 -22.959  1.00  0.00     0.050 C 
HETATM   13  C18 UNL     1      -3.461  47.833 -21.541  1.00  0.00     0.159 C 
HETATM   14  C19 UNL     1      -3.563  48.979 -20.478  1.00  0.00     0.124 C 
HETATM   15  O5  UNL     1      -4.720  48.703 -19.638  1.00  0.00    -0.336 OA
HETATM   16  C20 UNL     1      -4.412  48.569 -18.260  1.00  0.00     0.163 C 
HETATM   17  C21 UNL     1      -3.473  47.385 -18.068  1.00  0.00     0.069 C 
HETATM   18  C22 UNL     1      -2.145  47.691 -18.747  1.00  0.00     0.018 C 
HETATM   19  C23 UNL     1      -2.254  49.006 -19.570  1.00  0.00    -0.002 C 
HETATM   20  C24 UNL     1      -0.943  49.203 -20.354  1.00  0.00     0.019 C 
HETATM   21  C25 UNL     1      -2.481  50.155 -18.544  1.00  0.00     0.005 C 
HETATM   22  C26 UNL     1      -2.554  51.510 -19.252  1.00  0.00     0.033 C 
HETATM   23  C27 UNL     1      -3.387  51.483 -20.502  1.00  0.00    -0.017 C 
HETATM   24  C28 UNL     1      -3.866  50.369 -21.104  1.00  0.00    -0.011 C 
HETATM   25  C29 UNL     1      -3.774  49.861 -17.749  1.00  0.00     0.074 C 
ENDROOT
BRANCH   1  26
HETATM   26  C6  UNL     1      -3.099  49.817 -25.824  1.00  0.00     0.133 C 
HETATM   27  C7  UNL     1      -4.144  49.226 -26.766  1.00  0.00     0.040 C 
BRANCH  26  28
HETATM   28  O2  UNL     1      -2.555  50.933 -26.580  1.00  0.00    -0.312 OA
BRANCH  28  29
HETATM   29  C5  UNL     1      -2.351  52.107 -25.915  1.00  0.00     0.296 C 
HETATM   30  O1  UNL     1      -3.216  52.958 -25.747  1.00  0.00    -0.259 OA
BRANCH  29  31
HETATM   31  C4  UNL     1      -0.953  52.268 -25.504  1.00  0.00     0.069 A 
HETATM   32  C3  UNL     1       0.115  52.501 -26.367  1.00  0.00     0.025 A 
HETATM   33  N2  UNL     1       1.261  52.564 -25.615  1.00  0.00    -0.368 N 
HETATM   34  C32 UNL     1       0.964  52.375 -24.296  1.00  0.00     0.096 A 
HETATM   35  H46 UNL     1       2.193  52.715 -25.986  1.00  0.00     0.165 HD
HETATM   36  C30 UNL     1      -0.401  52.195 -24.176  1.00  0.00    -0.028 A 
HETATM   37  C31 UNL     1      -1.139  51.977 -22.900  1.00  0.00     0.050 C 
BRANCH  32  38
HETATM   38  C2  UNL     1       0.164  52.650 -27.856  1.00  0.00     0.054 C 
HETATM   39  C1  UNL     1       1.143  51.675 -28.498  1.00  0.00     0.011 C 
ENDBRANCH  32  38
ENDBRANCH  29  31
ENDBRANCH  28  29
ENDBRANCH  26  28
ENDBRANCH   1  26
BRANCH  13  40
HETATM   40  O4  UNL     1      -4.548  46.912 -21.497  1.00  0.00    -0.392 OA
HETATM   41  H27 UNL     1      -5.352  47.426 -21.734  1.00  0.00     0.210 HD
ENDBRANCH  13  40
BRANCH  16  42
HETATM   42  O6  UNL     1      -5.624  48.329 -17.580  1.00  0.00    -0.365 OA
HETATM   43  H28 UNL     1      -6.202  48.035 -18.311  1.00  0.00     0.213 HD
ENDBRANCH  16  42
TORSDOF 7
ENDMDL
MODEL 9
REMARK minimizedAffinity -7.70331097
REMARK CNNscore 0.526233494
REMARK CNNaffinity 7.54499006
REMARK  7 active torsions:
REMARK  status: ('A' for Active; 'I' for Inactive)
REMARK    1  A    between atoms: C2_2  and  C3_3 
REMARK    2  A    between atoms: C4_4  and  C5_5 
REMARK    3  A    between atoms: C5_5  and  O2_7 
REMARK    4  A    between atoms: O2_7  and  C6_8 
REMARK    5  A    between atoms: C6_8  and  C8_10 
REMARK    6  A    between atoms: C18_22  and  O4_23 
REMARK    7  A    between atoms: C20_26  and  O6_27 
ROOT
HETATM    1  C8  UNL     1      -1.234  49.491 -15.304  1.00  0.00     0.028 C 
HETATM    2  C9  UNL     1      -1.062  48.025 -14.934  1.00  0.00     0.011 C 
HETATM    3  C10 UNL     1      -1.248  48.050 -13.419  1.00  0.00     0.044 C 
HETATM    4  C11 UNL     1      -0.736  49.449 -12.907  1.00  0.00     0.097 C 
HETATM    5  O3  UNL     1       0.302  49.230 -11.946  1.00  0.00    -0.373 OA
HETATM    6  C12 UNL     1       1.488  48.568 -12.341  1.00  0.00     0.199 C 
HETATM    7  C13 UNL     1       2.565  49.578 -12.736  1.00  0.00     0.298 C 
HETATM    8  N1  UNL     1       2.092  50.651 -13.628  1.00  0.00     0.087 N 
HETATM    9  C14 UNL     1       3.233  51.362 -14.210  1.00  0.00     0.310 C 
HETATM   10  C15 UNL     1       1.162  50.167 -14.648  1.00  0.00     0.285 C 
HETATM   11  C16 UNL     1      -0.346  50.235 -14.238  1.00  0.00     0.030 C 
HETATM   12  C17 UNL     1      -0.800  51.726 -14.226  1.00  0.00     0.050 C 
HETATM   13  C18 UNL     1      -0.665  52.445 -12.887  1.00  0.00     0.159 C 
HETATM   14  C19 UNL     1      -1.422  51.713 -11.726  1.00  0.00     0.124 C 
HETATM   15  O5  UNL     1      -0.511  51.616 -10.595  1.00  0.00    -0.336 OA
HETATM   16  C20 UNL     1      -0.991  52.238  -9.414  1.00  0.00     0.163 C 
HETATM   17  C21 UNL     1      -1.172  53.728  -9.669  1.00  0.00     0.069 C 
HETATM   18  C22 UNL     1      -2.275  53.924 -10.700  1.00  0.00     0.018 C 
HETATM   19  C23 UNL     1      -2.705  52.552 -11.292  1.00  0.00    -0.002 C 
HETATM   20  C24 UNL     1      -3.712  52.804 -12.430  1.00  0.00     0.019 C 
HETATM   21  C25 UNL     1      -3.353  51.749 -10.126  1.00  0.00     0.005 C 
HETATM   22  C26 UNL     1      -3.859  50.390 -10.617  1.00  0.00     0.033 C 
HETATM   23  C27 UNL     1      -2.891  49.688 -11.527  1.00  0.00    -0.017 C 
HETATM   24  C28 UNL     1      -1.776  50.239 -12.062  1.00  0.00    -0.011 C 
HETATM   25  C29 UNL     1      -2.311  51.590  -8.995  1.00  0.00     0.074 C 
ENDROOT
BRANCH   1  26
HETATM   26  C6  UNL     1      -1.083  49.826 -16.808  1.00  0.00     0.133 C 
HETATM   27  C7  UNL     1      -1.992  49.062 -17.767  1.00  0.00     0.040 C 
BRANCH  26  28
HETATM   28  O2  UNL     1      -1.463  51.213 -17.016  1.00  0.00    -0.312 OA
BRANCH  28  29
HETATM   29  C5  UNL     1      -1.905  51.569 -18.257  1.00  0.00     0.296 C 
HETATM   30  O1  UNL     1      -3.072  51.488 -18.617  1.00  0.00    -0.259 OA
BRANCH  29  31
HETATM   31  C4  UNL     1      -0.803  51.976 -19.134  1.00  0.00     0.069 A 
HETATM   32  C3  UNL     1      -0.829  51.934 -20.527  1.00  0.00     0.025 A 
HETATM   33  N2  UNL     1       0.390  52.364 -20.986  1.00  0.00    -0.368 N 
HETATM   34  C32 UNL     1       1.201  52.678 -19.933  1.00  0.00     0.096 A 
HETATM   35  H46 UNL     1       0.654  52.427 -21.963  1.00  0.00     0.165 HD
HETATM   36  C30 UNL     1       0.501  52.461 -18.761  1.00  0.00    -0.028 A 
HETATM   37  C31 UNL     1       1.017  52.699 -17.384  1.00  0.00     0.050 C 
BRANCH  32  38
HETATM   38  C2  UNL     1      -1.900  51.500 -21.479  1.00  0.00     0.054 C 
HETATM   39  C1  UNL     1      -1.774  50.029 -21.853  1.00  0.00     0.011 C 
ENDBRANCH  32  38
ENDBRANCH  29  31
ENDBRANCH  28  29
ENDBRANCH  26  28
ENDBRANCH   1  26
BRANCH  13  40
HETATM   40  O4  UNL     1       0.705  52.713 -12.598  1.00  0.00    -0.392 OA
HETATM   41  H27 UNL     1       1.142  51.837 -12.504  1.00  0.00     0.210 HD
ENDBRANCH  13  40
BRANCH  16  42
HETATM   42  O6  UNL     1      -0.019  52.041  -8.410  1.00  0.00    -0.365 OA
HETATM   43  H28 UNL     1       0.769  51.822  -8.945  1.00  0.00     0.213 HD
ENDBRANCH  16  42
TORSDOF 7
ENDMDL
