MODEL 1
REMARK minimizedAffinity -9.59896946
REMARK CNNscore 0.559248149
REMARK CNNaffinity 7.00537491
REMARK  0 active torsions:
REMARK  status: ('A' for Active; 'I' for Inactive)
ROOT
HETATM    1  C1  UNL     1       0.198  10.473  17.920  1.00  0.00     0.023 C 
HETATM    2  C2  UNL     1      -0.542  10.791  16.602  1.00  0.00     0.017 C 
HETATM    3  C3  UNL     1       0.428  11.589  15.711  1.00  0.00     0.023 C 
HETATM    4  C4  UNL     1      -1.732  11.681  16.976  1.00  0.00     0.135 C 
HETATM    5  O1  UNL     1      -1.632  12.902  17.104  1.00  0.00    -0.297 OA
HETATM    6  C5  UNL     1      -3.034  10.983  17.274  1.00  0.00     0.080 C 
HETATM    7  C6  UNL     1      -3.516  10.127  16.107  1.00  0.00     0.017 C 
HETATM    8  C7  UNL     1      -2.398   9.603  15.135  1.00  0.00    -0.035 C 
HETATM    9  C8  UNL     1      -2.284  10.647  14.000  1.00  0.00     0.016 C 
HETATM   10  C9  UNL     1      -2.839   8.166  14.609  1.00  0.00     0.003 C 
HETATM   11  C10 UNL     1      -4.156   8.166  13.804  1.00  0.00     0.006 C 
HETATM   12  C11 UNL     1      -4.701   6.757  13.555  1.00  0.00     0.006 C 
HETATM   13  C12 UNL     1      -3.674   5.835  12.889  1.00  0.00    -0.000 C 
HETATM   14  C13 UNL     1      -4.206   4.419  12.563  1.00  0.00     0.009 C 
HETATM   15  C14 UNL     1      -5.517   4.231  11.773  1.00  0.00     0.067 A 
HETATM   16  C15 UNL     1      -5.333   2.840  11.092  1.00  0.00     0.140 A 
HETATM   17  C16 UNL     1      -3.925   2.348  11.450  1.00  0.00     0.042 C 
HETATM   18  C17 UNL     1      -3.156   3.642  11.722  1.00  0.00    -0.037 C 
HETATM   19  C18 UNL     1      -2.798   4.293  10.360  1.00  0.00     0.015 C 
HETATM   20  C19 UNL     1      -1.883   3.456  12.556  1.00  0.00     0.010 C 
HETATM   21  C20 UNL     1      -1.302   4.810  13.014  1.00  0.00     0.011 C 
HETATM   22  C21 UNL     1      -2.327   5.763  13.727  1.00  0.00    -0.032 C 
HETATM   23  C22 UNL     1      -2.597   5.099  15.121  1.00  0.00     0.016 C 
HETATM   24  C23 UNL     1      -1.740   7.276  13.907  1.00  0.00    -0.032 C 
HETATM   25  C24 UNL     1      -1.341   7.854  12.516  1.00  0.00     0.016 C 
HETATM   26  C25 UNL     1      -0.459   7.288  14.785  1.00  0.00     0.011 C 
HETATM   27  C26 UNL     1       0.016   8.688  15.182  1.00  0.00     0.007 C 
HETATM   28  C27 UNL     1      -1.068   9.457  15.958  1.00  0.00     0.009 C 
HETATM   29  O2  UNL     1      -6.305   1.914  11.602  1.00  0.00    -0.313 OA
HETATM   30  C28 UNL     1      -7.144   2.546  12.468  1.00  0.00     0.297 A 
HETATM   31  O3  UNL     1      -8.088   2.032  13.044  1.00  0.00    -0.262 OA
HETATM   32  C29 UNL     1      -6.757   3.962  12.557  1.00  0.00     0.175 A 
HETATM   33  C30 UNL     1      -7.794   5.027  12.822  1.00  0.00     0.218 A 
HETATM   34  O4  UNL     1      -6.870   4.599  13.833  1.00  0.00    -0.364 OA
ENDROOT
TORSDOF 0
ENDMDL
MODEL 2
REMARK minimizedAffinity -7.0569582
REMARK CNNscore 0.359146446
REMARK CNNaffinity 5.8696537
REMARK  0 active torsions:
REMARK  status: ('A' for Active; 'I' for Inactive)
ROOT
HETATM    1  C1  UNL     1       2.465   8.325   8.214  1.00  0.00     0.023 C 
HETATM    2  C2  UNL     1       2.445   7.530   9.538  1.00  0.00     0.017 C 
HETATM    3  C3  UNL     1       2.687   6.050   9.191  1.00  0.00     0.023 C 
HETATM    4  C4  UNL     1       1.035   7.688  10.118  1.00  0.00     0.135 C 
HETATM    5  O1  UNL     1       0.095   6.967   9.782  1.00  0.00    -0.297 OA
HETATM    6  C5  UNL     1       0.818   8.838  11.067  1.00  0.00     0.080 C 
HETATM    7  C6  UNL     1       1.751   8.783  12.273  1.00  0.00     0.017 C 
HETATM    8  C7  UNL     1       3.108   8.022  12.054  1.00  0.00    -0.035 C 
HETATM    9  C8  UNL     1       2.861   6.558  12.489  1.00  0.00     0.016 C 
HETATM   10  C9  UNL     1       4.224   8.745  12.929  1.00  0.00     0.003 C 
HETATM   11  C10 UNL     1       3.947   8.722  14.448  1.00  0.00     0.006 C 
HETATM   12  C11 UNL     1       4.872   9.655  15.235  1.00  0.00     0.006 C 
HETATM   13  C12 UNL     1       6.355   9.385  14.963  1.00  0.00    -0.000 C 
HETATM   14  C13 UNL     1       7.325  10.266  15.786  1.00  0.00     0.009 C 
HETATM   15  C14 UNL     1       7.189  10.369  17.319  1.00  0.00     0.067 A 
HETATM   16  C15 UNL     1       8.636  10.715  17.789  1.00  0.00     0.140 A 
HETATM   17  C16 UNL     1       9.526  10.712  16.540  1.00  0.00     0.042 C 
HETATM   18  C17 UNL     1       8.785   9.778  15.580  1.00  0.00    -0.037 C 
HETATM   19  C18 UNL     1       9.054   8.314  16.017  1.00  0.00     0.015 C 
HETATM   20  C19 UNL     1       9.169   9.955  14.106  1.00  0.00     0.010 C 
HETATM   21  C20 UNL     1       8.214   9.183  13.174  1.00  0.00     0.011 C 
HETATM   22  C21 UNL     1       6.686   9.464  13.411  1.00  0.00    -0.032 C 
HETATM   23  C22 UNL     1       6.456  10.923  12.887  1.00  0.00     0.016 C 
HETATM   24  C23 UNL     1       5.733   8.402  12.618  1.00  0.00    -0.032 C 
HETATM   25  C24 UNL     1       6.090   6.949  13.051  1.00  0.00     0.016 C 
HETATM   26  C25 UNL     1       5.951   8.482  11.081  1.00  0.00     0.011 C 
HETATM   27  C26 UNL     1       4.936   7.681  10.263  1.00  0.00     0.007 C 
HETATM   28  C27 UNL     1       3.494   8.143  10.536  1.00  0.00     0.009 C 
HETATM   29  O2  UNL     1       8.656  12.020  18.385  1.00  0.00    -0.313 OA
HETATM   30  C28 UNL     1       7.396  12.533  18.432  1.00  0.00     0.297 A 
HETATM   31  O3  UNL     1       7.087  13.613  18.906  1.00  0.00    -0.262 OA
HETATM   32  C29 UNL     1       6.461  11.550  17.865  1.00  0.00     0.175 A 
HETATM   33  C30 UNL     1       5.039  11.465  18.363  1.00  0.00     0.218 A 
HETATM   34  O4  UNL     1       5.364  12.050  17.095  1.00  0.00    -0.364 OA
ENDROOT
TORSDOF 0
ENDMDL
MODEL 3
REMARK minimizedAffinity -6.53633738
REMARK CNNscore 0.336786151
REMARK CNNaffinity 5.8409481
REMARK  0 active torsions:
REMARK  status: ('A' for Active; 'I' for Inactive)
ROOT
HETATM    1  C1  UNL     1      17.941  -5.478  -2.697  1.00  0.00     0.023 C 
HETATM    2  C2  UNL     1      17.258  -4.294  -1.978  1.00  0.00     0.017 C 
HETATM    3  C3  UNL     1      16.189  -3.730  -2.933  1.00  0.00     0.023 C 
HETATM    4  C4  UNL     1      18.344  -3.235  -1.757  1.00  0.00     0.135 C 
HETATM    5  O1  UNL     1      18.653  -2.411  -2.618  1.00  0.00    -0.297 OA
HETATM    6  C5  UNL     1      19.096  -3.299  -0.452  1.00  0.00     0.080 C 
HETATM    7  C6  UNL     1      18.174  -3.196   0.758  1.00  0.00     0.017 C 
HETATM    8  C7  UNL     1      16.692  -3.670   0.532  1.00  0.00    -0.035 C 
HETATM    9  C8  UNL     1      15.891  -2.412   0.124  1.00  0.00     0.016 C 
HETATM   10  C9  UNL     1      16.172  -4.318   1.890  1.00  0.00     0.003 C 
HETATM   11  C10 UNL     1      16.143  -3.342   3.085  1.00  0.00     0.006 C 
HETATM   12  C11 UNL     1      15.914  -4.048   4.424  1.00  0.00     0.006 C 
HETATM   13  C12 UNL     1      14.655  -4.922   4.424  1.00  0.00    -0.000 C 
HETATM   14  C13 UNL     1      14.352  -5.604   5.779  1.00  0.00     0.009 C 
HETATM   15  C14 UNL     1      14.295  -4.781   7.082  1.00  0.00     0.067 A 
HETATM   16  C15 UNL     1      13.344  -5.614   7.995  1.00  0.00     0.140 A 
HETATM   17  C16 UNL     1      12.850  -6.803   7.162  1.00  0.00     0.042 C 
HETATM   18  C17 UNL     1      12.965  -6.298   5.723  1.00  0.00    -0.037 C 
HETATM   19  C18 UNL     1      11.769  -5.350   5.440  1.00  0.00     0.015 C 
HETATM   20  C19 UNL     1      13.002  -7.409   4.666  1.00  0.00     0.010 C 
HETATM   21  C20 UNL     1      13.378  -6.857   3.276  1.00  0.00     0.011 C 
HETATM   22  C21 UNL     1      14.682  -5.982   3.242  1.00  0.00    -0.032 C 
HETATM   23  C22 UNL     1      15.858  -6.996   3.458  1.00  0.00     0.016 C 
HETATM   24  C23 UNL     1      14.853  -5.185   1.827  1.00  0.00    -0.032 C 
HETATM   25  C24 UNL     1      13.599  -4.297   1.569  1.00  0.00     0.016 C 
HETATM   26  C25 UNL     1      14.965  -6.169   0.630  1.00  0.00     0.011 C 
HETATM   27  C26 UNL     1      15.352  -5.505  -0.693  1.00  0.00     0.007 C 
HETATM   28  C27 UNL     1      16.700  -4.771  -0.588  1.00  0.00     0.009 C 
HETATM   29  O2  UNL     1      14.066  -6.100   9.137  1.00  0.00    -0.313 OA
HETATM   30  C28 UNL     1      15.341  -5.625   9.122  1.00  0.00     0.297 A 
HETATM   31  O3  UNL     1      16.189  -5.841   9.971  1.00  0.00    -0.262 OA
HETATM   32  C29 UNL     1      15.514  -4.767   7.940  1.00  0.00     0.175 A 
HETATM   33  C30 UNL     1      16.469  -3.598   7.971  1.00  0.00     0.218 A 
HETATM   34  O4  UNL     1      16.779  -4.812   7.271  1.00  0.00    -0.364 OA
ENDROOT
TORSDOF 0
ENDMDL
MODEL 4
REMARK minimizedAffinity -6.21387386
REMARK CNNscore 0.318259448
REMARK CNNaffinity 5.53243256
REMARK  0 active torsions:
REMARK  status: ('A' for Active; 'I' for Inactive)
ROOT
HETATM    1  C1  UNL     1     -16.472 -10.974   7.432  1.00  0.00     0.023 C 
HETATM    2  C2  UNL     1     -15.722  -9.638   7.630  1.00  0.00     0.017 C 
HETATM    3  C3  UNL     1     -16.584  -8.759   8.555  1.00  0.00     0.023 C 
HETATM    4  C4  UNL     1     -15.635  -8.981   6.248  1.00  0.00     0.135 C 
HETATM    5  O1  UNL     1     -16.543  -8.292   5.782  1.00  0.00    -0.297 OA
HETATM    6  C5  UNL     1     -14.408  -9.287   5.428  1.00  0.00     0.080 C 
HETATM    7  C6  UNL     1     -13.118  -8.903   6.145  1.00  0.00     0.017 C 
HETATM    8  C7  UNL     1     -13.186  -8.882   7.715  1.00  0.00    -0.035 C 
HETATM    9  C8  UNL     1     -13.549  -7.432   8.114  1.00  0.00     0.016 C 
HETATM   10  C9  UNL     1     -11.768  -9.339   8.275  1.00  0.00     0.003 C 
HETATM   11  C10 UNL     1     -10.602  -8.411   7.874  1.00  0.00     0.006 C 
HETATM   12  C11 UNL     1      -9.229  -9.016   8.180  1.00  0.00     0.006 C 
HETATM   13  C12 UNL     1      -9.084  -9.445   9.644  1.00  0.00    -0.000 C 
HETATM   14  C13 UNL     1      -7.689 -10.004  10.010  1.00  0.00     0.009 C 
HETATM   15  C14 UNL     1      -6.408  -9.212   9.674  1.00  0.00     0.067 A 
HETATM   16  C15 UNL     1      -5.386  -9.706  10.743  1.00  0.00     0.140 A 
HETATM   17  C16 UNL     1      -6.136 -10.672  11.668  1.00  0.00     0.042 C 
HETATM   18  C17 UNL     1      -7.593 -10.222  11.544  1.00  0.00    -0.037 C 
HETATM   19  C18 UNL     1      -7.783  -8.941  12.400  1.00  0.00     0.015 C 
HETATM   20  C19 UNL     1      -8.619 -11.281  11.966  1.00  0.00     0.010 C 
HETATM   21  C20 UNL     1     -10.052 -10.869  11.576  1.00  0.00     0.011 C 
HETATM   22  C21 UNL     1     -10.236 -10.452  10.072  1.00  0.00    -0.032 C 
HETATM   23  C22 UNL     1     -10.108 -11.788   9.262  1.00  0.00     0.016 C 
HETATM   24  C23 UNL     1     -11.680  -9.743   9.800  1.00  0.00    -0.032 C 
HETATM   25  C24 UNL     1     -11.840  -8.502  10.728  1.00  0.00     0.016 C 
HETATM   26  C25 UNL     1     -12.856 -10.704  10.125  1.00  0.00     0.011 C 
HETATM   27  C26 UNL     1     -14.228 -10.190   9.682  1.00  0.00     0.007 C 
HETATM   28  C27 UNL     1     -14.272  -9.922   8.168  1.00  0.00     0.009 C 
HETATM   29  O2  UNL     1      -4.307 -10.402  10.102  1.00  0.00    -0.313 OA
HETATM   30  C28 UNL     1      -4.458 -10.357   8.750  1.00  0.00     0.297 A 
HETATM   31  O3  UNL     1      -3.689 -10.835   7.933  1.00  0.00    -0.262 OA
HETATM   32  C29 UNL     1      -5.673  -9.592   8.433  1.00  0.00     0.175 A 
HETATM   33  C30 UNL     1      -5.765  -8.786   7.159  1.00  0.00     0.218 A 
HETATM   34  O4  UNL     1      -6.459 -10.031   7.321  1.00  0.00    -0.364 OA
ENDROOT
TORSDOF 0
ENDMDL
MODEL 5
REMARK minimizedAffinity -6.69064808
REMARK CNNscore 0.28606987
REMARK CNNaffinity 6.20126581
REMARK  0 active torsions:
REMARK  status: ('A' for Active; 'I' for Inactive)
ROOT
HETATM    1  C1  UNL     1     -17.413   2.347  33.071  1.00  0.00     0.023 C 
HETATM    2  C2  UNL     1     -16.102   3.085  32.722  1.00  0.00     0.017 C 
HETATM    3  C3  UNL     1     -14.965   2.394  33.497  1.00  0.00     0.023 C 
HETATM    4  C4  UNL     1     -16.262   4.520  33.236  1.00  0.00     0.135 C 
HETATM    5  O1  UNL     1     -16.021   4.838  34.401  1.00  0.00    -0.297 OA
HETATM    6  C5  UNL     1     -16.822   5.529  32.266  1.00  0.00     0.080 C 
HETATM    7  C6  UNL     1     -15.986   5.641  30.996  1.00  0.00     0.017 C 
HETATM    8  C7  UNL     1     -15.151   4.367  30.610  1.00  0.00    -0.035 C 
HETATM    9  C8  UNL     1     -13.755   4.552  31.250  1.00  0.00     0.016 C 
HETATM   10  C9  UNL     1     -15.094   4.279  29.022  1.00  0.00     0.003 C 
HETATM   11  C10 UNL     1     -14.397   5.481  28.348  1.00  0.00     0.006 C 
HETATM   12  C11 UNL     1     -14.602   5.513  26.831  1.00  0.00     0.006 C 
HETATM   13  C12 UNL     1     -14.182   4.207  26.149  1.00  0.00    -0.000 C 
HETATM   14  C13 UNL     1     -14.314   4.221  24.608  1.00  0.00     0.009 C 
HETATM   15  C14 UNL     1     -13.687   5.355  23.771  1.00  0.00     0.067 A 
HETATM   16  C15 UNL     1     -13.435   4.685  22.385  1.00  0.00     0.140 A 
HETATM   17  C16 UNL     1     -13.845   3.213  22.516  1.00  0.00     0.042 C 
HETATM   18  C17 UNL     1     -13.683   2.933  24.012  1.00  0.00    -0.037 C 
HETATM   19  C18 UNL     1     -12.172   2.745  24.313  1.00  0.00     0.015 C 
HETATM   20  C19 UNL     1     -14.464   1.713  24.513  1.00  0.00     0.010 C 
HETATM   21  C20 UNL     1     -14.472   1.637  26.053  1.00  0.00     0.011 C 
HETATM   22  C21 UNL     1     -14.929   2.955  26.778  1.00  0.00    -0.032 C 
HETATM   23  C22 UNL     1     -16.469   3.056  26.504  1.00  0.00     0.016 C 
HETATM   24  C23 UNL     1     -14.625   2.914  28.381  1.00  0.00    -0.032 C 
HETATM   25  C24 UNL     1     -13.106   2.662  28.622  1.00  0.00     0.016 C 
HETATM   26  C25 UNL     1     -15.391   1.754  29.076  1.00  0.00     0.011 C 
HETATM   27  C26 UNL     1     -15.333   1.792  30.604  1.00  0.00     0.007 C 
HETATM   28  C27 UNL     1     -15.906   3.106  31.162  1.00  0.00     0.009 C 
HETATM   29  O2  UNL     1     -14.246   5.318  21.383  1.00  0.00    -0.313 OA
HETATM   30  C28 UNL     1     -14.933   6.360  21.926  1.00  0.00     0.297 A 
HETATM   31  O3  UNL     1     -15.684   7.106  21.322  1.00  0.00    -0.262 OA
HETATM   32  C29 UNL     1     -14.581   6.471  23.350  1.00  0.00     0.175 A 
HETATM   33  C30 UNL     1     -14.578   7.815  24.039  1.00  0.00     0.218 A 
HETATM   34  O4  UNL     1     -15.618   6.851  24.259  1.00  0.00    -0.364 OA
ENDROOT
TORSDOF 0
ENDMDL
MODEL 6
REMARK minimizedAffinity -8.04456902
REMARK CNNscore 0.253213882
REMARK CNNaffinity 6.33369303
REMARK  0 active torsions:
REMARK  status: ('A' for Active; 'I' for Inactive)
ROOT
HETATM    1  C1  UNL     1      -6.186   6.132  14.892  1.00  0.00     0.023 C 
HETATM    2  C2  UNL     1      -4.976   6.818  14.222  1.00  0.00     0.017 C 
HETATM    3  C3  UNL     1      -5.464   7.412  12.887  1.00  0.00     0.023 C 
HETATM    4  C4  UNL     1      -3.953   5.712  13.937  1.00  0.00     0.135 C 
HETATM    5  O1  UNL     1      -3.997   5.013  12.924  1.00  0.00    -0.297 OA
HETATM    6  C5  UNL     1      -2.924   5.449  15.006  1.00  0.00     0.080 C 
HETATM    7  C6  UNL     1      -2.102   6.690  15.340  1.00  0.00     0.017 C 
HETATM    8  C7  UNL     1      -2.799   8.070  15.063  1.00  0.00    -0.035 C 
HETATM    9  C8  UNL     1      -2.388   8.485  13.630  1.00  0.00     0.016 C 
HETATM   10  C9  UNL     1      -2.306   9.102  16.169  1.00  0.00     0.003 C 
HETATM   11  C10 UNL     1      -0.786   9.368  16.151  1.00  0.00     0.006 C 
HETATM   12  C11 UNL     1      -0.301  10.132  17.386  1.00  0.00     0.006 C 
HETATM   13  C12 UNL     1      -1.064  11.441  17.610  1.00  0.00    -0.000 C 
HETATM   14  C13 UNL     1      -0.562  12.275  18.812  1.00  0.00     0.009 C 
HETATM   15  C14 UNL     1       0.932  12.627  18.960  1.00  0.00     0.067 A 
HETATM   16  C15 UNL     1       0.913  13.943  19.797  1.00  0.00     0.140 A 
HETATM   17  C16 UNL     1      -0.559  14.316  20.012  1.00  0.00     0.042 C 
HETATM   18  C17 UNL     1      -1.268  13.658  18.827  1.00  0.00    -0.037 C 
HETATM   19  C18 UNL     1      -1.025  14.530  17.567  1.00  0.00     0.015 C 
HETATM   20  C19 UNL     1      -2.774  13.451  19.029  1.00  0.00     0.010 C 
HETATM   21  C20 UNL     1      -3.376  12.558  17.926  1.00  0.00     0.011 C 
HETATM   22  C21 UNL     1      -2.630  11.194  17.696  1.00  0.00    -0.032 C 
HETATM   23  C22 UNL     1      -2.968  10.329  18.960  1.00  0.00     0.016 C 
HETATM   24  C23 UNL     1      -3.120  10.446  16.331  1.00  0.00    -0.032 C 
HETATM   25  C24 UNL     1      -2.909  11.390  15.109  1.00  0.00     0.016 C 
HETATM   26  C25 UNL     1      -4.634  10.103  16.381  1.00  0.00     0.011 C 
HETATM   27  C26 UNL     1      -5.112   9.205  15.239  1.00  0.00     0.007 C 
HETATM   28  C27 UNL     1      -4.350   7.868  15.210  1.00  0.00     0.009 C 
HETATM   29  O2  UNL     1       1.540  13.722  21.070  1.00  0.00    -0.313 OA
HETATM   30  C28 UNL     1       2.030  12.454  21.136  1.00  0.00     0.297 A 
HETATM   31  O3  UNL     1       2.638  11.977  22.079  1.00  0.00    -0.262 OA
HETATM   32  C29 UNL     1       1.753  11.770  19.864  1.00  0.00     0.175 A 
HETATM   33  C30 UNL     1       2.690  10.707  19.342  1.00  0.00     0.218 A 
HETATM   34  O4  UNL     1       1.419  10.380  19.921  1.00  0.00    -0.364 OA
ENDROOT
TORSDOF 0
ENDMDL
MODEL 7
REMARK minimizedAffinity -10.1427345
REMARK CNNscore 0.241699174
REMARK CNNaffinity 6.63960981
REMARK  0 active torsions:
REMARK  status: ('A' for Active; 'I' for Inactive)
ROOT
HETATM    1  C1  UNL     1       2.944  11.458  14.255  1.00  0.00     0.023 C 
HETATM    2  C2  UNL     1       2.619  10.222  15.122  1.00  0.00     0.017 C 
HETATM    3  C3  UNL     1       2.698  10.660  16.596  1.00  0.00     0.023 C 
HETATM    4  C4  UNL     1       3.720   9.193  14.842  1.00  0.00     0.135 C 
HETATM    5  O1  UNL     1       4.802   9.203  15.430  1.00  0.00    -0.297 OA
HETATM    6  C5  UNL     1       3.458   8.204  13.736  1.00  0.00     0.080 C 
HETATM    7  C6  UNL     1       2.190   7.390  13.971  1.00  0.00     0.017 C 
HETATM    8  C7  UNL     1       1.093   8.073  14.865  1.00  0.00    -0.035 C 
HETATM    9  C8  UNL     1       1.364   7.609  16.316  1.00  0.00     0.016 C 
HETATM   10  C9  UNL     1      -0.334   7.616  14.329  1.00  0.00     0.003 C 
HETATM   11  C10 UNL     1      -0.583   6.095  14.414  1.00  0.00     0.006 C 
HETATM   12  C11 UNL     1      -1.828   5.652  13.642  1.00  0.00     0.006 C 
HETATM   13  C12 UNL     1      -3.088   6.418  14.060  1.00  0.00    -0.000 C 
HETATM   14  C13 UNL     1      -4.381   5.957  13.348  1.00  0.00     0.009 C 
HETATM   15  C14 UNL     1      -4.782   4.468  13.325  1.00  0.00     0.067 A 
HETATM   16  C15 UNL     1      -6.334   4.513  13.175  1.00  0.00     0.140 A 
HETATM   17  C16 UNL     1      -6.745   5.990  13.201  1.00  0.00     0.042 C 
HETATM   18  C17 UNL     1      -5.612   6.658  13.984  1.00  0.00    -0.037 C 
HETATM   19  C18 UNL     1      -5.824   6.368  15.493  1.00  0.00     0.015 C 
HETATM   20  C19 UNL     1      -5.499   8.171  13.760  1.00  0.00     0.010 C 
HETATM   21  C20 UNL     1      -4.196   8.737  14.361  1.00  0.00     0.011 C 
HETATM   22  C21 UNL     1      -2.886   7.988  13.924  1.00  0.00    -0.032 C 
HETATM   23  C22 UNL     1      -2.680   8.373  12.418  1.00  0.00     0.016 C 
HETATM   24  C23 UNL     1      -1.595   8.430  14.820  1.00  0.00    -0.032 C 
HETATM   25  C24 UNL     1      -1.888   8.173  16.328  1.00  0.00     0.016 C 
HETATM   26  C25 UNL     1      -1.292   9.947  14.670  1.00  0.00     0.011 C 
HETATM   27  C26 UNL     1       0.032  10.386  15.299  1.00  0.00     0.007 C 
HETATM   28  C27 UNL     1       1.227   9.629  14.695  1.00  0.00     0.009 C 
HETATM   29  O2  UNL     1      -6.719   3.933  11.919  1.00  0.00    -0.313 OA
HETATM   30  C28 UNL     1      -5.624   3.449  11.271  1.00  0.00     0.297 A 
HETATM   31  O3  UNL     1      -5.633   2.877  10.194  1.00  0.00    -0.262 OA
HETATM   32  C29 UNL     1      -4.436   3.684  12.105  1.00  0.00     0.175 A 
HETATM   33  C30 UNL     1      -3.265   2.732  12.059  1.00  0.00     0.218 A 
HETATM   34  O4  UNL     1      -3.217   4.024  11.437  1.00  0.00    -0.364 OA
ENDROOT
TORSDOF 0
ENDMDL
MODEL 8
REMARK minimizedAffinity -6.59212255
REMARK CNNscore 0.231342793
REMARK CNNaffinity 6.08432007
REMARK  0 active torsions:
REMARK  status: ('A' for Active; 'I' for Inactive)
ROOT
HETATM    1  C1  UNL     1     -17.197  -5.304  29.679  1.00  0.00     0.023 C 
HETATM    2  C2  UNL     1     -15.751  -5.607  30.131  1.00  0.00     0.017 C 
HETATM    3  C3  UNL     1     -15.633  -5.184  31.607  1.00  0.00     0.023 C 
HETATM    4  C4  UNL     1     -14.835  -4.722  29.279  1.00  0.00     0.135 C 
HETATM    5  O1  UNL     1     -14.581  -3.553  29.572  1.00  0.00    -0.297 OA
HETATM    6  C5  UNL     1     -14.318  -5.320  27.996  1.00  0.00     0.080 C 
HETATM    7  C6  UNL     1     -13.538  -6.610  28.228  1.00  0.00     0.017 C 
HETATM    8  C7  UNL     1     -13.913  -7.413  29.525  1.00  0.00    -0.035 C 
HETATM    9  C8  UNL     1     -12.951  -6.924  30.633  1.00  0.00     0.016 C 
HETATM   10  C9  UNL     1     -13.749  -8.965  29.207  1.00  0.00     0.003 C 
HETATM   11  C10 UNL     1     -12.311  -9.383  28.832  1.00  0.00     0.006 C 
HETATM   12  C11 UNL     1     -12.235 -10.802  28.263  1.00  0.00     0.006 C 
HETATM   13  C12 UNL     1     -12.865 -11.847  29.190  1.00  0.00    -0.000 C 
HETATM   14  C13 UNL     1     -12.752 -13.303  28.680  1.00  0.00     0.009 C 
HETATM   15  C14 UNL     1     -11.390 -13.886  28.251  1.00  0.00     0.067 A 
HETATM   16  C15 UNL     1     -11.564 -15.419  28.484  1.00  0.00     0.140 A 
HETATM   17  C16 UNL     1     -12.954 -15.626  29.097  1.00  0.00     0.042 C 
HETATM   18  C17 UNL     1     -13.243 -14.286  29.777  1.00  0.00    -0.037 C 
HETATM   19  C18 UNL     1     -12.447 -14.232  31.108  1.00  0.00     0.015 C 
HETATM   20  C19 UNL     1     -14.729 -14.027  30.055  1.00  0.00     0.010 C 
HETATM   21  C20 UNL     1     -14.978 -12.571  30.495  1.00  0.00     0.011 C 
HETATM   22  C21 UNL     1     -14.368 -11.478  29.545  1.00  0.00    -0.032 C 
HETATM   23  C22 UNL     1     -15.252 -11.525  28.251  1.00  0.00     0.016 C 
HETATM   24  C23 UNL     1     -14.398  -9.990  30.217  1.00  0.00    -0.032 C 
HETATM   25  C24 UNL     1     -13.637 -10.012  31.576  1.00  0.00     0.016 C 
HETATM   26  C25 UNL     1     -15.852  -9.533  30.520  1.00  0.00     0.011 C 
HETATM   27  C26 UNL     1     -15.972  -8.066  30.939  1.00  0.00     0.007 C 
HETATM   28  C27 UNL     1     -15.419  -7.119  29.860  1.00  0.00     0.009 C 
HETATM   29  O2  UNL     1     -11.487 -16.114  27.230  1.00  0.00    -0.313 OA
HETATM   30  C28 UNL     1     -11.211 -15.239  26.225  1.00  0.00     0.297 A 
HETATM   31  O3  UNL     1     -11.060 -15.531  25.051  1.00  0.00    -0.262 OA
HETATM   32  C29 UNL     1     -11.074 -13.890  26.794  1.00  0.00     0.175 A 
HETATM   33  C30 UNL     1     -10.143 -12.881  26.165  1.00  0.00     0.218 A 
HETATM   34  O4  UNL     1     -11.567 -12.793  26.020  1.00  0.00    -0.364 OA
ENDROOT
TORSDOF 0
ENDMDL
MODEL 9
REMARK minimizedAffinity -6.17999983
REMARK CNNscore 0.196568102
REMARK CNNaffinity 5.83284569
REMARK  0 active torsions:
REMARK  status: ('A' for Active; 'I' for Inactive)
ROOT
HETATM    1  C1  UNL     1      -6.711 -12.679   0.149  1.00  0.00     0.023 C 
HETATM    2  C2  UNL     1      -6.559 -12.378  -1.358  1.00  0.00     0.017 C 
HETATM    3  C3  UNL     1      -6.641 -13.722  -2.106  1.00  0.00     0.023 C 
HETATM    4  C4  UNL     1      -5.159 -11.783  -1.543  1.00  0.00     0.135 C 
HETATM    5  O1  UNL     1      -4.154 -12.481  -1.678  1.00  0.00    -0.297 OA
HETATM    6  C5  UNL     1      -5.045 -10.282  -1.463  1.00  0.00     0.080 C 
HETATM    7  C6  UNL     1      -5.928  -9.576  -2.488  1.00  0.00     0.017 C 
HETATM    8  C7  UNL     1      -7.195 -10.372  -2.965  1.00  0.00    -0.035 C 
HETATM    9  C8  UNL     1      -6.769 -11.148  -4.234  1.00  0.00     0.016 C 
HETATM   10  C9  UNL     1      -8.359  -9.323  -3.246  1.00  0.00     0.003 C 
HETATM   11  C10 UNL     1      -8.035  -8.305  -4.360  1.00  0.00     0.006 C 
HETATM   12  C11 UNL     1      -9.035  -7.147  -4.418  1.00  0.00     0.006 C 
HETATM   13  C12 UNL     1     -10.486  -7.625  -4.542  1.00  0.00    -0.000 C 
HETATM   14  C13 UNL     1     -11.524  -6.484  -4.666  1.00  0.00     0.009 C 
HETATM   15  C14 UNL     1     -11.353  -5.372  -5.722  1.00  0.00     0.067 A 
HETATM   16  C15 UNL     1     -12.814  -4.895  -5.985  1.00  0.00     0.140 A 
HETATM   17  C16 UNL     1     -13.736  -5.791  -5.148  1.00  0.00     0.042 C 
HETATM   18  C17 UNL     1     -12.924  -7.077  -4.982  1.00  0.00    -0.037 C 
HETATM   19  C18 UNL     1     -13.010  -7.884  -6.304  1.00  0.00     0.015 C 
HETATM   20  C19 UNL     1     -13.372  -7.957  -3.809  1.00  0.00     0.010 C 
HETATM   21  C20 UNL     1     -12.364  -9.092  -3.535  1.00  0.00     0.011 C 
HETATM   22  C21 UNL     1     -10.871  -8.627  -3.372  1.00  0.00    -0.032 C 
HETATM   23  C22 UNL     1     -10.825  -7.883  -1.993  1.00  0.00     0.016 C 
HETATM   24  C23 UNL     1      -9.828  -9.882  -3.392  1.00  0.00    -0.032 C 
HETATM   25  C24 UNL     1     -10.002 -10.690  -4.713  1.00  0.00     0.016 C 
HETATM   26  C25 UNL     1     -10.101 -10.866  -2.221  1.00  0.00     0.011 C 
HETATM   27  C26 UNL     1      -9.027 -11.942  -2.043  1.00  0.00     0.007 C 
HETATM   28  C27 UNL     1      -7.640 -11.324  -1.797  1.00  0.00     0.009 C 
HETATM   29  O2  UNL     1     -12.965  -3.531  -5.564  1.00  0.00    -0.313 OA
HETATM   30  C28 UNL     1     -11.772  -3.039  -5.133  1.00  0.00     0.297 A 
HETATM   31  O3  UNL     1     -11.574  -1.902  -4.738  1.00  0.00    -0.262 OA
HETATM   32  C29 UNL     1     -10.748  -4.086  -5.271  1.00  0.00     0.175 A 
HETATM   33  C30 UNL     1      -9.311  -3.723  -5.555  1.00  0.00     0.218 A 
HETATM   34  O4  UNL     1      -9.740  -4.161  -4.258  1.00  0.00    -0.364 OA
ENDROOT
TORSDOF 0
ENDMDL
