MODEL 1
REMARK minimizedAffinity -8.30177784
REMARK CNNscore 0.713200629
REMARK CNNaffinity 6.99972343
REMARK  11 active torsions:
REMARK  status: ('A' for Active; 'I' for Inactive)
REMARK    1  A    between atoms: C2_2  and  O2_4 
REMARK    2  A    between atoms: O2_4  and  C3_5 
REMARK    3  A    between atoms: C4_6  and  O3_7 
REMARK    4  A    between atoms: O3_7  and  C5_8 
REMARK    5  A    between atoms: C15_18  and  C16_19 
REMARK    6  A    between atoms: C20_23  and  C21_24 
REMARK    7  A    between atoms: C21_24  and  O4_27 
REMARK    8  A    between atoms: C24_29  and  O6_30 
REMARK    9  A    between atoms: C30_36  and  O7_37 
REMARK   10  A    between atoms: C36_44  and  O9_45 
REMARK   11  A    between atoms: C37_46  and  O10_47 
ROOT
HETATM    1  C5  UNL     1       1.019  52.662 -11.981  1.00  0.00     0.133 C 
HETATM    2  C6  UNL     1      -0.168  53.384 -11.340  1.00  0.00     0.034 C 
HETATM    3  C7  UNL     1       0.270  54.526 -10.438  1.00  0.00     0.013 C 
HETATM    4  C8  UNL     1       1.301  54.109  -9.412  1.00  0.00    -0.025 A 
HETATM    5  C9  UNL     1       0.903  53.820  -7.993  1.00  0.00     0.021 A 
HETATM    6  C10 UNL     1       1.641  55.120  -8.293  1.00  0.00    -0.027 A 
HETATM    7  C11 UNL     1       0.811  56.367  -8.029  1.00  0.00     0.011 C 
HETATM    8  C12 UNL     1       1.074  57.020  -6.650  1.00  0.00     0.011 C 
HETATM    9  C13 UNL     1       2.403  56.599  -5.987  1.00  0.00    -0.028 C 
HETATM   10  C14 UNL     1       2.187  55.268  -5.213  1.00  0.00     0.016 C 
HETATM   11  C15 UNL     1       3.060  57.642  -5.016  1.00  0.00     0.057 C 
HETATM   12  C24 UNL     1       4.578  57.251  -5.057  1.00  0.00     0.126 C 
HETATM   13  C25 UNL     1       4.770  56.316  -6.277  1.00  0.00     0.042 C 
HETATM   14  C26 UNL     1       3.495  56.493  -7.123  1.00  0.00    -0.029 C 
HETATM   15  C27 UNL     1       3.700  57.815  -7.943  1.00  0.00     0.016 C 
HETATM   16  C28 UNL     1       3.170  55.283  -8.075  1.00  0.00     0.006 C 
HETATM   17  C29 UNL     1       3.859  55.384  -9.463  1.00  0.00     0.038 C 
HETATM   18  C30 UNL     1       3.623  54.182 -10.397  1.00  0.00     0.124 C 
HETATM   19  C31 UNL     1       2.473  53.261  -9.938  1.00  0.00     0.034 C 
HETATM   20  C32 UNL     1       2.010  52.125 -10.908  1.00  0.00    -0.015 C 
HETATM   21  C33 UNL     1       1.344  51.001 -10.063  1.00  0.00     0.018 C 
HETATM   22  C34 UNL     1       3.217  51.465 -11.613  1.00  0.00     0.018 C 
ENDROOT
BRANCH   1  23
HETATM   23  O3  UNL     1       0.527  51.550 -12.740  1.00  0.00    -0.352 OA
BRANCH  23  24
HETATM   24  C4  UNL     1      -0.379  51.909 -13.792  1.00  0.00     0.292 C 
HETATM   25  C3  UNL     1       0.331  51.555 -15.125  1.00  0.00     0.218 C 
HETATM   26  C37 UNL     1      -0.670  51.288 -16.264  1.00  0.00     0.183 C 
HETATM   27  C36 UNL     1      -1.855  50.409 -15.820  1.00  0.00     0.173 C 
HETATM   28  C35 UNL     1      -1.809  50.091 -14.327  1.00  0.00     0.205 C 
HETATM   29  O8  UNL     1      -1.644  51.291 -13.585  1.00  0.00    -0.356 OA
BRANCH  25  30
HETATM   30  O2  UNL     1       1.196  52.696 -15.425  1.00  0.00    -0.309 OA
BRANCH  30  31
HETATM   31  C2  UNL     1       2.166  52.537 -16.355  1.00  0.00     0.255 C 
HETATM   32  C1  UNL     1       3.513  52.408 -15.709  1.00  0.00     0.126 C 
HETATM   33  O1  UNL     1       1.972  52.494 -17.561  1.00  0.00    -0.266 OA
ENDBRANCH  30  31
ENDBRANCH  25  30
BRANCH  26  34
HETATM   34  O10 UNL     1      -0.044  50.588 -17.362  1.00  0.00    -0.390 OA
HETATM   35  H60 UNL     1       0.894  50.864 -17.429  1.00  0.00     0.210 HD
ENDBRANCH  26  34
BRANCH  27  36
HETATM   36  O9  UNL     1      -3.069  51.119 -16.125  1.00  0.00    -0.391 OA
HETATM   37  H58 UNL     1      -3.816  50.533 -15.915  1.00  0.00     0.210 HD
ENDBRANCH  27  36
ENDBRANCH  23  24
ENDBRANCH   1  23
BRANCH  18  38
HETATM   38  O7  UNL     1       3.442  54.658 -11.728  1.00  0.00    -0.395 OA
HETATM   39  H47 UNL     1       2.723  55.312 -11.722  1.00  0.00     0.210 HD
ENDBRANCH  18  38
BRANCH  11  40
HETATM   40  C16 UNL     1       2.443  58.017  -3.634  1.00  0.00     0.065 C 
HETATM   41  C17 UNL     1       3.125  59.134  -2.822  1.00  0.00     0.046 C 
HETATM   42  C18 UNL     1       2.241  56.779  -2.758  1.00  0.00     0.041 C 
HETATM   43  C19 UNL     1       1.025  57.109  -1.920  1.00  0.00     0.038 C 
HETATM   44  C20 UNL     1       0.235  58.106  -2.768  1.00  0.00     0.156 C 
HETATM   45  O5  UNL     1       1.079  58.440  -3.896  1.00  0.00    -0.372 OA
BRANCH  44  46
HETATM   46  C21 UNL     1      -1.128  57.608  -3.311  1.00  0.00     0.076 C 
HETATM   47  C22 UNL     1      -2.279  58.440  -2.725  1.00  0.00     0.048 C 
HETATM   48  C23 UNL     1      -1.367  56.128  -3.009  1.00  0.00     0.048 C 
BRANCH  46  49
HETATM   49  O4  UNL     1      -1.160  57.783  -4.735  1.00  0.00    -0.388 OA
HETATM   50  H35 UNL     1      -0.886  58.711  -4.876  1.00  0.00     0.210 HD
ENDBRANCH  46  49
ENDBRANCH  44  46
ENDBRANCH  11  40
BRANCH  12  51
HETATM   51  O6  UNL     1       5.043  56.579  -3.902  1.00  0.00    -0.395 OA
HETATM   52  H37 UNL     1       6.003  56.457  -4.000  1.00  0.00     0.210 HD
ENDBRANCH  12  51
TORSDOF 11
ENDMDL
MODEL 2
REMARK minimizedAffinity -9.67691326
REMARK CNNscore 0.663824916
REMARK CNNaffinity 7.75197172
REMARK  11 active torsions:
REMARK  status: ('A' for Active; 'I' for Inactive)
REMARK    1  A    between atoms: C2_2  and  O2_4 
REMARK    2  A    between atoms: O2_4  and  C3_5 
REMARK    3  A    between atoms: C4_6  and  O3_7 
REMARK    4  A    between atoms: O3_7  and  C5_8 
REMARK    5  A    between atoms: C15_18  and  C16_19 
REMARK    6  A    between atoms: C20_23  and  C21_24 
REMARK    7  A    between atoms: C21_24  and  O4_27 
REMARK    8  A    between atoms: C24_29  and  O6_30 
REMARK    9  A    between atoms: C30_36  and  O7_37 
REMARK   10  A    between atoms: C36_44  and  O9_45 
REMARK   11  A    between atoms: C37_46  and  O10_47 
ROOT
HETATM    1  C5  UNL     1      -1.613  49.900 -21.893  1.00  0.00     0.133 C 
HETATM    2  C6  UNL     1      -0.415  49.158 -21.298  1.00  0.00     0.034 C 
HETATM    3  C7  UNL     1      -0.552  48.949 -19.799  1.00  0.00     0.013 C 
HETATM    4  C8  UNL     1      -0.857  50.227 -19.048  1.00  0.00    -0.025 A 
HETATM    5  C9  UNL     1       0.227  50.976 -18.327  1.00  0.00     0.021 A 
HETATM    6  C10 UNL     1      -0.781  50.182 -17.504  1.00  0.00    -0.027 A 
HETATM    7  C11 UNL     1      -0.165  49.018 -16.744  1.00  0.00     0.011 C 
HETATM    8  C12 UNL     1       0.167  49.335 -15.266  1.00  0.00     0.011 C 
HETATM    9  C13 UNL     1      -0.569  50.565 -14.695  1.00  0.00    -0.028 C 
HETATM   10  C14 UNL     1       0.231  51.849 -15.055  1.00  0.00     0.016 C 
HETATM   11  C15 UNL     1      -0.841  50.563 -13.150  1.00  0.00     0.057 C 
HETATM   12  C24 UNL     1      -2.089  51.503 -13.012  1.00  0.00     0.126 C 
HETATM   13  C25 UNL     1      -2.682  51.675 -14.433  1.00  0.00     0.042 C 
HETATM   14  C26 UNL     1      -2.038  50.559 -15.275  1.00  0.00    -0.029 C 
HETATM   15  C27 UNL     1      -2.848  49.254 -14.957  1.00  0.00     0.016 C 
HETATM   16  C28 UNL     1      -2.010  50.843 -16.823  1.00  0.00     0.006 C 
HETATM   17  C29 UNL     1      -3.294  50.378 -17.561  1.00  0.00     0.038 C 
HETATM   18  C30 UNL     1      -3.335  50.704 -19.067  1.00  0.00     0.124 C 
HETATM   19  C31 UNL     1      -1.964  51.114 -19.646  1.00  0.00     0.034 C 
HETATM   20  C32 UNL     1      -1.840  51.273 -21.197  1.00  0.00    -0.015 C 
HETATM   21  C33 UNL     1      -0.658  52.239 -21.497  1.00  0.00     0.018 C 
HETATM   22  C34 UNL     1      -3.098  51.946 -21.792  1.00  0.00     0.018 C 
ENDROOT
BRANCH   1  23
HETATM   23  O3  UNL     1      -1.366  50.133 -23.286  1.00  0.00    -0.352 OA
BRANCH  23  24
HETATM   24  C4  UNL     1      -2.553  50.286 -24.077  1.00  0.00     0.292 C 
HETATM   25  C3  UNL     1      -2.103  50.902 -25.428  1.00  0.00     0.218 C 
HETATM   26  C37 UNL     1      -3.076  50.565 -26.573  1.00  0.00     0.183 C 
HETATM   27  C36 UNL     1      -3.520  49.089 -26.562  1.00  0.00     0.173 C 
HETATM   28  C35 UNL     1      -2.965  48.330 -25.358  1.00  0.00     0.205 C 
HETATM   29  O8  UNL     1      -3.248  49.048 -24.166  1.00  0.00    -0.356 OA
BRANCH  25  30
HETATM   30  O2  UNL     1      -2.023  52.343 -25.196  1.00  0.00    -0.309 OA
BRANCH  30  31
HETATM   31  C2  UNL     1      -0.827  52.954 -25.365  1.00  0.00     0.255 C 
HETATM   32  C1  UNL     1       0.250  51.953 -25.655  1.00  0.00     0.126 C 
HETATM   33  O1  UNL     1      -0.649  54.162 -25.300  1.00  0.00    -0.266 OA
ENDBRANCH  30  31
ENDBRANCH  25  30
BRANCH  26  34
HETATM   34  O10 UNL     1      -2.469  50.789 -27.864  1.00  0.00    -0.390 OA
HETATM   35  H60 UNL     1      -1.841  51.539 -27.801  1.00  0.00     0.210 HD
ENDBRANCH  26  34
BRANCH  27  36
HETATM   36  O9  UNL     1      -4.958  49.061 -26.531  1.00  0.00    -0.391 OA
HETATM   37  H58 UNL     1      -5.237  48.132 -26.600  1.00  0.00     0.210 HD
ENDBRANCH  27  36
ENDBRANCH  23  24
ENDBRANCH   1  23
BRANCH  18  38
HETATM   38  O7  UNL     1      -3.915  49.605 -19.764  1.00  0.00    -0.395 OA
HETATM   39  H47 UNL     1      -3.415  48.803 -19.537  1.00  0.00     0.210 HD
ENDBRANCH  18  38
BRANCH  11  40
HETATM   40  C16 UNL     1       0.294  50.701 -12.090  1.00  0.00     0.065 C 
HETATM   41  C17 UNL     1      -0.078  50.503 -10.609  1.00  0.00     0.046 C 
HETATM   42  C18 UNL     1       1.068  52.008 -12.267  1.00  0.00     0.041 C 
HETATM   43  C19 UNL     1       2.472  51.676 -11.811  1.00  0.00     0.038 C 
HETATM   44  C20 UNL     1       2.608  50.173 -12.054  1.00  0.00     0.156 C 
HETATM   45  O5  UNL     1       1.291  49.699 -12.426  1.00  0.00    -0.372 OA
BRANCH  44  46
HETATM   46  C21 UNL     1       3.608  49.750 -13.160  1.00  0.00     0.076 C 
HETATM   47  C22 UNL     1       3.642  50.796 -14.284  1.00  0.00     0.048 C 
HETATM   48  C23 UNL     1       3.273  48.380 -13.752  1.00  0.00     0.048 C 
BRANCH  46  49
HETATM   49  O4  UNL     1       4.928  49.684 -12.601  1.00  0.00    -0.388 OA
HETATM   50  H35 UNL     1       5.043  50.537 -12.137  1.00  0.00     0.210 HD
ENDBRANCH  46  49
ENDBRANCH  44  46
ENDBRANCH  11  40
BRANCH  12  51
HETATM   51  O6  UNL     1      -1.802  52.785 -12.488  1.00  0.00    -0.395 OA
HETATM   52  H37 UNL     1      -2.648  53.251 -12.373  1.00  0.00     0.210 HD
ENDBRANCH  12  51
TORSDOF 11
ENDMDL
MODEL 3
REMARK minimizedAffinity -9.36876774
REMARK CNNscore 0.642160058
REMARK CNNaffinity 6.3162961
REMARK  11 active torsions:
REMARK  status: ('A' for Active; 'I' for Inactive)
REMARK    1  A    between atoms: C2_2  and  O2_4 
REMARK    2  A    between atoms: O2_4  and  C3_5 
REMARK    3  A    between atoms: C4_6  and  O3_7 
REMARK    4  A    between atoms: O3_7  and  C5_8 
REMARK    5  A    between atoms: C15_18  and  C16_19 
REMARK    6  A    between atoms: C20_23  and  C21_24 
REMARK    7  A    between atoms: C21_24  and  O4_27 
REMARK    8  A    between atoms: C24_29  and  O6_30 
REMARK    9  A    between atoms: C30_36  and  O7_37 
REMARK   10  A    between atoms: C36_44  and  O9_45 
REMARK   11  A    between atoms: C37_46  and  O10_47 
ROOT
HETATM    1  C5  UNL     1       6.345  65.365 -35.976  1.00  0.00     0.133 C 
HETATM    2  C6  UNL     1       4.903  64.947 -35.679  1.00  0.00     0.034 C 
HETATM    3  C7  UNL     1       3.929  65.450 -36.731  1.00  0.00     0.013 C 
HETATM    4  C8  UNL     1       4.047  66.937 -36.985  1.00  0.00    -0.025 A 
HETATM    5  C9  UNL     1       3.081  67.905 -36.364  1.00  0.00     0.021 A 
HETATM    6  C10 UNL     1       2.953  67.602 -37.852  1.00  0.00    -0.027 A 
HETATM    7  C11 UNL     1       1.655  66.899 -38.221  1.00  0.00     0.011 C 
HETATM    8  C12 UNL     1       0.549  67.848 -38.742  1.00  0.00     0.011 C 
HETATM    9  C13 UNL     1       1.062  69.222 -39.225  1.00  0.00    -0.028 C 
HETATM   10  C14 UNL     1       1.180  70.178 -38.005  1.00  0.00     0.016 C 
HETATM   11  C15 UNL     1       0.214  69.933 -40.337  1.00  0.00     0.057 C 
HETATM   12  C24 UNL     1       1.264  70.863 -41.037  1.00  0.00     0.126 C 
HETATM   13  C25 UNL     1       2.665  70.382 -40.585  1.00  0.00     0.042 C 
HETATM   14  C26 UNL     1       2.432  68.988 -39.973  1.00  0.00    -0.029 C 
HETATM   15  C27 UNL     1       2.342  67.993 -41.183  1.00  0.00     0.016 C 
HETATM   16  C28 UNL     1       3.537  68.532 -38.950  1.00  0.00     0.006 C 
HETATM   17  C29 UNL     1       4.741  67.813 -39.616  1.00  0.00     0.038 C 
HETATM   18  C30 UNL     1       5.878  67.416 -38.654  1.00  0.00     0.124 C 
HETATM   19  C31 UNL     1       5.476  67.480 -37.166  1.00  0.00     0.034 C 
HETATM   20  C32 UNL     1       6.478  66.909 -36.109  1.00  0.00    -0.015 C 
HETATM   21  C33 UNL     1       6.197  67.601 -34.745  1.00  0.00     0.018 C 
HETATM   22  C34 UNL     1       7.937  67.267 -36.473  1.00  0.00     0.018 C 
ENDROOT
BRANCH   1  23
HETATM   23  O3  UNL     1       7.183  64.929 -34.898  1.00  0.00    -0.352 OA
BRANCH  23  24
HETATM   24  C4  UNL     1       7.888  63.707 -35.156  1.00  0.00     0.292 C 
HETATM   25  C3  UNL     1       8.482  63.247 -33.799  1.00  0.00     0.218 C 
HETATM   26  C37 UNL     1       8.711  61.725 -33.751  1.00  0.00     0.183 C 
HETATM   27  C36 UNL     1       7.529  60.926 -34.332  1.00  0.00     0.173 C 
HETATM   28  C35 UNL     1       6.447  61.837 -34.909  1.00  0.00     0.205 C 
HETATM   29  O8  UNL     1       7.033  62.772 -35.803  1.00  0.00    -0.356 OA
BRANCH  25  30
HETATM   30  O2  UNL     1       9.734  63.985 -33.646  1.00  0.00    -0.309 OA
BRANCH  30  31
HETATM   31  C2  UNL     1      10.897  63.294 -33.702  1.00  0.00     0.255 C 
HETATM   32  C1  UNL     1      11.423  63.243 -35.105  1.00  0.00     0.126 C 
HETATM   33  O1  UNL     1      11.452  62.788 -32.737  1.00  0.00    -0.266 OA
ENDBRANCH  30  31
ENDBRANCH  25  30
BRANCH  26  34
HETATM   34  O10 UNL     1       8.878  61.259 -32.394  1.00  0.00    -0.390 OA
HETATM   35  H60 UNL     1       9.317  61.957 -31.863  1.00  0.00     0.210 HD
ENDBRANCH  26  34
BRANCH  27  36
HETATM   36  O9  UNL     1       8.041  60.069 -35.367  1.00  0.00    -0.391 OA
HETATM   37  H58 UNL     1       7.309  59.512 -35.681  1.00  0.00     0.210 HD
ENDBRANCH  27  36
ENDBRANCH  23  24
ENDBRANCH   1  23
BRANCH  18  38
HETATM   38  O7  UNL     1       6.376  66.134 -39.030  1.00  0.00    -0.395 OA
HETATM   39  H47 UNL     1       5.629  65.512 -39.052  1.00  0.00     0.210 HD
ENDBRANCH  18  38
BRANCH  11  40
HETATM   40  C16 UNL     1      -1.210  70.512 -40.076  1.00  0.00     0.065 C 
HETATM   41  C17 UNL     1      -2.376  69.959 -40.916  1.00  0.00     0.046 C 
HETATM   42  C18 UNL     1      -1.208  72.041 -40.122  1.00  0.00     0.041 C 
HETATM   43  C19 UNL     1      -2.292  72.444 -39.145  1.00  0.00     0.038 C 
HETATM   44  C20 UNL     1      -2.363  71.286 -38.150  1.00  0.00     0.156 C 
HETATM   45  O5  UNL     1      -1.512  70.241 -38.681  1.00  0.00    -0.372 OA
BRANCH  44  46
HETATM   46  C21 UNL     1      -1.902  71.601 -36.705  1.00  0.00     0.076 C 
HETATM   47  C22 UNL     1      -1.392  70.328 -36.011  1.00  0.00     0.048 C 
HETATM   48  C23 UNL     1      -3.016  72.226 -35.863  1.00  0.00     0.048 C 
BRANCH  46  49
HETATM   49  O4  UNL     1      -0.806  72.527 -36.751  1.00  0.00    -0.388 OA
HETATM   50  H35 UNL     1      -0.178  72.135 -37.391  1.00  0.00     0.210 HD
ENDBRANCH  46  49
ENDBRANCH  44  46
ENDBRANCH  11  40
BRANCH  12  51
HETATM   51  O6  UNL     1       1.138  72.235 -40.718  1.00  0.00    -0.395 OA
HETATM   52  H37 UNL     1       1.779  72.723 -41.262  1.00  0.00     0.210 HD
ENDBRANCH  12  51
TORSDOF 11
ENDMDL
MODEL 4
REMARK minimizedAffinity -8.92527199
REMARK CNNscore 0.630718589
REMARK CNNaffinity 7.35563231
REMARK  11 active torsions:
REMARK  status: ('A' for Active; 'I' for Inactive)
REMARK    1  A    between atoms: C2_2  and  O2_4 
REMARK    2  A    between atoms: O2_4  and  C3_5 
REMARK    3  A    between atoms: C4_6  and  O3_7 
REMARK    4  A    between atoms: O3_7  and  C5_8 
REMARK    5  A    between atoms: C15_18  and  C16_19 
REMARK    6  A    between atoms: C20_23  and  C21_24 
REMARK    7  A    between atoms: C21_24  and  O4_27 
REMARK    8  A    between atoms: C24_29  and  O6_30 
REMARK    9  A    between atoms: C30_36  and  O7_37 
REMARK   10  A    between atoms: C36_44  and  O9_45 
REMARK   11  A    between atoms: C37_46  and  O10_47 
ROOT
HETATM    1  C5  UNL     1      -2.061  50.692 -23.610  1.00  0.00     0.133 C 
HETATM    2  C6  UNL     1      -2.414  49.291 -24.112  1.00  0.00     0.034 C 
HETATM    3  C7  UNL     1      -3.692  48.758 -23.484  1.00  0.00     0.013 C 
HETATM    4  C8  UNL     1      -3.686  48.835 -21.973  1.00  0.00    -0.025 A 
HETATM    5  C9  UNL     1      -3.379  47.622 -21.141  1.00  0.00     0.021 A 
HETATM    6  C10 UNL     1      -4.823  48.107 -21.219  1.00  0.00    -0.027 A 
HETATM    7  C11 UNL     1      -5.761  47.119 -21.897  1.00  0.00     0.011 C 
HETATM    8  C12 UNL     1      -6.551  46.223 -20.913  1.00  0.00     0.011 C 
HETATM    9  C13 UNL     1      -6.612  46.759 -19.467  1.00  0.00    -0.028 C 
HETATM   10  C14 UNL     1      -5.333  46.312 -18.704  1.00  0.00     0.016 C 
HETATM   11  C15 UNL     1      -7.868  46.348 -18.622  1.00  0.00     0.057 C 
HETATM   12  C24 UNL     1      -7.971  47.501 -17.564  1.00  0.00     0.126 C 
HETATM   13  C25 UNL     1      -7.067  48.655 -18.065  1.00  0.00     0.042 C 
HETATM   14  C26 UNL     1      -6.781  48.327 -19.543  1.00  0.00    -0.029 C 
HETATM   15  C27 UNL     1      -8.045  48.799 -20.344  1.00  0.00     0.016 C 
HETATM   16  C28 UNL     1      -5.471  48.986 -20.115  1.00  0.00     0.006 C 
HETATM   17  C29 UNL     1      -5.693  50.412 -20.687  1.00  0.00     0.038 C 
HETATM   18  C30 UNL     1      -4.420  51.118 -21.191  1.00  0.00     0.124 C 
HETATM   19  C31 UNL     1      -3.217  50.169 -21.366  1.00  0.00     0.034 C 
HETATM   20  C32 UNL     1      -1.933  50.730 -22.060  1.00  0.00    -0.015 C 
HETATM   21  C33 UNL     1      -0.714  49.884 -21.592  1.00  0.00     0.018 C 
HETATM   22  C34 UNL     1      -1.640  52.179 -21.607  1.00  0.00     0.018 C 
ENDROOT
BRANCH   1  23
HETATM   23  O3  UNL     1      -0.805  51.083 -24.179  1.00  0.00    -0.352 OA
BRANCH  23  24
HETATM   24  C4  UNL     1      -0.892  52.172 -25.109  1.00  0.00     0.292 C 
HETATM   25  C3  UNL     1      -0.006  51.785 -26.322  1.00  0.00     0.218 C 
HETATM   26  C37 UNL     1      -0.453  52.489 -27.616  1.00  0.00     0.183 C 
HETATM   27  C36 UNL     1      -1.982  52.475 -27.804  1.00  0.00     0.173 C 
HETATM   28  C35 UNL     1      -2.703  51.851 -26.610  1.00  0.00     0.205 C 
HETATM   29  O8  UNL     1      -2.253  52.457 -25.407  1.00  0.00    -0.356 OA
BRANCH  25  30
HETATM   30  O2  UNL     1       1.358  52.158 -25.949  1.00  0.00    -0.309 OA
BRANCH  30  31
HETATM   31  C2  UNL     1       2.372  51.345 -26.327  1.00  0.00     0.255 C 
HETATM   32  C1  UNL     1       2.971  51.802 -27.623  1.00  0.00     0.126 C 
HETATM   33  O1  UNL     1       2.757  50.374 -25.692  1.00  0.00    -0.266 OA
ENDBRANCH  30  31
ENDBRANCH  25  30
BRANCH  26  34
HETATM   34  O10 UNL     1       0.097  51.842 -28.785  1.00  0.00    -0.390 OA
HETATM   35  H60 UNL     1       0.980  51.474 -28.567  1.00  0.00     0.210 HD
ENDBRANCH  26  34
BRANCH  27  36
HETATM   36  O9  UNL     1      -2.418  53.836 -27.973  1.00  0.00    -0.391 OA
HETATM   37  H58 UNL     1      -3.371  53.820 -28.166  1.00  0.00     0.210 HD
ENDBRANCH  27  36
ENDBRANCH  23  24
ENDBRANCH   1  23
BRANCH  18  38
HETATM   38  O7  UNL     1      -4.729  51.834 -22.384  1.00  0.00    -0.395 OA
HETATM   39  H47 UNL     1      -5.124  51.212 -23.018  1.00  0.00     0.210 HD
ENDBRANCH  18  38
BRANCH  11  40
HETATM   40  C16 UNL     1      -8.120  44.889 -18.133  1.00  0.00     0.065 C 
HETATM   41  C17 UNL     1      -9.306  44.121 -18.744  1.00  0.00     0.046 C 
HETATM   42  C18 UNL     1      -8.175  44.813 -16.606  1.00  0.00     0.041 C 
HETATM   43  C19 UNL     1      -7.636  43.437 -16.282  1.00  0.00     0.038 C 
HETATM   44  C20 UNL     1      -6.717  43.098 -17.455  1.00  0.00     0.156 C 
HETATM   45  O5  UNL     1      -6.913  44.142 -18.440  1.00  0.00    -0.372 OA
BRANCH  44  46
HETATM   46  C21 UNL     1      -5.204  43.011 -17.132  1.00  0.00     0.076 C 
HETATM   47  C22 UNL     1      -4.375  43.006 -18.425  1.00  0.00     0.048 C 
HETATM   48  C23 UNL     1      -4.857  41.774 -16.302  1.00  0.00     0.048 C 
BRANCH  46  49
HETATM   49  O4  UNL     1      -4.816  44.173 -16.383  1.00  0.00    -0.388 OA
HETATM   50  H35 UNL     1      -5.164  44.927 -16.899  1.00  0.00     0.210 HD
ENDBRANCH  46  49
ENDBRANCH  44  46
ENDBRANCH  11  40
BRANCH  12  51
HETATM   51  O6  UNL     1      -7.556  47.141 -16.261  1.00  0.00    -0.395 OA
HETATM   52  H37 UNL     1      -7.734  47.898 -15.677  1.00  0.00     0.210 HD
ENDBRANCH  12  51
TORSDOF 11
ENDMDL
MODEL 5
REMARK minimizedAffinity -9.46103096
REMARK CNNscore 0.600056171
REMARK CNNaffinity 7.26356268
REMARK  11 active torsions:
REMARK  status: ('A' for Active; 'I' for Inactive)
REMARK    1  A    between atoms: C2_2  and  O2_4 
REMARK    2  A    between atoms: O2_4  and  C3_5 
REMARK    3  A    between atoms: C4_6  and  O3_7 
REMARK    4  A    between atoms: O3_7  and  C5_8 
REMARK    5  A    between atoms: C15_18  and  C16_19 
REMARK    6  A    between atoms: C20_23  and  C21_24 
REMARK    7  A    between atoms: C21_24  and  O4_27 
REMARK    8  A    between atoms: C24_29  and  O6_30 
REMARK    9  A    between atoms: C30_36  and  O7_37 
REMARK   10  A    between atoms: C36_44  and  O9_45 
REMARK   11  A    between atoms: C37_46  and  O10_47 
ROOT
HETATM    1  C5  UNL     1      -2.505  50.293 -23.640  1.00  0.00     0.133 C 
HETATM    2  C6  UNL     1      -2.196  48.865 -23.186  1.00  0.00     0.034 C 
HETATM    3  C7  UNL     1      -3.424  48.153 -22.646  1.00  0.00     0.013 C 
HETATM    4  C8  UNL     1      -4.146  48.944 -21.577  1.00  0.00    -0.025 A 
HETATM    5  C9  UNL     1      -3.953  48.627 -20.121  1.00  0.00     0.021 A 
HETATM    6  C10 UNL     1      -5.263  48.222 -20.788  1.00  0.00    -0.027 A 
HETATM    7  C11 UNL     1      -5.474  46.717 -20.850  1.00  0.00     0.011 C 
HETATM    8  C12 UNL     1      -6.361  46.157 -19.712  1.00  0.00     0.011 C 
HETATM    9  C13 UNL     1      -7.232  47.215 -19.001  1.00  0.00    -0.028 C 
HETATM   10  C14 UNL     1      -6.391  47.898 -17.885  1.00  0.00     0.016 C 
HETATM   11  C15 UNL     1      -8.576  46.706 -18.373  1.00  0.00     0.057 C 
HETATM   12  C24 UNL     1      -9.464  47.998 -18.352  1.00  0.00     0.126 C 
HETATM   13  C25 UNL     1      -8.775  49.034 -19.274  1.00  0.00     0.042 C 
HETATM   14  C26 UNL     1      -7.756  48.223 -20.097  1.00  0.00    -0.029 C 
HETATM   15  C27 UNL     1      -8.572  47.547 -21.253  1.00  0.00     0.016 C 
HETATM   16  C28 UNL     1      -6.559  49.069 -20.671  1.00  0.00     0.006 C 
HETATM   17  C29 UNL     1      -6.859  49.708 -22.053  1.00  0.00     0.038 C 
HETATM   18  C30 UNL     1      -5.738  50.603 -22.615  1.00  0.00     0.124 C 
HETATM   19  C31 UNL     1      -4.389  50.432 -21.886  1.00  0.00     0.034 C 
HETATM   20  C32 UNL     1      -3.131  51.136 -22.493  1.00  0.00    -0.015 C 
HETATM   21  C33 UNL     1      -2.097  51.359 -21.352  1.00  0.00     0.018 C 
HETATM   22  C34 UNL     1      -3.482  52.544 -23.026  1.00  0.00     0.018 C 
ENDROOT
BRANCH   1  23
HETATM   23  O3  UNL     1      -1.284  50.922 -24.051  1.00  0.00    -0.352 OA
BRANCH  23  24
HETATM   24  C4  UNL     1      -1.000  50.800 -25.452  1.00  0.00     0.292 C 
HETATM   25  C3  UNL     1      -1.996  51.736 -26.185  1.00  0.00     0.218 C 
HETATM   26  C37 UNL     1      -1.459  52.202 -27.551  1.00  0.00     0.183 C 
HETATM   27  C36 UNL     1       0.022  52.622 -27.496  1.00  0.00     0.173 C 
HETATM   28  C35 UNL     1       0.637  52.385 -26.118  1.00  0.00     0.205 C 
HETATM   29  O8  UNL     1       0.378  51.053 -25.699  1.00  0.00    -0.356 OA
BRANCH  25  30
HETATM   30  O2  UNL     1      -3.230  50.964 -26.326  1.00  0.00    -0.309 OA
BRANCH  30  31
HETATM   31  C2  UNL     1      -3.310  50.061 -27.331  1.00  0.00     0.255 C 
HETATM   32  C1  UNL     1      -3.379  48.664 -26.792  1.00  0.00     0.126 C 
HETATM   33  O1  UNL     1      -3.334  50.345 -28.520  1.00  0.00    -0.266 OA
ENDBRANCH  30  31
ENDBRANCH  25  30
BRANCH  26  34
HETATM   34  O10 UNL     1      -2.183  53.353 -28.037  1.00  0.00    -0.390 OA
HETATM   35  H60 UNL     1      -3.115  53.302 -27.736  1.00  0.00     0.210 HD
ENDBRANCH  26  34
BRANCH  27  36
HETATM   36  O9  UNL     1       0.735  51.855 -28.482  1.00  0.00    -0.391 OA
HETATM   37  H58 UNL     1       1.654  52.174 -28.498  1.00  0.00     0.210 HD
ENDBRANCH  27  36
ENDBRANCH  23  24
ENDBRANCH   1  23
BRANCH  18  38
HETATM   38  O7  UNL     1      -5.630  50.386 -24.019  1.00  0.00    -0.395 OA
HETATM   39  H47 UNL     1      -5.502  49.434 -24.171  1.00  0.00     0.210 HD
ENDBRANCH  18  38
BRANCH  11  40
HETATM   40  C16 UNL     1      -8.628  45.768 -17.128  1.00  0.00     0.065 C 
HETATM   41  C17 UNL     1     -10.003  45.234 -16.687  1.00  0.00     0.046 C 
HETATM   42  C18 UNL     1      -7.896  46.384 -15.934  1.00  0.00     0.041 C 
HETATM   43  C19 UNL     1      -7.350  45.192 -15.177  1.00  0.00     0.038 C 
HETATM   44  C20 UNL     1      -7.187  44.105 -16.238  1.00  0.00     0.156 C 
HETATM   45  O5  UNL     1      -7.797  44.620 -17.446  1.00  0.00    -0.372 OA
BRANCH  44  46
HETATM   46  C21 UNL     1      -5.730  43.690 -16.568  1.00  0.00     0.076 C 
HETATM   47  C22 UNL     1      -5.672  42.949 -17.912  1.00  0.00     0.048 C 
HETATM   48  C23 UNL     1      -5.116  42.811 -15.477  1.00  0.00     0.048 C 
BRANCH  46  49
HETATM   49  O4  UNL     1      -4.922  44.869 -16.697  1.00  0.00    -0.388 OA
HETATM   50  H35 UNL     1      -5.420  45.443 -17.313  1.00  0.00     0.210 HD
ENDBRANCH  46  49
ENDBRANCH  44  46
ENDBRANCH  11  40
BRANCH  12  51
HETATM   51  O6  UNL     1      -9.627  48.578 -17.072  1.00  0.00    -0.395 OA
HETATM   52  H37 UNL     1     -10.252  49.317 -17.162  1.00  0.00     0.210 HD
ENDBRANCH  12  51
TORSDOF 11
ENDMDL
MODEL 6
REMARK minimizedAffinity -9.256464
REMARK CNNscore 0.567863762
REMARK CNNaffinity 7.32737494
REMARK  11 active torsions:
REMARK  status: ('A' for Active; 'I' for Inactive)
REMARK    1  A    between atoms: C2_2  and  O2_4 
REMARK    2  A    between atoms: O2_4  and  C3_5 
REMARK    3  A    between atoms: C4_6  and  O3_7 
REMARK    4  A    between atoms: O3_7  and  C5_8 
REMARK    5  A    between atoms: C15_18  and  C16_19 
REMARK    6  A    between atoms: C20_23  and  C21_24 
REMARK    7  A    between atoms: C21_24  and  O4_27 
REMARK    8  A    between atoms: C24_29  and  O6_30 
REMARK    9  A    between atoms: C30_36  and  O7_37 
REMARK   10  A    between atoms: C36_44  and  O9_45 
REMARK   11  A    between atoms: C37_46  and  O10_47 
ROOT
HETATM    1  C5  UNL     1      -8.464  45.885 -22.715  1.00  0.00     0.133 C 
HETATM    2  C6  UNL     1      -8.106  46.643 -23.995  1.00  0.00     0.034 C 
HETATM    3  C7  UNL     1      -6.646  47.062 -24.027  1.00  0.00     0.013 C 
HETATM    4  C8  UNL     1      -6.217  47.812 -22.785  1.00  0.00    -0.025 A 
HETATM    5  C9  UNL     1      -6.116  49.311 -22.785  1.00  0.00     0.021 A 
HETATM    6  C10 UNL     1      -4.829  48.494 -22.807  1.00  0.00    -0.027 A 
HETATM    7  C11 UNL     1      -4.019  48.669 -24.082  1.00  0.00     0.011 C 
HETATM    8  C12 UNL     1      -2.872  49.702 -23.963  1.00  0.00     0.011 C 
HETATM    9  C13 UNL     1      -2.455  50.031 -22.514  1.00  0.00    -0.028 C 
HETATM   10  C14 UNL     1      -3.390  51.141 -21.956  1.00  0.00     0.016 C 
HETATM   11  C15 UNL     1      -0.966  50.476 -22.298  1.00  0.00     0.057 C 
HETATM   12  C24 UNL     1      -0.699  50.092 -20.802  1.00  0.00     0.126 C 
HETATM   13  C25 UNL     1      -1.844  49.143 -20.368  1.00  0.00     0.042 C 
HETATM   14  C26 UNL     1      -2.509  48.690 -21.682  1.00  0.00    -0.029 C 
HETATM   15  C27 UNL     1      -1.602  47.544 -22.253  1.00  0.00     0.016 C 
HETATM   16  C28 UNL     1      -3.998  48.208 -21.527  1.00  0.00     0.006 C 
HETATM   17  C29 UNL     1      -4.129  46.700 -21.180  1.00  0.00     0.038 C 
HETATM   18  C30 UNL     1      -5.570  46.207 -20.949  1.00  0.00     0.124 C 
HETATM   19  C31 UNL     1      -6.647  47.196 -21.441  1.00  0.00     0.034 C 
HETATM   20  C32 UNL     1      -8.136  46.720 -21.444  1.00  0.00    -0.015 C 
HETATM   21  C33 UNL     1      -9.052  47.975 -21.364  1.00  0.00     0.018 C 
HETATM   22  C34 UNL     1      -8.457  45.881 -20.185  1.00  0.00     0.018 C 
ENDROOT
BRANCH   1  23
HETATM   23  O3  UNL     1      -9.870  45.604 -22.723  1.00  0.00    -0.352 OA
BRANCH  23  24
HETATM   24  C4  UNL     1     -10.549  46.027 -23.914  1.00  0.00     0.292 C 
HETATM   25  C3  UNL     1     -11.219  44.762 -24.510  1.00  0.00     0.218 C 
HETATM   26  C37 UNL     1     -12.444  45.107 -25.377  1.00  0.00     0.183 C 
HETATM   27  C36 UNL     1     -13.352  46.170 -24.728  1.00  0.00     0.173 C 
HETATM   28  C35 UNL     1     -12.770  46.703 -23.420  1.00  0.00     0.205 C 
HETATM   29  O8  UNL     1     -11.425  47.110 -23.624  1.00  0.00    -0.356 OA
BRANCH  25  30
HETATM   30  O2  UNL     1     -10.178  44.095 -25.291  1.00  0.00    -0.309 OA
BRANCH  30  31
HETATM   31  C2  UNL     1     -10.048  44.422 -26.598  1.00  0.00     0.255 C 
HETATM   32  C1  UNL     1     -10.339  43.244 -27.477  1.00  0.00     0.126 C 
HETATM   33  O1  UNL     1      -9.744  45.533 -27.009  1.00  0.00    -0.266 OA
ENDBRANCH  30  31
ENDBRANCH  25  30
BRANCH  26  34
HETATM   34  O10 UNL     1     -13.279  43.949 -25.594  1.00  0.00    -0.390 OA
HETATM   35  H60 UNL     1     -12.718  43.145 -25.628  1.00  0.00     0.210 HD
ENDBRANCH  26  34
BRANCH  27  36
HETATM   36  O9  UNL     1     -13.505  47.250 -25.665  1.00  0.00    -0.391 OA
HETATM   37  H58 UNL     1     -14.137  47.884 -25.286  1.00  0.00     0.210 HD
ENDBRANCH  27  36
ENDBRANCH  23  24
ENDBRANCH   1  23
BRANCH  18  38
HETATM   38  O7  UNL     1      -5.715  44.912 -21.527  1.00  0.00    -0.395 OA
HETATM   39  H47 UNL     1      -5.450  44.964 -22.460  1.00  0.00     0.210 HD
ENDBRANCH  18  38
BRANCH  11  40
HETATM   40  C16 UNL     1      -0.407  51.838 -22.810  1.00  0.00     0.065 C 
HETATM   41  C17 UNL     1       0.216  52.793 -21.777  1.00  0.00     0.046 C 
HETATM   42  C18 UNL     1      -1.440  52.583 -23.658  1.00  0.00     0.041 C 
HETATM   43  C19 UNL     1      -0.612  53.357 -24.661  1.00  0.00     0.038 C 
HETATM   44  C20 UNL     1       0.678  52.548 -24.799  1.00  0.00     0.156 C 
HETATM   45  O5  UNL     1       0.623  51.517 -23.783  1.00  0.00    -0.372 OA
BRANCH  44  46
HETATM   46  C21 UNL     1       0.909  51.866 -26.172  1.00  0.00     0.076 C 
HETATM   47  C22 UNL     1      -0.038  50.670 -26.346  1.00  0.00     0.048 C 
HETATM   48  C23 UNL     1       2.354  51.400 -26.352  1.00  0.00     0.048 C 
BRANCH  46  49
HETATM   49  O4  UNL     1       0.609  52.802 -27.219  1.00  0.00    -0.388 OA
HETATM   50  H35 UNL     1      -0.274  53.155 -26.989  1.00  0.00     0.210 HD
ENDBRANCH  46  49
ENDBRANCH  44  46
ENDBRANCH  11  40
BRANCH  12  51
HETATM   51  O6  UNL     1      -0.667  51.190 -19.911  1.00  0.00    -0.395 OA
HETATM   52  H37 UNL     1      -0.419  50.850 -19.034  1.00  0.00     0.210 HD
ENDBRANCH  12  51
TORSDOF 11
ENDMDL
MODEL 7
REMARK minimizedAffinity -9.23050404
REMARK CNNscore 0.484352559
REMARK CNNaffinity 6.14011431
REMARK  11 active torsions:
REMARK  status: ('A' for Active; 'I' for Inactive)
REMARK    1  A    between atoms: C2_2  and  O2_4 
REMARK    2  A    between atoms: O2_4  and  C3_5 
REMARK    3  A    between atoms: C4_6  and  O3_7 
REMARK    4  A    between atoms: O3_7  and  C5_8 
REMARK    5  A    between atoms: C15_18  and  C16_19 
REMARK    6  A    between atoms: C20_23  and  C21_24 
REMARK    7  A    between atoms: C21_24  and  O4_27 
REMARK    8  A    between atoms: C24_29  and  O6_30 
REMARK    9  A    between atoms: C30_36  and  O7_37 
REMARK   10  A    between atoms: C36_44  and  O9_45 
REMARK   11  A    between atoms: C37_46  and  O10_47 
ROOT
HETATM    1  C5  UNL     1       6.498  65.468 -35.883  1.00  0.00     0.133 C 
HETATM    2  C6  UNL     1       5.048  65.188 -35.484  1.00  0.00     0.034 C 
HETATM    3  C7  UNL     1       4.056  65.719 -36.506  1.00  0.00     0.013 C 
HETATM    4  C8  UNL     1       4.280  67.176 -36.847  1.00  0.00    -0.025 A 
HETATM    5  C9  UNL     1       3.435  68.252 -36.227  1.00  0.00     0.021 A 
HETATM    6  C10 UNL     1       3.193  67.887 -37.687  1.00  0.00    -0.027 A 
HETATM    7  C11 UNL     1       1.823  67.278 -37.944  1.00  0.00     0.011 C 
HETATM    8  C12 UNL     1       0.769  68.291 -38.454  1.00  0.00     0.011 C 
HETATM    9  C13 UNL     1       1.362  69.590 -39.040  1.00  0.00    -0.028 C 
HETATM   10  C14 UNL     1       1.631  70.593 -37.882  1.00  0.00     0.016 C 
HETATM   11  C15 UNL     1       0.510  70.314 -40.140  1.00  0.00     0.057 C 
HETATM   12  C24 UNL     1       1.588  71.115 -40.948  1.00  0.00     0.126 C 
HETATM   13  C25 UNL     1       2.970  70.541 -40.548  1.00  0.00     0.042 C 
HETATM   14  C26 UNL     1       2.662  69.204 -39.849  1.00  0.00    -0.029 C 
HETATM   15  C27 UNL     1       2.418  68.161 -40.996  1.00  0.00     0.016 C 
HETATM   16  C28 UNL     1       3.785  68.708 -38.865  1.00  0.00     0.006 C 
HETATM   17  C29 UNL     1       4.884  67.858 -39.557  1.00  0.00     0.038 C 
HETATM   18  C30 UNL     1       6.040  67.414 -38.639  1.00  0.00     0.124 C 
HETATM   19  C31 UNL     1       5.735  67.586 -37.137  1.00  0.00     0.034 C 
HETATM   20  C32 UNL     1       6.748  66.986 -36.108  1.00  0.00    -0.015 C 
HETATM   21  C33 UNL     1       6.607  67.767 -34.769  1.00  0.00     0.018 C 
HETATM   22  C34 UNL     1       8.208  67.201 -36.571  1.00  0.00     0.018 C 
ENDROOT
BRANCH   1  23
HETATM   23  O3  UNL     1       7.361  65.017 -34.831  1.00  0.00    -0.352 OA
BRANCH  23  24
HETATM   24  C4  UNL     1       8.030  63.778 -35.106  1.00  0.00     0.292 C 
HETATM   25  C3  UNL     1       8.602  63.277 -33.754  1.00  0.00     0.218 C 
HETATM   26  C37 UNL     1       8.785  61.749 -33.731  1.00  0.00     0.183 C 
HETATM   27  C36 UNL     1       7.582  60.996 -34.331  1.00  0.00     0.173 C 
HETATM   28  C35 UNL     1       6.531  61.949 -34.898  1.00  0.00     0.205 C 
HETATM   29  O8  UNL     1       7.150  62.881 -35.773  1.00  0.00    -0.356 OA
BRANCH  25  30
HETATM   30  O2  UNL     1       9.876  63.975 -33.583  1.00  0.00    -0.309 OA
BRANCH  30  31
HETATM   31  C2  UNL     1      11.015  63.243 -33.595  1.00  0.00     0.255 C 
HETATM   32  C1  UNL     1      11.593  63.172 -34.976  1.00  0.00     0.126 C 
HETATM   33  O1  UNL     1      11.513  62.718 -32.610  1.00  0.00    -0.266 OA
ENDBRANCH  30  31
ENDBRANCH  25  30
BRANCH  26  34
HETATM   34  O10 UNL     1       8.931  61.256 -32.382  1.00  0.00    -0.390 OA
HETATM   35  H60 UNL     1       9.389  61.931 -31.837  1.00  0.00     0.210 HD
ENDBRANCH  26  34
BRANCH  27  36
HETATM   36  O9  UNL     1       8.074  60.141 -35.378  1.00  0.00    -0.391 OA
HETATM   37  H58 UNL     1       7.326  59.612 -35.705  1.00  0.00     0.210 HD
ENDBRANCH  27  36
ENDBRANCH  23  24
ENDBRANCH   1  23
BRANCH  18  38
HETATM   38  O7  UNL     1       6.409  66.078 -38.971  1.00  0.00    -0.395 OA
HETATM   39  H47 UNL     1       5.614  65.521 -38.918  1.00  0.00     0.210 HD
ENDBRANCH  18  38
BRANCH  11  40
HETATM   40  C16 UNL     1      -0.845  71.023 -39.832  1.00  0.00     0.065 C 
HETATM   41  C17 UNL     1      -0.860  72.092 -38.724  1.00  0.00     0.046 C 
HETATM   42  C18 UNL     1      -1.966  70.009 -39.600  1.00  0.00     0.041 C 
HETATM   43  C19 UNL     1      -3.212  70.710 -40.096  1.00  0.00     0.038 C 
HETATM   44  C20 UNL     1      -2.703  71.699 -41.145  1.00  0.00     0.156 C 
HETATM   45  O5  UNL     1      -1.257  71.669 -41.066  1.00  0.00    -0.372 OA
BRANCH  44  46
HETATM   46  C21 UNL     1      -3.117  71.410 -42.610  1.00  0.00     0.076 C 
HETATM   47  C22 UNL     1      -2.176  72.128 -43.588  1.00  0.00     0.048 C 
HETATM   48  C23 UNL     1      -4.561  71.824 -42.898  1.00  0.00     0.048 C 
BRANCH  46  49
HETATM   49  O4  UNL     1      -2.998  70.002 -42.863  1.00  0.00    -0.388 OA
HETATM   50  H35 UNL     1      -2.100  69.770 -42.553  1.00  0.00     0.210 HD
ENDBRANCH  46  49
ENDBRANCH  44  46
ENDBRANCH  11  40
BRANCH  12  51
HETATM   51  O6  UNL     1       1.593  72.508 -40.698  1.00  0.00    -0.395 OA
HETATM   52  H37 UNL     1       2.239  72.912 -41.302  1.00  0.00     0.210 HD
ENDBRANCH  12  51
TORSDOF 11
ENDMDL
MODEL 8
REMARK minimizedAffinity -8.62935925
REMARK CNNscore 0.47773096
REMARK CNNaffinity 7.07142019
REMARK  11 active torsions:
REMARK  status: ('A' for Active; 'I' for Inactive)
REMARK    1  A    between atoms: C2_2  and  O2_4 
REMARK    2  A    between atoms: O2_4  and  C3_5 
REMARK    3  A    between atoms: C4_6  and  O3_7 
REMARK    4  A    between atoms: O3_7  and  C5_8 
REMARK    5  A    between atoms: C15_18  and  C16_19 
REMARK    6  A    between atoms: C20_23  and  C21_24 
REMARK    7  A    between atoms: C21_24  and  O4_27 
REMARK    8  A    between atoms: C24_29  and  O6_30 
REMARK    9  A    between atoms: C30_36  and  O7_37 
REMARK   10  A    between atoms: C36_44  and  O9_45 
REMARK   11  A    between atoms: C37_46  and  O10_47 
ROOT
HETATM    1  C5  UNL     1      -2.518  50.476 -20.046  1.00  0.00     0.133 C 
HETATM    2  C6  UNL     1      -3.246  49.869 -18.845  1.00  0.00     0.034 C 
HETATM    3  C7  UNL     1      -2.560  50.195 -17.529  1.00  0.00     0.013 C 
HETATM    4  C8  UNL     1      -1.086  49.855 -17.529  1.00  0.00    -0.025 A 
HETATM    5  C9  UNL     1      -0.586  48.593 -16.887  1.00  0.00     0.021 A 
HETATM    6  C10 UNL     1      -0.340  49.918 -16.176  1.00  0.00    -0.027 A 
HETATM    7  C11 UNL     1      -1.062  50.037 -14.842  1.00  0.00     0.011 C 
HETATM    8  C12 UNL     1      -0.184  49.692 -13.616  1.00  0.00     0.011 C 
HETATM    9  C13 UNL     1       1.335  49.733 -13.886  1.00  0.00    -0.028 C 
HETATM   10  C14 UNL     1       1.784  48.367 -14.478  1.00  0.00     0.016 C 
HETATM   11  C15 UNL     1       2.254  50.073 -12.661  1.00  0.00     0.057 C 
HETATM   12  C24 UNL     1       3.535  50.672 -13.339  1.00  0.00     0.126 C 
HETATM   13  C25 UNL     1       3.159  50.995 -14.806  1.00  0.00     0.042 C 
HETATM   14  C26 UNL     1       1.620  50.955 -14.844  1.00  0.00    -0.029 C 
HETATM   15  C27 UNL     1       1.138  52.338 -14.282  1.00  0.00     0.016 C 
HETATM   16  C28 UNL     1       1.009  50.681 -16.268  1.00  0.00     0.006 C 
HETATM   17  C29 UNL     1       0.794  51.968 -17.109  1.00  0.00     0.038 C 
HETATM   18  C30 UNL     1       0.264  51.733 -18.537  1.00  0.00     0.124 C 
HETATM   19  C31 UNL     1      -0.288  50.310 -18.764  1.00  0.00     0.034 C 
HETATM   20  C32 UNL     1      -1.033  50.017 -20.107  1.00  0.00    -0.015 C 
HETATM   21  C33 UNL     1      -0.944  48.490 -20.392  1.00  0.00     0.018 C 
HETATM   22  C34 UNL     1      -0.332  50.710 -21.298  1.00  0.00     0.018 C 
ENDROOT
BRANCH   1  23
HETATM   23  O3  UNL     1      -3.174  50.050 -21.247  1.00  0.00    -0.352 OA
BRANCH  23  24
HETATM   24  C4  UNL     1      -4.593  50.260 -21.251  1.00  0.00     0.292 C 
HETATM   25  C3  UNL     1      -4.996  50.513 -22.727  1.00  0.00     0.218 C 
HETATM   26  C37 UNL     1      -6.466  50.144 -22.999  1.00  0.00     0.183 C 
HETATM   27  C36 UNL     1      -6.872  48.804 -22.357  1.00  0.00     0.173 C 
HETATM   28  C35 UNL     1      -5.746  48.203 -21.518  1.00  0.00     0.205 C 
HETATM   29  O8  UNL     1      -5.253  49.176 -20.609  1.00  0.00    -0.356 OA
BRANCH  25  30
HETATM   30  O2  UNL     1      -4.743  51.933 -22.967  1.00  0.00    -0.309 OA
BRANCH  30  31
HETATM   31  C2  UNL     1      -3.648  52.277 -23.684  1.00  0.00     0.255 C 
HETATM   32  C1  UNL     1      -3.858  52.013 -25.144  1.00  0.00     0.126 C 
HETATM   33  O1  UNL     1      -2.627  52.752 -23.207  1.00  0.00    -0.266 OA
ENDBRANCH  30  31
ENDBRANCH  25  30
BRANCH  26  34
HETATM   34  O10 UNL     1      -6.721  50.002 -24.414  1.00  0.00    -0.390 OA
HETATM   35  H60 UNL     1      -6.148  50.624 -24.911  1.00  0.00     0.210 HD
ENDBRANCH  26  34
BRANCH  27  36
HETATM   36  O9  UNL     1      -8.020  49.044 -21.524  1.00  0.00    -0.391 OA
HETATM   37  H58 UNL     1      -8.321  48.186 -21.179  1.00  0.00     0.210 HD
ENDBRANCH  27  36
ENDBRANCH  23  24
ENDBRANCH   1  23
BRANCH  18  38
HETATM   38  O7  UNL     1      -0.690  52.744 -18.849  1.00  0.00    -0.395 OA
HETATM   39  H47 UNL     1      -1.374  52.741 -18.159  1.00  0.00     0.210 HD
ENDBRANCH  18  38
BRANCH  11  40
HETATM   40  C16 UNL     1       2.454  49.103 -11.457  1.00  0.00     0.065 C 
HETATM   41  C17 UNL     1       2.525  47.594 -11.754  1.00  0.00     0.046 C 
HETATM   42  C18 UNL     1       1.436  49.372 -10.347  1.00  0.00     0.041 C 
HETATM   43  C19 UNL     1       2.169  49.010  -9.073  1.00  0.00     0.038 C 
HETATM   44  C20 UNL     1       3.646  49.220  -9.407  1.00  0.00     0.156 C 
HETATM   45  O5  UNL     1       3.708  49.482 -10.830  1.00  0.00    -0.372 OA
BRANCH  44  46
HETATM   46  C21 UNL     1       4.352  50.384  -8.666  1.00  0.00     0.076 C 
HETATM   47  C22 UNL     1       4.745  51.492  -9.654  1.00  0.00     0.048 C 
HETATM   48  C23 UNL     1       5.594  49.918  -7.904  1.00  0.00     0.048 C 
BRANCH  46  49
HETATM   49  O4  UNL     1       3.439  50.962  -7.720  1.00  0.00    -0.388 OA
HETATM   50  H35 UNL     1       2.625  51.131  -8.234  1.00  0.00     0.210 HD
ENDBRANCH  46  49
ENDBRANCH  44  46
ENDBRANCH  11  40
BRANCH  12  51
HETATM   51  O6  UNL     1       4.655  49.807 -13.344  1.00  0.00    -0.395 OA
HETATM   52  H37 UNL     1       5.406  50.302 -13.712  1.00  0.00     0.210 HD
ENDBRANCH  12  51
TORSDOF 11
ENDMDL
MODEL 9
REMARK minimizedAffinity -9.87606525
REMARK CNNscore 0.457510591
REMARK CNNaffinity 7.20619965
REMARK  11 active torsions:
REMARK  status: ('A' for Active; 'I' for Inactive)
REMARK    1  A    between atoms: C2_2  and  O2_4 
REMARK    2  A    between atoms: O2_4  and  C3_5 
REMARK    3  A    between atoms: C4_6  and  O3_7 
REMARK    4  A    between atoms: O3_7  and  C5_8 
REMARK    5  A    between atoms: C15_18  and  C16_19 
REMARK    6  A    between atoms: C20_23  and  C21_24 
REMARK    7  A    between atoms: C21_24  and  O4_27 
REMARK    8  A    between atoms: C24_29  and  O6_30 
REMARK    9  A    between atoms: C30_36  and  O7_37 
REMARK   10  A    between atoms: C36_44  and  O9_45 
REMARK   11  A    between atoms: C37_46  and  O10_47 
ROOT
HETATM    1  C5  UNL     1      -3.039  50.331 -23.585  1.00  0.00     0.133 C 
HETATM    2  C6  UNL     1      -2.695  48.874 -23.266  1.00  0.00     0.034 C 
HETATM    3  C7  UNL     1      -3.922  48.061 -22.890  1.00  0.00     0.013 C 
HETATM    4  C8  UNL     1      -4.745  48.702 -21.794  1.00  0.00    -0.025 A 
HETATM    5  C9  UNL     1      -4.631  48.235 -20.371  1.00  0.00     0.021 A 
HETATM    6  C10 UNL     1      -5.876  47.857 -21.164  1.00  0.00    -0.027 A 
HETATM    7  C11 UNL     1      -6.015  46.361 -21.402  1.00  0.00     0.011 C 
HETATM    8  C12 UNL     1      -6.947  45.646 -20.394  1.00  0.00     0.011 C 
HETATM    9  C13 UNL     1      -7.907  46.585 -19.633  1.00  0.00    -0.028 C 
HETATM   10  C14 UNL     1      -7.170  47.173 -18.396  1.00  0.00     0.016 C 
HETATM   11  C15 UNL     1      -9.265  45.960 -19.156  1.00  0.00     0.057 C 
HETATM   12  C24 UNL     1     -10.209  47.208 -19.058  1.00  0.00     0.126 C 
HETATM   13  C25 UNL     1      -9.509  48.364 -19.815  1.00  0.00     0.042 C 
HETATM   14  C26 UNL     1      -8.405  47.687 -20.648  1.00  0.00    -0.029 C 
HETATM   15  C27 UNL     1      -9.116  47.112 -21.923  1.00  0.00     0.016 C 
HETATM   16  C28 UNL     1      -7.214  48.636 -21.045  1.00  0.00     0.006 C 
HETATM   17  C29 UNL     1      -7.454  49.411 -22.369  1.00  0.00     0.038 C 
HETATM   18  C30 UNL     1      -6.341  50.404 -22.754  1.00  0.00     0.124 C 
HETATM   19  C31 UNL     1      -5.034  50.205 -21.958  1.00  0.00     0.034 C 
HETATM   20  C32 UNL     1      -3.773  51.018 -22.399  1.00  0.00    -0.015 C 
HETATM   21  C33 UNL     1      -2.824  51.153 -21.173  1.00  0.00     0.018 C 
HETATM   22  C34 UNL     1      -4.152  52.462 -22.801  1.00  0.00     0.018 C 
ENDROOT
BRANCH   1  23
HETATM   23  O3  UNL     1      -1.823  51.046 -23.842  1.00  0.00    -0.352 OA
BRANCH  23  24
HETATM   24  C4  UNL     1      -1.320  50.893 -25.176  1.00  0.00     0.292 C 
HETATM   25  C3  UNL     1      -2.203  51.788 -26.085  1.00  0.00     0.218 C 
HETATM   26  C37 UNL     1      -1.464  52.227 -27.362  1.00  0.00     0.183 C 
HETATM   27  C36 UNL     1      -0.017  52.680 -27.087  1.00  0.00     0.173 C 
HETATM   28  C35 UNL     1       0.376  52.493 -25.623  1.00  0.00     0.205 C 
HETATM   29  O8  UNL     1       0.076  51.168 -25.210  1.00  0.00    -0.356 OA
BRANCH  25  30
HETATM   30  O2  UNL     1      -3.386  50.987 -26.395  1.00  0.00    -0.309 OA
BRANCH  30  31
HETATM   31  C2  UNL     1      -3.318  50.117 -27.429  1.00  0.00     0.255 C 
HETATM   32  C1  UNL     1      -3.336  48.700 -26.940  1.00  0.00     0.126 C 
HETATM   33  O1  UNL     1      -3.261  50.440 -28.607  1.00  0.00    -0.266 OA
ENDBRANCH  30  31
ENDBRANCH  25  30
BRANCH  26  34
HETATM   34  O10 UNL     1      -2.120  53.350 -27.990  1.00  0.00    -0.390 OA
HETATM   35  H60 UNL     1      -3.087  53.288 -27.838  1.00  0.00     0.210 HD
ENDBRANCH  26  34
BRANCH  27  36
HETATM   36  O9  UNL     1       0.855  51.901 -27.925  1.00  0.00    -0.391 OA
HETATM   37  H58 UNL     1       1.760  52.239 -27.806  1.00  0.00     0.210 HD
ENDBRANCH  27  36
ENDBRANCH  23  24
ENDBRANCH   1  23
BRANCH  18  38
HETATM   38  O7  UNL     1      -6.135  50.347 -24.163  1.00  0.00    -0.395 OA
HETATM   39  H47 UNL     1      -5.954  49.423 -24.406  1.00  0.00     0.210 HD
ENDBRANCH  18  38
BRANCH  11  40
HETATM   40  C16 UNL     1      -9.353  44.890 -18.026  1.00  0.00     0.065 C 
HETATM   41  C17 UNL     1      -8.793  43.487 -18.319  1.00  0.00     0.046 C 
HETATM   42  C18 UNL     1     -10.774  44.783 -17.469  1.00  0.00     0.041 C 
HETATM   43  C19 UNL     1     -10.578  44.401 -16.017  1.00  0.00     0.038 C 
HETATM   44  C20 UNL     1      -9.200  44.956 -15.658  1.00  0.00     0.156 C 
HETATM   45  O5  UNL     1      -8.614  45.426 -16.896  1.00  0.00    -0.372 OA
BRANCH  44  46
HETATM   46  C21 UNL     1      -9.182  46.122 -14.637  1.00  0.00     0.076 C 
HETATM   47  C22 UNL     1      -7.741  46.448 -14.216  1.00  0.00     0.048 C 
HETATM   48  C23 UNL     1     -10.018  45.819 -13.393  1.00  0.00     0.048 C 
BRANCH  46  49
HETATM   49  O4  UNL     1      -9.719  47.300 -15.258  1.00  0.00    -0.388 OA
HETATM   50  H35 UNL     1      -9.230  47.379 -16.102  1.00  0.00     0.210 HD
ENDBRANCH  46  49
ENDBRANCH  44  46
ENDBRANCH  11  40
BRANCH  12  51
HETATM   51  O6  UNL     1     -10.478  47.637 -17.737  1.00  0.00    -0.395 OA
HETATM   52  H37 UNL     1     -11.129  48.358 -17.789  1.00  0.00     0.210 HD
ENDBRANCH  12  51
TORSDOF 11
ENDMDL
