MODEL 1
REMARK minimizedAffinity -8.53245831
REMARK CNNscore 0.383282572
REMARK CNNaffinity 6.43368721
REMARK  12 active torsions:
REMARK  status: ('A' for Active; 'I' for Inactive)
REMARK    1  A    between atoms: C2_2  and  C3_4 
REMARK    2  A    between atoms: C3_4  and  O2_5 
REMARK    3  A    between atoms: N1_15  and  O3_17 
REMARK    4  A    between atoms: O3_17  and  C13_18 
REMARK    5  A    between atoms: C13_18  and  C14_19 
REMARK       I    between atoms: C14_19  and  N2_21 
REMARK    6  A    between atoms: N2_21  and  C15_22 
REMARK    7  A    between atoms: C15_22  and  C16_23 
REMARK       I    between atoms: C16_23  and  N3_25 
REMARK    8  A    between atoms: N3_25  and  C17_26 
REMARK    9  A    between atoms: C17_26  and  C18_27 
REMARK   10  A    between atoms: C17_26  and  C27_37 
REMARK   11  A    between atoms: C18_27  and  C19_28 
REMARK   12  A    between atoms: C27_37  and  O7_39 
ROOT
HETATM    1  O3  UNL     1      -4.573 -10.112   3.991  1.00  0.00    -0.271 OA
ENDROOT
BRANCH   1   2
HETATM    2  N1  UNL     1      -3.966 -10.526   2.797  1.00  0.00    -0.271 N 
HETATM    3  C12 UNL     1      -4.805 -10.622   1.809  1.00  0.00     0.032 C 
HETATM    4  C11 UNL     1      -6.273 -10.387   1.871  1.00  0.00     0.030 C 
HETATM    5  C28 UNL     1      -4.238 -11.065   0.478  1.00  0.00     0.060 C 
HETATM    6  C10 UNL     1      -7.035 -10.392   0.758  1.00  0.00    -0.069 C 
HETATM    7  C9  UNL     1      -8.536 -10.262   0.876  1.00  0.00     0.035 C 
HETATM    8  C30 UNL     1      -6.479 -10.549  -0.665  1.00  0.00    -0.016 C 
HETATM    9  C8  UNL     1      -9.082  -9.170  -0.035  1.00  0.00     0.010 C 
HETATM   10  C7  UNL     1      -8.667  -9.394  -1.496  1.00  0.00    -0.004 C 
HETATM   11  C6  UNL     1      -9.313  -8.344  -2.429  1.00  0.00     0.002 C 
HETATM   12  C32 UNL     1      -7.123  -9.462  -1.615  1.00  0.00     0.002 C 
HETATM   13  C5  UNL     1      -9.069  -6.875  -2.045  1.00  0.00     0.009 C 
HETATM   14  C35 UNL     1      -8.854  -8.430  -3.902  1.00  0.00    -0.002 C 
HETATM   15  C4  UNL     1      -9.113  -6.065  -3.346  1.00  0.00     0.047 C 
HETATM   16  C3  UNL     1      -9.368  -7.073  -4.485  1.00  0.00     0.125 C 
HETATM   17  C34 UNL     1      -7.306  -8.527  -3.983  1.00  0.00     0.013 C 
HETATM   18  C36 UNL     1      -9.464  -9.652  -4.614  1.00  0.00     0.019 C 
HETATM   19  C33 UNL     1      -6.709  -9.619  -3.092  1.00  0.00     0.007 C 
HETATM   20  C29 UNL     1      -4.938 -10.338  -0.657  1.00  0.00     0.020 C 
HETATM   21  C31 UNL     1      -6.781 -11.990  -1.142  1.00  0.00     0.020 C 
ATOM     22  H1  UNL     1      -2.971 -10.729   2.712  1.00  0.00     0.194 HD
BRANCH  16  23
HETATM   23  C2  UNL     1     -10.882  -7.082  -4.834  1.00  0.00     0.158 C 
HETATM   24  C1  UNL     1     -11.266  -7.359  -6.268  1.00  0.00     0.094 C 
HETATM   25  O1  UNL     1     -11.756  -6.882  -3.987  1.00  0.00    -0.295 OA
ENDBRANCH  16  23
BRANCH  16  26
HETATM   26  O2  UNL     1      -8.607  -6.695  -5.629  1.00  0.00    -0.381 OA
HETATM   27  H4  UNL     1      -8.737  -5.740  -5.776  1.00  0.00     0.211 HD
ENDBRANCH  16  26
ENDBRANCH   1   2
BRANCH   1  28
HETATM   28  C13 UNL     1      -3.581 -10.147   5.014  1.00  0.00     0.303 C 
BRANCH  28  29
HETATM   29  C14 UNL     1      -4.019  -9.377   6.253  1.00  0.00     0.244 C 
HETATM   30  O4  UNL     1      -3.215  -8.816   6.992  1.00  0.00    -0.271 OA
HETATM   31  N2  UNL     1      -5.370  -9.429   6.531  1.00  0.00    -0.350 N 
HETATM   32  H18 UNL     1      -5.969  -9.688   5.755  1.00  0.00     0.163 HD
BRANCH  31  33
HETATM   33  C15 UNL     1      -5.932  -8.576   7.574  1.00  0.00     0.225 C 
BRANCH  33  34
HETATM   34  C16 UNL     1      -6.089  -9.258   8.940  1.00  0.00     0.236 C 
HETATM   35  O5  UNL     1      -5.611 -10.364   9.177  1.00  0.00    -0.272 OA
HETATM   36  N3  UNL     1      -6.726  -8.502   9.892  1.00  0.00    -0.345 N 
HETATM   37  H21 UNL     1      -7.138  -7.620   9.606  1.00  0.00     0.163 HD
BRANCH  36  38
HETATM   38  C17 UNL     1      -7.107  -9.027  11.209  1.00  0.00     0.186 C 
BRANCH  38  39
HETATM   39  C18 UNL     1      -8.620  -9.289  11.263  1.00  0.00     0.077 C 
BRANCH  39  40
HETATM   40  C19 UNL     1      -8.982 -10.647  11.784  1.00  0.00    -0.028 A 
HETATM   41  C20 UNL     1      -8.818 -11.841  11.106  1.00  0.00     0.096 A 
HETATM   42  N4  UNL     1      -9.287 -12.853  11.896  1.00  0.00    -0.365 N 
HETATM   43  C21 UNL     1      -9.767 -12.349  13.081  1.00  0.00     0.042 A 
HETATM   44  H26 UNL     1      -9.291 -13.833  11.648  1.00  0.00     0.165 HD
HETATM   45  C22 UNL     1     -10.346 -13.009  14.172  1.00  0.00     0.030 A 
HETATM   46  C26 UNL     1      -9.585 -10.966  13.044  1.00  0.00    -0.002 A 
HETATM   47  C23 UNL     1     -10.747 -12.231  15.262  1.00  0.00     0.002 A 
HETATM   48  C24 UNL     1     -10.579 -10.849  15.257  1.00  0.00     0.001 A 
HETATM   49  C25 UNL     1     -10.002 -10.204  14.156  1.00  0.00     0.014 A 
ENDBRANCH  39  40
ENDBRANCH  38  39
BRANCH  38  50
HETATM   50  C27 UNL     1      -6.718  -8.001  12.277  1.00  0.00     0.163 C 
HETATM   51  O6  UNL     1      -6.690  -6.786  12.168  1.00  0.00    -0.648 OA
BRANCH  50  52
HETATM   52  O7  UNL     1      -6.315  -8.561  13.448  1.00  0.00    -0.775 OA
HETATM   53  H31 UNL     1      -6.099  -7.781  14.001  1.00  0.00     0.167 HD
ENDBRANCH  50  52
ENDBRANCH  38  50
ENDBRANCH  36  38
ENDBRANCH  33  34
ENDBRANCH  31  33
ENDBRANCH  28  29
ENDBRANCH   1  28
TORSDOF 12
ENDMDL
MODEL 2
REMARK minimizedAffinity -8.93550682
REMARK CNNscore 0.209397092
REMARK CNNaffinity 6.49880743
REMARK  12 active torsions:
REMARK  status: ('A' for Active; 'I' for Inactive)
REMARK    1  A    between atoms: C2_2  and  C3_4 
REMARK    2  A    between atoms: C3_4  and  O2_5 
REMARK    3  A    between atoms: N1_15  and  O3_17 
REMARK    4  A    between atoms: O3_17  and  C13_18 
REMARK    5  A    between atoms: C13_18  and  C14_19 
REMARK       I    between atoms: C14_19  and  N2_21 
REMARK    6  A    between atoms: N2_21  and  C15_22 
REMARK    7  A    between atoms: C15_22  and  C16_23 
REMARK       I    between atoms: C16_23  and  N3_25 
REMARK    8  A    between atoms: N3_25  and  C17_26 
REMARK    9  A    between atoms: C17_26  and  C18_27 
REMARK   10  A    between atoms: C17_26  and  C27_37 
REMARK   11  A    between atoms: C18_27  and  C19_28 
REMARK   12  A    between atoms: C27_37  and  O7_39 
ROOT
HETATM    1  O3  UNL     1     -11.304   9.694  17.139  1.00  0.00    -0.271 OA
ENDROOT
BRANCH   1   2
HETATM    2  N1  UNL     1     -11.026  10.134  18.441  1.00  0.00    -0.271 N 
HETATM    3  C12 UNL     1     -11.864   9.675  19.321  1.00  0.00     0.032 C 
HETATM    4  C11 UNL     1     -13.047   8.813  19.049  1.00  0.00     0.030 C 
HETATM    5  C28 UNL     1     -11.643  10.101  20.756  1.00  0.00     0.060 C 
HETATM    6  C10 UNL     1     -13.780   8.287  20.051  1.00  0.00    -0.069 C 
HETATM    7  C9  UNL     1     -15.038   7.511  19.731  1.00  0.00     0.035 C 
HETATM    8  C30 UNL     1     -13.441   8.442  21.540  1.00  0.00    -0.016 C 
HETATM    9  C8  UNL     1     -15.058   6.157  20.429  1.00  0.00     0.010 C 
HETATM   10  C7  UNL     1     -14.876   6.300  21.947  1.00  0.00    -0.004 C 
HETATM   11  C6  UNL     1     -15.005   4.934  22.657  1.00  0.00     0.002 C 
HETATM   12  C32 UNL     1     -13.551   7.041  22.264  1.00  0.00     0.002 C 
HETATM   13  C5  UNL     1     -14.082   3.821  22.132  1.00  0.00     0.009 C 
HETATM   14  C35 UNL     1     -14.720   4.974  24.176  1.00  0.00    -0.002 C 
HETATM   15  C4  UNL     1     -13.811   2.877  23.309  1.00  0.00     0.047 C 
HETATM   16  C3  UNL     1     -14.570   3.456  24.521  1.00  0.00     0.125 C 
HETATM   17  C34 UNL     1     -13.403   5.748  24.460  1.00  0.00     0.013 C 
HETATM   18  C36 UNL     1     -15.868   5.649  24.949  1.00  0.00     0.019 C 
HETATM   19  C33 UNL     1     -13.340   7.122  23.789  1.00  0.00     0.007 C 
HETATM   20  C29 UNL     1     -11.982   8.958  21.699  1.00  0.00     0.020 C 
HETATM   21  C31 UNL     1     -14.407   9.488  22.147  1.00  0.00     0.020 C 
ATOM     22  H1  UNL     1     -10.247  10.750  18.673  1.00  0.00     0.194 HD
BRANCH  16  23
HETATM   23  C2  UNL     1     -15.929   2.719  24.678  1.00  0.00     0.158 C 
HETATM   24  C1  UNL     1     -16.116   1.850  25.898  1.00  0.00     0.094 C 
HETATM   25  O1  UNL     1     -16.839   2.830  23.852  1.00  0.00    -0.295 OA
ENDBRANCH  16  23
BRANCH  16  26
HETATM   26  O2  UNL     1     -13.784   3.281  25.696  1.00  0.00    -0.381 OA
HETATM   27  H4  UNL     1     -13.460   2.362  25.709  1.00  0.00     0.211 HD
ENDBRANCH  16  26
ENDBRANCH   1   2
BRANCH   1  28
HETATM   28  C13 UNL     1     -10.192   8.917  16.701  1.00  0.00     0.303 C 
BRANCH  28  29
HETATM   29  C14 UNL     1     -10.363   8.448  15.261  1.00  0.00     0.244 C 
HETATM   30  O4  UNL     1     -10.609   9.228  14.345  1.00  0.00    -0.271 OA
HETATM   31  N2  UNL     1     -10.308   7.081  15.078  1.00  0.00    -0.350 N 
HETATM   32  H18 UNL     1      -9.862   6.556  15.820  1.00  0.00     0.163 HD
BRANCH  31  33
HETATM   33  C15 UNL     1     -10.264   6.530  13.727  1.00  0.00     0.225 C 
BRANCH  33  34
HETATM   34  C16 UNL     1      -8.853   6.197  13.219  1.00  0.00     0.236 C 
HETATM   35  O5  UNL     1      -8.639   5.860  12.057  1.00  0.00    -0.272 OA
HETATM   36  N3  UNL     1      -7.850   6.390  14.135  1.00  0.00    -0.345 N 
HETATM   37  H21 UNL     1      -8.111   6.620  15.088  1.00  0.00     0.163 HD
BRANCH  36  38
HETATM   38  C17 UNL     1      -6.459   5.988  13.896  1.00  0.00     0.186 C 
BRANCH  38  39
HETATM   39  C18 UNL     1      -6.346   4.456  13.845  1.00  0.00     0.077 C 
BRANCH  39  40
HETATM   40  C19 UNL     1      -5.660   3.939  12.618  1.00  0.00    -0.028 A 
HETATM   41  C20 UNL     1      -6.248   3.177  11.626  1.00  0.00     0.096 A 
HETATM   42  N4  UNL     1      -5.298   2.880  10.689  1.00  0.00    -0.365 N 
HETATM   43  C21 UNL     1      -4.088   3.425  11.048  1.00  0.00     0.042 A 
HETATM   44  H26 UNL     1      -5.453   2.332   9.853  1.00  0.00     0.165 HD
HETATM   45  C22 UNL     1      -2.847   3.368  10.402  1.00  0.00     0.030 A 
HETATM   46  C26 UNL     1      -4.284   4.102  12.253  1.00  0.00    -0.002 A 
HETATM   47  C23 UNL     1      -1.772   4.028  11.005  1.00  0.00     0.002 A 
HETATM   48  C24 UNL     1      -1.934   4.713  12.206  1.00  0.00     0.001 A 
HETATM   49  C25 UNL     1      -3.181   4.757  12.841  1.00  0.00     0.014 A 
ENDBRANCH  39  40
ENDBRANCH  38  39
BRANCH  38  50
HETATM   50  C27 UNL     1      -5.588   6.537  15.030  1.00  0.00     0.163 C 
HETATM   51  O6  UNL     1      -4.579   7.216  14.933  1.00  0.00    -0.648 OA
BRANCH  50  52
HETATM   52  O7  UNL     1      -5.999   6.152  16.267  1.00  0.00    -0.775 OA
HETATM   53  H31 UNL     1      -5.340   6.574  16.858  1.00  0.00     0.167 HD
ENDBRANCH  50  52
ENDBRANCH  38  50
ENDBRANCH  36  38
ENDBRANCH  33  34
ENDBRANCH  31  33
ENDBRANCH  28  29
ENDBRANCH   1  28
TORSDOF 12
ENDMDL
MODEL 3
REMARK minimizedAffinity -8.15928173
REMARK CNNscore 0.170862228
REMARK CNNaffinity 6.14801598
REMARK  12 active torsions:
REMARK  status: ('A' for Active; 'I' for Inactive)
REMARK    1  A    between atoms: C2_2  and  C3_4 
REMARK    2  A    between atoms: C3_4  and  O2_5 
REMARK    3  A    between atoms: N1_15  and  O3_17 
REMARK    4  A    between atoms: O3_17  and  C13_18 
REMARK    5  A    between atoms: C13_18  and  C14_19 
REMARK       I    between atoms: C14_19  and  N2_21 
REMARK    6  A    between atoms: N2_21  and  C15_22 
REMARK    7  A    between atoms: C15_22  and  C16_23 
REMARK       I    between atoms: C16_23  and  N3_25 
REMARK    8  A    between atoms: N3_25  and  C17_26 
REMARK    9  A    between atoms: C17_26  and  C18_27 
REMARK   10  A    between atoms: C17_26  and  C27_37 
REMARK   11  A    between atoms: C18_27  and  C19_28 
REMARK   12  A    between atoms: C27_37  and  O7_39 
ROOT
HETATM    1  O3  UNL     1     -10.943  10.852  14.198  1.00  0.00    -0.271 OA
ENDROOT
BRANCH   1   2
HETATM    2  N1  UNL     1     -12.196  11.355  13.821  1.00  0.00    -0.271 N 
HETATM    3  C12 UNL     1     -13.057  10.422  13.551  1.00  0.00     0.032 C 
HETATM    4  C11 UNL     1     -12.804   8.955  13.565  1.00  0.00     0.030 C 
HETATM    5  C28 UNL     1     -14.439  10.873  13.132  1.00  0.00     0.060 C 
HETATM    6  C10 UNL     1     -13.802   8.065  13.391  1.00  0.00    -0.069 C 
HETATM    7  C9  UNL     1     -13.484   6.590  13.299  1.00  0.00     0.035 C 
HETATM    8  C30 UNL     1     -15.282   8.449  13.247  1.00  0.00    -0.016 C 
HETATM    9  C8  UNL     1     -14.345   5.767  14.249  1.00  0.00     0.010 C 
HETATM   10  C7  UNL     1     -15.842   6.019  14.017  1.00  0.00    -0.004 C 
HETATM   11  C6  UNL     1     -16.709   5.103  14.910  1.00  0.00     0.002 C 
HETATM   12  C32 UNL     1     -16.168   7.527  14.176  1.00  0.00     0.002 C 
HETATM   13  C5  UNL     1     -16.405   5.162  16.417  1.00  0.00     0.009 C 
HETATM   14  C35 UNL     1     -18.227   5.373  14.820  1.00  0.00    -0.002 C 
HETATM   15  C4  UNL     1     -17.711   4.825  17.145  1.00  0.00     0.047 C 
HETATM   16  C3  UNL     1     -18.775   4.584  16.054  1.00  0.00     0.125 C 
HETATM   17  C34 UNL     1     -18.515   6.895  14.953  1.00  0.00     0.013 C 
HETATM   18  C36 UNL     1     -18.813   4.874  13.486  1.00  0.00     0.019 C 
HETATM   19  C33 UNL     1     -17.682   7.764  14.009  1.00  0.00     0.007 C 
HETATM   20  C29 UNL     1     -15.490   9.927  13.687  1.00  0.00     0.020 C 
HETATM   21  C31 UNL     1     -15.670   8.316  11.755  1.00  0.00     0.020 C 
ATOM     22  H1  UNL     1     -12.409  12.351  13.766  1.00  0.00     0.194 HD
BRANCH  16  23
HETATM   23  C2  UNL     1     -18.915   3.057  15.799  1.00  0.00     0.158 C 
HETATM   24  C1  UNL     1     -19.946   2.307  16.607  1.00  0.00     0.094 C 
HETATM   25  O1  UNL     1     -18.225   2.460  14.969  1.00  0.00    -0.295 OA
ENDBRANCH  16  23
BRANCH  16  26
HETATM   26  O2  UNL     1     -20.022   5.121  16.484  1.00  0.00    -0.381 OA
HETATM   27  H4  UNL     1     -20.178   4.826  17.400  1.00  0.00     0.211 HD
ENDBRANCH  16  26
ENDBRANCH   1   2
BRANCH   1  28
HETATM   28  C13 UNL     1     -10.850  10.944  15.617  1.00  0.00     0.303 C 
BRANCH  28  29
HETATM   29  C14 UNL     1     -10.332   9.651  16.235  1.00  0.00     0.244 C 
HETATM   30  O4  UNL     1     -10.449   9.405  17.432  1.00  0.00    -0.271 OA
HETATM   31  N2  UNL     1      -9.645   8.821  15.371  1.00  0.00    -0.350 N 
HETATM   32  H18 UNL     1      -9.815   8.977  14.384  1.00  0.00     0.163 HD
BRANCH  31  33
HETATM   33  C15 UNL     1      -9.273   7.475  15.798  1.00  0.00     0.225 C 
BRANCH  33  34
HETATM   34  C16 UNL     1      -8.174   6.818  14.950  1.00  0.00     0.236 C 
HETATM   35  O5  UNL     1      -7.297   7.475  14.395  1.00  0.00    -0.272 OA
HETATM   36  N3  UNL     1      -8.200   5.446  14.934  1.00  0.00    -0.345 N 
HETATM   37  H21 UNL     1      -8.986   4.978  15.373  1.00  0.00     0.163 HD
BRANCH  36  38
HETATM   38  C17 UNL     1      -7.334   4.639  14.067  1.00  0.00     0.186 C 
BRANCH  38  39
HETATM   39  C18 UNL     1      -6.243   5.517  13.434  1.00  0.00     0.077 C 
BRANCH  39  40
HETATM   40  C19 UNL     1      -5.073   4.743  12.906  1.00  0.00    -0.028 A 
HETATM   41  C20 UNL     1      -5.094   3.418  12.514  1.00  0.00     0.096 A 
HETATM   42  N4  UNL     1      -3.834   3.065  12.118  1.00  0.00    -0.365 N 
HETATM   43  C21 UNL     1      -2.977   4.132  12.250  1.00  0.00     0.042 A 
HETATM   44  H26 UNL     1      -3.561   2.151  11.783  1.00  0.00     0.165 HD
HETATM   45  C22 UNL     1      -1.606   4.226  11.978  1.00  0.00     0.030 A 
HETATM   46  C26 UNL     1      -3.727   5.203  12.739  1.00  0.00    -0.002 A 
HETATM   47  C23 UNL     1      -0.983   5.456  12.208  1.00  0.00     0.002 A 
HETATM   48  C24 UNL     1      -1.702   6.544  12.694  1.00  0.00     0.001 A 
HETATM   49  C25 UNL     1      -3.072   6.433  12.964  1.00  0.00     0.014 A 
ENDBRANCH  39  40
ENDBRANCH  38  39
BRANCH  38  50
HETATM   50  C27 UNL     1      -8.194   4.006  12.968  1.00  0.00     0.163 C 
HETATM   51  O6  UNL     1      -8.541   2.840  12.873  1.00  0.00    -0.648 OA
BRANCH  50  52
HETATM   52  O7  UNL     1      -8.542   4.874  11.982  1.00  0.00    -0.775 OA
HETATM   53  H31 UNL     1      -9.069   4.313  11.373  1.00  0.00     0.167 HD
ENDBRANCH  50  52
ENDBRANCH  38  50
ENDBRANCH  36  38
ENDBRANCH  33  34
ENDBRANCH  31  33
ENDBRANCH  28  29
ENDBRANCH   1  28
TORSDOF 12
ENDMDL
MODEL 4
REMARK minimizedAffinity -10.8214302
REMARK CNNscore 0.163742125
REMARK CNNaffinity 7.23284578
REMARK  12 active torsions:
REMARK  status: ('A' for Active; 'I' for Inactive)
REMARK    1  A    between atoms: C2_2  and  C3_4 
REMARK    2  A    between atoms: C3_4  and  O2_5 
REMARK    3  A    between atoms: N1_15  and  O3_17 
REMARK    4  A    between atoms: O3_17  and  C13_18 
REMARK    5  A    between atoms: C13_18  and  C14_19 
REMARK       I    between atoms: C14_19  and  N2_21 
REMARK    6  A    between atoms: N2_21  and  C15_22 
REMARK    7  A    between atoms: C15_22  and  C16_23 
REMARK       I    between atoms: C16_23  and  N3_25 
REMARK    8  A    between atoms: N3_25  and  C17_26 
REMARK    9  A    between atoms: C17_26  and  C18_27 
REMARK   10  A    between atoms: C17_26  and  C27_37 
REMARK   11  A    between atoms: C18_27  and  C19_28 
REMARK   12  A    between atoms: C27_37  and  O7_39 
ROOT
HETATM    1  O3  UNL     1      -2.492   6.703  15.213  1.00  0.00    -0.271 OA
ENDROOT
BRANCH   1   2
HETATM    2  N1  UNL     1      -3.089   5.978  14.172  1.00  0.00    -0.271 N 
HETATM    3  C12 UNL     1      -4.369   5.828  14.328  1.00  0.00     0.032 C 
HETATM    4  C11 UNL     1      -5.180   6.299  15.485  1.00  0.00     0.030 C 
HETATM    5  C28 UNL     1      -5.099   5.054  13.252  1.00  0.00     0.060 C 
HETATM    6  C10 UNL     1      -6.525   6.202  15.489  1.00  0.00    -0.069 C 
HETATM    7  C9  UNL     1      -7.300   6.588  16.728  1.00  0.00     0.035 C 
HETATM    8  C30 UNL     1      -7.355   5.689  14.303  1.00  0.00    -0.016 C 
HETATM    9  C8  UNL     1      -8.431   7.558  16.407  1.00  0.00     0.010 C 
HETATM   10  C7  UNL     1      -9.369   6.995  15.329  1.00  0.00    -0.004 C 
HETATM   11  C6  UNL     1     -10.571   7.935  15.087  1.00  0.00     0.002 C 
HETATM   12  C32 UNL     1      -8.573   6.662  14.040  1.00  0.00     0.002 C 
HETATM   13  C5  UNL     1     -10.217   9.394  14.750  1.00  0.00     0.009 C 
HETATM   14  C35 UNL     1     -11.503   7.498  13.935  1.00  0.00    -0.002 C 
HETATM   15  C4  UNL     1     -11.357   9.937  13.880  1.00  0.00     0.047 C 
HETATM   16  C3  UNL     1     -12.365   8.782  13.704  1.00  0.00     0.125 C 
HETATM   17  C34 UNL     1     -10.671   7.144  12.670  1.00  0.00     0.013 C 
HETATM   18  C36 UNL     1     -12.352   6.274  14.327  1.00  0.00     0.019 C 
HETATM   19  C33 UNL     1      -9.529   6.162  12.939  1.00  0.00     0.007 C 
HETATM   20  C29 UNL     1      -6.477   5.652  13.020  1.00  0.00     0.020 C 
HETATM   21  C31 UNL     1      -7.820   4.250  14.629  1.00  0.00     0.020 C 
ATOM     22  H1  UNL     1      -2.572   5.607  13.375  1.00  0.00     0.194 HD
BRANCH  16  23
HETATM   23  C2  UNL     1     -13.520   8.945  14.731  1.00  0.00     0.158 C 
HETATM   24  C1  UNL     1     -14.922   9.082  14.189  1.00  0.00     0.094 C 
HETATM   25  O1  UNL     1     -13.323   8.959  15.949  1.00  0.00    -0.295 OA
ENDBRANCH  16  23
BRANCH  16  26
HETATM   26  O2  UNL     1     -12.885   8.809  12.378  1.00  0.00    -0.381 OA
HETATM   27  H4  UNL     1     -13.144   9.727  12.174  1.00  0.00     0.211 HD
ENDBRANCH  16  26
ENDBRANCH   1   2
BRANCH   1  28
HETATM   28  C13 UNL     1      -1.787   7.795  14.629  1.00  0.00     0.303 C 
BRANCH  28  29
HETATM   29  C14 UNL     1      -0.764   7.324  13.603  1.00  0.00     0.244 C 
HETATM   30  O4  UNL     1      -1.032   7.230  12.408  1.00  0.00    -0.271 OA
HETATM   31  N2  UNL     1       0.451   6.928  14.124  1.00  0.00    -0.350 N 
HETATM   32  H18 UNL     1       0.663   7.270  15.054  1.00  0.00     0.163 HD
BRANCH  31  33
HETATM   33  C15 UNL     1       1.569   6.644  13.228  1.00  0.00     0.225 C 
BRANCH  33  34
HETATM   34  C16 UNL     1       2.613   7.766  13.135  1.00  0.00     0.236 C 
HETATM   35  O5  UNL     1       2.295   8.951  13.079  1.00  0.00    -0.272 OA
HETATM   36  N3  UNL     1       3.918   7.347  13.206  1.00  0.00    -0.345 N 
HETATM   37  H21 UNL     1       4.100   6.349  13.199  1.00  0.00     0.163 HD
BRANCH  36  38
HETATM   38  C17 UNL     1       5.059   8.242  12.985  1.00  0.00     0.186 C 
BRANCH  38  39
HETATM   39  C18 UNL     1       5.414   8.297  11.490  1.00  0.00     0.077 C 
BRANCH  39  40
HETATM   40  C19 UNL     1       4.757   7.229  10.671  1.00  0.00    -0.028 A 
HETATM   41  C20 UNL     1       4.941   5.867  10.823  1.00  0.00     0.096 A 
HETATM   42  N4  UNL     1       4.193   5.222   9.878  1.00  0.00    -0.365 N 
HETATM   43  C21 UNL     1       3.525   6.134   9.096  1.00  0.00     0.042 A 
HETATM   44  H26 UNL     1       4.141   4.219   9.759  1.00  0.00     0.165 HD
HETATM   45  C22 UNL     1       2.662   5.930   8.011  1.00  0.00     0.030 A 
HETATM   46  C26 UNL     1       3.853   7.404   9.572  1.00  0.00    -0.002 A 
HETATM   47  C23 UNL     1       2.115   7.060   7.397  1.00  0.00     0.002 A 
HETATM   48  C24 UNL     1       2.422   8.340   7.848  1.00  0.00     0.001 A 
HETATM   49  C25 UNL     1       3.289   8.527   8.932  1.00  0.00     0.014 A 
ENDBRANCH  39  40
ENDBRANCH  38  39
BRANCH  38  50
HETATM   50  C27 UNL     1       6.256   7.717  13.784  1.00  0.00     0.163 C 
HETATM   51  O6  UNL     1       7.437   7.972  13.611  1.00  0.00    -0.648 OA
BRANCH  50  52
HETATM   52  O7  UNL     1       5.914   6.829  14.754  1.00  0.00    -0.775 OA
HETATM   53  H31 UNL     1       6.780   6.594  15.150  1.00  0.00     0.167 HD
ENDBRANCH  50  52
ENDBRANCH  38  50
ENDBRANCH  36  38
ENDBRANCH  33  34
ENDBRANCH  31  33
ENDBRANCH  28  29
ENDBRANCH   1  28
TORSDOF 12
ENDMDL
MODEL 5
REMARK minimizedAffinity -8.92801762
REMARK CNNscore 0.161051095
REMARK CNNaffinity 5.61799097
REMARK  12 active torsions:
REMARK  status: ('A' for Active; 'I' for Inactive)
REMARK    1  A    between atoms: C2_2  and  C3_4 
REMARK    2  A    between atoms: C3_4  and  O2_5 
REMARK    3  A    between atoms: N1_15  and  O3_17 
REMARK    4  A    between atoms: O3_17  and  C13_18 
REMARK    5  A    between atoms: C13_18  and  C14_19 
REMARK       I    between atoms: C14_19  and  N2_21 
REMARK    6  A    between atoms: N2_21  and  C15_22 
REMARK    7  A    between atoms: C15_22  and  C16_23 
REMARK       I    between atoms: C16_23  and  N3_25 
REMARK    8  A    between atoms: N3_25  and  C17_26 
REMARK    9  A    between atoms: C17_26  and  C18_27 
REMARK   10  A    between atoms: C17_26  and  C27_37 
REMARK   11  A    between atoms: C18_27  and  C19_28 
REMARK   12  A    between atoms: C27_37  and  O7_39 
ROOT
HETATM    1  O3  UNL     1       5.604   7.613  11.526  1.00  0.00    -0.271 OA
ENDROOT
BRANCH   1   2
HETATM    2  N1  UNL     1       5.305   7.488  12.890  1.00  0.00    -0.271 N 
HETATM    3  C12 UNL     1       6.308   7.787  13.658  1.00  0.00     0.032 C 
HETATM    4  C11 UNL     1       7.675   8.179  13.216  1.00  0.00     0.030 C 
HETATM    5  C28 UNL     1       6.078   7.678  15.150  1.00  0.00     0.060 C 
HETATM    6  C10 UNL     1       8.609   8.592  14.095  1.00  0.00    -0.069 C 
HETATM    7  C9  UNL     1      10.016   8.871  13.618  1.00  0.00     0.035 C 
HETATM    8  C30 UNL     1       8.354   8.781  15.597  1.00  0.00    -0.016 C 
HETATM    9  C8  UNL     1      10.506  10.239  14.076  1.00  0.00     0.010 C 
HETATM   10  C7  UNL     1      10.406  10.394  15.600  1.00  0.00    -0.004 C 
HETATM   11  C6  UNL     1      11.003  11.741  16.066  1.00  0.00     0.002 C 
HETATM   12  C32 UNL     1       8.946  10.169  16.071  1.00  0.00     0.002 C 
HETATM   13  C5  UNL     1      10.431  12.995  15.382  1.00  0.00     0.009 C 
HETATM   14  C35 UNL     1      10.838  12.026  17.576  1.00  0.00    -0.002 C 
HETATM   15  C4  UNL     1      10.555  14.144  16.389  1.00  0.00     0.047 C 
HETATM   16  C3  UNL     1      11.189  13.547  17.663  1.00  0.00     0.125 C 
HETATM   17  C34 UNL     1       9.372  11.761  18.019  1.00  0.00     0.013 C 
HETATM   18  C36 UNL     1      11.777  11.149  18.423  1.00  0.00     0.019 C 
HETATM   19  C33 UNL     1       8.837  10.393  17.592  1.00  0.00     0.007 C 
HETATM   20  C29 UNL     1       6.824   8.784  15.877  1.00  0.00     0.020 C 
HETATM   21  C31 UNL     1       8.994   7.589  16.348  1.00  0.00     0.020 C 
ATOM     22  H1  UNL     1       4.394   7.193  13.242  1.00  0.00     0.194 HD
BRANCH  16  23
HETATM   23  C2  UNL     1      12.717  13.831  17.659  1.00  0.00     0.158 C 
HETATM   24  C1  UNL     1      13.362  14.161  16.335  1.00  0.00     0.094 C 
HETATM   25  O1  UNL     1      13.397  13.801  18.688  1.00  0.00    -0.295 OA
ENDBRANCH  16  23
BRANCH  16  26
HETATM   26  O2  UNL     1      10.588  14.140  18.810  1.00  0.00    -0.381 OA
HETATM   27  H4  UNL     1      10.565  15.105  18.675  1.00  0.00     0.211 HD
ENDBRANCH  16  26
ENDBRANCH   1   2
BRANCH   1  28
HETATM   28  C13 UNL     1       4.539   7.013  10.794  1.00  0.00     0.303 C 
BRANCH  28  29
HETATM   29  C14 UNL     1       3.194   7.222  11.478  1.00  0.00     0.244 C 
HETATM   30  O4  UNL     1       2.735   8.341  11.691  1.00  0.00    -0.271 OA
HETATM   31  N2  UNL     1       2.574   6.070  11.919  1.00  0.00    -0.350 N 
HETATM   32  H18 UNL     1       2.889   5.209  11.489  1.00  0.00     0.163 HD
BRANCH  31  33
HETATM   33  C15 UNL     1       1.201   6.127  12.412  1.00  0.00     0.225 C 
BRANCH  33  34
HETATM   34  C16 UNL     1       0.178   5.384  11.540  1.00  0.00     0.236 C 
HETATM   35  O5  UNL     1       0.107   5.558  10.326  1.00  0.00    -0.272 OA
HETATM   36  N3  UNL     1      -0.581   4.455  12.206  1.00  0.00    -0.345 N 
HETATM   37  H21 UNL     1      -0.499   4.406  13.216  1.00  0.00     0.163 HD
BRANCH  36  38
HETATM   38  C17 UNL     1      -1.711   3.753  11.586  1.00  0.00     0.186 C 
BRANCH  38  39
HETATM   39  C18 UNL     1      -2.792   3.447  12.635  1.00  0.00     0.077 C 
BRANCH  39  40
HETATM   40  C19 UNL     1      -3.737   4.583  12.880  1.00  0.00    -0.028 A 
HETATM   41  C20 UNL     1      -3.376   5.884  13.179  1.00  0.00     0.096 A 
HETATM   42  N4  UNL     1      -4.514   6.618  13.357  1.00  0.00    -0.365 N 
HETATM   43  C21 UNL     1      -5.624   5.824  13.190  1.00  0.00     0.042 A 
HETATM   44  H26 UNL     1      -4.544   7.603  13.587  1.00  0.00     0.165 HD
HETATM   45  C22 UNL     1      -6.984   6.145  13.289  1.00  0.00     0.030 A 
HETATM   46  C26 UNL     1      -5.169   4.541  12.884  1.00  0.00    -0.002 A 
HETATM   47  C23 UNL     1      -7.909   5.121  13.063  1.00  0.00     0.002 A 
HETATM   48  C24 UNL     1      -7.488   3.830  12.755  1.00  0.00     0.001 A 
HETATM   49  C25 UNL     1      -6.124   3.526  12.663  1.00  0.00     0.014 A 
ENDBRANCH  39  40
ENDBRANCH  38  39
BRANCH  38  50
HETATM   50  C27 UNL     1      -1.198   2.446  10.972  1.00  0.00     0.163 C 
HETATM   51  O6  UNL     1      -0.305   1.727  11.389  1.00  0.00    -0.648 OA
BRANCH  50  52
HETATM   52  O7  UNL     1      -1.804   2.122   9.800  1.00  0.00    -0.775 OA
HETATM   53  H31 UNL     1      -1.359   1.285   9.548  1.00  0.00     0.167 HD
ENDBRANCH  50  52
ENDBRANCH  38  50
ENDBRANCH  36  38
ENDBRANCH  33  34
ENDBRANCH  31  33
ENDBRANCH  28  29
ENDBRANCH   1  28
TORSDOF 12
ENDMDL
MODEL 6
REMARK minimizedAffinity -9.21717262
REMARK CNNscore 0.145089179
REMARK CNNaffinity 7.28079271
REMARK  12 active torsions:
REMARK  status: ('A' for Active; 'I' for Inactive)
REMARK    1  A    between atoms: C2_2  and  C3_4 
REMARK    2  A    between atoms: C3_4  and  O2_5 
REMARK    3  A    between atoms: N1_15  and  O3_17 
REMARK    4  A    between atoms: O3_17  and  C13_18 
REMARK    5  A    between atoms: C13_18  and  C14_19 
REMARK       I    between atoms: C14_19  and  N2_21 
REMARK    6  A    between atoms: N2_21  and  C15_22 
REMARK    7  A    between atoms: C15_22  and  C16_23 
REMARK       I    between atoms: C16_23  and  N3_25 
REMARK    8  A    between atoms: N3_25  and  C17_26 
REMARK    9  A    between atoms: C17_26  and  C18_27 
REMARK   10  A    between atoms: C17_26  and  C27_37 
REMARK   11  A    between atoms: C18_27  and  C19_28 
REMARK   12  A    between atoms: C27_37  and  O7_39 
ROOT
HETATM    1  O3  UNL     1      -2.352   6.564  14.712  1.00  0.00    -0.271 OA
ENDROOT
BRANCH   1   2
HETATM    2  N1  UNL     1      -3.023   5.827  13.726  1.00  0.00    -0.271 N 
HETATM    3  C12 UNL     1      -4.294   5.701  13.964  1.00  0.00     0.032 C 
HETATM    4  C11 UNL     1      -5.023   6.210  15.158  1.00  0.00     0.030 C 
HETATM    5  C28 UNL     1      -5.100   4.918  12.952  1.00  0.00     0.060 C 
HETATM    6  C10 UNL     1      -6.367   6.136  15.248  1.00  0.00    -0.069 C 
HETATM    7  C9  UNL     1      -7.058   6.560  16.523  1.00  0.00     0.035 C 
HETATM    8  C30 UNL     1      -7.277   5.612  14.127  1.00  0.00    -0.016 C 
HETATM    9  C8  UNL     1      -8.191   7.541  16.252  1.00  0.00     0.010 C 
HETATM   10  C7  UNL     1      -9.203   6.972  15.247  1.00  0.00    -0.004 C 
HETATM   11  C6  UNL     1     -10.403   7.927  15.059  1.00  0.00     0.002 C 
HETATM   12  C32 UNL     1      -8.494   6.599  13.919  1.00  0.00     0.002 C 
HETATM   13  C5  UNL     1     -10.049   9.372  14.669  1.00  0.00     0.009 C 
HETATM   14  C35 UNL     1     -11.411   7.481  13.976  1.00  0.00    -0.002 C 
HETATM   15  C4  UNL     1     -11.232   9.915  13.860  1.00  0.00     0.047 C 
HETATM   16  C3  UNL     1     -12.266   8.774  13.771  1.00  0.00     0.125 C 
HETATM   17  C34 UNL     1     -10.666   7.087  12.671  1.00  0.00     0.013 C 
HETATM   18  C36 UNL     1     -12.253   6.280  14.448  1.00  0.00     0.019 C 
HETATM   19  C33 UNL     1      -9.524   6.092  12.890  1.00  0.00     0.007 C 
HETATM   20  C29 UNL     1      -6.481   5.533  12.793  1.00  0.00     0.020 C 
HETATM   21  C31 UNL     1      -7.743   4.188  14.513  1.00  0.00     0.020 C 
ATOM     22  H1  UNL     1      -2.562   5.431  12.906  1.00  0.00     0.194 HD
BRANCH  16  23
HETATM   23  C2  UNL     1     -13.353   8.978  14.864  1.00  0.00     0.158 C 
HETATM   24  C1  UNL     1     -14.789   8.722  14.477  1.00  0.00     0.094 C 
HETATM   25  O1  UNL     1     -13.074   9.329  16.014  1.00  0.00    -0.295 OA
ENDBRANCH  16  23
BRANCH  16  26
HETATM   26  O2  UNL     1     -12.868   8.783  12.480  1.00  0.00    -0.381 OA
HETATM   27  H4  UNL     1     -13.125   9.700  12.272  1.00  0.00     0.211 HD
ENDBRANCH  16  26
ENDBRANCH   1   2
BRANCH   1  28
HETATM   28  C13 UNL     1      -1.150   5.866  15.027  1.00  0.00     0.303 C 
BRANCH  28  29
HETATM   29  C14 UNL     1      -0.043   6.163  14.022  1.00  0.00     0.244 C 
HETATM   30  O4  UNL     1       0.419   5.298  13.284  1.00  0.00    -0.271 OA
HETATM   31  N2  UNL     1       0.460   7.448  14.065  1.00  0.00    -0.350 N 
HETATM   32  H18 UNL     1      -0.134   8.138  14.510  1.00  0.00     0.163 HD
BRANCH  31  33
HETATM   33  C15 UNL     1       1.380   7.904  13.027  1.00  0.00     0.225 C 
BRANCH  33  34
HETATM   34  C16 UNL     1       2.863   7.651  13.334  1.00  0.00     0.236 C 
HETATM   35  O5  UNL     1       3.312   7.703  14.476  1.00  0.00    -0.272 OA
HETATM   36  N3  UNL     1       3.621   7.281  12.252  1.00  0.00    -0.345 N 
HETATM   37  H21 UNL     1       3.190   7.311  11.334  1.00  0.00     0.163 HD
BRANCH  36  38
HETATM   38  C17 UNL     1       5.081   7.143  12.306  1.00  0.00     0.186 C 
BRANCH  38  39
HETATM   39  C18 UNL     1       5.740   8.513  12.533  1.00  0.00     0.077 C 
BRANCH  39  40
HETATM   40  C19 UNL     1       6.695   8.543  13.687  1.00  0.00    -0.028 A 
HETATM   41  C20 UNL     1       7.782   7.706  13.856  1.00  0.00     0.096 A 
HETATM   42  N4  UNL     1       8.392   8.023  15.038  1.00  0.00    -0.365 N 
HETATM   43  C21 UNL     1       7.721   9.051  15.658  1.00  0.00     0.042 A 
HETATM   44  H26 UNL     1       9.213   7.567  15.413  1.00  0.00     0.165 HD
HETATM   45  C22 UNL     1       7.978   9.687  16.879  1.00  0.00     0.030 A 
HETATM   46  C26 UNL     1       6.653   9.403  14.832  1.00  0.00    -0.002 A 
HETATM   47  C23 UNL     1       7.119  10.719  17.266  1.00  0.00     0.002 A 
HETATM   48  C24 UNL     1       6.045  11.096  16.464  1.00  0.00     0.001 A 
HETATM   49  C25 UNL     1       5.800  10.447  15.247  1.00  0.00     0.014 A 
ENDBRANCH  39  40
ENDBRANCH  38  39
BRANCH  38  50
HETATM   50  C27 UNL     1       5.567   6.545  10.983  1.00  0.00     0.163 C 
HETATM   51  O6  UNL     1       6.711   6.496  10.563  1.00  0.00    -0.648 OA
BRANCH  50  52
HETATM   52  O7  UNL     1       4.562   6.073  10.198  1.00  0.00    -0.775 OA
HETATM   53  H31 UNL     1       5.039   5.743   9.407  1.00  0.00     0.167 HD
ENDBRANCH  50  52
ENDBRANCH  38  50
ENDBRANCH  36  38
ENDBRANCH  33  34
ENDBRANCH  31  33
ENDBRANCH  28  29
ENDBRANCH   1  28
TORSDOF 12
ENDMDL
MODEL 7
REMARK minimizedAffinity -9.6174078
REMARK CNNscore 0.142333865
REMARK CNNaffinity 5.64200735
REMARK  12 active torsions:
REMARK  status: ('A' for Active; 'I' for Inactive)
REMARK    1  A    between atoms: C2_2  and  C3_4 
REMARK    2  A    between atoms: C3_4  and  O2_5 
REMARK    3  A    between atoms: N1_15  and  O3_17 
REMARK    4  A    between atoms: O3_17  and  C13_18 
REMARK    5  A    between atoms: C13_18  and  C14_19 
REMARK       I    between atoms: C14_19  and  N2_21 
REMARK    6  A    between atoms: N2_21  and  C15_22 
REMARK    7  A    between atoms: C15_22  and  C16_23 
REMARK       I    between atoms: C16_23  and  N3_25 
REMARK    8  A    between atoms: N3_25  and  C17_26 
REMARK    9  A    between atoms: C17_26  and  C18_27 
REMARK   10  A    between atoms: C17_26  and  C27_37 
REMARK   11  A    between atoms: C18_27  and  C19_28 
REMARK   12  A    between atoms: C27_37  and  O7_39 
ROOT
HETATM    1  O3  UNL     1       2.699   6.454  11.708  1.00  0.00    -0.271 OA
ENDROOT
BRANCH   1   2
HETATM    2  N1  UNL     1       4.024   6.221  11.314  1.00  0.00    -0.271 N 
HETATM    3  C12 UNL     1       4.831   7.178  11.658  1.00  0.00     0.032 C 
HETATM    4  C11 UNL     1       4.459   8.443  12.349  1.00  0.00     0.030 C 
HETATM    5  C28 UNL     1       6.285   7.013  11.271  1.00  0.00     0.060 C 
HETATM    6  C10 UNL     1       5.394   9.316  12.773  1.00  0.00    -0.069 C 
HETATM    7  C9  UNL     1       4.970  10.639  13.369  1.00  0.00     0.035 C 
HETATM    8  C30 UNL     1       6.907   9.075  12.671  1.00  0.00    -0.016 C 
HETATM    9  C8  UNL     1       5.644  10.897  14.710  1.00  0.00     0.010 C 
HETATM   10  C7  UNL     1       7.174  10.815  14.598  1.00  0.00    -0.004 C 
HETATM   11  C6  UNL     1       7.853  11.182  15.936  1.00  0.00     0.002 C 
HETATM   12  C32 UNL     1       7.601   9.430  14.046  1.00  0.00     0.002 C 
HETATM   13  C5  UNL     1       7.384  10.382  17.163  1.00  0.00     0.009 C 
HETATM   14  C35 UNL     1       9.389  11.013  15.941  1.00  0.00    -0.002 C 
HETATM   15  C4  UNL     1       8.565  10.334  18.139  1.00  0.00     0.047 C 
HETATM   16  C3  UNL     1       9.724  11.097  17.466  1.00  0.00     0.125 C 
HETATM   17  C34 UNL     1       9.783   9.629  15.355  1.00  0.00     0.013 C 
HETATM   18  C36 UNL     1      10.082  12.115  15.118  1.00  0.00     0.019 C 
HETATM   19  C33 UNL     1       9.139   9.328  14.000  1.00  0.00     0.007 C 
HETATM   20  C29 UNL     1       7.183   7.576  12.360  1.00  0.00     0.020 C 
HETATM   21  C31 UNL     1       7.453   9.933  11.506  1.00  0.00     0.020 C 
ATOM     22  H1  UNL     1       4.323   5.385  10.811  1.00  0.00     0.194 HD
BRANCH  16  23
HETATM   23  C2  UNL     1       9.767  12.553  18.011  1.00  0.00     0.158 C 
HETATM   24  C1  UNL     1       8.577  13.036  18.804  1.00  0.00     0.094 C 
HETATM   25  O1  UNL     1      10.730  13.300  17.822  1.00  0.00    -0.295 OA
ENDBRANCH  16  23
BRANCH  16  26
HETATM   26  O2  UNL     1      10.953  10.435  17.751  1.00  0.00    -0.381 OA
HETATM   27  H4  UNL     1      10.977  10.241  18.706  1.00  0.00     0.211 HD
ENDBRANCH  16  26
ENDBRANCH   1   2
BRANCH   1  28
HETATM   28  C13 UNL     1       1.850   5.759  10.800  1.00  0.00     0.303 C 
BRANCH  28  29
HETATM   29  C14 UNL     1       0.758   4.984  11.526  1.00  0.00     0.244 C 
HETATM   30  O4  UNL     1       0.554   3.791  11.320  1.00  0.00    -0.271 OA
HETATM   31  N2  UNL     1      -0.040   5.738  12.364  1.00  0.00    -0.350 N 
HETATM   32  H18 UNL     1       0.349   6.627  12.658  1.00  0.00     0.163 HD
BRANCH  31  33
HETATM   33  C15 UNL     1      -0.988   5.077  13.256  1.00  0.00     0.225 C 
BRANCH  33  34
HETATM   34  C16 UNL     1      -2.270   5.876  13.530  1.00  0.00     0.236 C 
HETATM   35  O5  UNL     1      -2.673   6.747  12.763  1.00  0.00    -0.272 OA
HETATM   36  N3  UNL     1      -2.968   5.482  14.643  1.00  0.00    -0.345 N 
HETATM   37  H21 UNL     1      -2.545   4.791  15.253  1.00  0.00     0.163 HD
BRANCH  36  38
HETATM   38  C17 UNL     1      -4.131   6.213  15.159  1.00  0.00     0.186 C 
BRANCH  38  39
HETATM   39  C18 UNL     1      -5.149   6.463  14.035  1.00  0.00     0.077 C 
BRANCH  39  40
HETATM   40  C19 UNL     1      -6.129   5.345  13.845  1.00  0.00    -0.028 A 
HETATM   41  C20 UNL     1      -7.349   5.225  14.484  1.00  0.00     0.096 A 
HETATM   42  N4  UNL     1      -7.941   4.064  14.071  1.00  0.00    -0.365 N 
HETATM   43  C21 UNL     1      -7.129   3.409  13.175  1.00  0.00     0.042 A 
HETATM   44  H26 UNL     1      -8.841   3.724  14.381  1.00  0.00     0.165 HD
HETATM   45  C22 UNL     1      -7.320   2.192  12.509  1.00  0.00     0.030 A 
HETATM   46  C26 UNL     1      -5.985   4.191  13.008  1.00  0.00    -0.002 A 
HETATM   47  C23 UNL     1      -6.313   1.763  11.640  1.00  0.00     0.002 A 
HETATM   48  C24 UNL     1      -5.160   2.520  11.450  1.00  0.00     0.001 A 
HETATM   49  C25 UNL     1      -4.982   3.733  12.127  1.00  0.00     0.014 A 
ENDBRANCH  39  40
ENDBRANCH  38  39
BRANCH  38  50
HETATM   50  C27 UNL     1      -3.653   7.550  15.734  1.00  0.00     0.163 C 
HETATM   51  O6  UNL     1      -4.035   8.669  15.433  1.00  0.00    -0.648 OA
BRANCH  50  52
HETATM   52  O7  UNL     1      -2.651   7.424  16.642  1.00  0.00    -0.775 OA
HETATM   53  H31 UNL     1      -2.465   8.354  16.894  1.00  0.00     0.167 HD
ENDBRANCH  50  52
ENDBRANCH  38  50
ENDBRANCH  36  38
ENDBRANCH  33  34
ENDBRANCH  31  33
ENDBRANCH  28  29
ENDBRANCH   1  28
TORSDOF 12
ENDMDL
MODEL 8
REMARK minimizedAffinity -8.71323872
REMARK CNNscore 0.142187014
REMARK CNNaffinity 5.41150427
REMARK  12 active torsions:
REMARK  status: ('A' for Active; 'I' for Inactive)
REMARK    1  A    between atoms: C2_2  and  C3_4 
REMARK    2  A    between atoms: C3_4  and  O2_5 
REMARK    3  A    between atoms: N1_15  and  O3_17 
REMARK    4  A    between atoms: O3_17  and  C13_18 
REMARK    5  A    between atoms: C13_18  and  C14_19 
REMARK       I    between atoms: C14_19  and  N2_21 
REMARK    6  A    between atoms: N2_21  and  C15_22 
REMARK    7  A    between atoms: C15_22  and  C16_23 
REMARK       I    between atoms: C16_23  and  N3_25 
REMARK    8  A    between atoms: N3_25  and  C17_26 
REMARK    9  A    between atoms: C17_26  and  C18_27 
REMARK   10  A    between atoms: C17_26  and  C27_37 
REMARK   11  A    between atoms: C18_27  and  C19_28 
REMARK   12  A    between atoms: C27_37  and  O7_39 
ROOT
HETATM    1  O3  UNL     1       2.330   9.941  18.453  1.00  0.00    -0.271 OA
ENDROOT
BRANCH   1   2
HETATM    2  N1  UNL     1       2.022  10.227  19.791  1.00  0.00    -0.271 N 
HETATM    3  C12 UNL     1       3.009  10.776  20.432  1.00  0.00     0.032 C 
HETATM    4  C11 UNL     1       4.368  11.055  19.891  1.00  0.00     0.030 C 
HETATM    5  C28 UNL     1       2.768  11.119  21.885  1.00  0.00     0.060 C 
HETATM    6  C10 UNL     1       5.282  11.744  20.604  1.00  0.00    -0.069 C 
HETATM    7  C9  UNL     1       6.685  11.907  20.065  1.00  0.00     0.035 C 
HETATM    8  C30 UNL     1       5.007  12.374  21.977  1.00  0.00    -0.016 C 
HETATM    9  C8  UNL     1       7.132  13.363  20.084  1.00  0.00     0.010 C 
HETATM   10  C7  UNL     1       7.012  13.972  21.489  1.00  0.00    -0.004 C 
HETATM   11  C6  UNL     1       7.567  15.414  21.523  1.00  0.00     0.002 C 
HETATM   12  C32 UNL     1       5.555  13.857  22.006  1.00  0.00     0.002 C 
HETATM   13  C5  UNL     1       6.965  16.383  20.490  1.00  0.00     0.009 C 
HETATM   14  C35 UNL     1       7.379  16.140  22.874  1.00  0.00    -0.002 C 
HETATM   15  C4  UNL     1       7.047  17.787  21.099  1.00  0.00     0.047 C 
HETATM   16  C3  UNL     1       7.686  17.625  22.495  1.00  0.00     0.125 C 
HETATM   17  C34 UNL     1       5.917  15.979  23.377  1.00  0.00     0.013 C 
HETATM   18  C36 UNL     1       8.335  15.590  23.949  1.00  0.00     0.019 C 
HETATM   19  C33 UNL     1       5.425  14.530  23.387  1.00  0.00     0.007 C 
HETATM   20  C29 UNL     1       3.475  12.416  22.242  1.00  0.00     0.020 C 
HETATM   21  C31 UNL     1       5.674  11.487  23.055  1.00  0.00     0.020 C 
ATOM     22  H1  UNL     1       1.117  10.026  20.215  1.00  0.00     0.194 HD
BRANCH  16  23
HETATM   23  C2  UNL     1       9.205  17.940  22.405  1.00  0.00     0.158 C 
HETATM   24  C1  UNL     1       9.874  17.774  21.062  1.00  0.00     0.094 C 
HETATM   25  O1  UNL     1       9.859  18.320  23.380  1.00  0.00    -0.295 OA
ENDBRANCH  16  23
BRANCH  16  26
HETATM   26  O2  UNL     1       7.057  18.520  23.407  1.00  0.00    -0.381 OA
HETATM   27  H4  UNL     1       7.008  19.398  22.985  1.00  0.00     0.211 HD
ENDBRANCH  16  26
ENDBRANCH   1   2
BRANCH   1  28
HETATM   28  C13 UNL     1       1.142  10.122  17.688  1.00  0.00     0.303 C 
BRANCH  28  29
HETATM   29  C14 UNL     1       1.311   9.630  16.256  1.00  0.00     0.244 C 
HETATM   30  O4  UNL     1       2.060  10.186  15.458  1.00  0.00    -0.271 OA
HETATM   31  N2  UNL     1       0.497   8.574  15.898  1.00  0.00    -0.350 N 
HETATM   32  H18 UNL     1       0.113   8.035  16.665  1.00  0.00     0.163 HD
BRANCH  31  33
HETATM   33  C15 UNL     1       0.706   7.896  14.622  1.00  0.00     0.225 C 
BRANCH  33  34
HETATM   34  C16 UNL     1      -0.240   6.713  14.365  1.00  0.00     0.236 C 
HETATM   35  O5  UNL     1       0.165   5.632  13.946  1.00  0.00    -0.272 OA
HETATM   36  N3  UNL     1      -1.547   6.932  14.722  1.00  0.00    -0.345 N 
HETATM   37  H21 UNL     1      -1.813   7.867  15.012  1.00  0.00     0.163 HD
BRANCH  36  38
HETATM   38  C17 UNL     1      -2.628   5.987  14.418  1.00  0.00     0.186 C 
BRANCH  38  39
HETATM   39  C18 UNL     1      -3.034   6.095  12.940  1.00  0.00     0.077 C 
BRANCH  39  40
HETATM   40  C19 UNL     1      -3.308   4.774  12.288  1.00  0.00    -0.028 A 
HETATM   41  C20 UNL     1      -2.426   4.072  11.487  1.00  0.00     0.096 A 
HETATM   42  N4  UNL     1      -3.045   2.930  11.061  1.00  0.00    -0.365 N 
HETATM   43  C21 UNL     1      -4.325   2.869  11.559  1.00  0.00     0.042 A 
HETATM   44  H26 UNL     1      -2.632   2.231  10.459  1.00  0.00     0.165 HD
HETATM   45  C22 UNL     1      -5.317   1.897  11.377  1.00  0.00     0.030 A 
HETATM   46  C26 UNL     1      -4.519   4.010  12.339  1.00  0.00    -0.002 A 
HETATM   47  C23 UNL     1      -6.544   2.096  12.016  1.00  0.00     0.002 A 
HETATM   48  C24 UNL     1      -6.769   3.223  12.801  1.00  0.00     0.001 A 
HETATM   49  C25 UNL     1      -5.768   4.187  12.970  1.00  0.00     0.014 A 
ENDBRANCH  39  40
ENDBRANCH  38  39
BRANCH  38  50
HETATM   50  C27 UNL     1      -3.828   6.312  15.313  1.00  0.00     0.163 C 
HETATM   51  O6  UNL     1      -4.817   6.966  15.025  1.00  0.00    -0.648 OA
BRANCH  50  52
HETATM   52  O7  UNL     1      -3.705   5.838  16.580  1.00  0.00    -0.775 OA
HETATM   53  H31 UNL     1      -4.536   6.137  17.008  1.00  0.00     0.167 HD
ENDBRANCH  50  52
ENDBRANCH  38  50
ENDBRANCH  36  38
ENDBRANCH  33  34
ENDBRANCH  31  33
ENDBRANCH  28  29
ENDBRANCH   1  28
TORSDOF 12
ENDMDL
MODEL 9
REMARK minimizedAffinity -9.03765011
REMARK CNNscore 0.140803456
REMARK CNNaffinity 5.71599722
REMARK  12 active torsions:
REMARK  status: ('A' for Active; 'I' for Inactive)
REMARK    1  A    between atoms: C2_2  and  C3_4 
REMARK    2  A    between atoms: C3_4  and  O2_5 
REMARK    3  A    between atoms: N1_15  and  O3_17 
REMARK    4  A    between atoms: O3_17  and  C13_18 
REMARK    5  A    between atoms: C13_18  and  C14_19 
REMARK       I    between atoms: C14_19  and  N2_21 
REMARK    6  A    between atoms: N2_21  and  C15_22 
REMARK    7  A    between atoms: C15_22  and  C16_23 
REMARK       I    between atoms: C16_23  and  N3_25 
REMARK    8  A    between atoms: N3_25  and  C17_26 
REMARK    9  A    between atoms: C17_26  and  C18_27 
REMARK   10  A    between atoms: C17_26  and  C27_37 
REMARK   11  A    between atoms: C18_27  and  C19_28 
REMARK   12  A    between atoms: C27_37  and  O7_39 
ROOT
HETATM    1  O3  UNL     1       4.566   8.193  11.353  1.00  0.00    -0.271 OA
ENDROOT
BRANCH   1   2
HETATM    2  N1  UNL     1       5.124   7.333  12.309  1.00  0.00    -0.271 N 
HETATM    3  C12 UNL     1       6.179   7.827  12.881  1.00  0.00     0.032 C 
HETATM    4  C11 UNL     1       6.820   9.136  12.575  1.00  0.00     0.030 C 
HETATM    5  C28 UNL     1       6.851   6.965  13.927  1.00  0.00     0.060 C 
HETATM    6  C10 UNL     1       7.840   9.612  13.316  1.00  0.00    -0.069 C 
HETATM    7  C9  UNL     1       8.535  10.889  12.903  1.00  0.00     0.035 C 
HETATM    8  C30 UNL     1       8.386   8.921  14.574  1.00  0.00    -0.016 C 
HETATM    9  C8  UNL     1       8.631  11.878  14.058  1.00  0.00     0.010 C 
HETATM   10  C7  UNL     1       9.319  11.254  15.281  1.00  0.00    -0.004 C 
HETATM   11  C6  UNL     1       9.508  12.294  16.408  1.00  0.00     0.002 C 
HETATM   12  C32 UNL     1       8.561   9.980  15.735  1.00  0.00     0.002 C 
HETATM   13  C5  UNL     1       8.234  13.031  16.855  1.00  0.00     0.009 C 
HETATM   14  C35 UNL     1      10.090  11.718  17.718  1.00  0.00    -0.002 C 
HETATM   15  C4  UNL     1       8.435  13.410  18.326  1.00  0.00     0.047 C 
HETATM   16  C3  UNL     1       9.824  12.878  18.733  1.00  0.00     0.125 C 
HETATM   17  C34 UNL     1       9.327  10.427  18.128  1.00  0.00     0.013 C 
HETATM   18  C36 UNL     1      11.586  11.384  17.574  1.00  0.00     0.019 C 
HETATM   19  C33 UNL     1       9.214   9.396  17.003  1.00  0.00     0.007 C 
HETATM   20  C29 UNL     1       7.385   7.832  15.056  1.00  0.00     0.020 C 
HETATM   21  C31 UNL     1       9.724   8.238  14.205  1.00  0.00     0.020 C 
ATOM     22  H1  UNL     1       4.741   6.414  12.531  1.00  0.00     0.194 HD
BRANCH  16  23
HETATM   23  C2  UNL     1      10.864  14.030  18.642  1.00  0.00     0.158 C 
HETATM   24  C1  UNL     1      11.253  14.511  17.266  1.00  0.00     0.094 C 
HETATM   25  O1  UNL     1      11.360  14.552  19.644  1.00  0.00    -0.295 OA
ENDBRANCH  16  23
BRANCH  16  26
HETATM   26  O2  UNL     1       9.766  12.379  20.066  1.00  0.00    -0.381 OA
HETATM   27  H4  UNL     1       9.310  13.042  20.617  1.00  0.00     0.211 HD
ENDBRANCH  16  26
ENDBRANCH   1   2
BRANCH   1  28
HETATM   28  C13 UNL     1       3.263   8.553  11.805  1.00  0.00     0.303 C 
BRANCH  28  29
HETATM   29  C14 UNL     1       2.418   7.328  12.127  1.00  0.00     0.244 C 
HETATM   30  O4  UNL     1       2.432   6.320  11.426  1.00  0.00    -0.271 OA
HETATM   31  N2  UNL     1       1.573   7.465  13.211  1.00  0.00    -0.350 N 
HETATM   32  H18 UNL     1       1.807   8.208  13.859  1.00  0.00     0.163 HD
BRANCH  31  33
HETATM   33  C15 UNL     1       0.862   6.301  13.731  1.00  0.00     0.225 C 
BRANCH  33  34
HETATM   34  C16 UNL     1      -0.662   6.350  13.550  1.00  0.00     0.236 C 
HETATM   35  O5  UNL     1      -1.197   7.070  12.710  1.00  0.00    -0.272 OA
HETATM   36  N3  UNL     1      -1.365   5.470  14.334  1.00  0.00    -0.345 N 
HETATM   37  H21 UNL     1      -0.857   4.947  15.039  1.00  0.00     0.163 HD
BRANCH  36  38
HETATM   38  C17 UNL     1      -2.830   5.469  14.420  1.00  0.00     0.186 C 
BRANCH  38  39
HETATM   39  C18 UNL     1      -3.447   5.778  13.046  1.00  0.00     0.077 C 
BRANCH  39  40
HETATM   40  C19 UNL     1      -3.978   4.571  12.335  1.00  0.00    -0.028 A 
HETATM   41  C20 UNL     1      -3.363   3.918  11.284  1.00  0.00     0.096 A 
HETATM   42  N4  UNL     1      -4.164   2.884  10.889  1.00  0.00    -0.365 N 
HETATM   43  C21 UNL     1      -5.305   2.847  11.655  1.00  0.00     0.042 A 
HETATM   44  H26 UNL     1      -3.959   2.240  10.137  1.00  0.00     0.165 HD
HETATM   45  C22 UNL     1      -6.399   1.974  11.599  1.00  0.00     0.030 A 
HETATM   46  C26 UNL     1      -5.216   3.891  12.577  1.00  0.00    -0.002 A 
HETATM   47  C23 UNL     1      -7.434   2.174  12.518  1.00  0.00     0.002 A 
HETATM   48  C24 UNL     1      -7.376   3.205  13.451  1.00  0.00     0.001 A 
HETATM   49  C25 UNL     1      -6.276   4.071  13.491  1.00  0.00     0.014 A 
ENDBRANCH  39  40
ENDBRANCH  38  39
BRANCH  38  50
HETATM   50  C27 UNL     1      -3.262   6.531  15.435  1.00  0.00     0.163 C 
HETATM   51  O6  UNL     1      -2.585   7.429  15.908  1.00  0.00    -0.648 OA
BRANCH  50  52
HETATM   52  O7  UNL     1      -4.541   6.380  15.868  1.00  0.00    -0.775 OA
HETATM   53  H31 UNL     1      -4.646   7.120  16.505  1.00  0.00     0.167 HD
ENDBRANCH  50  52
ENDBRANCH  38  50
ENDBRANCH  36  38
ENDBRANCH  33  34
ENDBRANCH  31  33
ENDBRANCH  28  29
ENDBRANCH   1  28
TORSDOF 12
ENDMDL
