MODEL 1
REMARK minimizedAffinity -8.75079346
REMARK CNNscore 0.337852865
REMARK CNNaffinity 6.91390371
REMARK  6 active torsions:
REMARK  status: ('A' for Active; 'I' for Inactive)
REMARK    1  A    between atoms: C2_2  and  C3_3 
REMARK    2  A    between atoms: C7_8  and  C8_9 
REMARK    3  A    between atoms: C21_24  and  C22_25 
REMARK    4  A    between atoms: C22_25  and  O1_26 
REMARK    5  A    between atoms: C23_27  and  C26_30 
REMARK    6  A    between atoms: C27_31  and  O2_32 
ROOT
HETATM    1  C8  UNL     1       4.128   9.476  12.770  1.00  0.00    -0.003 C 
HETATM    2  C9  UNL     1       4.240   8.665  11.700  1.00  0.00     0.102 C 
HETATM    3  N2  UNL     1       3.213   7.850  11.271  1.00  0.00    -0.349 N 
HETATM    4  C10 UNL     1       2.690   7.850   9.946  1.00  0.00     0.041 A 
HETATM    5  C11 UNL     1       3.327   8.274   8.791  1.00  0.00     0.030 A 
HETATM    6  C12 UNL     1       2.628   8.230   7.580  1.00  0.00     0.002 A 
HETATM    7  C13 UNL     1       1.307   7.764   7.535  1.00  0.00     0.001 A 
HETATM    8  C14 UNL     1       0.666   7.330   8.697  1.00  0.00     0.010 A 
HETATM    9  C15 UNL     1       1.366   7.380   9.893  1.00  0.00    -0.018 A 
HETATM   10  C16 UNL     1       0.936   6.941  11.262  1.00  0.00     0.043 C 
HETATM   11  C17 UNL     1       1.014   5.416  11.397  1.00  0.00     0.049 C 
HETATM   12  C18 UNL     1       0.285   5.159  12.705  1.00  0.00     0.274 C 
HETATM   13  N3  UNL     1      -0.725   6.215  12.797  1.00  0.00     0.098 N 
HETATM   14  C19 UNL     1      -0.894   6.759  14.139  1.00  0.00     0.307 C 
HETATM   15  C20 UNL     1       0.014   7.938  14.488  1.00  0.00    -0.049 C 
HETATM   16  C21 UNL     1       0.420   8.063  15.772  1.00  0.00     0.004 C 
HETATM   17  C23 UNL     1       0.225   8.965  13.372  1.00  0.00     0.027 C 
HETATM   18  C24 UNL     1      -0.757   8.647  12.225  1.00  0.00     0.046 C 
HETATM   19  C25 UNL     1      -0.502   7.218  11.734  1.00  0.00     0.239 C 
HETATM   20  C26 UNL     1       1.616   9.003  12.692  1.00  0.00     0.052 C 
HETATM   21  C27 UNL     1       2.795   9.561  13.511  1.00  0.00     0.160 C 
HETATM   22  C28 UNL     1       2.024   7.628  12.133  1.00  0.00     0.112 C 
ENDROOT
BRANCH   1  23
HETATM   23  C7  UNL     1       5.277  10.250  13.290  1.00  0.00    -0.016 A 
HETATM   24  C3  UNL     1       6.145   9.795  14.302  1.00  0.00    -0.032 A 
HETATM   25  C4  UNL     1       7.160  10.657  14.731  1.00  0.00     0.099 A 
HETATM   26  N1  UNL     1       7.365  11.865  14.158  1.00  0.00    -0.354 N 
HETATM   27  C5  UNL     1       6.578  12.284  13.129  1.00  0.00     0.062 A 
HETATM   28  C32 UNL     1       8.403  12.781  14.750  1.00  0.00     0.133 C 
HETATM   29  C6  UNL     1       5.520  11.496  12.698  1.00  0.00     0.044 A 
HETATM   30  C29 UNL     1       6.945  13.544  12.509  1.00  0.00     0.067 A 
HETATM   31  C30 UNL     1       8.128  14.206  12.758  1.00  0.00    -0.015 A 
HETATM   32  N4  UNL     1       6.260  14.262  11.563  1.00  0.00    -0.353 N 
HETATM   33  C31 UNL     1       9.121  13.633  13.699  1.00  0.00     0.062 C 
HETATM   34  C33 UNL     1       8.153  15.388  11.976  1.00  0.00    -0.001 A 
HETATM   35  C34 UNL     1       9.069  16.445  11.811  1.00  0.00     0.014 A 
HETATM   36  C38 UNL     1       6.969  15.401  11.236  1.00  0.00     0.043 A 
HETATM   37  C35 UNL     1       8.764  17.479  10.918  1.00  0.00     0.001 A 
HETATM   38  C36 UNL     1       7.575  17.467  10.193  1.00  0.00     0.002 A 
HETATM   39  C37 UNL     1       6.653  16.425  10.337  1.00  0.00     0.030 A 
HETATM   40  H39 UNL     1       5.371  14.019  11.144  1.00  0.00     0.166 HD
BRANCH  24  41
HETATM   41  C2  UNL     1       5.980   8.422  14.930  1.00  0.00     0.036 C 
HETATM   42  C1  UNL     1       6.723   7.271  14.258  1.00  0.00     0.010 C 
ENDBRANCH  24  41
ENDBRANCH   1  23
BRANCH  21  43
HETATM   43  O2  UNL     1       2.544  10.934  13.825  1.00  0.00    -0.390 OA
HETATM   44  H29 UNL     1       2.359  11.391  12.987  1.00  0.00     0.210 HD
ENDBRANCH  21  43
BRANCH  16  45
HETATM   45  C22 UNL     1       1.114   9.201  16.443  1.00  0.00     0.191 C 
BRANCH  45  46
HETATM   46  O1  UNL     1       2.313   8.709  17.033  1.00  0.00    -0.397 OA
HETATM   47  H22 UNL     1       2.038   8.243  17.842  1.00  0.00     0.209 HD
ENDBRANCH  45  46
ENDBRANCH  16  45
TORSDOF 6
ENDMDL
MODEL 2
REMARK minimizedAffinity -8.9059906
REMARK CNNscore 0.216264129
REMARK CNNaffinity 6.18842506
REMARK  6 active torsions:
REMARK  status: ('A' for Active; 'I' for Inactive)
REMARK    1  A    between atoms: C2_2  and  C3_3 
REMARK    2  A    between atoms: C7_8  and  C8_9 
REMARK    3  A    between atoms: C21_24  and  C22_25 
REMARK    4  A    between atoms: C22_25  and  O1_26 
REMARK    5  A    between atoms: C23_27  and  C26_30 
REMARK    6  A    between atoms: C27_31  and  O2_32 
ROOT
HETATM    1  C8  UNL     1       1.313  10.882  17.954  1.00  0.00    -0.003 C 
HETATM    2  C9  UNL     1       2.015  10.052  18.750  1.00  0.00     0.102 C 
HETATM    3  N2  UNL     1       3.030  10.491  19.575  1.00  0.00    -0.349 N 
HETATM    4  C10 UNL     1       3.085  10.245  20.976  1.00  0.00     0.041 A 
HETATM    5  C11 UNL     1       2.459   9.225  21.677  1.00  0.00     0.030 A 
HETATM    6  C12 UNL     1       2.606   9.173  23.067  1.00  0.00     0.002 A 
HETATM    7  C13 UNL     1       3.374  10.133  23.740  1.00  0.00     0.001 A 
HETATM    8  C14 UNL     1       4.011  11.156  23.036  1.00  0.00     0.010 A 
HETATM    9  C15 UNL     1       3.858  11.202  21.658  1.00  0.00    -0.018 A 
HETATM   10  C16 UNL     1       4.459  12.155  20.669  1.00  0.00     0.043 C 
HETATM   11  C17 UNL     1       5.925  11.804  20.392  1.00  0.00     0.049 C 
HETATM   12  C18 UNL     1       6.419  13.016  19.621  1.00  0.00     0.274 C 
HETATM   13  N3  UNL     1       5.644  14.146  20.140  1.00  0.00     0.098 N 
HETATM   14  C19 UNL     1       5.229  15.099  19.119  1.00  0.00     0.307 C 
HETATM   15  C20 UNL     1       3.886  14.803  18.452  1.00  0.00    -0.049 C 
HETATM   16  C21 UNL     1       3.735  15.155  17.154  1.00  0.00     0.004 C 
HETATM   17  C23 UNL     1       2.781  14.297  19.383  1.00  0.00     0.027 C 
HETATM   18  C24 UNL     1       3.265  14.446  20.840  1.00  0.00     0.046 C 
HETATM   19  C25 UNL     1       4.562  13.650  21.017  1.00  0.00     0.239 C 
HETATM   20  C26 UNL     1       2.373  12.808  19.261  1.00  0.00     0.052 C 
HETATM   21  C27 UNL     1       1.591  12.383  18.004  1.00  0.00     0.160 C 
HETATM   22  C28 UNL     1       3.577  11.863  19.424  1.00  0.00     0.112 C 
ENDROOT
BRANCH   1  23
HETATM   23  C7  UNL     1       0.313  10.380  16.985  1.00  0.00    -0.016 A 
HETATM   24  C3  UNL     1      -1.074  10.350  17.224  1.00  0.00    -0.032 A 
HETATM   25  C4  UNL     1      -1.898   9.800  16.236  1.00  0.00     0.099 A 
HETATM   26  N1  UNL     1      -1.407   9.370  15.051  1.00  0.00    -0.354 N 
HETATM   27  C5  UNL     1      -0.076   9.463  14.780  1.00  0.00     0.062 A 
HETATM   28  C32 UNL     1      -2.339   8.686  14.086  1.00  0.00     0.133 C 
HETATM   29  C6  UNL     1       0.797   9.947  15.744  1.00  0.00     0.044 A 
HETATM   30  C29 UNL     1       0.338   9.077  13.443  1.00  0.00     0.067 A 
HETATM   31  C30 UNL     1      -0.540   8.836  12.408  1.00  0.00    -0.015 A 
HETATM   32  N4  UNL     1       1.609   8.938  12.949  1.00  0.00    -0.353 N 
HETATM   33  C31 UNL     1      -2.001   8.975  12.619  1.00  0.00     0.062 C 
HETATM   34  C33 UNL     1       0.211   8.497  11.254  1.00  0.00    -0.001 A 
HETATM   35  C34 UNL     1      -0.115   8.148   9.930  1.00  0.00     0.014 A 
HETATM   36  C38 UNL     1       1.557   8.567  11.621  1.00  0.00     0.043 A 
HETATM   37  C35 UNL     1       0.915   7.877   9.022  1.00  0.00     0.001 A 
HETATM   38  C36 UNL     1       2.249   7.954   9.415  1.00  0.00     0.002 A 
HETATM   39  C37 UNL     1       2.597   8.302  10.723  1.00  0.00     0.030 A 
HETATM   40  H39 UNL     1       2.475   9.086  13.454  1.00  0.00     0.166 HD
BRANCH  24  41
HETATM   41  C2  UNL     1      -1.668  10.876  18.520  1.00  0.00     0.036 C 
HETATM   42  C1  UNL     1      -3.074  10.395  18.870  1.00  0.00     0.010 C 
ENDBRANCH  24  41
ENDBRANCH   1  23
BRANCH  21  43
HETATM   43  O2  UNL     1       0.338  13.073  17.972  1.00  0.00    -0.390 OA
HETATM   44  H29 UNL     1      -0.105  12.902  18.821  1.00  0.00     0.210 HD
ENDBRANCH  21  43
BRANCH  16  45
HETATM   45  C22 UNL     1       2.500  15.190  16.317  1.00  0.00     0.191 C 
BRANCH  45  46
HETATM   46  O1  UNL     1       1.761  16.358  16.661  1.00  0.00    -0.397 OA
HETATM   47  H22 UNL     1       1.325  16.155  17.507  1.00  0.00     0.209 HD
ENDBRANCH  45  46
ENDBRANCH  16  45
TORSDOF 6
ENDMDL
MODEL 3
REMARK minimizedAffinity -9.42388439
REMARK CNNscore 0.189752087
REMARK CNNaffinity 6.98364449
REMARK  6 active torsions:
REMARK  status: ('A' for Active; 'I' for Inactive)
REMARK    1  A    between atoms: C2_2  and  C3_3 
REMARK    2  A    between atoms: C7_8  and  C8_9 
REMARK    3  A    between atoms: C21_24  and  C22_25 
REMARK    4  A    between atoms: C22_25  and  O1_26 
REMARK    5  A    between atoms: C23_27  and  C26_30 
REMARK    6  A    between atoms: C27_31  and  O2_32 
ROOT
HETATM    1  C8  UNL     1       4.234   8.792  13.009  1.00  0.00    -0.003 C 
HETATM    2  C9  UNL     1       4.165   7.997  11.924  1.00  0.00     0.102 C 
HETATM    3  N2  UNL     1       2.978   7.469  11.459  1.00  0.00    -0.349 N 
HETATM    4  C10 UNL     1       2.500   7.621  10.127  1.00  0.00     0.041 A 
HETATM    5  C11 UNL     1       3.247   7.894   8.992  1.00  0.00     0.030 A 
HETATM    6  C12 UNL     1       2.585   8.045   7.769  1.00  0.00     0.002 A 
HETATM    7  C13 UNL     1       1.191   7.921   7.692  1.00  0.00     0.001 A 
HETATM    8  C14 UNL     1       0.438   7.640   8.832  1.00  0.00     0.010 A 
HETATM    9  C15 UNL     1       1.102   7.494  10.041  1.00  0.00    -0.018 A 
HETATM   10  C16 UNL     1       0.548   7.152  11.392  1.00  0.00     0.043 C 
HETATM   11  C17 UNL     1       0.242   5.654  11.495  1.00  0.00     0.049 C 
HETATM   12  C18 UNL     1      -0.555   5.564  12.785  1.00  0.00     0.274 C 
HETATM   13  N3  UNL     1      -1.275   6.836  12.883  1.00  0.00     0.098 N 
HETATM   14  C19 UNL     1      -1.333   7.382  14.234  1.00  0.00     0.307 C 
HETATM   15  C20 UNL     1      -0.170   8.293  14.624  1.00  0.00    -0.049 C 
HETATM   16  C21 UNL     1       0.227   8.291  15.917  1.00  0.00     0.004 C 
HETATM   17  C23 UNL     1       0.313   9.254  13.534  1.00  0.00     0.027 C 
HETATM   18  C24 UNL     1      -0.691   9.208  12.364  1.00  0.00     0.046 C 
HETATM   19  C25 UNL     1      -0.787   7.769  11.847  1.00  0.00     0.239 C 
HETATM   20  C26 UNL     1       1.685   8.957  12.878  1.00  0.00     0.052 C 
HETATM   21  C27 UNL     1       2.948   9.192  13.729  1.00  0.00     0.160 C 
HETATM   22  C28 UNL     1       1.752   7.534  12.297  1.00  0.00     0.112 C 
ENDROOT
BRANCH   1  23
HETATM   23  C7  UNL     1       5.526   9.248  13.565  1.00  0.00    -0.016 A 
HETATM   24  C3  UNL     1       6.735   9.270  12.843  1.00  0.00    -0.032 A 
HETATM   25  C4  UNL     1       7.893   9.679  13.515  1.00  0.00     0.099 A 
HETATM   26  N1  UNL     1       7.863  10.113  14.796  1.00  0.00    -0.354 N 
HETATM   27  C5  UNL     1       6.688  10.167  15.480  1.00  0.00     0.062 A 
HETATM   28  C32 UNL     1       9.165  10.428  15.484  1.00  0.00     0.133 C 
HETATM   29  C6  UNL     1       5.517   9.719  14.885  1.00  0.00     0.044 A 
HETATM   30  C29 UNL     1       6.742  10.747  16.809  1.00  0.00     0.067 A 
HETATM   31  C30 UNL     1       7.838  11.417  17.309  1.00  0.00    -0.015 A 
HETATM   32  N4  UNL     1       5.756  10.798  17.760  1.00  0.00    -0.353 N 
HETATM   33  C31 UNL     1       9.053  11.589  16.477  1.00  0.00     0.062 C 
HETATM   34  C33 UNL     1       7.533  11.856  18.623  1.00  0.00    -0.001 A 
HETATM   35  C34 UNL     1       8.236  12.565  19.616  1.00  0.00     0.014 A 
HETATM   36  C38 UNL     1       6.221  11.453  18.882  1.00  0.00     0.043 A 
HETATM   37  C35 UNL     1       7.603  12.840  20.834  1.00  0.00     0.001 A 
HETATM   38  C36 UNL     1       6.293  12.427  21.066  1.00  0.00     0.002 A 
HETATM   39  C37 UNL     1       5.575  11.725  20.093  1.00  0.00     0.030 A 
HETATM   40  H39 UNL     1       4.817  10.427  17.679  1.00  0.00     0.166 HD
BRANCH  24  41
HETATM   41  C2  UNL     1       6.797   8.843  11.386  1.00  0.00     0.036 C 
HETATM   42  C1  UNL     1       6.815   9.963  10.349  1.00  0.00     0.010 C 
ENDBRANCH  24  41
ENDBRANCH   1  23
BRANCH  21  43
HETATM   43  O2  UNL     1       3.037  10.579  14.069  1.00  0.00    -0.390 OA
HETATM   44  H29 UNL     1       2.989  11.081  13.238  1.00  0.00     0.210 HD
ENDBRANCH  21  43
BRANCH  16  45
HETATM   45  C22 UNL     1       1.166   9.211  16.624  1.00  0.00     0.191 C 
BRANCH  45  46
HETATM   46  O1  UNL     1       2.314   8.463  17.013  1.00  0.00    -0.397 OA
HETATM   47  H22 UNL     1       2.042   7.948  17.792  1.00  0.00     0.209 HD
ENDBRANCH  45  46
ENDBRANCH  16  45
TORSDOF 6
ENDMDL
MODEL 4
REMARK minimizedAffinity -8.81511879
REMARK CNNscore 0.189406604
REMARK CNNaffinity 6.47147751
REMARK  6 active torsions:
REMARK  status: ('A' for Active; 'I' for Inactive)
REMARK    1  A    between atoms: C2_2  and  C3_3 
REMARK    2  A    between atoms: C7_8  and  C8_9 
REMARK    3  A    between atoms: C21_24  and  C22_25 
REMARK    4  A    between atoms: C22_25  and  O1_26 
REMARK    5  A    between atoms: C23_27  and  C26_30 
REMARK    6  A    between atoms: C27_31  and  O2_32 
ROOT
HETATM    1  C8  UNL     1       3.248   9.984  14.133  1.00  0.00    -0.003 C 
HETATM    2  C9  UNL     1       3.704   9.027  13.301  1.00  0.00     0.102 C 
HETATM    3  N2  UNL     1       2.882   8.068  12.745  1.00  0.00    -0.349 N 
HETATM    4  C10 UNL     1       2.780   7.814  11.348  1.00  0.00     0.041 A 
HETATM    5  C11 UNL     1       3.718   8.103  10.370  1.00  0.00     0.030 A 
HETATM    6  C12 UNL     1       3.415   7.807   9.037  1.00  0.00     0.002 A 
HETATM    7  C13 UNL     1       2.185   7.227   8.695  1.00  0.00     0.001 A 
HETATM    8  C14 UNL     1       1.242   6.928   9.680  1.00  0.00     0.010 A 
HETATM    9  C15 UNL     1       1.550   7.227  10.999  1.00  0.00    -0.018 A 
HETATM   10  C16 UNL     1       0.747   6.975  12.240  1.00  0.00     0.043 C 
HETATM   11  C17 UNL     1       0.835   5.503  12.660  1.00  0.00     0.049 C 
HETATM   12  C18 UNL     1      -0.242   5.395  13.726  1.00  0.00     0.274 C 
HETATM   13  N3  UNL     1      -1.272   6.361  13.334  1.00  0.00     0.098 N 
HETATM   14  C19 UNL     1      -1.853   7.093  14.452  1.00  0.00     0.307 C 
HETATM   15  C20 UNL     1      -1.134   8.387  14.834  1.00  0.00    -0.049 C 
HETATM   16  C21 UNL     1      -1.136   8.748  16.137  1.00  0.00     0.004 C 
HETATM   17  C23 UNL     1      -0.636   9.239  13.663  1.00  0.00     0.027 C 
HETATM   18  C24 UNL     1      -1.217   8.659  12.357  1.00  0.00     0.046 C 
HETATM   19  C25 UNL     1      -0.776   7.198  12.221  1.00  0.00     0.239 C 
HETATM   20  C26 UNL     1       0.893   9.289  13.418  1.00  0.00     0.052 C 
HETATM   21  C27 UNL     1       1.752  10.070  14.430  1.00  0.00     0.160 C 
HETATM   22  C28 UNL     1       1.498   7.883  13.253  1.00  0.00     0.112 C 
ENDROOT
BRANCH   1  23
HETATM   23  C7  UNL     1       4.160  10.927  14.817  1.00  0.00    -0.016 A 
HETATM   24  C3  UNL     1       4.929  11.905  14.156  1.00  0.00    -0.032 A 
HETATM   25  C4  UNL     1       5.788  12.695  14.927  1.00  0.00     0.099 A 
HETATM   26  N1  UNL     1       5.841  12.591  16.275  1.00  0.00    -0.354 N 
HETATM   27  C5  UNL     1       5.048  11.701  16.931  1.00  0.00     0.062 A 
HETATM   28  C32 UNL     1       6.872  13.395  17.023  1.00  0.00     0.133 C 
HETATM   29  C6  UNL     1       4.218  10.850  16.214  1.00  0.00     0.044 A 
HETATM   30  C29 UNL     1       5.099  11.739  18.381  1.00  0.00     0.067 A 
HETATM   31  C30 UNL     1       5.722  12.736  19.100  1.00  0.00    -0.015 A 
HETATM   32  N4  UNL     1       4.523  10.878  19.279  1.00  0.00    -0.353 N 
HETATM   33  C31 UNL     1       6.385  13.861  18.399  1.00  0.00     0.062 C 
HETATM   34  C33 UNL     1       5.562  12.458  20.482  1.00  0.00    -0.001 A 
HETATM   35  C34 UNL     1       5.973  13.090  21.671  1.00  0.00     0.014 A 
HETATM   36  C38 UNL     1       4.808  11.285  20.567  1.00  0.00     0.043 A 
HETATM   37  C35 UNL     1       5.620  12.523  22.901  1.00  0.00     0.001 A 
HETATM   38  C36 UNL     1       4.867  11.353  22.957  1.00  0.00     0.002 A 
HETATM   39  C37 UNL     1       4.444  10.711  21.790  1.00  0.00     0.030 A 
HETATM   40  H39 UNL     1       3.963  10.062  19.063  1.00  0.00     0.166 HD
BRANCH  24  41
HETATM   41  C2  UNL     1       4.853  12.089  12.649  1.00  0.00     0.036 C 
HETATM   42  C1  UNL     1       4.886  13.526  12.136  1.00  0.00     0.010 C 
ENDBRANCH  24  41
ENDBRANCH   1  23
BRANCH  21  43
HETATM   43  O2  UNL     1       1.369  11.448  14.410  1.00  0.00    -0.390 OA
HETATM   44  H29 UNL     1       1.428  11.748  13.487  1.00  0.00     0.210 HD
ENDBRANCH  21  43
BRANCH  16  45
HETATM   45  C22 UNL     1      -0.715  10.034  16.767  1.00  0.00     0.191 C 
BRANCH  45  46
HETATM   46  O1  UNL     1       0.487   9.803  17.495  1.00  0.00    -0.397 OA
HETATM   47  H22 UNL     1       0.218   9.351  18.314  1.00  0.00     0.209 HD
ENDBRANCH  45  46
ENDBRANCH  16  45
TORSDOF 6
ENDMDL
MODEL 5
REMARK minimizedAffinity -9.99651909
REMARK CNNscore 0.171251774
REMARK CNNaffinity 7.02081156
REMARK  6 active torsions:
REMARK  status: ('A' for Active; 'I' for Inactive)
REMARK    1  A    between atoms: C2_2  and  C3_3 
REMARK    2  A    between atoms: C7_8  and  C8_9 
REMARK    3  A    between atoms: C21_24  and  C22_25 
REMARK    4  A    between atoms: C22_25  and  O1_26 
REMARK    5  A    between atoms: C23_27  and  C26_30 
REMARK    6  A    between atoms: C27_31  and  O2_32 
ROOT
HETATM    1  C8  UNL     1     -12.434   7.839  14.425  1.00  0.00    -0.003 C 
HETATM    2  C9  UNL     1     -13.201   6.962  15.100  1.00  0.00     0.102 C 
HETATM    3  N2  UNL     1     -14.573   6.910  14.963  1.00  0.00    -0.349 N 
HETATM    4  C10 UNL     1     -15.300   5.735  14.621  1.00  0.00     0.041 A 
HETATM    5  C11 UNL     1     -14.900   4.419  14.795  1.00  0.00     0.030 A 
HETATM    6  C12 UNL     1     -15.746   3.394  14.359  1.00  0.00     0.002 A 
HETATM    7  C13 UNL     1     -16.977   3.691  13.758  1.00  0.00     0.001 A 
HETATM    8  C14 UNL     1     -17.385   5.015  13.589  1.00  0.00     0.010 A 
HETATM    9  C15 UNL     1     -16.539   6.025  14.022  1.00  0.00    -0.018 A 
HETATM   10  C16 UNL     1     -16.747   7.511  14.001  1.00  0.00     0.043 C 
HETATM   11  C17 UNL     1     -17.683   7.948  15.133  1.00  0.00     0.049 C 
HETATM   12  C18 UNL     1     -17.990   9.392  14.773  1.00  0.00     0.274 C 
HETATM   13  N3  UNL     1     -17.945   9.443  13.310  1.00  0.00     0.098 N 
HETATM   14  C19 UNL     1     -17.321  10.647  12.777  1.00  0.00     0.307 C 
HETATM   15  C20 UNL     1     -15.808  10.567  12.575  1.00  0.00    -0.049 C 
HETATM   16  C21 UNL     1     -15.088  11.699  12.746  1.00  0.00     0.004 C 
HETATM   17  C23 UNL     1     -15.282   9.239  12.020  1.00  0.00     0.027 C 
HETATM   18  C24 UNL     1     -16.488   8.386  11.578  1.00  0.00     0.046 C 
HETATM   19  C25 UNL     1     -17.413   8.169  12.780  1.00  0.00     0.239 C 
HETATM   20  C26 UNL     1     -14.494   8.324  12.989  1.00  0.00     0.052 C 
HETATM   21  C27 UNL     1     -13.082   8.777  13.408  1.00  0.00     0.160 C 
HETATM   22  C28 UNL     1     -15.297   8.003  14.262  1.00  0.00     0.112 C 
ENDROOT
BRANCH   1  23
HETATM   23  C7  UNL     1     -10.981   7.965  14.675  1.00  0.00    -0.016 A 
HETATM   24  C3  UNL     1     -10.406   8.922  15.534  1.00  0.00    -0.032 A 
HETATM   25  C4  UNL     1      -9.011   8.958  15.635  1.00  0.00     0.099 A 
HETATM   26  N1  UNL     1      -8.222   8.064  14.994  1.00  0.00    -0.354 N 
HETATM   27  C5  UNL     1      -8.772   7.088  14.220  1.00  0.00     0.062 A 
HETATM   28  C32 UNL     1      -6.728   8.238  15.062  1.00  0.00     0.133 C 
HETATM   29  C6  UNL     1     -10.146   7.039  14.037  1.00  0.00     0.044 A 
HETATM   30  C29 UNL     1      -7.851   6.114  13.663  1.00  0.00     0.067 A 
HETATM   31  C30 UNL     1      -6.529   6.006  14.038  1.00  0.00    -0.015 A 
HETATM   32  N4  UNL     1      -8.105   5.124  12.749  1.00  0.00    -0.353 N 
HETATM   33  C31 UNL     1      -5.970   6.907  15.073  1.00  0.00     0.062 C 
HETATM   34  C33 UNL     1      -5.941   4.946  13.301  1.00  0.00    -0.001 A 
HETATM   35  C34 UNL     1      -4.654   4.379  13.243  1.00  0.00     0.014 A 
HETATM   36  C38 UNL     1      -6.951   4.411  12.498  1.00  0.00     0.043 A 
HETATM   37  C35 UNL     1      -4.421   3.302  12.381  1.00  0.00     0.001 A 
HETATM   38  C36 UNL     1      -5.447   2.787  11.591  1.00  0.00     0.002 A 
HETATM   39  C37 UNL     1      -6.734   3.331  11.635  1.00  0.00     0.030 A 
HETATM   40  H39 UNL     1      -8.995   4.918  12.311  1.00  0.00     0.166 HD
BRANCH  24  41
HETATM   41  C2  UNL     1     -11.263   9.905  16.314  1.00  0.00     0.036 C 
HETATM   42  C1  UNL     1     -11.203   9.803  17.835  1.00  0.00     0.010 C 
ENDBRANCH  24  41
ENDBRANCH   1  23
BRANCH  21  43
HETATM   43  O2  UNL     1     -12.243   8.835  12.252  1.00  0.00    -0.390 OA
HETATM   44  H29 UNL     1     -12.295   7.967  11.815  1.00  0.00     0.210 HD
ENDBRANCH  21  43
BRANCH  16  45
HETATM   45  C22 UNL     1     -13.659  11.976  12.415  1.00  0.00     0.191 C 
BRANCH  45  46
HETATM   46  O1  UNL     1     -13.588  13.236  11.756  1.00  0.00    -0.397 OA
HETATM   47  H22 UNL     1     -13.893  13.076  10.846  1.00  0.00     0.209 HD
ENDBRANCH  45  46
ENDBRANCH  16  45
TORSDOF 6
ENDMDL
MODEL 6
REMARK minimizedAffinity -9.7059803
REMARK CNNscore 0.162800506
REMARK CNNaffinity 5.96090698
REMARK  6 active torsions:
REMARK  status: ('A' for Active; 'I' for Inactive)
REMARK    1  A    between atoms: C2_2  and  C3_3 
REMARK    2  A    between atoms: C7_8  and  C8_9 
REMARK    3  A    between atoms: C21_24  and  C22_25 
REMARK    4  A    between atoms: C22_25  and  O1_26 
REMARK    5  A    between atoms: C23_27  and  C26_30 
REMARK    6  A    between atoms: C27_31  and  O2_32 
ROOT
HETATM    1  C8  UNL     1     -11.354  10.685  18.864  1.00  0.00    -0.003 C 
HETATM    2  C9  UNL     1     -10.742  11.866  19.077  1.00  0.00     0.102 C 
HETATM    3  N2  UNL     1     -10.586  12.410  20.335  1.00  0.00    -0.349 N 
HETATM    4  C10 UNL     1      -9.336  12.814  20.884  1.00  0.00     0.041 A 
HETATM    5  C11 UNL     1      -8.186  13.159  20.192  1.00  0.00     0.030 A 
HETATM    6  C12 UNL     1      -7.038  13.495  20.917  1.00  0.00     0.002 A 
HETATM    7  C13 UNL     1      -7.050  13.485  22.318  1.00  0.00     0.001 A 
HETATM    8  C14 UNL     1      -8.209  13.145  23.017  1.00  0.00     0.010 A 
HETATM    9  C15 UNL     1      -9.342  12.810  22.290  1.00  0.00    -0.018 A 
HETATM   10  C16 UNL     1     -10.713  12.452  22.783  1.00  0.00     0.043 C 
HETATM   11  C17 UNL     1     -11.484  13.704  23.216  1.00  0.00     0.049 C 
HETATM   12  C18 UNL     1     -12.691  13.123  23.931  1.00  0.00     0.274 C 
HETATM   13  N3  UNL     1     -12.221  11.869  24.524  1.00  0.00     0.098 N 
HETATM   14  C19 UNL     1     -13.183  10.777  24.443  1.00  0.00     0.307 C 
HETATM   15  C20 UNL     1     -13.101   9.923  23.179  1.00  0.00    -0.049 C 
HETATM   16  C21 UNL     1     -14.250   9.393  22.699  1.00  0.00     0.004 C 
HETATM   17  C23 UNL     1     -11.687   9.606  22.683  1.00  0.00     0.027 C 
HETATM   18  C24 UNL     1     -10.681  10.055  23.763  1.00  0.00     0.046 C 
HETATM   19  C25 UNL     1     -10.867  11.554  24.023  1.00  0.00     0.239 C 
HETATM   20  C26 UNL     1     -11.209  10.313  21.390  1.00  0.00     0.052 C 
HETATM   21  C27 UNL     1     -11.841   9.866  20.058  1.00  0.00     0.160 C 
HETATM   22  C28 UNL     1     -11.327  11.844  21.492  1.00  0.00     0.112 C 
ENDROOT
BRANCH   1  23
HETATM   23  C7  UNL     1     -11.622  10.175  17.502  1.00  0.00    -0.016 A 
HETATM   24  C3  UNL     1     -12.637  10.667  16.658  1.00  0.00    -0.032 A 
HETATM   25  C4  UNL     1     -12.809  10.053  15.412  1.00  0.00     0.099 A 
HETATM   26  N1  UNL     1     -11.991   9.065  14.981  1.00  0.00    -0.354 N 
HETATM   27  C5  UNL     1     -10.961   8.632  15.758  1.00  0.00     0.062 A 
HETATM   28  C32 UNL     1     -12.310   8.378  13.680  1.00  0.00     0.133 C 
HETATM   29  C6  UNL     1     -10.777   9.164  17.026  1.00  0.00     0.044 A 
HETATM   30  C29 UNL     1     -10.076   7.646  15.164  1.00  0.00     0.067 A 
HETATM   31  C30 UNL     1     -10.100   7.299  13.830  1.00  0.00    -0.015 A 
HETATM   32  N4  UNL     1      -9.060   6.944  15.757  1.00  0.00    -0.353 N 
HETATM   33  C31 UNL     1     -11.059   7.950  12.906  1.00  0.00     0.062 C 
HETATM   34  C33 UNL     1      -9.097   6.323  13.604  1.00  0.00    -0.001 A 
HETATM   35  C34 UNL     1      -8.657   5.600  12.479  1.00  0.00     0.014 A 
HETATM   36  C38 UNL     1      -8.460   6.116  14.830  1.00  0.00     0.043 A 
HETATM   37  C35 UNL     1      -7.600   4.693  12.621  1.00  0.00     0.001 A 
HETATM   38  C36 UNL     1      -6.983   4.506  13.855  1.00  0.00     0.002 A 
HETATM   39  C37 UNL     1      -7.400   5.216  14.985  1.00  0.00     0.030 A 
HETATM   40  H39 UNL     1      -8.764   7.005  16.724  1.00  0.00     0.166 HD
BRANCH  24  41
HETATM   41  C2  UNL     1     -13.538  11.813  17.086  1.00  0.00     0.036 C 
HETATM   42  C1  UNL     1     -13.210  13.188  16.511  1.00  0.00     0.010 C 
ENDBRANCH  24  41
ENDBRANCH   1  23
BRANCH  21  43
HETATM   43  O2  UNL     1     -11.520   8.492  19.822  1.00  0.00    -0.390 OA
HETATM   44  H29 UNL     1     -10.552   8.410  19.878  1.00  0.00     0.210 HD
ENDBRANCH  21  43
BRANCH  16  45
HETATM   45  C22 UNL     1     -14.451   8.366  21.635  1.00  0.00     0.191 C 
BRANCH  45  46
HETATM   46  O1  UNL     1     -13.573   7.275  21.895  1.00  0.00    -0.397 OA
HETATM   47  H22 UNL     1     -12.692   7.571  21.610  1.00  0.00     0.209 HD
ENDBRANCH  45  46
ENDBRANCH  16  45
TORSDOF 6
ENDMDL
MODEL 7
REMARK minimizedAffinity -9.9595108
REMARK CNNscore 0.133153528
REMARK CNNaffinity 6.08355284
REMARK  6 active torsions:
REMARK  status: ('A' for Active; 'I' for Inactive)
REMARK    1  A    between atoms: C2_2  and  C3_3 
REMARK    2  A    between atoms: C7_8  and  C8_9 
REMARK    3  A    between atoms: C21_24  and  C22_25 
REMARK    4  A    between atoms: C22_25  and  O1_26 
REMARK    5  A    between atoms: C23_27  and  C26_30 
REMARK    6  A    between atoms: C27_31  and  O2_32 
ROOT
HETATM    1  C8  UNL     1       0.445   9.774  16.591  1.00  0.00    -0.003 C 
HETATM    2  C9  UNL     1      -0.721   9.988  15.952  1.00  0.00     0.102 C 
HETATM    3  N2  UNL     1      -1.027   9.403  14.740  1.00  0.00    -0.349 N 
HETATM    4  C10 UNL     1      -2.199   8.633  14.495  1.00  0.00     0.041 A 
HETATM    5  C11 UNL     1      -3.397   8.681  15.189  1.00  0.00     0.030 A 
HETATM    6  C12 UNL     1      -4.428   7.812  14.817  1.00  0.00     0.002 A 
HETATM    7  C13 UNL     1      -4.253   6.908  13.760  1.00  0.00     0.001 A 
HETATM    8  C14 UNL     1      -3.050   6.863  13.055  1.00  0.00     0.010 A 
HETATM    9  C15 UNL     1      -2.032   7.726  13.432  1.00  0.00    -0.018 A 
HETATM   10  C16 UNL     1      -0.673   7.913  12.825  1.00  0.00     0.043 C 
HETATM   11  C17 UNL     1      -0.758   8.738  11.536  1.00  0.00     0.049 C 
HETATM   12  C18 UNL     1       0.630   8.570  10.941  1.00  0.00     0.274 C 
HETATM   13  N3  UNL     1       1.071   7.238  11.360  1.00  0.00     0.098 N 
HETATM   14  C19 UNL     1       2.477   7.170  11.736  1.00  0.00     0.307 C 
HETATM   15  C20 UNL     1       2.778   7.461  13.206  1.00  0.00    -0.049 C 
HETATM   16  C21 UNL     1       3.952   8.063  13.503  1.00  0.00     0.004 C 
HETATM   17  C23 UNL     1       1.786   6.873  14.215  1.00  0.00     0.027 C 
HETATM   18  C24 UNL     1       0.841   5.912  13.464  1.00  0.00     0.046 C 
HETATM   19  C25 UNL     1       0.125   6.686  12.352  1.00  0.00     0.239 C 
HETATM   20  C26 UNL     1       0.838   7.860  14.941  1.00  0.00     0.052 C 
HETATM   21  C27 UNL     1       1.455   8.793  16.000  1.00  0.00     0.160 C 
HETATM   22  C28 UNL     1       0.031   8.719  13.951  1.00  0.00     0.112 C 
ENDROOT
BRANCH   1  23
HETATM   23  C7  UNL     1       0.807  10.503  17.826  1.00  0.00    -0.016 A 
HETATM   24  C3  UNL     1      -0.123  10.935  18.792  1.00  0.00    -0.032 A 
HETATM   25  C4  UNL     1       0.359  11.660  19.887  1.00  0.00     0.099 A 
HETATM   26  N1  UNL     1       1.680  11.890  20.071  1.00  0.00    -0.354 N 
HETATM   27  C5  UNL     1       2.594  11.413  19.182  1.00  0.00     0.062 A 
HETATM   28  C32 UNL     1       2.109  12.774  21.211  1.00  0.00     0.133 C 
HETATM   29  C6  UNL     1       2.171  10.736  18.046  1.00  0.00     0.044 A 
HETATM   30  C29 UNL     1       3.990  11.616  19.522  1.00  0.00     0.067 A 
HETATM   31  C30 UNL     1       4.423  12.059  20.754  1.00  0.00    -0.015 A 
HETATM   32  N4  UNL     1       5.100  11.370  18.757  1.00  0.00    -0.353 N 
HETATM   33  C31 UNL     1       3.445  12.348  21.830  1.00  0.00     0.062 C 
HETATM   34  C33 UNL     1       5.839  12.128  20.732  1.00  0.00    -0.001 A 
HETATM   35  C34 UNL     1       6.824  12.507  21.664  1.00  0.00     0.014 A 
HETATM   36  C38 UNL     1       6.239  11.692  19.467  1.00  0.00     0.043 A 
HETATM   37  C35 UNL     1       8.172  12.441  21.295  1.00  0.00     0.001 A 
HETATM   38  C36 UNL     1       8.544  12.003  20.026  1.00  0.00     0.002 A 
HETATM   39  C37 UNL     1       7.583  11.618  19.087  1.00  0.00     0.030 A 
HETATM   40  H39 UNL     1       5.116  11.001  17.813  1.00  0.00     0.166 HD
BRANCH  24  41
HETATM   41  C2  UNL     1      -1.608  10.647  18.648  1.00  0.00     0.036 C 
HETATM   42  C1  UNL     1      -2.541  11.854  18.672  1.00  0.00     0.010 C 
ENDBRANCH  24  41
ENDBRANCH   1  23
BRANCH  21  43
HETATM   43  O2  UNL     1       1.993   8.005  17.067  1.00  0.00    -0.390 OA
HETATM   44  H29 UNL     1       1.279   7.423  17.381  1.00  0.00     0.210 HD
ENDBRANCH  21  43
BRANCH  16  45
HETATM   45  C22 UNL     1       4.604   8.274  14.829  1.00  0.00     0.191 C 
BRANCH  45  46
HETATM   46  O1  UNL     1       5.118   7.024  15.278  1.00  0.00    -0.397 OA
HETATM   47  H22 UNL     1       4.349   6.523  15.601  1.00  0.00     0.209 HD
ENDBRANCH  45  46
ENDBRANCH  16  45
TORSDOF 6
ENDMDL
MODEL 8
REMARK minimizedAffinity -9.11829376
REMARK CNNscore 0.124112003
REMARK CNNaffinity 6.24838305
REMARK  6 active torsions:
REMARK  status: ('A' for Active; 'I' for Inactive)
REMARK    1  A    between atoms: C2_2  and  C3_3 
REMARK    2  A    between atoms: C7_8  and  C8_9 
REMARK    3  A    between atoms: C21_24  and  C22_25 
REMARK    4  A    between atoms: C22_25  and  O1_26 
REMARK    5  A    between atoms: C23_27  and  C26_30 
REMARK    6  A    between atoms: C27_31  and  O2_32 
ROOT
HETATM    1  C8  UNL     1       0.955   9.688  16.490  1.00  0.00    -0.003 C 
HETATM    2  C9  UNL     1       1.870   8.734  16.226  1.00  0.00     0.102 C 
HETATM    3  N2  UNL     1       1.757   7.867  15.159  1.00  0.00    -0.349 N 
HETATM    4  C10 UNL     1       2.763   7.680  14.168  1.00  0.00     0.041 A 
HETATM    5  C11 UNL     1       4.119   7.937  14.289  1.00  0.00     0.030 A 
HETATM    6  C12 UNL     1       4.947   7.722  13.182  1.00  0.00     0.002 A 
HETATM    7  C13 UNL     1       4.415   7.254  11.972  1.00  0.00     0.001 A 
HETATM    8  C14 UNL     1       3.051   6.989  11.851  1.00  0.00     0.010 A 
HETATM    9  C15 UNL     1       2.237   7.207  12.953  1.00  0.00    -0.018 A 
HETATM   10  C16 UNL     1       0.764   6.966  13.106  1.00  0.00     0.043 C 
HETATM   11  C17 UNL     1       0.472   5.475  13.312  1.00  0.00     0.049 C 
HETATM   12  C18 UNL     1      -1.037   5.406  13.157  1.00  0.00     0.274 C 
HETATM   13  N3  UNL     1      -1.376   6.465  12.203  1.00  0.00     0.098 N 
HETATM   14  C19 UNL     1      -2.595   7.193  12.533  1.00  0.00     0.307 C 
HETATM   15  C20 UNL     1      -2.408   8.409  13.440  1.00  0.00    -0.049 C 
HETATM   16  C21 UNL     1      -3.406   8.714  14.300  1.00  0.00     0.004 C 
HETATM   17  C23 UNL     1      -1.173   9.268  13.150  1.00  0.00     0.027 C 
HETATM   18  C24 UNL     1      -0.549   8.791  11.823  1.00  0.00     0.046 C 
HETATM   19  C25 UNL     1      -0.189   7.307  11.947  1.00  0.00     0.239 C 
HETATM   20  C26 UNL     1      -0.009   9.209  14.170  1.00  0.00     0.052 C 
HETATM   21  C27 UNL     1      -0.226   9.877  15.540  1.00  0.00     0.160 C 
HETATM   22  C28 UNL     1       0.480   7.769  14.405  1.00  0.00     0.112 C 
ENDROOT
BRANCH   1  23
HETATM   23  C7  UNL     1       1.027  10.527  17.705  1.00  0.00    -0.016 A 
HETATM   24  C3  UNL     1      -0.099  11.003  18.405  1.00  0.00    -0.032 A 
HETATM   25  C4  UNL     1       0.119  11.832  19.512  1.00  0.00     0.099 A 
HETATM   26  N1  UNL     1       1.364  12.121  19.957  1.00  0.00    -0.354 N 
HETATM   27  C5  UNL     1       2.458  11.605  19.333  1.00  0.00     0.062 A 
HETATM   28  C32 UNL     1       1.519  13.109  21.082  1.00  0.00     0.133 C 
HETATM   29  C6  UNL     1       2.305  10.824  18.195  1.00  0.00     0.044 A 
HETATM   30  C29 UNL     1       3.742  11.884  19.948  1.00  0.00     0.067 A 
HETATM   31  C30 UNL     1       3.888  12.439  21.202  1.00  0.00    -0.015 A 
HETATM   32  N4  UNL     1       4.997  11.614  19.467  1.00  0.00    -0.353 N 
HETATM   33  C31 UNL     1       2.693  12.781  22.010  1.00  0.00     0.062 C 
HETATM   34  C33 UNL     1       5.273  12.556  21.481  1.00  0.00    -0.001 A 
HETATM   35  C34 UNL     1       6.024  13.043  22.568  1.00  0.00     0.014 A 
HETATM   36  C38 UNL     1       5.947  12.033  20.376  1.00  0.00     0.043 A 
HETATM   37  C35 UNL     1       7.421  12.994  22.508  1.00  0.00     0.001 A 
HETATM   38  C36 UNL     1       8.069  12.467  21.393  1.00  0.00     0.002 A 
HETATM   39  C37 UNL     1       7.344  11.974  20.305  1.00  0.00     0.030 A 
HETATM   40  H39 UNL     1       5.226  11.171  18.585  1.00  0.00     0.166 HD
BRANCH  24  41
HETATM   41  C2  UNL     1      -1.511  10.654  17.968  1.00  0.00     0.036 C 
HETATM   42  C1  UNL     1      -2.442  10.103  19.046  1.00  0.00     0.010 C 
ENDBRANCH  24  41
ENDBRANCH   1  23
BRANCH  21  43
HETATM   43  O2  UNL     1      -0.432  11.280  15.354  1.00  0.00    -0.390 OA
HETATM   44  H29 UNL     1       0.321  11.615  14.837  1.00  0.00     0.210 HD
ENDBRANCH  21  43
BRANCH  16  45
HETATM   45  C22 UNL     1      -3.601   9.935  15.136  1.00  0.00     0.191 C 
BRANCH  45  46
HETATM   46  O1  UNL     1      -4.997  10.200  15.222  1.00  0.00    -0.397 OA
HETATM   47  H22 UNL     1      -5.244  10.598  14.369  1.00  0.00     0.209 HD
ENDBRANCH  45  46
ENDBRANCH  16  45
TORSDOF 6
ENDMDL
MODEL 9
REMARK minimizedAffinity -8.60181808
REMARK CNNscore 0.123870499
REMARK CNNaffinity 6.06680679
REMARK  6 active torsions:
REMARK  status: ('A' for Active; 'I' for Inactive)
REMARK    1  A    between atoms: C2_2  and  C3_3 
REMARK    2  A    between atoms: C7_8  and  C8_9 
REMARK    3  A    between atoms: C21_24  and  C22_25 
REMARK    4  A    between atoms: C22_25  and  O1_26 
REMARK    5  A    between atoms: C23_27  and  C26_30 
REMARK    6  A    between atoms: C27_31  and  O2_32 
ROOT
HETATM    1  C8  UNL     1     -10.614   9.603  17.200  1.00  0.00    -0.003 C 
HETATM    2  C9  UNL     1     -11.133   9.186  18.371  1.00  0.00     0.102 C 
HETATM    3  N2  UNL     1     -11.331  10.032  19.443  1.00  0.00    -0.349 N 
HETATM    4  C10 UNL     1     -12.578  10.199  20.111  1.00  0.00     0.041 A 
HETATM    5  C11 UNL     1     -13.639   9.308  20.146  1.00  0.00     0.030 A 
HETATM    6  C12 UNL     1     -14.803   9.673  20.831  1.00  0.00     0.002 A 
HETATM    7  C13 UNL     1     -14.894  10.917  21.472  1.00  0.00     0.001 A 
HETATM    8  C14 UNL     1     -13.824  11.812  21.443  1.00  0.00     0.010 A 
HETATM    9  C15 UNL     1     -12.675  11.443  20.759  1.00  0.00    -0.018 A 
HETATM   10  C16 UNL     1     -11.381  12.187  20.610  1.00  0.00     0.043 C 
HETATM   11  C17 UNL     1     -10.537  12.078  21.885  1.00  0.00     0.049 C 
HETATM   12  C18 UNL     1      -9.441  13.103  21.648  1.00  0.00     0.274 C 
HETATM   13  N3  UNL     1     -10.062  14.151  20.834  1.00  0.00     0.098 N 
HETATM   14  C19 UNL     1      -9.197  14.681  19.788  1.00  0.00     0.307 C 
HETATM   15  C20 UNL     1      -9.261  13.946  18.449  1.00  0.00    -0.049 C 
HETATM   16  C21 UNL     1      -8.132  13.887  17.707  1.00  0.00     0.004 C 
HETATM   17  C23 UNL     1     -10.658  13.504  18.002  1.00  0.00     0.027 C 
HETATM   18  C24 UNL     1     -11.696  14.145  18.945  1.00  0.00     0.046 C 
HETATM   19  C25 UNL     1     -11.399  13.709  20.384  1.00  0.00     0.239 C 
HETATM   20  C26 UNL     1     -10.975  11.988  18.050  1.00  0.00     0.052 C 
HETATM   21  C27 UNL     1     -10.290  11.084  17.008  1.00  0.00     0.160 C 
HETATM   22  C28 UNL     1     -10.730  11.390  19.446  1.00  0.00     0.112 C 
ENDROOT
BRANCH   1  23
HETATM   23  C7  UNL     1     -10.293   8.662  16.106  1.00  0.00    -0.016 A 
HETATM   24  C3  UNL     1     -11.207   8.261  15.113  1.00  0.00    -0.032 A 
HETATM   25  C4  UNL     1     -10.779   7.323  14.167  1.00  0.00     0.099 A 
HETATM   26  N1  UNL     1      -9.509   6.856  14.144  1.00  0.00    -0.354 N 
HETATM   27  C5  UNL     1      -8.596   7.294  15.053  1.00  0.00     0.062 A 
HETATM   28  C32 UNL     1      -9.157   5.765  13.168  1.00  0.00     0.133 C 
HETATM   29  C6  UNL     1      -8.978   8.180  16.050  1.00  0.00     0.044 A 
HETATM   30  C29 UNL     1      -7.236   6.818  14.880  1.00  0.00     0.067 A 
HETATM   31  C30 UNL     1      -6.795   6.146  13.760  1.00  0.00    -0.015 A 
HETATM   32  N4  UNL     1      -6.161   6.981  15.715  1.00  0.00    -0.353 N 
HETATM   33  C31 UNL     1      -7.724   5.877  12.636  1.00  0.00     0.062 C 
HETATM   34  C33 UNL     1      -5.419   5.848  13.929  1.00  0.00    -0.001 A 
HETATM   35  C34 UNL     1      -4.448   5.188  13.152  1.00  0.00     0.014 A 
HETATM   36  C38 UNL     1      -5.046   6.381  15.165  1.00  0.00     0.043 A 
HETATM   37  C35 UNL     1      -3.141   5.080  13.641  1.00  0.00     0.001 A 
HETATM   38  C36 UNL     1      -2.796   5.622  14.877  1.00  0.00     0.002 A 
HETATM   39  C37 UNL     1      -3.742   6.285  15.664  1.00  0.00     0.030 A 
HETATM   40  H39 UNL     1      -6.152   7.468  16.603  1.00  0.00     0.166 HD
BRANCH  24  41
HETATM   41  C2  UNL     1     -12.625   8.806  15.073  1.00  0.00     0.036 C 
HETATM   42  C1  UNL     1     -13.074   9.442  13.761  1.00  0.00     0.010 C 
ENDBRANCH  24  41
ENDBRANCH   1  23
BRANCH  21  43
HETATM   43  O2  UNL     1     -10.712  11.469  15.697  1.00  0.00    -0.390 OA
HETATM   44  H29 UNL     1     -11.685  11.454  15.693  1.00  0.00     0.210 HD
ENDBRANCH  21  43
BRANCH  16  45
HETATM   45  C22 UNL     1      -7.944  13.438  16.296  1.00  0.00     0.191 C 
BRANCH  45  46
HETATM   46  O1  UNL     1      -6.563  13.157  16.096  1.00  0.00    -0.397 OA
HETATM   47  H22 UNL     1      -6.127  14.023  16.005  1.00  0.00     0.209 HD
ENDBRANCH  45  46
ENDBRANCH  16  45
TORSDOF 6
ENDMDL
