MODEL 1
REMARK minimizedAffinity -6.34449434
REMARK CNNscore 0.498543352
REMARK CNNaffinity 6.15415907
REMARK  7 active torsions:
REMARK  status: ('A' for Active; 'I' for Inactive)
REMARK    1  A    between atoms: C2_2  and  C3_3 
REMARK    2  A    between atoms: C2_2  and  C9_11 
REMARK    3  A    between atoms: C3_3  and  C4_4 
REMARK    4  A    between atoms: C5_5  and  C6_6 
REMARK    5  A    between atoms: C6_6  and  O1_9 
REMARK    6  A    between atoms: O1_9  and  O2_10 
REMARK    7  A    between atoms: C10_12  and  O3_13 
ROOT
HETATM    1  C9  UNL     1      -3.706  13.820  19.105  1.00  0.00     0.028 C 
HETATM    2  C10 UNL     1      -3.095  14.915  18.169  1.00  0.00     0.124 C 
HETATM    3  C11 UNL     1      -2.400  14.191  16.998  1.00  0.00     0.046 C 
HETATM    4  C12 UNL     1      -2.274  12.727  17.466  1.00  0.00    -0.010 C 
HETATM    5  C13 UNL     1      -1.013  12.653  18.386  1.00  0.00     0.021 C 
HETATM    6  C14 UNL     1      -2.070  11.653  16.398  1.00  0.00    -0.070 C 
HETATM    7  C15 UNL     1      -1.335  11.883  15.290  1.00  0.00    -0.022 C 
HETATM    8  C16 UNL     1      -1.009  10.848  14.249  1.00  0.00     0.034 C 
HETATM    9  C17 UNL     1      -1.824   9.559  14.441  1.00  0.00     0.013 C 
HETATM   10  C18 UNL     1      -1.565   8.424  13.400  1.00  0.00     0.018 C 
HETATM   11  C19 UNL     1      -1.768   8.961  11.966  1.00  0.00     0.023 C 
HETATM   12  C20 UNL     1      -0.178   7.777  13.479  1.00  0.00     0.023 C 
HETATM   13  C21 UNL     1      -2.613   7.320  13.630  1.00  0.00     0.135 C 
HETATM   14  O4  UNL     1      -2.809   6.424  12.806  1.00  0.00    -0.297 OA
HETATM   15  C22 UNL     1      -3.424   7.373  14.909  1.00  0.00     0.080 C 
HETATM   16  C23 UNL     1      -2.515   7.718  16.080  1.00  0.00     0.017 C 
HETATM   17  C24 UNL     1      -1.841   9.117  15.957  1.00  0.00    -0.031 C 
HETATM   18  C25 UNL     1      -0.430   9.005  16.595  1.00  0.00     0.016 C 
HETATM   19  C26 UNL     1      -2.657  10.257  16.701  1.00  0.00     0.024 C 
HETATM   20  C27 UNL     1      -2.882  10.038  18.217  1.00  0.00     0.010 C 
HETATM   21  C28 UNL     1      -3.618  11.183  18.955  1.00  0.00     0.011 C 
HETATM   22  C29 UNL     1      -3.645  12.532  18.204  1.00  0.00    -0.026 C 
HETATM   23  C30 UNL     1      -4.876  12.557  17.240  1.00  0.00     0.016 C 
ENDROOT
BRANCH   1  24
HETATM   24  C2  UNL     1      -5.086  14.241  19.719  1.00  0.00    -0.008 C 
HETATM   25  C1  UNL     1      -6.207  14.197  18.670  1.00  0.00     0.011 C 
BRANCH  24  26
HETATM   26  C3  UNL     1      -5.463  13.344  20.928  1.00  0.00     0.031 C 
BRANCH  26  27
HETATM   27  C4  UNL     1      -6.875  13.536  21.409  1.00  0.00    -0.027 C 
HETATM   28  C5  UNL     1      -7.346  13.070  22.580  1.00  0.00     0.009 C 
BRANCH  28  29
HETATM   29  C6  UNL     1      -8.758  13.233  23.121  1.00  0.00     0.106 C 
HETATM   30  C7  UNL     1      -9.566  14.068  22.119  1.00  0.00     0.053 C 
HETATM   31  C8  UNL     1      -8.747  13.957  24.475  1.00  0.00     0.053 C 
BRANCH  29  32
HETATM   32  O1  UNL     1      -9.457  11.974  23.221  1.00  0.00    -0.229 OA
BRANCH  32  33
HETATM   33  O2  UNL     1     -10.891  12.247  23.292  1.00  0.00    -0.249 OA
HETATM   34  H15 UNL     1     -11.136  11.740  22.498  1.00  0.00     0.253 HD
ENDBRANCH  32  33
ENDBRANCH  29  32
ENDBRANCH  28  29
ENDBRANCH  26  27
ENDBRANCH  24  26
ENDBRANCH   1  24
BRANCH   2  35
HETATM   35  O3  UNL     1      -2.110  15.678  18.860  1.00  0.00    -0.395 OA
HETATM   36  H18 UNL     1      -2.528  16.115  19.619  1.00  0.00     0.210 HD
ENDBRANCH   2  35
TORSDOF 7
ENDMDL
MODEL 2
REMARK minimizedAffinity -7.14142466
REMARK CNNscore 0.47145927
REMARK CNNaffinity 6.61474037
REMARK  7 active torsions:
REMARK  status: ('A' for Active; 'I' for Inactive)
REMARK    1  A    between atoms: C2_2  and  C3_3 
REMARK    2  A    between atoms: C2_2  and  C9_11 
REMARK    3  A    between atoms: C3_3  and  C4_4 
REMARK    4  A    between atoms: C5_5  and  C6_6 
REMARK    5  A    between atoms: C6_6  and  O1_9 
REMARK    6  A    between atoms: O1_9  and  O2_10 
REMARK    7  A    between atoms: C10_12  and  O3_13 
ROOT
HETATM    1  C9  UNL     1     -12.088  10.398  23.057  1.00  0.00     0.028 C 
HETATM    2  C10 UNL     1     -12.295  10.916  24.518  1.00  0.00     0.124 C 
HETATM    3  C11 UNL     1     -12.954   9.779  25.326  1.00  0.00     0.046 C 
HETATM    4  C12 UNL     1     -13.470   8.793  24.259  1.00  0.00    -0.010 C 
HETATM    5  C13 UNL     1     -14.837   9.353  23.749  1.00  0.00     0.021 C 
HETATM    6  C14 UNL     1     -13.749   7.355  24.694  1.00  0.00    -0.070 C 
HETATM    7  C15 UNL     1     -14.243   7.066  25.916  1.00  0.00    -0.022 C 
HETATM    8  C16 UNL     1     -14.634   5.688  26.376  1.00  0.00     0.034 C 
HETATM    9  C17 UNL     1     -14.165   4.597  25.400  1.00  0.00     0.013 C 
HETATM   10  C18 UNL     1     -14.514   3.128  25.796  1.00  0.00     0.018 C 
HETATM   11  C19 UNL     1     -13.988   2.820  27.215  1.00  0.00     0.023 C 
HETATM   12  C20 UNL     1     -16.007   2.782  25.751  1.00  0.00     0.023 C 
HETATM   13  C21 UNL     1     -13.784   2.186  24.822  1.00  0.00     0.135 C 
HETATM   14  O4  UNL     1     -13.673   0.978  25.040  1.00  0.00    -0.297 OA
HETATM   15  C22 UNL     1     -13.179   2.795  23.573  1.00  0.00     0.080 C 
HETATM   16  C23 UNL     1     -14.149   3.799  22.968  1.00  0.00     0.017 C 
HETATM   17  C24 UNL     1     -14.469   5.002  23.904  1.00  0.00    -0.031 C 
HETATM   18  C25 UNL     1     -15.948   5.401  23.650  1.00  0.00     0.016 C 
HETATM   19  C26 UNL     1     -13.539   6.257  23.628  1.00  0.00     0.024 C 
HETATM   20  C27 UNL     1     -13.593   6.826  22.189  1.00  0.00     0.010 C 
HETATM   21  C28 UNL     1     -12.737   8.092  21.940  1.00  0.00     0.011 C 
HETATM   22  C29 UNL     1     -12.300   8.847  23.214  1.00  0.00    -0.026 C 
HETATM   23  C30 UNL     1     -10.967   8.226  23.744  1.00  0.00     0.016 C 
ENDROOT
BRANCH   1  24
HETATM   24  C2  UNL     1     -10.755  10.909  22.410  1.00  0.00    -0.008 C 
HETATM   25  C1  UNL     1     -11.013  11.623  21.074  1.00  0.00     0.011 C 
BRANCH  24  26
HETATM   26  C3  UNL     1      -9.986  11.856  23.370  1.00  0.00     0.031 C 
BRANCH  26  27
HETATM   27  C4  UNL     1      -8.983  12.738  22.680  1.00  0.00    -0.027 C 
HETATM   28  C5  UNL     1      -7.818  13.132  23.226  1.00  0.00     0.009 C 
BRANCH  28  29
HETATM   29  C6  UNL     1      -6.765  14.017  22.581  1.00  0.00     0.106 C 
HETATM   30  C7  UNL     1      -5.552  13.146  22.228  1.00  0.00     0.053 C 
HETATM   31  C8  UNL     1      -6.315  15.127  23.542  1.00  0.00     0.053 C 
BRANCH  29  32
HETATM   32  O1  UNL     1      -7.210  14.577  21.327  1.00  0.00    -0.229 OA
BRANCH  32  33
HETATM   33  O2  UNL     1      -6.714  13.731  20.242  1.00  0.00    -0.249 OA
HETATM   34  H15 UNL     1      -7.588  13.510  19.872  1.00  0.00     0.253 HD
ENDBRANCH  32  33
ENDBRANCH  29  32
ENDBRANCH  28  29
ENDBRANCH  26  27
ENDBRANCH  24  26
ENDBRANCH   1  24
BRANCH   2  35
HETATM   35  O3  UNL     1     -13.176  12.036  24.537  1.00  0.00    -0.395 OA
HETATM   36  H18 UNL     1     -12.787  12.749  24.007  1.00  0.00     0.210 HD
ENDBRANCH   2  35
TORSDOF 7
ENDMDL
MODEL 3
REMARK minimizedAffinity -9.39221668
REMARK CNNscore 0.469809026
REMARK CNNaffinity 6.74950933
REMARK  7 active torsions:
REMARK  status: ('A' for Active; 'I' for Inactive)
REMARK    1  A    between atoms: C2_2  and  C3_3 
REMARK    2  A    between atoms: C2_2  and  C9_11 
REMARK    3  A    between atoms: C3_3  and  C4_4 
REMARK    4  A    between atoms: C5_5  and  C6_6 
REMARK    5  A    between atoms: C6_6  and  O1_9 
REMARK    6  A    between atoms: O1_9  and  O2_10 
REMARK    7  A    between atoms: C10_12  and  O3_13 
ROOT
HETATM    1  C9  UNL     1       1.111   7.100  11.701  1.00  0.00     0.028 C 
HETATM    2  C10 UNL     1       0.767   5.905  10.751  1.00  0.00     0.124 C 
HETATM    3  C11 UNL     1      -0.643   5.404  11.124  1.00  0.00     0.046 C 
HETATM    4  C12 UNL     1      -0.925   6.032  12.504  1.00  0.00    -0.010 C 
HETATM    5  C13 UNL     1      -0.219   5.128  13.565  1.00  0.00     0.021 C 
HETATM    6  C14 UNL     1      -2.383   6.135  12.954  1.00  0.00    -0.070 C 
HETATM    7  C15 UNL     1      -3.290   5.185  12.647  1.00  0.00    -0.022 C 
HETATM    8  C16 UNL     1      -4.712   5.169  13.136  1.00  0.00     0.034 C 
HETATM    9  C17 UNL     1      -5.104   6.493  13.813  1.00  0.00     0.013 C 
HETATM   10  C18 UNL     1      -6.569   6.581  14.347  1.00  0.00     0.018 C 
HETATM   11  C19 UNL     1      -7.569   6.256  13.216  1.00  0.00     0.023 C 
HETATM   12  C20 UNL     1      -6.880   5.667  15.539  1.00  0.00     0.023 C 
HETATM   13  C21 UNL     1      -6.829   8.033  14.788  1.00  0.00     0.135 C 
HETATM   14  O4  UNL     1      -7.965   8.453  15.017  1.00  0.00    -0.297 OA
HETATM   15  C22 UNL     1      -5.633   8.954  14.918  1.00  0.00     0.080 C 
HETATM   16  C23 UNL     1      -4.489   8.219  15.600  1.00  0.00     0.017 C 
HETATM   17  C24 UNL     1      -3.976   6.983  14.803  1.00  0.00    -0.031 C 
HETATM   18  C25 UNL     1      -3.544   5.913  15.842  1.00  0.00     0.016 C 
HETATM   19  C26 UNL     1      -2.740   7.326  13.869  1.00  0.00     0.024 C 
HETATM   20  C27 UNL     1      -1.496   7.900  14.590  1.00  0.00     0.010 C 
HETATM   21  C28 UNL     1      -0.267   8.170  13.687  1.00  0.00     0.011 C 
HETATM   22  C29 UNL     1      -0.292   7.455  12.318  1.00  0.00    -0.026 C 
HETATM   23  C30 UNL     1      -1.063   8.346  11.290  1.00  0.00     0.016 C 
ENDROOT
BRANCH   1  24
HETATM   24  C2  UNL     1       1.924   8.234  10.989  1.00  0.00    -0.008 C 
HETATM   25  C1  UNL     1       2.857   8.961  11.970  1.00  0.00     0.011 C 
BRANCH  24  26
HETATM   26  C3  UNL     1       2.748   7.677   9.797  1.00  0.00     0.031 C 
BRANCH  26  27
HETATM   27  C4  UNL     1       4.226   7.603  10.062  1.00  0.00    -0.027 C 
HETATM   28  C5  UNL     1       4.806   6.704  10.878  1.00  0.00     0.009 C 
BRANCH  28  29
HETATM   29  C6  UNL     1       6.289   6.577  11.183  1.00  0.00     0.106 C 
HETATM   30  C7  UNL     1       6.742   5.163  10.797  1.00  0.00     0.053 C 
HETATM   31  C8  UNL     1       6.564   6.794  12.679  1.00  0.00     0.053 C 
BRANCH  29  32
HETATM   32  O1  UNL     1       7.094   7.469  10.382  1.00  0.00    -0.229 OA
BRANCH  32  33
HETATM   33  O2  UNL     1       7.242   8.731  11.104  1.00  0.00    -0.249 OA
HETATM   34  H15 UNL     1       8.215   8.714  11.149  1.00  0.00     0.253 HD
ENDBRANCH  32  33
ENDBRANCH  29  32
ENDBRANCH  28  29
ENDBRANCH  26  27
ENDBRANCH  24  26
ENDBRANCH   1  24
BRANCH   2  35
HETATM   35  O3  UNL     1       1.681   4.829  10.942  1.00  0.00    -0.395 OA
HETATM   36  H18 UNL     1       2.578   5.140  10.740  1.00  0.00     0.210 HD
ENDBRANCH   2  35
TORSDOF 7
ENDMDL
MODEL 4
REMARK minimizedAffinity -7.66062021
REMARK CNNscore 0.457353503
REMARK CNNaffinity 6.39694929
REMARK  7 active torsions:
REMARK  status: ('A' for Active; 'I' for Inactive)
REMARK    1  A    between atoms: C2_2  and  C3_3 
REMARK    2  A    between atoms: C2_2  and  C9_11 
REMARK    3  A    between atoms: C3_3  and  C4_4 
REMARK    4  A    between atoms: C5_5  and  C6_6 
REMARK    5  A    between atoms: C6_6  and  O1_9 
REMARK    6  A    between atoms: O1_9  and  O2_10 
REMARK    7  A    between atoms: C10_12  and  O3_13 
ROOT
HETATM    1  C9  UNL     1      -1.140   8.203  14.162  1.00  0.00     0.028 C 
HETATM    2  C10 UNL     1      -1.551   7.158  15.252  1.00  0.00     0.124 C 
HETATM    3  C11 UNL     1      -2.121   7.940  16.454  1.00  0.00     0.046 C 
HETATM    4  C12 UNL     1      -1.675   9.396  16.216  1.00  0.00    -0.010 C 
HETATM    5  C13 UNL     1      -0.201   9.507  16.721  1.00  0.00     0.021 C 
HETATM    6  C14 UNL     1      -2.443  10.503  16.940  1.00  0.00    -0.070 C 
HETATM    7  C15 UNL     1      -2.931  10.330  18.186  1.00  0.00    -0.022 C 
HETATM    8  C16 UNL     1      -3.607  11.402  18.996  1.00  0.00     0.034 C 
HETATM    9  C17 UNL     1      -3.924  12.649  18.154  1.00  0.00     0.013 C 
HETATM   10  C18 UNL     1      -4.639  13.818  18.904  1.00  0.00     0.018 C 
HETATM   11  C19 UNL     1      -5.927  13.305  19.583  1.00  0.00     0.023 C 
HETATM   12  C20 UNL     1      -3.786  14.525  19.964  1.00  0.00     0.023 C 
HETATM   13  C21 UNL     1      -5.057  14.868  17.859  1.00  0.00     0.135 C 
HETATM   14  O4  UNL     1      -5.851  15.773  18.123  1.00  0.00    -0.297 OA
HETATM   15  C22 UNL     1      -4.470  14.750  16.467  1.00  0.00     0.080 C 
HETATM   16  C23 UNL     1      -2.987  14.419  16.560  1.00  0.00     0.017 C 
HETATM   17  C24 UNL     1      -2.693  13.055  17.252  1.00  0.00    -0.031 C 
HETATM   18  C25 UNL     1      -1.364  13.217  18.040  1.00  0.00     0.016 C 
HETATM   19  C26 UNL     1      -2.540  11.863  16.216  1.00  0.00     0.024 C 
HETATM   20  C27 UNL     1      -1.426  12.038  15.156  1.00  0.00     0.010 C 
HETATM   21  C28 UNL     1      -1.233  10.845  14.188  1.00  0.00     0.011 C 
HETATM   22  C29 UNL     1      -1.855   9.512  14.662  1.00  0.00    -0.026 C 
HETATM   23  C30 UNL     1      -3.349   9.455  14.204  1.00  0.00     0.016 C 
ENDROOT
BRANCH   1  24
HETATM   24  C2  UNL     1      -1.421   7.707  12.702  1.00  0.00    -0.008 C 
HETATM   25  C1  UNL     1      -1.082   8.788  11.664  1.00  0.00     0.011 C 
BRANCH  24  26
HETATM   26  C3  UNL     1      -0.634   6.408  12.384  1.00  0.00     0.031 C 
BRANCH  26  27
HETATM   27  C4  UNL     1       0.242   6.511  11.166  1.00  0.00    -0.027 C 
HETATM   28  C5  UNL     1       1.582   6.392  11.184  1.00  0.00     0.009 C 
BRANCH  28  29
HETATM   29  C6  UNL     1       2.519   6.483   9.990  1.00  0.00     0.106 C 
HETATM   30  C7  UNL     1       3.939   6.146  10.465  1.00  0.00     0.053 C 
HETATM   31  C8  UNL     1       2.518   7.900   9.398  1.00  0.00     0.053 C 
BRANCH  29  32
HETATM   32  O1  UNL     1       2.212   5.504   8.975  1.00  0.00    -0.229 OA
BRANCH  32  33
HETATM   33  O2  UNL     1       3.456   4.841   8.584  1.00  0.00    -0.249 OA
HETATM   34  H15 UNL     1       3.173   3.939   8.819  1.00  0.00     0.253 HD
ENDBRANCH  32  33
ENDBRANCH  29  32
ENDBRANCH  28  29
ENDBRANCH  26  27
ENDBRANCH  24  26
ENDBRANCH   1  24
BRANCH   2  35
HETATM   35  O3  UNL     1      -0.416   6.425  15.703  1.00  0.00    -0.395 OA
HETATM   36  H18 UNL     1      -0.030   5.953  14.948  1.00  0.00     0.210 HD
ENDBRANCH   2  35
TORSDOF 7
ENDMDL
MODEL 5
REMARK minimizedAffinity -9.7837534
REMARK CNNscore 0.448623896
REMARK CNNaffinity 7.01572084
REMARK  7 active torsions:
REMARK  status: ('A' for Active; 'I' for Inactive)
REMARK    1  A    between atoms: C2_2  and  C3_3 
REMARK    2  A    between atoms: C2_2  and  C9_11 
REMARK    3  A    between atoms: C3_3  and  C4_4 
REMARK    4  A    between atoms: C5_5  and  C6_6 
REMARK    5  A    between atoms: C6_6  and  O1_9 
REMARK    6  A    between atoms: O1_9  and  O2_10 
REMARK    7  A    between atoms: C10_12  and  O3_13 
ROOT
HETATM    1  C9  UNL     1      -3.289   7.599  14.618  1.00  0.00     0.028 C 
HETATM    2  C10 UNL     1      -4.106   8.519  13.652  1.00  0.00     0.124 C 
HETATM    3  C11 UNL     1      -3.220   8.808  12.423  1.00  0.00     0.046 C 
HETATM    4  C12 UNL     1      -1.801   8.396  12.863  1.00  0.00    -0.010 C 
HETATM    5  C13 UNL     1      -1.216   9.590  13.685  1.00  0.00     0.021 C 
HETATM    6  C14 UNL     1      -0.773   8.106  11.769  1.00  0.00    -0.070 C 
HETATM    7  C15 UNL     1      -0.751   8.800  10.613  1.00  0.00    -0.022 C 
HETATM    8  C16 UNL     1       0.287   8.638   9.537  1.00  0.00     0.034 C 
HETATM    9  C17 UNL     1       1.178   7.408   9.774  1.00  0.00     0.013 C 
HETATM   10  C18 UNL     1       2.283   7.146   8.702  1.00  0.00     0.018 C 
HETATM   11  C19 UNL     1       1.653   7.072   7.294  1.00  0.00     0.023 C 
HETATM   12  C20 UNL     1       3.412   8.184   8.669  1.00  0.00     0.023 C 
HETATM   13  C21 UNL     1       2.916   5.774   8.996  1.00  0.00     0.135 C 
HETATM   14  O4  UNL     1       3.636   5.198   8.178  1.00  0.00    -0.297 OA
HETATM   15  C22 UNL     1       2.610   5.129  10.333  1.00  0.00     0.080 C 
HETATM   16  C23 UNL     1       2.683   6.174  11.436  1.00  0.00     0.017 C 
HETATM   17  C24 UNL     1       1.640   7.321  11.281  1.00  0.00    -0.031 C 
HETATM   18  C25 UNL     1       2.305   8.621  11.810  1.00  0.00     0.016 C 
HETATM   19  C26 UNL     1       0.307   7.052  12.098  1.00  0.00     0.024 C 
HETATM   20  C27 UNL     1       0.485   6.858  13.623  1.00  0.00     0.010 C 
HETATM   21  C28 UNL     1      -0.824   6.664  14.428  1.00  0.00     0.011 C 
HETATM   22  C29 UNL     1      -2.111   7.105  13.698  1.00  0.00    -0.026 C 
HETATM   23  C30 UNL     1      -2.640   5.917  12.830  1.00  0.00     0.016 C 
ENDROOT
BRANCH   1  24
HETATM   24  C2  UNL     1      -4.177   6.526  15.338  1.00  0.00    -0.008 C 
HETATM   25  C1  UNL     1      -5.616   7.026  15.538  1.00  0.00     0.011 C 
BRANCH  24  26
HETATM   26  C3  UNL     1      -4.191   5.186  14.556  1.00  0.00     0.031 C 
BRANCH  26  27
HETATM   27  C4  UNL     1      -5.325   5.066  13.575  1.00  0.00    -0.027 C 
HETATM   28  C5  UNL     1      -6.287   4.130  13.640  1.00  0.00     0.009 C 
BRANCH  28  29
HETATM   29  C6  UNL     1      -7.457   3.960  12.684  1.00  0.00     0.106 C 
HETATM   30  C7  UNL     1      -6.911   3.465  11.337  1.00  0.00     0.053 C 
HETATM   31  C8  UNL     1      -8.185   5.293  12.463  1.00  0.00     0.053 C 
BRANCH  29  32
HETATM   32  O1  UNL     1      -8.380   2.939  13.120  1.00  0.00    -0.229 OA
BRANCH  32  33
HETATM   33  O2  UNL     1      -7.950   1.658  12.559  1.00  0.00    -0.249 OA
HETATM   34  H15 UNL     1      -7.834   1.203  13.412  1.00  0.00     0.253 HD
ENDBRANCH  32  33
ENDBRANCH  29  32
ENDBRANCH  28  29
ENDBRANCH  26  27
ENDBRANCH  24  26
ENDBRANCH   1  24
BRANCH   2  35
HETATM   35  O3  UNL     1      -4.410   9.763  14.277  1.00  0.00    -0.395 OA
HETATM   36  H18 UNL     1      -4.943   9.593  15.070  1.00  0.00     0.210 HD
ENDBRANCH   2  35
TORSDOF 7
ENDMDL
MODEL 6
REMARK minimizedAffinity -6.72294998
REMARK CNNscore 0.402796537
REMARK CNNaffinity 5.7957859
REMARK  7 active torsions:
REMARK  status: ('A' for Active; 'I' for Inactive)
REMARK    1  A    between atoms: C2_2  and  C3_3 
REMARK    2  A    between atoms: C2_2  and  C9_11 
REMARK    3  A    between atoms: C3_3  and  C4_4 
REMARK    4  A    between atoms: C5_5  and  C6_6 
REMARK    5  A    between atoms: C6_6  and  O1_9 
REMARK    6  A    between atoms: O1_9  and  O2_10 
REMARK    7  A    between atoms: C10_12  and  O3_13 
ROOT
HETATM    1  C9  UNL     1     -17.396   1.752  14.748  1.00  0.00     0.028 C 
HETATM    2  C10 UNL     1     -18.356   1.258  15.881  1.00  0.00     0.124 C 
HETATM    3  C11 UNL     1     -18.148  -0.263  16.036  1.00  0.00     0.046 C 
HETATM    4  C12 UNL     1     -17.390  -0.683  14.761  1.00  0.00    -0.010 C 
HETATM    5  C13 UNL     1     -18.459  -0.847  13.632  1.00  0.00     0.021 C 
HETATM    6  C14 UNL     1     -16.619  -2.003  14.793  1.00  0.00    -0.070 C 
HETATM    7  C15 UNL     1     -17.074  -3.074  15.476  1.00  0.00    -0.022 C 
HETATM    8  C16 UNL     1     -16.422  -4.430  15.472  1.00  0.00     0.034 C 
HETATM    9  C17 UNL     1     -15.030  -4.400  14.819  1.00  0.00     0.013 C 
HETATM   10  C18 UNL     1     -14.265  -5.761  14.777  1.00  0.00     0.018 C 
HETATM   11  C19 UNL     1     -14.163  -6.359  16.197  1.00  0.00     0.023 C 
HETATM   12  C20 UNL     1     -14.878  -6.820  13.853  1.00  0.00     0.023 C 
HETATM   13  C21 UNL     1     -12.830  -5.485  14.290  1.00  0.00     0.135 C 
HETATM   14  O4  UNL     1     -11.933  -6.323  14.394  1.00  0.00    -0.297 OA
HETATM   15  C22 UNL     1     -12.541  -4.126  13.686  1.00  0.00     0.080 C 
HETATM   16  C23 UNL     1     -13.676  -3.725  12.755  1.00  0.00     0.017 C 
HETATM   17  C24 UNL     1     -15.050  -3.575  13.473  1.00  0.00    -0.031 C 
HETATM   18  C25 UNL     1     -16.144  -4.034  12.472  1.00  0.00     0.016 C 
HETATM   19  C26 UNL     1     -15.348  -2.082  13.919  1.00  0.00     0.024 C 
HETATM   20  C27 UNL     1     -15.360  -1.033  12.780  1.00  0.00     0.010 C 
HETATM   21  C28 UNL     1     -15.719   0.411  13.207  1.00  0.00     0.011 C 
HETATM   22  C29 UNL     1     -16.416   0.533  14.580  1.00  0.00    -0.026 C 
HETATM   23  C30 UNL     1     -15.328   0.627  15.699  1.00  0.00     0.016 C 
ENDROOT
BRANCH   1  24
HETATM   24  C2  UNL     1     -16.788   3.168  15.036  1.00  0.00    -0.008 C 
HETATM   25  C1  UNL     1     -15.283   3.208  14.729  1.00  0.00     0.011 C 
BRANCH  24  26
HETATM   26  C3  UNL     1     -17.519   4.273  14.227  1.00  0.00     0.031 C 
BRANCH  26  27
HETATM   27  C4  UNL     1     -16.652   5.455  13.892  1.00  0.00    -0.027 C 
HETATM   28  C5  UNL     1     -16.805   6.221  12.797  1.00  0.00     0.009 C 
BRANCH  28  29
HETATM   29  C6  UNL     1     -15.966   7.426  12.406  1.00  0.00     0.106 C 
HETATM   30  C7  UNL     1     -14.497   7.117  12.730  1.00  0.00     0.053 C 
HETATM   31  C8  UNL     1     -16.395   8.673  13.192  1.00  0.00     0.053 C 
BRANCH  29  32
HETATM   32  O1  UNL     1     -15.999   7.681  10.985  1.00  0.00    -0.229 OA
BRANCH  32  33
HETATM   33  O2  UNL     1     -15.873   9.122  10.773  1.00  0.00    -0.249 OA
HETATM   34  H15 UNL     1     -15.064   9.079  10.232  1.00  0.00     0.253 HD
ENDBRANCH  32  33
ENDBRANCH  29  32
ENDBRANCH  28  29
ENDBRANCH  26  27
ENDBRANCH  24  26
ENDBRANCH   1  24
BRANCH   2  35
HETATM   35  O3  UNL     1     -19.717   1.481  15.523  1.00  0.00    -0.395 OA
HETATM   36  H18 UNL     1     -19.853   2.433  15.393  1.00  0.00     0.210 HD
ENDBRANCH   2  35
TORSDOF 7
ENDMDL
MODEL 7
REMARK minimizedAffinity -9.90944862
REMARK CNNscore 0.389725
REMARK CNNaffinity 6.90370369
REMARK  7 active torsions:
REMARK  status: ('A' for Active; 'I' for Inactive)
REMARK    1  A    between atoms: C2_2  and  C3_3 
REMARK    2  A    between atoms: C2_2  and  C9_11 
REMARK    3  A    between atoms: C3_3  and  C4_4 
REMARK    4  A    between atoms: C5_5  and  C6_6 
REMARK    5  A    between atoms: C6_6  and  O1_9 
REMARK    6  A    between atoms: O1_9  and  O2_10 
REMARK    7  A    between atoms: C10_12  and  O3_13 
ROOT
HETATM    1  C9  UNL     1      -5.490   6.851  14.910  1.00  0.00     0.028 C 
HETATM    2  C10 UNL     1      -5.964   8.126  14.136  1.00  0.00     0.124 C 
HETATM    3  C11 UNL     1      -4.780   8.614  13.276  1.00  0.00     0.046 C 
HETATM    4  C12 UNL     1      -3.553   7.878  13.849  1.00  0.00    -0.010 C 
HETATM    5  C13 UNL     1      -3.092   8.679  15.109  1.00  0.00     0.021 C 
HETATM    6  C14 UNL     1      -2.315   7.758  12.960  1.00  0.00    -0.070 C 
HETATM    7  C15 UNL     1      -1.951   8.744  12.114  1.00  0.00    -0.022 C 
HETATM    8  C16 UNL     1      -0.696   8.739  11.285  1.00  0.00     0.034 C 
HETATM    9  C17 UNL     1       0.002   7.369  11.301  1.00  0.00     0.013 C 
HETATM   10  C18 UNL     1       1.312   7.258  10.458  1.00  0.00     0.018 C 
HETATM   11  C19 UNL     1       1.045   7.690   9.000  1.00  0.00     0.023 C 
HETATM   12  C20 UNL     1       2.496   8.073  10.991  1.00  0.00     0.023 C 
HETATM   13  C21 UNL     1       1.735   5.778  10.428  1.00  0.00     0.135 C 
HETATM   14  O4  UNL     1       2.584   5.357   9.641  1.00  0.00    -0.297 OA
HETATM   15  C22 UNL     1       1.055   4.832  11.398  1.00  0.00     0.080 C 
HETATM   16  C23 UNL     1       0.941   5.490  12.764  1.00  0.00     0.017 C 
HETATM   17  C24 UNL     1       0.069   6.781  12.765  1.00  0.00    -0.031 C 
HETATM   18  C25 UNL     1       0.689   7.754  13.804  1.00  0.00     0.016 C 
HETATM   19  C26 UNL     1      -1.443   6.499  13.157  1.00  0.00     0.024 C 
HETATM   20  C27 UNL     1      -1.664   5.850  14.545  1.00  0.00     0.010 C 
HETATM   21  C28 UNL     1      -3.142   5.638  14.955  1.00  0.00     0.011 C 
HETATM   22  C29 UNL     1      -4.168   6.466  14.149  1.00  0.00    -0.026 C 
HETATM   23  C30 UNL     1      -4.563   5.675  12.860  1.00  0.00     0.016 C 
ENDROOT
BRANCH   1  24
HETATM   24  C2  UNL     1      -6.615   5.768  15.052  1.00  0.00    -0.008 C 
HETATM   25  C1  UNL     1      -7.347   5.888  16.398  1.00  0.00     0.011 C 
BRANCH  24  26
HETATM   26  C3  UNL     1      -7.638   5.859  13.889  1.00  0.00     0.031 C 
BRANCH  26  27
HETATM   27  C4  UNL     1      -8.891   6.614  14.239  1.00  0.00    -0.027 C 
HETATM   28  C5  UNL     1      -9.964   6.715  13.434  1.00  0.00     0.009 C 
BRANCH  28  29
HETATM   29  C6  UNL     1     -11.256   7.458  13.731  1.00  0.00     0.106 C 
HETATM   30  C7  UNL     1     -10.967   8.522  14.799  1.00  0.00     0.053 C 
HETATM   31  C8  UNL     1     -12.332   6.500  14.265  1.00  0.00     0.053 C 
BRANCH  29  32
HETATM   32  O1  UNL     1     -11.746   8.189  12.587  1.00  0.00    -0.229 OA
BRANCH  32  33
HETATM   33  O2  UNL     1     -11.479   9.612  12.799  1.00  0.00    -0.249 OA
HETATM   34  H15 UNL     1     -10.929   9.736  12.006  1.00  0.00     0.253 HD
ENDBRANCH  32  33
ENDBRANCH  29  32
ENDBRANCH  28  29
ENDBRANCH  26  27
ENDBRANCH  24  26
ENDBRANCH   1  24
BRANCH   2  35
HETATM   35  O3  UNL     1      -6.307   9.169  15.044  1.00  0.00    -0.395 OA
HETATM   36  H18 UNL     1      -7.031   8.863  15.613  1.00  0.00     0.210 HD
ENDBRANCH   2  35
TORSDOF 7
ENDMDL
MODEL 8
REMARK minimizedAffinity -7.185009
REMARK CNNscore 0.336465746
REMARK CNNaffinity 6.29101133
REMARK  7 active torsions:
REMARK  status: ('A' for Active; 'I' for Inactive)
REMARK    1  A    between atoms: C2_2  and  C3_3 
REMARK    2  A    between atoms: C2_2  and  C9_11 
REMARK    3  A    between atoms: C3_3  and  C4_4 
REMARK    4  A    between atoms: C5_5  and  C6_6 
REMARK    5  A    between atoms: C6_6  and  O1_9 
REMARK    6  A    between atoms: O1_9  and  O2_10 
REMARK    7  A    between atoms: C10_12  and  O3_13 
ROOT
HETATM    1  C9  UNL     1      -3.467 -11.274   4.219  1.00  0.00     0.028 C 
HETATM    2  C10 UNL     1      -2.216 -11.143   3.289  1.00  0.00     0.124 C 
HETATM    3  C11 UNL     1      -2.727 -10.932   1.848  1.00  0.00     0.046 C 
HETATM    4  C12 UNL     1      -4.215 -11.333   1.902  1.00  0.00    -0.010 C 
HETATM    5  C13 UNL     1      -4.269 -12.891   1.796  1.00  0.00     0.021 C 
HETATM    6  C14 UNL     1      -5.133 -10.811   0.796  1.00  0.00    -0.070 C 
HETATM    7  C15 UNL     1      -4.703 -10.669  -0.475  1.00  0.00    -0.022 C 
HETATM    8  C16 UNL     1      -5.573 -10.258  -1.631  1.00  0.00     0.034 C 
HETATM    9  C17 UNL     1      -6.951  -9.757  -1.167  1.00  0.00     0.013 C 
HETATM   10  C18 UNL     1      -7.926  -9.295  -2.296  1.00  0.00     0.018 C 
HETATM   11  C19 UNL     1      -7.250  -8.223  -3.178  1.00  0.00     0.023 C 
HETATM   12  C20 UNL     1      -8.437 -10.416  -3.210  1.00  0.00     0.023 C 
HETATM   13  C21 UNL     1      -9.149  -8.639  -1.629  1.00  0.00     0.135 C 
HETATM   14  O4  UNL     1      -9.958  -7.965  -2.269  1.00  0.00    -0.297 OA
HETATM   15  C22 UNL     1      -9.325  -8.831  -0.137  1.00  0.00     0.080 C 
HETATM   16  C23 UNL     1      -9.029 -10.276   0.234  1.00  0.00     0.017 C 
HETATM   17  C24 UNL     1      -7.565 -10.713  -0.070  1.00  0.00    -0.031 C 
HETATM   18  C25 UNL     1      -7.609 -12.207  -0.492  1.00  0.00     0.016 C 
HETATM   19  C26 UNL     1      -6.605 -10.557   1.184  1.00  0.00     0.024 C 
HETATM   20  C27 UNL     1      -7.020 -11.352   2.446  1.00  0.00     0.010 C 
HETATM   21  C28 UNL     1      -6.047 -11.253   3.647  1.00  0.00     0.011 C 
HETATM   22  C29 UNL     1      -4.629 -10.749   3.298  1.00  0.00    -0.026 C 
HETATM   23  C30 UNL     1      -4.616  -9.186   3.345  1.00  0.00     0.016 C 
ENDROOT
BRANCH   1  24
HETATM   24  C2  UNL     1      -3.260 -10.602   5.620  1.00  0.00    -0.008 C 
HETATM   25  C1  UNL     1      -2.709  -9.174   5.486  1.00  0.00     0.011 C 
BRANCH  24  26
HETATM   26  C3  UNL     1      -4.579 -10.582   6.438  1.00  0.00     0.031 C 
BRANCH  26  27
HETATM   27  C4  UNL     1      -4.405 -10.125   7.860  1.00  0.00    -0.027 C 
HETATM   28  C5  UNL     1      -5.359 -10.209   8.805  1.00  0.00     0.009 C 
BRANCH  28  29
HETATM   29  C6  UNL     1      -5.244  -9.768  10.255  1.00  0.00     0.106 C 
HETATM   30  C7  UNL     1      -3.765  -9.495  10.560  1.00  0.00     0.053 C 
HETATM   31  C8  UNL     1      -5.752 -10.864  11.204  1.00  0.00     0.053 C 
BRANCH  29  32
HETATM   32  O1  UNL     1      -5.923  -8.519  10.506  1.00  0.00    -0.229 OA
BRANCH  32  33
HETATM   33  O2  UNL     1      -5.633  -8.103  11.877  1.00  0.00    -0.249 OA
HETATM   34  H15 UNL     1      -5.225  -7.250  11.645  1.00  0.00     0.253 HD
ENDBRANCH  32  33
ENDBRANCH  29  32
ENDBRANCH  28  29
ENDBRANCH  26  27
ENDBRANCH  24  26
ENDBRANCH   1  24
BRANCH   2  35
HETATM   35  O3  UNL     1      -1.443 -12.341   3.310  1.00  0.00    -0.395 OA
HETATM   36  H18 UNL     1      -1.141 -12.501   4.218  1.00  0.00     0.210 HD
ENDBRANCH   2  35
TORSDOF 7
ENDMDL
MODEL 9
REMARK minimizedAffinity -6.21921253
REMARK CNNscore 0.308795929
REMARK CNNaffinity 6.47860479
REMARK  7 active torsions:
REMARK  status: ('A' for Active; 'I' for Inactive)
REMARK    1  A    between atoms: C2_2  and  C3_3 
REMARK    2  A    between atoms: C2_2  and  C9_11 
REMARK    3  A    between atoms: C3_3  and  C4_4 
REMARK    4  A    between atoms: C5_5  and  C6_6 
REMARK    5  A    between atoms: C6_6  and  O1_9 
REMARK    6  A    between atoms: O1_9  and  O2_10 
REMARK    7  A    between atoms: C10_12  and  O3_13 
ROOT
HETATM    1  C9  UNL     1      -9.874  -8.245  -4.680  1.00  0.00     0.028 C 
HETATM    2  C10 UNL     1     -10.295  -7.102  -3.699  1.00  0.00     0.124 C 
HETATM    3  C11 UNL     1      -9.694  -7.430  -2.317  1.00  0.00     0.046 C 
HETATM    4  C12 UNL     1      -9.283  -8.913  -2.414  1.00  0.00    -0.010 C 
HETATM    5  C13 UNL     1     -10.573  -9.757  -2.160  1.00  0.00     0.021 C 
HETATM    6  C14 UNL     1      -8.247  -9.432  -1.417  1.00  0.00    -0.070 C 
HETATM    7  C15 UNL     1      -8.202  -8.988  -0.144  1.00  0.00    -0.022 C 
HETATM    8  C16 UNL     1      -7.279  -9.522   0.916  1.00  0.00     0.034 C 
HETATM    9  C17 UNL     1      -6.202 -10.450   0.331  1.00  0.00     0.013 C 
HETATM   10  C18 UNL     1      -5.184 -11.049   1.353  1.00  0.00     0.018 C 
HETATM   11  C19 UNL     1      -4.515  -9.917   2.162  1.00  0.00     0.023 C 
HETATM   12  C20 UNL     1      -5.778 -12.059   2.341  1.00  0.00     0.023 C 
HETATM   13  C21 UNL     1      -4.076 -11.764   0.558  1.00  0.00     0.135 C 
HETATM   14  O4  UNL     1      -3.017 -12.112   1.083  1.00  0.00    -0.297 OA
HETATM   15  C22 UNL     1      -4.318 -12.016  -0.916  1.00  0.00     0.080 C 
HETATM   16  C23 UNL     1      -5.744 -12.503  -1.127  1.00  0.00     0.017 C 
HETATM   17  C24 UNL     1      -6.828 -11.469  -0.701  1.00  0.00    -0.031 C 
HETATM   18  C25 UNL     1      -8.033 -12.271  -0.139  1.00  0.00     0.016 C 
HETATM   19  C26 UNL     1      -7.323 -10.567  -1.909  1.00  0.00     0.024 C 
HETATM   20  C27 UNL     1      -7.932 -11.333  -3.109  1.00  0.00     0.010 C 
HETATM   21  C28 UNL     1      -8.478 -10.449  -4.257  1.00  0.00     0.011 C 
HETATM   22  C29 UNL     1      -8.731  -8.973  -3.881  1.00  0.00    -0.026 C 
HETATM   23  C30 UNL     1      -7.409  -8.161  -4.079  1.00  0.00     0.016 C 
ENDROOT
BRANCH   1  24
HETATM   24  C2  UNL     1      -9.563  -7.726  -6.127  1.00  0.00    -0.008 C 
HETATM   25  C1  UNL     1     -10.802  -7.804  -7.032  1.00  0.00     0.011 C 
BRANCH  24  26
HETATM   26  C3  UNL     1      -9.022  -6.271  -6.102  1.00  0.00     0.031 C 
BRANCH  26  27
HETATM   27  C4  UNL     1     -10.028  -5.241  -6.535  1.00  0.00    -0.027 C 
HETATM   28  C5  UNL     1     -10.032  -3.963  -6.117  1.00  0.00     0.009 C 
BRANCH  28  29
HETATM   29  C6  UNL     1     -11.017  -2.877  -6.519  1.00  0.00     0.106 C 
HETATM   30  C7  UNL     1     -12.173  -3.535  -7.285  1.00  0.00     0.053 C 
HETATM   31  C8  UNL     1     -10.347  -1.837  -7.429  1.00  0.00     0.053 C 
BRANCH  29  32
HETATM   32  O1  UNL     1     -11.628  -2.239  -5.378  1.00  0.00    -0.229 OA
BRANCH  32  33
HETATM   33  O2  UNL     1     -11.055  -2.820  -4.164  1.00  0.00    -0.249 OA
HETATM   34  H15 UNL     1     -10.705  -1.986  -3.802  1.00  0.00     0.253 HD
ENDBRANCH  32  33
ENDBRANCH  29  32
ENDBRANCH  28  29
ENDBRANCH  26  27
ENDBRANCH  24  26
ENDBRANCH   1  24
BRANCH   2  35
HETATM   35  O3  UNL     1     -11.713  -7.052  -3.560  1.00  0.00    -0.395 OA
HETATM   36  H18 UNL     1     -12.105  -6.876  -4.430  1.00  0.00     0.210 HD
ENDBRANCH   2  35
TORSDOF 7
ENDMDL
