MODEL 1
REMARK minimizedAffinity -8.2314558
REMARK CNNscore 0.471736819
REMARK CNNaffinity 7.39620399
REMARK  12 active torsions:
REMARK  status: ('A' for Active; 'I' for Inactive)
REMARK    1  A    between atoms: O1_2  and  C2_3 
REMARK    2  A    between atoms: C2_3  and  C5_6 
REMARK    3  A    between atoms: C6_7  and  C7_8 
REMARK    4  A    between atoms: C7_8  and  C8_9 
REMARK    5  A    between atoms: C8_9  and  C10_11 
REMARK    6  A    between atoms: C28_30  and  O3_31 
REMARK    7  A    between atoms: O3_31  and  C29_32 
REMARK    8  A    between atoms: C30_34  and  C31_35 
REMARK    9  A    between atoms: C31_35  and  O5_36 
REMARK   10  A    between atoms: C32_37  and  O6_38 
REMARK   11  A    between atoms: C33_39  and  O7_40 
REMARK   12  A    between atoms: C34_41  and  O8_42 
ROOT
HETATM    1  C10 UNL     1      -6.784   6.244  14.633  1.00  0.00    -0.002 C 
HETATM    2  C11 UNL     1      -7.149   5.466  13.321  1.00  0.00     0.006 C 
HETATM    3  C12 UNL     1      -5.857   5.302  12.490  1.00  0.00     0.011 C 
HETATM    4  C13 UNL     1      -4.735   5.666  13.475  1.00  0.00    -0.029 C 
HETATM    5  C14 UNL     1      -4.528   4.388  14.349  1.00  0.00     0.016 C 
HETATM    6  C15 UNL     1      -3.396   6.135  12.837  1.00  0.00     0.028 C 
HETATM    7  C16 UNL     1      -2.702   5.177  11.900  1.00  0.00    -0.021 C 
HETATM    8  C17 UNL     1      -1.360   5.123  11.835  1.00  0.00     0.008 C 
HETATM    9  C18 UNL     1      -0.462   5.970  12.740  1.00  0.00     0.092 C 
HETATM   10  O2  UNL     1      -0.474   5.225  13.975  1.00  0.00    -0.374 OA
HETATM   11  C19 UNL     1      -1.616   5.683  14.740  1.00  0.00     0.179 C 
HETATM   12  C20 UNL     1      -2.388   6.739  13.891  1.00  0.00    -0.004 C 
HETATM   13  C21 UNL     1      -3.076   7.775  14.804  1.00  0.00     0.014 C 
HETATM   14  C22 UNL     1      -4.452   7.340  15.357  1.00  0.00     0.011 C 
HETATM   15  C23 UNL     1      -5.413   6.885  14.236  1.00  0.00    -0.032 C 
HETATM   16  C24 UNL     1      -5.700   8.127  13.325  1.00  0.00     0.016 C 
HETATM   17  C25 UNL     1      -1.155   7.290  13.144  1.00  0.00     0.036 C 
HETATM   18  C26 UNL     1      -1.328   8.268  11.977  1.00  0.00     0.011 C 
HETATM   19  C27 UNL     1      -0.246   8.079  10.909  1.00  0.00     0.033 C 
HETATM   20  C28 UNL     1       1.090   7.659  11.530  1.00  0.00     0.136 C 
HETATM   21  C35 UNL     1       1.006   6.253  12.240  1.00  0.00     0.014 C 
HETATM   22  C36 UNL     1       1.994   6.301  13.441  1.00  0.00     0.021 C 
HETATM   23  C37 UNL     1       1.540   5.125  11.325  1.00  0.00     0.021 C 
ENDROOT
BRANCH  20  24
HETATM   24  O3  UNL     1       2.113   7.635  10.530  1.00  0.00    -0.352 OA
BRANCH  24  25
HETATM   25  C29 UNL     1       3.304   8.350  10.881  1.00  0.00     0.292 C 
HETATM   26  O4  UNL     1       4.424   7.467  10.864  1.00  0.00    -0.348 OA
HETATM   27  C30 UNL     1       5.681   8.144  11.042  1.00  0.00     0.179 C 
HETATM   28  C32 UNL     1       5.605   9.267  12.097  1.00  0.00     0.180 C 
HETATM   29  C33 UNL     1       4.444   8.998  13.063  1.00  0.00     0.183 C 
HETATM   30  C34 UNL     1       3.105   8.912  12.308  1.00  0.00     0.204 C 
BRANCH  27  31
HETATM   31  C31 UNL     1       6.700   7.068  11.442  1.00  0.00     0.198 C 
BRANCH  31  32
HETATM   32  O5  UNL     1       6.099   6.015  12.182  1.00  0.00    -0.398 OA
HETATM   33  H48 UNL     1       5.826   6.382  13.043  1.00  0.00     0.209 HD
ENDBRANCH  31  32
ENDBRANCH  27  31
BRANCH  28  34
HETATM   34  O6  UNL     1       5.387  10.519  11.425  1.00  0.00    -0.390 OA
HETATM   35  H50 UNL     1       4.961  11.113  12.074  1.00  0.00     0.210 HD
ENDBRANCH  28  34
BRANCH  29  36
HETATM   36  O7  UNL     1       4.355  10.056  14.037  1.00  0.00    -0.390 OA
HETATM   37  H52 UNL     1       5.081   9.920  14.678  1.00  0.00     0.210 HD
ENDBRANCH  29  36
BRANCH  30  38
HETATM   38  O8  UNL     1       2.490  10.216  12.258  1.00  0.00    -0.388 OA
HETATM   39  H54 UNL     1       2.672  10.604  13.138  1.00  0.00     0.210 HD
ENDBRANCH  30  38
ENDBRANCH  24  25
ENDBRANCH  20  24
BRANCH   1  40
HETATM   40  C8  UNL     1      -7.957   7.135  15.151  1.00  0.00    -0.010 C 
HETATM   41  C9  UNL     1      -7.991   7.244  16.683  1.00  0.00     0.010 C 
BRANCH  40  42
HETATM   42  C7  UNL     1      -9.359   6.609  14.723  1.00  0.00     0.031 C 
BRANCH  42  43
HETATM   43  C6  UNL     1     -10.455   7.628  14.606  1.00  0.00    -0.027 C 
HETATM   44  C5  UNL     1     -11.539   7.474  13.825  1.00  0.00     0.006 C 
BRANCH  44  45
HETATM   45  C2  UNL     1     -12.677   8.456  13.622  1.00  0.00     0.070 C 
HETATM   46  C3  UNL     1     -12.441   9.540  12.557  1.00  0.00     0.050 C 
HETATM   47  C4  UNL     1     -12.930   9.158  14.968  1.00  0.00     0.050 C 
BRANCH  45  48
HETATM   48  O1  UNL     1     -13.879   7.710  13.355  1.00  0.00    -0.382 OA
HETATM   49  C1  UNL     1     -14.856   8.366  12.558  1.00  0.00     0.202 C 
ENDBRANCH  45  48
ENDBRANCH  44  45
ENDBRANCH  42  43
ENDBRANCH  40  42
ENDBRANCH   1  40
TORSDOF 12
ENDMDL
MODEL 2
REMARK minimizedAffinity -8.5334816
REMARK CNNscore 0.392734259
REMARK CNNaffinity 7.35059547
REMARK  12 active torsions:
REMARK  status: ('A' for Active; 'I' for Inactive)
REMARK    1  A    between atoms: O1_2  and  C2_3 
REMARK    2  A    between atoms: C2_3  and  C5_6 
REMARK    3  A    between atoms: C6_7  and  C7_8 
REMARK    4  A    between atoms: C7_8  and  C8_9 
REMARK    5  A    between atoms: C8_9  and  C10_11 
REMARK    6  A    between atoms: C28_30  and  O3_31 
REMARK    7  A    between atoms: O3_31  and  C29_32 
REMARK    8  A    between atoms: C30_34  and  C31_35 
REMARK    9  A    between atoms: C31_35  and  O5_36 
REMARK   10  A    between atoms: C32_37  and  O6_38 
REMARK   11  A    between atoms: C33_39  and  O7_40 
REMARK   12  A    between atoms: C34_41  and  O8_42 
ROOT
HETATM    1  C10 UNL     1      -9.406  -7.908  -3.639  1.00  0.00    -0.002 C 
HETATM    2  C11 UNL     1      -8.012  -7.762  -4.343  1.00  0.00     0.006 C 
HETATM    3  C12 UNL     1      -6.952  -8.441  -3.446  1.00  0.00     0.011 C 
HETATM    4  C13 UNL     1      -7.785  -9.254  -2.442  1.00  0.00    -0.029 C 
HETATM    5  C14 UNL     1      -8.202 -10.549  -3.208  1.00  0.00     0.016 C 
HETATM    6  C15 UNL     1      -7.081  -9.596  -1.097  1.00  0.00     0.028 C 
HETATM    7  C16 UNL     1      -5.799 -10.391  -1.167  1.00  0.00    -0.021 C 
HETATM    8  C17 UNL     1      -5.484 -11.281  -0.211  1.00  0.00     0.008 C 
HETATM    9  C18 UNL     1      -6.421 -11.592   0.959  1.00  0.00     0.092 C 
HETATM   10  O2  UNL     1      -7.369 -12.502   0.365  1.00  0.00    -0.374 OA
HETATM   11  C19 UNL     1      -8.425 -11.699  -0.218  1.00  0.00     0.179 C 
HETATM   12  C20 UNL     1      -8.068 -10.194  -0.019  1.00  0.00    -0.004 C 
HETATM   13  C21 UNL     1      -9.348  -9.343   0.111  1.00  0.00     0.014 C 
HETATM   14  C22 UNL     1      -9.988  -8.924  -1.232  1.00  0.00     0.011 C 
HETATM   15  C23 UNL     1      -8.973  -8.235  -2.171  1.00  0.00    -0.032 C 
HETATM   16  C24 UNL     1      -8.526  -6.899  -1.485  1.00  0.00     0.016 C 
HETATM   17  C25 UNL     1      -7.305 -10.375   1.311  1.00  0.00     0.036 C 
HETATM   18  C26 UNL     1      -6.520  -9.208   1.920  1.00  0.00     0.011 C 
HETATM   19  C27 UNL     1      -5.268  -9.688   2.662  1.00  0.00     0.033 C 
HETATM   20  C28 UNL     1      -5.493 -11.053   3.321  1.00  0.00     0.136 C 
HETATM   21  C35 UNL     1      -5.770 -12.191   2.265  1.00  0.00     0.014 C 
HETATM   22  C36 UNL     1      -6.738 -13.202   2.943  1.00  0.00     0.021 C 
HETATM   23  C37 UNL     1      -4.489 -13.004   1.960  1.00  0.00     0.021 C 
ENDROOT
BRANCH  20  24
HETATM   24  O3  UNL     1      -4.364 -11.405   4.125  1.00  0.00    -0.352 OA
BRANCH  24  25
HETATM   25  C29 UNL     1      -4.509 -11.105   5.518  1.00  0.00     0.292 C 
HETATM   26  O4  UNL     1      -5.718 -10.380   5.735  1.00  0.00    -0.348 OA
HETATM   27  C30 UNL     1      -6.020 -10.187   7.128  1.00  0.00     0.179 C 
HETATM   28  C32 UNL     1      -4.767  -9.858   7.967  1.00  0.00     0.180 C 
HETATM   29  C33 UNL     1      -3.678  -9.263   7.065  1.00  0.00     0.183 C 
HETATM   30  C34 UNL     1      -3.299 -10.239   5.937  1.00  0.00     0.204 C 
BRANCH  27  31
HETATM   31  C31 UNL     1      -7.051  -9.053   7.195  1.00  0.00     0.198 C 
BRANCH  31  32
HETATM   32  O5  UNL     1      -6.433  -7.775   7.255  1.00  0.00    -0.398 OA
HETATM   33  H48 UNL     1      -5.985  -7.707   8.119  1.00  0.00     0.209 HD
ENDBRANCH  31  32
ENDBRANCH  27  31
BRANCH  28  34
HETATM   34  O6  UNL     1      -4.281 -11.072   8.566  1.00  0.00    -0.390 OA
HETATM   35  H50 UNL     1      -3.329 -10.935   8.740  1.00  0.00     0.210 HD
ENDBRANCH  28  34
BRANCH  29  36
HETATM   36  O7  UNL     1      -2.498  -8.976   7.839  1.00  0.00    -0.390 OA
HETATM   37  H52 UNL     1      -2.683  -8.167   8.358  1.00  0.00     0.210 HD
ENDBRANCH  29  36
BRANCH  30  38
HETATM   38  O8  UNL     1      -2.201 -11.072   6.362  1.00  0.00    -0.388 OA
HETATM   39  H54 UNL     1      -1.622 -10.470   6.870  1.00  0.00     0.210 HD
ENDBRANCH  30  38
ENDBRANCH  24  25
ENDBRANCH  20  24
BRANCH   1  40
HETATM   40  C8  UNL     1     -10.359  -6.707  -3.937  1.00  0.00    -0.010 C 
HETATM   41  C9  UNL     1     -11.456  -7.057  -4.955  1.00  0.00     0.010 C 
BRANCH  40  42
HETATM   42  C7  UNL     1      -9.616  -5.465  -4.512  1.00  0.00     0.031 C 
BRANCH  42  43
HETATM   43  C6  UNL     1     -10.471  -4.318  -4.965  1.00  0.00    -0.027 C 
HETATM   44  C5  UNL     1     -10.051  -3.042  -5.002  1.00  0.00     0.006 C 
BRANCH  44  45
HETATM   45  C2  UNL     1     -10.848  -1.819  -5.417  1.00  0.00     0.070 C 
HETATM   46  C3  UNL     1     -10.824  -0.640  -4.428  1.00  0.00     0.050 C 
HETATM   47  C4  UNL     1     -12.312  -2.258  -5.596  1.00  0.00     0.050 C 
BRANCH  45  48
HETATM   48  O1  UNL     1     -10.413  -1.415  -6.727  1.00  0.00    -0.382 OA
HETATM   49  C1  UNL     1      -9.011  -1.462  -6.961  1.00  0.00     0.202 C 
ENDBRANCH  45  48
ENDBRANCH  44  45
ENDBRANCH  42  43
ENDBRANCH  40  42
ENDBRANCH   1  40
TORSDOF 12
ENDMDL
MODEL 3
REMARK minimizedAffinity -9.31226158
REMARK CNNscore 0.354502708
REMARK CNNaffinity 7.01885462
REMARK  12 active torsions:
REMARK  status: ('A' for Active; 'I' for Inactive)
REMARK    1  A    between atoms: O1_2  and  C2_3 
REMARK    2  A    between atoms: C2_3  and  C5_6 
REMARK    3  A    between atoms: C6_7  and  C7_8 
REMARK    4  A    between atoms: C7_8  and  C8_9 
REMARK    5  A    between atoms: C8_9  and  C10_11 
REMARK    6  A    between atoms: C28_30  and  O3_31 
REMARK    7  A    between atoms: O3_31  and  C29_32 
REMARK    8  A    between atoms: C30_34  and  C31_35 
REMARK    9  A    between atoms: C31_35  and  O5_36 
REMARK   10  A    between atoms: C32_37  and  O6_38 
REMARK   11  A    between atoms: C33_39  and  O7_40 
REMARK   12  A    between atoms: C34_41  and  O8_42 
ROOT
HETATM    1  C10 UNL     1      -5.283   6.166  13.511  1.00  0.00    -0.002 C 
HETATM    2  C11 UNL     1      -5.818   7.162  14.599  1.00  0.00     0.006 C 
HETATM    3  C12 UNL     1      -4.635   8.044  15.059  1.00  0.00     0.011 C 
HETATM    4  C13 UNL     1      -3.550   7.789  14.001  1.00  0.00    -0.029 C 
HETATM    5  C14 UNL     1      -3.950   8.677  12.781  1.00  0.00     0.016 C 
HETATM    6  C15 UNL     1      -2.086   8.071  14.448  1.00  0.00     0.028 C 
HETATM    7  C16 UNL     1      -1.760   9.470  14.910  1.00  0.00    -0.021 C 
HETATM    8  C17 UNL     1      -0.553  10.013  14.673  1.00  0.00     0.008 C 
HETATM    9  C18 UNL     1       0.529   9.284  13.873  1.00  0.00     0.092 C 
HETATM   10  O2  UNL     1       0.113   9.509  12.510  1.00  0.00    -0.374 OA
HETATM   11  C19 UNL     1      -0.808   8.446  12.163  1.00  0.00     0.179 C 
HETATM   12  C20 UNL     1      -1.014   7.541  13.417  1.00  0.00    -0.004 C 
HETATM   13  C21 UNL     1      -1.301   6.085  12.997  1.00  0.00     0.014 C 
HETATM   14  C22 UNL     1      -2.778   5.789  12.648  1.00  0.00     0.011 C 
HETATM   15  C23 UNL     1      -3.741   6.228  13.773  1.00  0.00    -0.032 C 
HETATM   16  C24 UNL     1      -3.425   5.354  15.034  1.00  0.00     0.016 C 
HETATM   17  C25 UNL     1       0.396   7.751  14.010  1.00  0.00     0.036 C 
HETATM   18  C26 UNL     1       0.730   7.235  15.414  1.00  0.00     0.011 C 
HETATM   19  C27 UNL     1       1.732   8.146  16.133  1.00  0.00     0.033 C 
HETATM   20  C28 UNL     1       2.727   8.772  15.152  1.00  0.00     0.136 C 
HETATM   21  C35 UNL     1       2.024   9.726  14.111  1.00  0.00     0.014 C 
HETATM   22  C36 UNL     1       2.841   9.625  12.791  1.00  0.00     0.021 C 
HETATM   23  C37 UNL     1       2.134  11.210  14.539  1.00  0.00     0.021 C 
ENDROOT
BRANCH  20  24
HETATM   24  O3  UNL     1       3.734   9.496  15.865  1.00  0.00    -0.352 OA
BRANCH  24  25
HETATM   25  C29 UNL     1       5.075   9.076  15.588  1.00  0.00     0.292 C 
HETATM   26  O4  UNL     1       5.697   9.995  14.691  1.00  0.00    -0.348 OA
HETATM   27  C30 UNL     1       7.098   9.735  14.496  1.00  0.00     0.179 C 
HETATM   28  C32 UNL     1       7.412   8.228  14.389  1.00  0.00     0.180 C 
HETATM   29  C33 UNL     1       6.159   7.464  13.942  1.00  0.00     0.183 C 
HETATM   30  C34 UNL     1       4.999   7.678  14.931  1.00  0.00     0.204 C 
BRANCH  27  31
HETATM   31  C31 UNL     1       7.504  10.482  13.218  1.00  0.00     0.198 C 
BRANCH  31  32
HETATM   32  O5  UNL     1       8.693   9.954  12.647  1.00  0.00    -0.398 OA
HETATM   33  H48 UNL     1       9.426  10.160  13.257  1.00  0.00     0.209 HD
ENDBRANCH  31  32
ENDBRANCH  27  31
BRANCH  28  34
HETATM   34  O6  UNL     1       7.828   7.751  15.681  1.00  0.00    -0.390 OA
HETATM   35  H50 UNL     1       7.639   6.791  15.697  1.00  0.00     0.210 HD
ENDBRANCH  28  34
BRANCH  29  36
HETATM   36  O7  UNL     1       6.441   6.054  13.864  1.00  0.00    -0.390 OA
HETATM   37  H52 UNL     1       6.968   5.910  13.052  1.00  0.00     0.210 HD
ENDBRANCH  29  36
BRANCH  30  38
HETATM   38  O8  UNL     1       5.019   6.644  15.936  1.00  0.00    -0.388 OA
HETATM   39  H54 UNL     1       5.263   5.833  15.445  1.00  0.00     0.210 HD
ENDBRANCH  30  38
ENDBRANCH  24  25
ENDBRANCH  20  24
BRANCH   1  40
HETATM   40  C8  UNL     1      -6.037   4.799  13.524  1.00  0.00    -0.010 C 
HETATM   41  C9  UNL     1      -5.330   3.722  12.688  1.00  0.00     0.010 C 
BRANCH  40  42
HETATM   42  C7  UNL     1      -7.488   4.896  12.966  1.00  0.00     0.031 C 
BRANCH  42  43
HETATM   43  C6  UNL     1      -8.410   5.862  13.651  1.00  0.00    -0.027 C 
HETATM   44  C5  UNL     1      -9.600   6.240  13.154  1.00  0.00     0.006 C 
BRANCH  44  45
HETATM   45  C2  UNL     1     -10.583   7.226  13.757  1.00  0.00     0.070 C 
HETATM   46  C3  UNL     1     -11.319   8.132  12.755  1.00  0.00     0.050 C 
HETATM   47  C4  UNL     1      -9.798   8.128  14.726  1.00  0.00     0.050 C 
BRANCH  45  48
HETATM   48  O1  UNL     1     -11.507   6.499  14.585  1.00  0.00    -0.382 OA
HETATM   49  C1  UNL     1     -12.862   6.498  14.155  1.00  0.00     0.202 C 
ENDBRANCH  45  48
ENDBRANCH  44  45
ENDBRANCH  42  43
ENDBRANCH  40  42
ENDBRANCH   1  40
TORSDOF 12
ENDMDL
MODEL 4
REMARK minimizedAffinity -7.13118029
REMARK CNNscore 0.327568352
REMARK CNNaffinity 6.06806803
REMARK  12 active torsions:
REMARK  status: ('A' for Active; 'I' for Inactive)
REMARK    1  A    between atoms: O1_2  and  C2_3 
REMARK    2  A    between atoms: C2_3  and  C5_6 
REMARK    3  A    between atoms: C6_7  and  C7_8 
REMARK    4  A    between atoms: C7_8  and  C8_9 
REMARK    5  A    between atoms: C8_9  and  C10_11 
REMARK    6  A    between atoms: C28_30  and  O3_31 
REMARK    7  A    between atoms: O3_31  and  C29_32 
REMARK    8  A    between atoms: C30_34  and  C31_35 
REMARK    9  A    between atoms: C31_35  and  O5_36 
REMARK   10  A    between atoms: C32_37  and  O6_38 
REMARK   11  A    between atoms: C33_39  and  O7_40 
REMARK   12  A    between atoms: C34_41  and  O8_42 
ROOT
HETATM    1  C10 UNL     1       4.565  13.065  20.901  1.00  0.00    -0.002 C 
HETATM    2  C11 UNL     1       4.784  14.320  19.986  1.00  0.00     0.006 C 
HETATM    3  C12 UNL     1       3.712  14.290  18.873  1.00  0.00     0.011 C 
HETATM    4  C13 UNL     1       2.701  13.241  19.362  1.00  0.00    -0.029 C 
HETATM    5  C14 UNL     1       1.819  13.982  20.417  1.00  0.00     0.016 C 
HETATM    6  C15 UNL     1       1.824  12.577  18.261  1.00  0.00     0.028 C 
HETATM    7  C16 UNL     1       0.961  13.486  17.421  1.00  0.00    -0.021 C 
HETATM    8  C17 UNL     1      -0.241  13.081  16.975  1.00  0.00     0.008 C 
HETATM    9  C18 UNL     1      -0.832  11.717  17.340  1.00  0.00     0.092 C 
HETATM   10  O2  UNL     1      -1.354  11.949  18.664  1.00  0.00    -0.374 OA
HETATM   11  C19 UNL     1      -0.278  11.692  19.600  1.00  0.00     0.179 C 
HETATM   12  C20 UNL     1       1.006  11.335  18.789  1.00  0.00    -0.004 C 
HETATM   13  C21 UNL     1       1.900  10.363  19.587  1.00  0.00     0.014 C 
HETATM   14  C22 UNL     1       2.840  11.040  20.612  1.00  0.00     0.011 C 
HETATM   15  C23 UNL     1       3.691  12.159  19.971  1.00  0.00    -0.032 C 
HETATM   16  C24 UNL     1       4.636  11.489  18.916  1.00  0.00     0.016 C 
HETATM   17  C25 UNL     1       0.277  10.674  17.600  1.00  0.00     0.036 C 
HETATM   18  C26 UNL     1       1.052  10.282  16.337  1.00  0.00     0.011 C 
HETATM   19  C27 UNL     1       0.196  10.429  15.074  1.00  0.00     0.033 C 
HETATM   20  C28 UNL     1      -1.276  10.111  15.352  1.00  0.00     0.136 C 
HETATM   21  C35 UNL     1      -1.926  11.123  16.372  1.00  0.00     0.014 C 
HETATM   22  C36 UNL     1      -2.990  10.322  17.177  1.00  0.00     0.021 C 
HETATM   23  C37 UNL     1      -2.724  12.230  15.641  1.00  0.00     0.021 C 
ENDROOT
BRANCH  20  24
HETATM   24  O3  UNL     1      -2.021  10.112  14.130  1.00  0.00    -0.352 OA
BRANCH  24  25
HETATM   25  C29 UNL     1      -2.710   8.888  13.854  1.00  0.00     0.292 C 
HETATM   26  O4  UNL     1      -4.085   9.012  14.213  1.00  0.00    -0.348 OA
HETATM   27  C30 UNL     1      -4.879   7.882  13.811  1.00  0.00     0.179 C 
HETATM   28  C32 UNL     1      -4.149   6.539  14.022  1.00  0.00     0.180 C 
HETATM   29  C33 UNL     1      -3.068   6.696  15.099  1.00  0.00     0.183 C 
HETATM   30  C34 UNL     1      -2.047   7.779  14.703  1.00  0.00     0.204 C 
BRANCH  27  31
HETATM   31  C31 UNL     1      -6.175   7.949  14.631  1.00  0.00     0.198 C 
BRANCH  31  32
HETATM   32  O5  UNL     1      -5.919   8.143  16.015  1.00  0.00    -0.398 OA
HETATM   33  H48 UNL     1      -5.496   7.331  16.350  1.00  0.00     0.209 HD
ENDBRANCH  31  32
ENDBRANCH  27  31
BRANCH  28  34
HETATM   34  O6  UNL     1      -3.536   6.147  12.781  1.00  0.00    -0.390 OA
HETATM   35  H50 UNL     1      -2.791   5.557  13.013  1.00  0.00     0.210 HD
ENDBRANCH  28  34
BRANCH  29  36
HETATM   36  O7  UNL     1      -2.368   5.451  15.282  1.00  0.00    -0.390 OA
HETATM   37  H52 UNL     1      -2.960   4.859  15.789  1.00  0.00     0.210 HD
ENDBRANCH  29  36
BRANCH  30  38
HETATM   38  O8  UNL     1      -0.952   7.175  13.985  1.00  0.00    -0.388 OA
HETATM   39  H54 UNL     1      -0.796   6.327  14.447  1.00  0.00     0.210 HD
ENDBRANCH  30  38
ENDBRANCH  24  25
ENDBRANCH  20  24
BRANCH   1  40
HETATM   40  C8  UNL     1       5.897  12.527  21.513  1.00  0.00    -0.010 C 
HETATM   41  C9  UNL     1       5.775  12.199  23.009  1.00  0.00     0.010 C 
BRANCH  40  42
HETATM   42  C7  UNL     1       7.079  13.533  21.385  1.00  0.00     0.031 C 
BRANCH  42  43
HETATM   43  C6  UNL     1       7.106  14.670  22.364  1.00  0.00    -0.027 C 
HETATM   44  C5  UNL     1       8.187  15.006  23.089  1.00  0.00     0.006 C 
BRANCH  44  45
HETATM   45  C2  UNL     1       8.300  16.115  24.118  1.00  0.00     0.070 C 
HETATM   46  C3  UNL     1       6.974  16.772  24.539  1.00  0.00     0.050 C 
HETATM   47  C4  UNL     1       9.206  17.208  23.525  1.00  0.00     0.050 C 
BRANCH  45  48
HETATM   48  O1  UNL     1       9.019  15.607  25.257  1.00  0.00    -0.382 OA
HETATM   49  C1  UNL     1       9.002  16.424  26.420  1.00  0.00     0.202 C 
ENDBRANCH  45  48
ENDBRANCH  44  45
ENDBRANCH  42  43
ENDBRANCH  40  42
ENDBRANCH   1  40
TORSDOF 12
ENDMDL
MODEL 5
REMARK minimizedAffinity -7.36556101
REMARK CNNscore 0.324950725
REMARK CNNaffinity 6.45986557
REMARK  12 active torsions:
REMARK  status: ('A' for Active; 'I' for Inactive)
REMARK    1  A    between atoms: O1_2  and  C2_3 
REMARK    2  A    between atoms: C2_3  and  C5_6 
REMARK    3  A    between atoms: C6_7  and  C7_8 
REMARK    4  A    between atoms: C7_8  and  C8_9 
REMARK    5  A    between atoms: C8_9  and  C10_11 
REMARK    6  A    between atoms: C28_30  and  O3_31 
REMARK    7  A    between atoms: O3_31  and  C29_32 
REMARK    8  A    between atoms: C30_34  and  C31_35 
REMARK    9  A    between atoms: C31_35  and  O5_36 
REMARK   10  A    between atoms: C32_37  and  O6_38 
REMARK   11  A    between atoms: C33_39  and  O7_40 
REMARK   12  A    between atoms: C34_41  and  O8_42 
ROOT
HETATM    1  C10 UNL     1      -7.357  15.508  23.124  1.00  0.00    -0.002 C 
HETATM    2  C11 UNL     1      -6.046  15.804  23.933  1.00  0.00     0.006 C 
HETATM    3  C12 UNL     1      -4.841  15.451  23.033  1.00  0.00     0.011 C 
HETATM    4  C13 UNL     1      -5.458  15.299  21.633  1.00  0.00    -0.029 C 
HETATM    5  C14 UNL     1      -5.634  16.757  21.103  1.00  0.00     0.016 C 
HETATM    6  C15 UNL     1      -4.652  14.427  20.627  1.00  0.00     0.028 C 
HETATM    7  C16 UNL     1      -3.241  14.859  20.310  1.00  0.00    -0.021 C 
HETATM    8  C17 UNL     1      -2.720  14.674  19.084  1.00  0.00     0.008 C 
HETATM    9  C18 UNL     1      -3.533  14.084  17.930  1.00  0.00     0.092 C 
HETATM   10  O2  UNL     1      -4.301  15.219  17.479  1.00  0.00    -0.374 OA
HETATM   11  C19 UNL     1      -5.516  15.254  18.267  1.00  0.00     0.179 C 
HETATM   12  C20 UNL     1      -5.461  14.096  19.311  1.00  0.00    -0.004 C 
HETATM   13  C21 UNL     1      -6.879  13.583  19.631  1.00  0.00     0.014 C 
HETATM   14  C22 UNL     1      -7.638  14.398  20.704  1.00  0.00     0.011 C 
HETATM   15  C23 UNL     1      -6.815  14.560  22.002  1.00  0.00    -0.032 C 
HETATM   16  C24 UNL     1      -6.620  13.134  22.620  1.00  0.00     0.016 C 
HETATM   17  C25 UNL     1      -4.629  13.126  18.445  1.00  0.00     0.036 C 
HETATM   18  C26 UNL     1      -4.073  11.832  19.047  1.00  0.00     0.011 C 
HETATM   19  C27 UNL     1      -2.724  11.449  18.428  1.00  0.00     0.033 C 
HETATM   20  C28 UNL     1      -2.648  11.851  16.952  1.00  0.00     0.136 C 
HETATM   21  C35 UNL     1      -2.729  13.413  16.750  1.00  0.00     0.014 C 
HETATM   22  C36 UNL     1      -3.451  13.651  15.393  1.00  0.00     0.021 C 
HETATM   23  C37 UNL     1      -1.323  14.035  16.572  1.00  0.00     0.021 C 
ENDROOT
BRANCH  20  24
HETATM   24  O3  UNL     1      -1.443  11.351  16.365  1.00  0.00    -0.352 OA
BRANCH  24  25
HETATM   25  C29 UNL     1      -1.443   9.941  16.118  1.00  0.00     0.292 C 
HETATM   26  O4  UNL     1      -0.103   9.450  16.098  1.00  0.00    -0.348 OA
HETATM   27  C30 UNL     1      -0.027   8.016  16.023  1.00  0.00     0.179 C 
HETATM   28  C32 UNL     1      -1.078   7.415  15.065  1.00  0.00     0.180 C 
HETATM   29  C33 UNL     1      -1.512   8.471  14.040  1.00  0.00     0.183 C 
HETATM   30  C34 UNL     1      -2.103   9.710  14.738  1.00  0.00     0.204 C 
BRANCH  27  31
HETATM   31  C31 UNL     1       1.400   7.682  15.568  1.00  0.00     0.198 C 
BRANCH  31  32
HETATM   32  O5  UNL     1       2.139   7.014  16.582  1.00  0.00    -0.398 OA
HETATM   33  H48 UNL     1       2.289   7.653  17.303  1.00  0.00     0.209 HD
ENDBRANCH  31  32
ENDBRANCH  27  31
BRANCH  28  34
HETATM   34  O6  UNL     1      -2.218   6.998  15.835  1.00  0.00    -0.390 OA
HETATM   35  H50 UNL     1      -2.982   7.002  15.225  1.00  0.00     0.210 HD
ENDBRANCH  28  34
BRANCH  29  36
HETATM   36  O7  UNL     1      -2.510   7.922  13.159  1.00  0.00    -0.390 OA
HETATM   37  H52 UNL     1      -2.048   7.328  12.534  1.00  0.00     0.210 HD
ENDBRANCH  29  36
BRANCH  30  38
HETATM   38  O8  UNL     1      -3.530   9.556  14.878  1.00  0.00    -0.388 OA
HETATM   39  H54 UNL     1      -3.811   9.133  14.042  1.00  0.00     0.210 HD
ENDBRANCH  30  38
ENDBRANCH  24  25
ENDBRANCH  20  24
BRANCH   1  40
HETATM   40  C8  UNL     1      -8.541  15.060  24.038  1.00  0.00    -0.010 C 
HETATM   41  C9  UNL     1      -8.662  15.909  25.313  1.00  0.00     0.010 C 
BRANCH  40  42
HETATM   42  C7  UNL     1      -8.421  13.581  24.513  1.00  0.00     0.031 C 
BRANCH  42  43
HETATM   43  C6  UNL     1      -9.655  12.734  24.396  1.00  0.00    -0.027 C 
HETATM   44  C5  UNL     1      -9.854  11.836  23.417  1.00  0.00     0.006 C 
BRANCH  44  45
HETATM   45  C2  UNL     1     -11.074  10.959  23.202  1.00  0.00     0.070 C 
HETATM   46  C3  UNL     1     -11.800  11.145  21.858  1.00  0.00     0.050 C 
HETATM   47  C4  UNL     1     -12.073  11.270  24.330  1.00  0.00     0.050 C 
BRANCH  45  48
HETATM   48  O1  UNL     1     -10.690   9.588  23.406  1.00  0.00    -0.382 OA
HETATM   49  C1  UNL     1     -11.368   8.899  24.449  1.00  0.00     0.202 C 
ENDBRANCH  45  48
ENDBRANCH  44  45
ENDBRANCH  42  43
ENDBRANCH  40  42
ENDBRANCH   1  40
TORSDOF 12
ENDMDL
MODEL 6
REMARK minimizedAffinity -9.6634407
REMARK CNNscore 0.289178699
REMARK CNNaffinity 6.95832253
REMARK  12 active torsions:
REMARK  status: ('A' for Active; 'I' for Inactive)
REMARK    1  A    between atoms: O1_2  and  C2_3 
REMARK    2  A    between atoms: C2_3  and  C5_6 
REMARK    3  A    between atoms: C6_7  and  C7_8 
REMARK    4  A    between atoms: C7_8  and  C8_9 
REMARK    5  A    between atoms: C8_9  and  C10_11 
REMARK    6  A    between atoms: C28_30  and  O3_31 
REMARK    7  A    between atoms: O3_31  and  C29_32 
REMARK    8  A    between atoms: C30_34  and  C31_35 
REMARK    9  A    between atoms: C31_35  and  O5_36 
REMARK   10  A    between atoms: C32_37  and  O6_38 
REMARK   11  A    between atoms: C33_39  and  O7_40 
REMARK   12  A    between atoms: C34_41  and  O8_42 
ROOT
HETATM    1  C10 UNL     1      -2.881   7.111  13.333  1.00  0.00    -0.002 C 
HETATM    2  C11 UNL     1      -3.074   8.509  12.649  1.00  0.00     0.006 C 
HETATM    3  C12 UNL     1      -1.676   9.065  12.299  1.00  0.00     0.011 C 
HETATM    4  C13 UNL     1      -0.745   7.852  12.460  1.00  0.00    -0.029 C 
HETATM    5  C14 UNL     1      -0.923   7.023  11.149  1.00  0.00     0.016 C 
HETATM    6  C15 UNL     1       0.754   8.177  12.723  1.00  0.00     0.028 C 
HETATM    7  C16 UNL     1       1.478   9.000  11.686  1.00  0.00    -0.021 C 
HETATM    8  C17 UNL     1       2.779   8.791  11.422  1.00  0.00     0.008 C 
HETATM    9  C18 UNL     1       3.583   7.677  12.098  1.00  0.00     0.092 C 
HETATM   10  O2  UNL     1       3.198   6.512  11.339  1.00  0.00    -0.374 OA
HETATM   11  C19 UNL     1       2.003   5.975  11.957  1.00  0.00     0.179 C 
HETATM   12  C20 UNL     1       1.596   6.907  13.139  1.00  0.00    -0.004 C 
HETATM   13  C21 UNL     1       0.896   6.102  14.252  1.00  0.00     0.014 C 
HETATM   14  C22 UNL     1      -0.616   5.867  14.030  1.00  0.00     0.011 C 
HETATM   15  C23 UNL     1      -1.376   7.184  13.755  1.00  0.00    -0.032 C 
HETATM   16  C24 UNL     1      -1.274   8.067  15.045  1.00  0.00     0.016 C 
HETATM   17  C25 UNL     1       3.028   7.355  13.502  1.00  0.00     0.036 C 
HETATM   18  C26 UNL     1       3.254   8.479  14.518  1.00  0.00     0.011 C 
HETATM   19  C27 UNL     1       4.497   9.311  14.182  1.00  0.00     0.033 C 
HETATM   20  C28 UNL     1       5.592   8.452  13.543  1.00  0.00     0.136 C 
HETATM   21  C35 UNL     1       5.149   7.850  12.154  1.00  0.00     0.014 C 
HETATM   22  C36 UNL     1       5.857   6.471  12.021  1.00  0.00     0.021 C 
HETATM   23  C37 UNL     1       5.688   8.694  10.973  1.00  0.00     0.021 C 
ENDROOT
BRANCH  20  24
HETATM   24  O3  UNL     1       6.788   9.220  13.376  1.00  0.00    -0.352 OA
BRANCH  24  25
HETATM   25  C29 UNL     1       7.489   9.499  14.593  1.00  0.00     0.292 C 
HETATM   26  O4  UNL     1       8.694  10.208  14.309  1.00  0.00    -0.348 OA
HETATM   27  C30 UNL     1       9.371  10.671  15.490  1.00  0.00     0.179 C 
HETATM   28  C32 UNL     1       9.341   9.636  16.635  1.00  0.00     0.180 C 
HETATM   29  C33 UNL     1       9.136   8.229  16.060  1.00  0.00     0.183 C 
HETATM   30  C34 UNL     1       7.825   8.144  15.258  1.00  0.00     0.204 C 
BRANCH  27  31
HETATM   31  C31 UNL     1      10.810  10.995  15.067  1.00  0.00     0.198 C 
BRANCH  31  32
HETATM   32  O5  UNL     1      11.735  10.790  16.125  1.00  0.00    -0.398 OA
HETATM   33  H48 UNL     1      11.555  11.465  16.806  1.00  0.00     0.209 HD
ENDBRANCH  31  32
ENDBRANCH  27  31
BRANCH  28  34
HETATM   34  O6  UNL     1       8.252   9.956  17.518  1.00  0.00    -0.390 OA
HETATM   35  H50 UNL     1       8.006   9.124  17.969  1.00  0.00     0.210 HD
ENDBRANCH  28  34
BRANCH  29  36
HETATM   36  O7  UNL     1       9.084   7.262  17.127  1.00  0.00    -0.390 OA
HETATM   37  H52 UNL     1      10.001   7.133  17.444  1.00  0.00     0.210 HD
ENDBRANCH  29  36
BRANCH  30  38
HETATM   38  O8  UNL     1       6.751   7.723  16.123  1.00  0.00    -0.388 OA
HETATM   39  H54 UNL     1       7.157   7.049  16.704  1.00  0.00     0.210 HD
ENDBRANCH  30  38
ENDBRANCH  24  25
ENDBRANCH  20  24
BRANCH   1  40
HETATM   40  C8  UNL     1      -3.989   6.799  14.388  1.00  0.00    -0.010 C 
HETATM   41  C9  UNL     1      -3.415   6.304  15.724  1.00  0.00     0.010 C 
BRANCH  40  42
HETATM   42  C7  UNL     1      -4.992   5.705  13.916  1.00  0.00     0.031 C 
BRANCH  42  43
HETATM   43  C6  UNL     1      -4.630   4.952  12.669  1.00  0.00    -0.027 C 
HETATM   44  C5  UNL     1      -4.515   3.614  12.611  1.00  0.00     0.006 C 
BRANCH  44  45
HETATM   45  C2  UNL     1      -4.128   2.772  11.409  1.00  0.00     0.070 C 
HETATM   46  C3  UNL     1      -3.790   3.553  10.128  1.00  0.00     0.050 C 
HETATM   47  C4  UNL     1      -5.311   1.838  11.098  1.00  0.00     0.050 C 
BRANCH  45  48
HETATM   48  O1  UNL     1      -3.050   1.899  11.792  1.00  0.00    -0.382 OA
HETATM   49  C1  UNL     1      -1.802   2.133  11.154  1.00  0.00     0.202 C 
ENDBRANCH  45  48
ENDBRANCH  44  45
ENDBRANCH  42  43
ENDBRANCH  40  42
ENDBRANCH   1  40
TORSDOF 12
ENDMDL
MODEL 7
REMARK minimizedAffinity -8.53635693
REMARK CNNscore 0.284675986
REMARK CNNaffinity 6.54312515
REMARK  12 active torsions:
REMARK  status: ('A' for Active; 'I' for Inactive)
REMARK    1  A    between atoms: O1_2  and  C2_3 
REMARK    2  A    between atoms: C2_3  and  C5_6 
REMARK    3  A    between atoms: C6_7  and  C7_8 
REMARK    4  A    between atoms: C7_8  and  C8_9 
REMARK    5  A    between atoms: C8_9  and  C10_11 
REMARK    6  A    between atoms: C28_30  and  O3_31 
REMARK    7  A    between atoms: O3_31  and  C29_32 
REMARK    8  A    between atoms: C30_34  and  C31_35 
REMARK    9  A    between atoms: C31_35  and  O5_36 
REMARK   10  A    between atoms: C32_37  and  O6_38 
REMARK   11  A    between atoms: C33_39  and  O7_40 
REMARK   12  A    between atoms: C34_41  and  O8_42 
ROOT
HETATM    1  C10 UNL     1      -2.705   7.306  13.247  1.00  0.00    -0.002 C 
HETATM    2  C11 UNL     1      -2.854   8.648  12.451  1.00  0.00     0.006 C 
HETATM    3  C12 UNL     1      -1.440   9.117  12.039  1.00  0.00     0.011 C 
HETATM    4  C13 UNL     1      -0.555   7.886  12.292  1.00  0.00    -0.029 C 
HETATM    5  C14 UNL     1      -0.783   6.958  11.057  1.00  0.00     0.016 C 
HETATM    6  C15 UNL     1       0.959   8.172  12.510  1.00  0.00     0.028 C 
HETATM    7  C16 UNL     1       1.699   8.876  11.400  1.00  0.00    -0.021 C 
HETATM    8  C17 UNL     1       2.988   8.594  11.140  1.00  0.00     0.008 C 
HETATM    9  C18 UNL     1       3.757   7.510  11.898  1.00  0.00     0.092 C 
HETATM   10  O2  UNL     1       3.317   6.302  11.244  1.00  0.00    -0.374 OA
HETATM   11  C19 UNL     1       2.112   5.865  11.918  1.00  0.00     0.179 C 
HETATM   12  C20 UNL     1       1.758   6.909  13.022  1.00  0.00    -0.004 C 
HETATM   13  C21 UNL     1       1.043   6.228  14.207  1.00  0.00     0.014 C 
HETATM   14  C22 UNL     1      -0.480   6.036  14.022  1.00  0.00     0.011 C 
HETATM   15  C23 UNL     1      -1.192   7.354  13.646  1.00  0.00    -0.032 C 
HETATM   16  C24 UNL     1      -1.038   8.337  14.856  1.00  0.00     0.016 C 
HETATM   17  C25 UNL     1       3.211   7.329  13.331  1.00  0.00     0.036 C 
HETATM   18  C26 UNL     1       3.495   8.524  14.246  1.00  0.00     0.011 C 
HETATM   19  C27 UNL     1       4.763   9.275  13.827  1.00  0.00     0.033 C 
HETATM   20  C28 UNL     1       5.816   8.323  13.250  1.00  0.00     0.136 C 
HETATM   21  C35 UNL     1       5.330   7.625  11.922  1.00  0.00     0.014 C 
HETATM   22  C36 UNL     1       5.982   6.212  11.897  1.00  0.00     0.021 C 
HETATM   23  C37 UNL     1       5.884   8.345  10.669  1.00  0.00     0.021 C 
ENDROOT
BRANCH  20  24
HETATM   24  O3  UNL     1       7.038   9.026  13.006  1.00  0.00    -0.352 OA
BRANCH  24  25
HETATM   25  C29 UNL     1       7.771   9.370  14.187  1.00  0.00     0.292 C 
HETATM   26  O4  UNL     1       9.059   9.872  13.832  1.00  0.00    -0.348 OA
HETATM   27  C30 UNL     1       9.792  10.395  14.953  1.00  0.00     0.179 C 
HETATM   28  C32 UNL     1       9.629   9.533  16.222  1.00  0.00     0.180 C 
HETATM   29  C33 UNL     1       9.241   8.100  15.834  1.00  0.00     0.183 C 
HETATM   30  C34 UNL     1       7.928   8.081  15.028  1.00  0.00     0.204 C 
BRANCH  27  31
HETATM   31  C31 UNL     1      11.260  10.471  14.513  1.00  0.00     0.198 C 
BRANCH  31  32
HETATM   32  O5  UNL     1      11.590   9.448  13.584  1.00  0.00    -0.398 OA
HETATM   33  H48 UNL     1      11.554   8.598  14.060  1.00  0.00     0.209 HD
ENDBRANCH  31  32
ENDBRANCH  27  31
BRANCH  28  34
HETATM   34  O6  UNL     1       8.592  10.104  17.039  1.00  0.00    -0.390 OA
HETATM   35  H50 UNL     1       8.240   9.378  17.591  1.00  0.00     0.210 HD
ENDBRANCH  28  34
BRANCH  29  36
HETATM   36  O7  UNL     1       9.064   7.297  17.016  1.00  0.00    -0.390 OA
HETATM   37  H52 UNL     1       9.957   7.093  17.362  1.00  0.00     0.210 HD
ENDBRANCH  29  36
BRANCH  30  38
HETATM   38  O8  UNL     1       6.810   7.921  15.925  1.00  0.00    -0.388 OA
HETATM   39  H54 UNL     1       7.125   7.282  16.595  1.00  0.00     0.210 HD
ENDBRANCH  30  38
ENDBRANCH  24  25
ENDBRANCH  20  24
BRANCH   1  40
HETATM   40  C8  UNL     1      -3.808   7.127  14.337  1.00  0.00    -0.010 C 
HETATM   41  C9  UNL     1      -4.690   5.892  14.096  1.00  0.00     0.010 C 
BRANCH  40  42
HETATM   42  C7  UNL     1      -4.780   8.341  14.428  1.00  0.00     0.031 C 
BRANCH  42  43
HETATM   43  C6  UNL     1      -4.250   9.580  15.088  1.00  0.00    -0.027 C 
HETATM   44  C5  UNL     1      -3.996   9.676  16.405  1.00  0.00     0.006 C 
BRANCH  44  45
HETATM   45  C2  UNL     1      -3.489  10.889  17.162  1.00  0.00     0.070 C 
HETATM   46  C3  UNL     1      -3.554  10.793  18.696  1.00  0.00     0.050 C 
HETATM   47  C4  UNL     1      -4.335  12.097  16.724  1.00  0.00     0.050 C 
BRANCH  45  48
HETATM   48  O1  UNL     1      -2.154  11.181  16.711  1.00  0.00    -0.382 OA
HETATM   49  C1  UNL     1      -1.099  10.749  17.561  1.00  0.00     0.202 C 
ENDBRANCH  45  48
ENDBRANCH  44  45
ENDBRANCH  42  43
ENDBRANCH  40  42
ENDBRANCH   1  40
TORSDOF 12
ENDMDL
MODEL 8
REMARK minimizedAffinity -7.18873167
REMARK CNNscore 0.259223133
REMARK CNNaffinity 6.03304529
REMARK  12 active torsions:
REMARK  status: ('A' for Active; 'I' for Inactive)
REMARK    1  A    between atoms: O1_2  and  C2_3 
REMARK    2  A    between atoms: C2_3  and  C5_6 
REMARK    3  A    between atoms: C6_7  and  C7_8 
REMARK    4  A    between atoms: C7_8  and  C8_9 
REMARK    5  A    between atoms: C8_9  and  C10_11 
REMARK    6  A    between atoms: C28_30  and  O3_31 
REMARK    7  A    between atoms: O3_31  and  C29_32 
REMARK    8  A    between atoms: C30_34  and  C31_35 
REMARK    9  A    between atoms: C31_35  and  O5_36 
REMARK   10  A    between atoms: C32_37  and  O6_38 
REMARK   11  A    between atoms: C33_39  and  O7_40 
REMARK   12  A    between atoms: C34_41  and  O8_42 
ROOT
HETATM    1  C10 UNL     1     -15.746   8.628  13.608  1.00  0.00    -0.002 C 
HETATM    2  C11 UNL     1     -16.036   8.398  12.083  1.00  0.00     0.006 C 
HETATM    3  C12 UNL     1     -16.490   6.933  11.901  1.00  0.00     0.011 C 
HETATM    4  C13 UNL     1     -16.787   6.457  13.332  1.00  0.00    -0.029 C 
HETATM    5  C14 UNL     1     -18.203   7.024  13.666  1.00  0.00     0.016 C 
HETATM    6  C15 UNL     1     -16.726   4.919  13.563  1.00  0.00     0.028 C 
HETATM    7  C16 UNL     1     -17.653   4.058  12.740  1.00  0.00    -0.021 C 
HETATM    8  C17 UNL     1     -18.187   2.934  13.249  1.00  0.00     0.008 C 
HETATM    9  C18 UNL     1     -17.947   2.496  14.696  1.00  0.00     0.092 C 
HETATM   10  O2  UNL     1     -18.877   3.321  15.429  1.00  0.00    -0.374 OA
HETATM   11  C19 UNL     1     -18.200   4.565  15.731  1.00  0.00     0.179 C 
HETATM   12  C20 UNL     1     -16.778   4.522  15.090  1.00  0.00    -0.004 C 
HETATM   13  C21 UNL     1     -15.779   5.349  15.925  1.00  0.00     0.014 C 
HETATM   14  C22 UNL     1     -15.776   6.865  15.620  1.00  0.00     0.011 C 
HETATM   15  C23 UNL     1     -15.594   7.155  14.114  1.00  0.00    -0.032 C 
HETATM   16  C24 UNL     1     -14.172   6.643  13.702  1.00  0.00     0.016 C 
HETATM   17  C25 UNL     1     -16.581   2.996  15.217  1.00  0.00     0.036 C 
HETATM   18  C26 UNL     1     -15.386   2.311  14.545  1.00  0.00     0.011 C 
HETATM   19  C27 UNL     1     -15.734   0.897  14.068  1.00  0.00     0.033 C 
HETATM   20  C28 UNL     1     -16.742   0.220  15.002  1.00  0.00     0.136 C 
HETATM   21  C35 UNL     1     -18.132   0.966  15.028  1.00  0.00     0.014 C 
HETATM   22  C36 UNL     1     -18.710   0.782  16.460  1.00  0.00     0.021 C 
HETATM   23  C37 UNL     1     -19.157   0.284  14.090  1.00  0.00     0.021 C 
ENDROOT
BRANCH  20  24
HETATM   24  O3  UNL     1     -16.934  -1.144  14.617  1.00  0.00    -0.352 OA
BRANCH  24  25
HETATM   25  C29 UNL     1     -15.761  -1.960  14.713  1.00  0.00     0.292 C 
HETATM   26  O4  UNL     1     -15.424  -2.483  13.429  1.00  0.00    -0.348 OA
HETATM   27  C30 UNL     1     -14.164  -3.174  13.412  1.00  0.00     0.179 C 
HETATM   28  C32 UNL     1     -13.943  -4.036  14.673  1.00  0.00     0.180 C 
HETATM   29  C33 UNL     1     -15.295  -4.392  15.305  1.00  0.00     0.183 C 
HETATM   30  C34 UNL     1     -16.080  -3.122  15.682  1.00  0.00     0.204 C 
BRANCH  27  31
HETATM   31  C31 UNL     1     -14.158  -4.032  12.140  1.00  0.00     0.198 C 
BRANCH  31  32
HETATM   32  O5  UNL     1     -14.477  -5.390  12.412  1.00  0.00    -0.398 OA
HETATM   33  H48 UNL     1     -13.740  -5.766  12.927  1.00  0.00     0.209 HD
ENDBRANCH  31  32
ENDBRANCH  27  31
BRANCH  28  34
HETATM   34  O6  UNL     1     -13.157  -3.284  15.614  1.00  0.00    -0.390 OA
HETATM   35  H50 UNL     1     -13.359  -3.648  16.499  1.00  0.00     0.210 HD
ENDBRANCH  28  34
BRANCH  29  36
HETATM   36  O7  UNL     1     -15.093  -5.177  16.495  1.00  0.00    -0.390 OA
HETATM   37  H52 UNL     1     -14.851  -6.080  16.208  1.00  0.00     0.210 HD
ENDBRANCH  29  36
BRANCH  30  38
HETATM   38  O8  UNL     1     -15.776  -2.748  17.041  1.00  0.00    -0.388 OA
HETATM   39  H54 UNL     1     -15.722  -3.598  17.521  1.00  0.00     0.210 HD
ENDBRANCH  30  38
ENDBRANCH  24  25
ENDBRANCH  20  24
BRANCH   1  40
HETATM   40  C8  UNL     1     -14.614   9.675  13.854  1.00  0.00    -0.010 C 
HETATM   41  C9  UNL     1     -13.620   9.762  12.686  1.00  0.00     0.010 C 
BRANCH  40  42
HETATM   42  C7  UNL     1     -13.764   9.369  15.123  1.00  0.00     0.031 C 
BRANCH  42  43
HETATM   43  C6  UNL     1     -12.273   9.402  14.959  1.00  0.00    -0.027 C 
HETATM   44  C5  UNL     1     -11.431   8.577  15.607  1.00  0.00     0.006 C 
BRANCH  44  45
HETATM   45  C2  UNL     1      -9.916   8.554  15.527  1.00  0.00     0.070 C 
HETATM   46  C3  UNL     1      -9.244   9.904  15.224  1.00  0.00     0.050 C 
HETATM   47  C4  UNL     1      -9.525   7.568  14.412  1.00  0.00     0.050 C 
BRANCH  45  48
HETATM   48  O1  UNL     1      -9.405   7.973  16.740  1.00  0.00    -0.382 OA
HETATM   49  C1  UNL     1      -8.214   7.209  16.612  1.00  0.00     0.202 C 
ENDBRANCH  45  48
ENDBRANCH  44  45
ENDBRANCH  42  43
ENDBRANCH  40  42
ENDBRANCH   1  40
TORSDOF 12
ENDMDL
MODEL 9
REMARK minimizedAffinity -9.59156799
REMARK CNNscore 0.210112482
REMARK CNNaffinity 7.20724916
REMARK  12 active torsions:
REMARK  status: ('A' for Active; 'I' for Inactive)
REMARK    1  A    between atoms: O1_2  and  C2_3 
REMARK    2  A    between atoms: C2_3  and  C5_6 
REMARK    3  A    between atoms: C6_7  and  C7_8 
REMARK    4  A    between atoms: C7_8  and  C8_9 
REMARK    5  A    between atoms: C8_9  and  C10_11 
REMARK    6  A    between atoms: C28_30  and  O3_31 
REMARK    7  A    between atoms: O3_31  and  C29_32 
REMARK    8  A    between atoms: C30_34  and  C31_35 
REMARK    9  A    between atoms: C31_35  and  O5_36 
REMARK   10  A    between atoms: C32_37  and  O6_38 
REMARK   11  A    between atoms: C33_39  and  O7_40 
REMARK   12  A    between atoms: C34_41  and  O8_42 
ROOT
HETATM    1  C10 UNL     1      -6.833   6.662  14.098  1.00  0.00    -0.002 C 
HETATM    2  C11 UNL     1      -6.719   5.890  15.459  1.00  0.00     0.006 C 
HETATM    3  C12 UNL     1      -5.363   6.258  16.102  1.00  0.00     0.011 C 
HETATM    4  C13 UNL     1      -4.889   7.476  15.294  1.00  0.00    -0.029 C 
HETATM    5  C14 UNL     1      -5.680   8.689  15.880  1.00  0.00     0.016 C 
HETATM    6  C15 UNL     1      -3.356   7.744  15.305  1.00  0.00     0.028 C 
HETATM    7  C16 UNL     1      -2.703   7.975  16.646  1.00  0.00    -0.021 C 
HETATM    8  C17 UNL     1      -1.669   8.825  16.774  1.00  0.00     0.008 C 
HETATM    9  C18 UNL     1      -1.139   9.652  15.601  1.00  0.00     0.092 C 
HETATM   10  O2  UNL     1      -2.082  10.742  15.537  1.00  0.00    -0.374 OA
HETATM   11  C19 UNL     1      -3.176  10.311  14.691  1.00  0.00     0.179 C 
HETATM   12  C20 UNL     1      -2.913   8.837  14.255  1.00  0.00    -0.004 C 
HETATM   13  C21 UNL     1      -3.519   8.564  12.863  1.00  0.00     0.014 C 
HETATM   14  C22 UNL     1      -5.022   8.202  12.869  1.00  0.00     0.011 C 
HETATM   15  C23 UNL     1      -5.337   7.038  13.834  1.00  0.00    -0.032 C 
HETATM   16  C24 UNL     1      -4.602   5.764  13.295  1.00  0.00     0.016 C 
HETATM   17  C25 UNL     1      -1.372   8.933  14.254  1.00  0.00     0.036 C 
HETATM   18  C26 UNL     1      -0.517   7.673  14.081  1.00  0.00     0.011 C 
HETATM   19  C27 UNL     1       0.795   7.761  14.868  1.00  0.00     0.033 C 
HETATM   20  C28 UNL     1       1.323   9.198  14.922  1.00  0.00     0.136 C 
HETATM   21  C35 UNL     1       0.348  10.168  15.695  1.00  0.00     0.014 C 
HETATM   22  C36 UNL     1       0.486  11.565  15.025  1.00  0.00     0.021 C 
HETATM   23  C37 UNL     1       0.803  10.377  17.160  1.00  0.00     0.021 C 
ENDROOT
BRANCH  20  24
HETATM   24  O3  UNL     1       2.616   9.227  15.533  1.00  0.00    -0.352 OA
BRANCH  24  25
HETATM   25  C29 UNL     1       3.657   8.635  14.747  1.00  0.00     0.292 C 
HETATM   26  O4  UNL     1       4.875   8.613  15.490  1.00  0.00    -0.348 OA
HETATM   27  C30 UNL     1       5.926   7.883  14.833  1.00  0.00     0.179 C 
HETATM   28  C32 UNL     1       5.960   8.134  13.311  1.00  0.00     0.180 C 
HETATM   29  C33 UNL     1       5.294   9.477  12.988  1.00  0.00     0.183 C 
HETATM   30  C34 UNL     1       3.835   9.503  13.479  1.00  0.00     0.204 C 
BRANCH  27  31
HETATM   31  C31 UNL     1       7.238   8.317  15.501  1.00  0.00     0.198 C 
BRANCH  31  32
HETATM   32  O5  UNL     1       7.258   8.002  16.886  1.00  0.00    -0.398 OA
HETATM   33  H48 UNL     1       6.598   8.570  17.325  1.00  0.00     0.209 HD
ENDBRANCH  31  32
ENDBRANCH  27  31
BRANCH  28  34
HETATM   34  O6  UNL     1       5.245   7.074  12.652  1.00  0.00    -0.390 OA
HETATM   35  H50 UNL     1       4.942   7.434  11.795  1.00  0.00     0.210 HD
ENDBRANCH  28  34
BRANCH  29  36
HETATM   36  O7  UNL     1       5.303   9.705  11.566  1.00  0.00    -0.390 OA
HETATM   37  H52 UNL     1       6.215   9.959  11.320  1.00  0.00     0.210 HD
ENDBRANCH  29  36
BRANCH  30  38
HETATM   38  O8  UNL     1       2.959   9.050  12.427  1.00  0.00    -0.388 OA
HETATM   39  H54 UNL     1       3.336   9.438  11.613  1.00  0.00     0.210 HD
ENDBRANCH  30  38
ENDBRANCH  24  25
ENDBRANCH  20  24
BRANCH   1  40
HETATM   40  C8  UNL     1      -7.656   5.877  13.028  1.00  0.00    -0.010 C 
HETATM   41  C9  UNL     1      -9.083   6.420  12.858  1.00  0.00     0.010 C 
BRANCH  40  42
HETATM   42  C7  UNL     1      -7.805   4.363  13.362  1.00  0.00     0.031 C 
BRANCH  42  43
HETATM   43  C6  UNL     1      -7.059   3.403  12.482  1.00  0.00    -0.027 C 
HETATM   44  C5  UNL     1      -5.732   3.455  12.276  1.00  0.00     0.006 C 
BRANCH  44  45
HETATM   45  C2  UNL     1      -4.899   2.550  11.388  1.00  0.00     0.070 C 
HETATM   46  C3  UNL     1      -4.561   3.110   9.995  1.00  0.00     0.050 C 
HETATM   47  C4  UNL     1      -5.682   1.239  11.196  1.00  0.00     0.050 C 
BRANCH  45  48
HETATM   48  O1  UNL     1      -3.710   2.176  12.106  1.00  0.00    -0.382 OA
HETATM   49  C1  UNL     1      -2.591   1.805  11.311  1.00  0.00     0.202 C 
ENDBRANCH  45  48
ENDBRANCH  44  45
ENDBRANCH  42  43
ENDBRANCH  40  42
ENDBRANCH   1  40
TORSDOF 12
ENDMDL
