MODEL 1
REMARK minimizedAffinity -7.58111715
REMARK CNNscore 0.324584812
REMARK CNNaffinity 6.72484922
REMARK  12 active torsions:
REMARK  status: ('A' for Active; 'I' for Inactive)
REMARK    1  A    between atoms: O1_2  and  C2_3 
REMARK    2  A    between atoms: C2_3  and  C5_6 
REMARK    3  A    between atoms: C6_7  and  C7_8 
REMARK    4  A    between atoms: C7_8  and  C8_9 
REMARK    5  A    between atoms: C8_9  and  C10_11 
REMARK    6  A    between atoms: C28_31  and  O4_32 
REMARK    7  A    between atoms: O4_32  and  C29_33 
REMARK    8  A    between atoms: C30_35  and  C31_36 
REMARK    9  A    between atoms: C31_36  and  O6_37 
REMARK   10  A    between atoms: C32_38  and  O7_39 
REMARK   11  A    between atoms: C33_40  and  O8_41 
REMARK   12  A    between atoms: C34_42  and  O9_43 
ROOT
HETATM    1  C10 UNL     1       0.492   6.495  13.380  1.00  0.00    -0.002 C 
HETATM    2  C11 UNL     1       1.993   6.919  13.342  1.00  0.00     0.006 C 
HETATM    3  C12 UNL     1       2.109   8.305  14.016  1.00  0.00     0.011 C 
HETATM    4  C13 UNL     1       0.723   8.552  14.640  1.00  0.00    -0.028 C 
HETATM    5  C14 UNL     1       0.735   7.808  16.014  1.00  0.00     0.016 C 
HETATM    6  C15 UNL     1       0.341  10.050  14.839  1.00  0.00     0.035 C 
HETATM    7  C16 UNL     1       1.262  10.775  15.799  1.00  0.00    -0.021 C 
HETATM    8  C17 UNL     1       0.778  11.503  16.815  1.00  0.00     0.009 C 
HETATM    9  C18 UNL     1      -0.720  11.590  17.108  1.00  0.00     0.102 C 
HETATM   10  O2  UNL     1      -1.249  12.464  16.095  1.00  0.00    -0.304 OA
HETATM   11  C19 UNL     1      -1.473  11.734  14.951  1.00  0.00     0.270 C 
HETATM   12  O3  UNL     1      -1.823  12.230  13.892  1.00  0.00    -0.264 OA
HETATM   13  C20 UNL     1      -1.178  10.249  15.212  1.00  0.00     0.062 C 
HETATM   14  C21 UNL     1      -2.132   9.351  14.377  1.00  0.00     0.022 C 
HETATM   15  C22 UNL     1      -1.654   7.913  14.091  1.00  0.00     0.011 C 
HETATM   16  C23 UNL     1      -0.211   7.886  13.560  1.00  0.00    -0.032 C 
HETATM   17  C24 UNL     1      -0.207   8.622  12.178  1.00  0.00     0.016 C 
HETATM   18  C25 UNL     1      -1.408  10.255  16.748  1.00  0.00     0.045 C 
HETATM   19  C26 UNL     1      -2.896  10.208  17.144  1.00  0.00     0.012 C 
HETATM   20  C27 UNL     1      -3.130  10.631  18.584  1.00  0.00     0.033 C 
HETATM   21  C28 UNL     1      -2.572  12.028  18.865  1.00  0.00     0.136 C 
HETATM   22  C35 UNL     1      -1.040  12.106  18.558  1.00  0.00     0.015 C 
HETATM   23  C36 UNL     1      -0.286  11.263  19.619  1.00  0.00     0.021 C 
HETATM   24  C37 UNL     1      -0.593  13.581  18.737  1.00  0.00     0.021 C 
ENDROOT
BRANCH  21  25
HETATM   25  O4  UNL     1      -3.244  13.016  18.081  1.00  0.00    -0.352 OA
BRANCH  25  26
HETATM   26  C29 UNL     1      -4.203  13.806  18.785  1.00  0.00     0.292 C 
HETATM   27  O5  UNL     1      -4.416  13.292  20.096  1.00  0.00    -0.348 OA
HETATM   28  C30 UNL     1      -5.245  14.167  20.898  1.00  0.00     0.179 C 
HETATM   29  C32 UNL     1      -6.320  14.919  20.088  1.00  0.00     0.180 C 
HETATM   30  C33 UNL     1      -6.731  14.118  18.848  1.00  0.00     0.183 C 
HETATM   31  C34 UNL     1      -5.520  13.702  17.990  1.00  0.00     0.204 C 
BRANCH  28  32
HETATM   32  C31 UNL     1      -5.882  13.278  21.972  1.00  0.00     0.198 C 
BRANCH  32  33
HETATM   33  O6  UNL     1      -7.098  13.869  22.424  1.00  0.00    -0.398 OA
HETATM   34  H46 UNL     1      -6.911  14.823  22.516  1.00  0.00     0.209 HD
ENDBRANCH  32  33
ENDBRANCH  28  32
BRANCH  29  35
HETATM   35  O7  UNL     1      -5.789  16.184  19.653  1.00  0.00    -0.390 OA
HETATM   36  H48 UNL     1      -6.459  16.531  19.021  1.00  0.00     0.210 HD
ENDBRANCH  29  35
BRANCH  30  37
HETATM   37  O8  UNL     1      -7.647  14.904  18.066  1.00  0.00    -0.390 OA
HETATM   38  H50 UNL     1      -7.197  15.039  17.203  1.00  0.00     0.210 HD
ENDBRANCH  30  37
BRANCH  31  39
HETATM   39  O9  UNL     1      -5.474  14.497  16.784  1.00  0.00    -0.388 OA
HETATM   40  H52 UNL     1      -4.681  14.181  16.301  1.00  0.00     0.210 HD
ENDBRANCH  31  39
ENDBRANCH  25  26
ENDBRANCH  21  25
BRANCH   1  41
HETATM   41  C8  UNL     1       0.039   5.576  12.203  1.00  0.00    -0.010 C 
HETATM   42  C9  UNL     1      -0.407   4.194  12.709  1.00  0.00     0.010 C 
BRANCH  41  43
HETATM   43  C7  UNL     1       1.072   5.390  11.061  1.00  0.00     0.031 C 
BRANCH  43  44
HETATM   44  C6  UNL     1       1.001   6.372   9.926  1.00  0.00    -0.027 C 
HETATM   45  C5  UNL     1       2.028   6.636   9.098  1.00  0.00     0.006 C 
BRANCH  45  46
HETATM   46  C2  UNL     1       1.970   7.540   7.878  1.00  0.00     0.070 C 
HETATM   47  C3  UNL     1       3.088   8.591   7.911  1.00  0.00     0.050 C 
HETATM   48  C4  UNL     1       0.616   8.264   7.872  1.00  0.00     0.050 C 
BRANCH  46  49
HETATM   49  O1  UNL     1       2.004   6.769   6.662  1.00  0.00    -0.382 OA
HETATM   50  C1  UNL     1       2.715   5.539   6.718  1.00  0.00     0.202 C 
ENDBRANCH  46  49
ENDBRANCH  45  46
ENDBRANCH  43  44
ENDBRANCH  41  43
ENDBRANCH   1  41
TORSDOF 12
ENDMDL
MODEL 2
REMARK minimizedAffinity -10.0796843
REMARK CNNscore 0.318890303
REMARK CNNaffinity 7.07141638
REMARK  12 active torsions:
REMARK  status: ('A' for Active; 'I' for Inactive)
REMARK    1  A    between atoms: O1_2  and  C2_3 
REMARK    2  A    between atoms: C2_3  and  C5_6 
REMARK    3  A    between atoms: C6_7  and  C7_8 
REMARK    4  A    between atoms: C7_8  and  C8_9 
REMARK    5  A    between atoms: C8_9  and  C10_11 
REMARK    6  A    between atoms: C28_31  and  O4_32 
REMARK    7  A    between atoms: O4_32  and  C29_33 
REMARK    8  A    between atoms: C30_35  and  C31_36 
REMARK    9  A    between atoms: C31_36  and  O6_37 
REMARK   10  A    between atoms: C32_38  and  O7_39 
REMARK   11  A    between atoms: C33_40  and  O8_41 
REMARK   12  A    between atoms: C34_42  and  O9_43 
ROOT
HETATM    1  C10 UNL     1      -0.496  11.856  18.672  1.00  0.00    -0.002 C 
HETATM    2  C11 UNL     1      -1.639  12.914  18.771  1.00  0.00     0.006 C 
HETATM    3  C12 UNL     1      -2.746  12.506  17.772  1.00  0.00     0.011 C 
HETATM    4  C13 UNL     1      -2.339  11.103  17.289  1.00  0.00    -0.028 C 
HETATM    5  C14 UNL     1      -2.859  10.109  18.376  1.00  0.00     0.016 C 
HETATM    6  C15 UNL     1      -2.879  10.701  15.884  1.00  0.00     0.035 C 
HETATM    7  C16 UNL     1      -4.392  10.635  15.827  1.00  0.00    -0.021 C 
HETATM    8  C17 UNL     1      -5.026   9.565  15.326  1.00  0.00     0.009 C 
HETATM    9  C18 UNL     1      -4.270   8.326  14.848  1.00  0.00     0.102 C 
HETATM   10  O2  UNL     1      -3.692   8.703  13.585  1.00  0.00    -0.304 OA
HETATM   11  C19 UNL     1      -2.518   9.380  13.818  1.00  0.00     0.270 C 
HETATM   12  O3  UNL     1      -1.860   9.912  12.939  1.00  0.00    -0.264 OA
HETATM   13  C20 UNL     1      -2.209   9.388  15.324  1.00  0.00     0.062 C 
HETATM   14  C21 UNL     1      -0.674   9.339  15.563  1.00  0.00     0.022 C 
HETATM   15  C22 UNL     1      -0.169   9.871  16.919  1.00  0.00     0.011 C 
HETATM   16  C23 UNL     1      -0.770  11.247  17.252  1.00  0.00    -0.032 C 
HETATM   17  C24 UNL     1      -0.250  12.258  16.175  1.00  0.00     0.016 C 
HETATM   18  C25 UNL     1      -3.006   8.112  15.709  1.00  0.00     0.045 C 
HETATM   19  C26 UNL     1      -2.260   6.804  15.387  1.00  0.00     0.012 C 
HETATM   20  C27 UNL     1      -3.181   5.596  15.369  1.00  0.00     0.033 C 
HETATM   21  C28 UNL     1      -4.340   5.778  14.385  1.00  0.00     0.136 C 
HETATM   22  C35 UNL     1      -5.183   7.053  14.721  1.00  0.00     0.015 C 
HETATM   23  C36 UNL     1      -5.951   6.795  16.045  1.00  0.00     0.021 C 
HETATM   24  C37 UNL     1      -6.241   7.233  13.602  1.00  0.00     0.021 C 
ENDROOT
BRANCH  21  25
HETATM   25  O4  UNL     1      -3.861   5.891  13.044  1.00  0.00    -0.352 OA
BRANCH  25  26
HETATM   26  C29 UNL     1      -4.253   4.836  12.164  1.00  0.00     0.292 C 
HETATM   27  O5  UNL     1      -5.478   4.249  12.594  1.00  0.00    -0.348 OA
HETATM   28  C30 UNL     1      -5.995   3.300  11.632  1.00  0.00     0.179 C 
HETATM   29  C32 UNL     1      -4.900   2.531  10.866  1.00  0.00     0.180 C 
HETATM   30  C33 UNL     1      -3.626   2.409  11.709  1.00  0.00     0.183 C 
HETATM   31  C34 UNL     1      -3.140   3.772  12.237  1.00  0.00     0.204 C 
BRANCH  28  32
HETATM   32  C31 UNL     1      -6.893   2.343  12.425  1.00  0.00     0.198 C 
BRANCH  32  33
HETATM   33  O6  UNL     1      -6.852   1.046  11.832  1.00  0.00    -0.398 OA
HETATM   34  H46 UNL     1      -6.894   1.194  10.867  1.00  0.00     0.209 HD
ENDBRANCH  32  33
ENDBRANCH  28  32
BRANCH  29  35
HETATM   35  O7  UNL     1      -4.576   3.243   9.658  1.00  0.00    -0.390 OA
HETATM   36  H48 UNL     1      -3.776   2.790   9.309  1.00  0.00     0.210 HD
ENDBRANCH  29  35
BRANCH  30  37
HETATM   37  O8  UNL     1      -2.599   1.788  10.917  1.00  0.00    -0.390 OA
HETATM   38  H50 UNL     1      -1.884   2.459  10.853  1.00  0.00     0.210 HD
ENDBRANCH  30  37
BRANCH  31  39
HETATM   39  O9  UNL     1      -1.960   4.190  11.513  1.00  0.00    -0.388 OA
HETATM   40  H52 UNL     1      -1.719   5.059  11.899  1.00  0.00     0.210 HD
ENDBRANCH  31  39
ENDBRANCH  25  26
ENDBRANCH  21  25
BRANCH   1  41
HETATM   41  C8  UNL     1       0.932  12.399  18.989  1.00  0.00    -0.010 C 
HETATM   42  C9  UNL     1       2.017  11.367  18.639  1.00  0.00     0.010 C 
BRANCH  41  43
HETATM   43  C7  UNL     1       1.153  12.895  20.442  1.00  0.00     0.031 C 
BRANCH  43  44
HETATM   44  C6  UNL     1       2.050  12.054  21.308  1.00  0.00    -0.027 C 
HETATM   45  C5  UNL     1       2.015  10.708  21.337  1.00  0.00     0.006 C 
BRANCH  45  46
HETATM   46  C2  UNL     1       2.969   9.817  22.114  1.00  0.00     0.070 C 
HETATM   47  C3  UNL     1       2.302   8.489  22.495  1.00  0.00     0.050 C 
HETATM   48  C4  UNL     1       3.378  10.547  23.402  1.00  0.00     0.050 C 
BRANCH  46  49
HETATM   49  O1  UNL     1       4.191   9.606  21.381  1.00  0.00    -0.382 OA
HETATM   50  C1  UNL     1       5.058  10.727  21.270  1.00  0.00     0.202 C 
ENDBRANCH  46  49
ENDBRANCH  45  46
ENDBRANCH  43  44
ENDBRANCH  41  43
ENDBRANCH   1  41
TORSDOF 12
ENDMDL
MODEL 3
REMARK minimizedAffinity -7.9631834
REMARK CNNscore 0.283721805
REMARK CNNaffinity 6.72918749
REMARK  12 active torsions:
REMARK  status: ('A' for Active; 'I' for Inactive)
REMARK    1  A    between atoms: O1_2  and  C2_3 
REMARK    2  A    between atoms: C2_3  and  C5_6 
REMARK    3  A    between atoms: C6_7  and  C7_8 
REMARK    4  A    between atoms: C7_8  and  C8_9 
REMARK    5  A    between atoms: C8_9  and  C10_11 
REMARK    6  A    between atoms: C28_31  and  O4_32 
REMARK    7  A    between atoms: O4_32  and  C29_33 
REMARK    8  A    between atoms: C30_35  and  C31_36 
REMARK    9  A    between atoms: C31_36  and  O6_37 
REMARK   10  A    between atoms: C32_38  and  O7_39 
REMARK   11  A    between atoms: C33_40  and  O8_41 
REMARK   12  A    between atoms: C34_42  and  O9_43 
ROOT
HETATM    1  C10 UNL     1      -5.524   7.110  14.714  1.00  0.00    -0.002 C 
HETATM    2  C11 UNL     1      -5.951   7.564  13.284  1.00  0.00     0.006 C 
HETATM    3  C12 UNL     1      -4.725   8.225  12.613  1.00  0.00     0.011 C 
HETATM    4  C13 UNL     1      -3.553   7.931  13.566  1.00  0.00    -0.028 C 
HETATM    5  C14 UNL     1      -3.060   6.493  13.207  1.00  0.00     0.016 C 
HETATM    6  C15 UNL     1      -2.370   8.943  13.497  1.00  0.00     0.035 C 
HETATM    7  C16 UNL     1      -1.688   8.966  12.144  1.00  0.00    -0.021 C 
HETATM    8  C17 UNL     1      -0.356   8.860  12.032  1.00  0.00     0.009 C 
HETATM    9  C18 UNL     1       0.545   8.643  13.248  1.00  0.00     0.102 C 
HETATM   10  O2  UNL     1       0.599   9.921  13.907  1.00  0.00    -0.304 OA
HETATM   11  C19 UNL     1      -0.515  10.056  14.705  1.00  0.00     0.270 C 
HETATM   12  O3  UNL     1      -0.792  11.082  15.305  1.00  0.00    -0.264 OA
HETATM   13  C20 UNL     1      -1.339   8.760  14.676  1.00  0.00     0.062 C 
HETATM   14  C21 UNL     1      -2.023   8.522  16.050  1.00  0.00     0.022 C 
HETATM   15  C22 UNL     1      -3.272   7.618  16.053  1.00  0.00     0.011 C 
HETATM   16  C23 UNL     1      -4.276   8.029  14.963  1.00  0.00    -0.032 C 
HETATM   17  C24 UNL     1      -4.787   9.467  15.314  1.00  0.00     0.016 C 
HETATM   18  C25 UNL     1      -0.188   7.786  14.302  1.00  0.00     0.045 C 
HETATM   19  C26 UNL     1       0.700   7.400  15.501  1.00  0.00     0.012 C 
HETATM   20  C27 UNL     1       2.032   6.809  15.073  1.00  0.00     0.033 C 
HETATM   21  C28 UNL     1       2.805   7.755  14.150  1.00  0.00     0.136 C 
HETATM   22  C35 UNL     1       1.976   8.113  12.872  1.00  0.00     0.015 C 
HETATM   23  C36 UNL     1       1.876   6.844  11.985  1.00  0.00     0.021 C 
HETATM   24  C37 UNL     1       2.773   9.175  12.070  1.00  0.00     0.021 C 
ENDROOT
BRANCH  21  25
HETATM   25  O4  UNL     1       3.143   8.968  14.826  1.00  0.00    -0.352 OA
BRANCH  25  26
HETATM   26  C29 UNL     1       4.473   9.026  15.346  1.00  0.00     0.292 C 
HETATM   27  O5  UNL     1       4.801  10.355  15.742  1.00  0.00    -0.348 OA
HETATM   28  C30 UNL     1       6.070  10.419  16.435  1.00  0.00     0.179 C 
HETATM   29  C32 UNL     1       7.107   9.394  15.932  1.00  0.00     0.180 C 
HETATM   30  C33 UNL     1       6.861   9.046  14.460  1.00  0.00     0.183 C 
HETATM   31  C34 UNL     1       5.409   8.605  14.196  1.00  0.00     0.204 C 
BRANCH  28  32
HETATM   32  C31 UNL     1       6.577  11.855  16.255  1.00  0.00     0.198 C 
BRANCH  32  33
HETATM   33  O6  UNL     1       7.999  11.879  16.370  1.00  0.00    -0.398 OA
HETATM   34  H46 UNL     1       8.214  11.292  17.121  1.00  0.00     0.209 HD
ENDBRANCH  32  33
ENDBRANCH  28  32
BRANCH  29  35
HETATM   35  O7  UNL     1       6.996   8.187  16.706  1.00  0.00    -0.390 OA
HETATM   36  H48 UNL     1       7.564   7.536  16.235  1.00  0.00     0.210 HD
ENDBRANCH  29  35
BRANCH  30  37
HETATM   37  O8  UNL     1       7.776   8.009  14.066  1.00  0.00    -0.390 OA
HETATM   38  H50 UNL     1       7.206   7.248  13.813  1.00  0.00     0.210 HD
ENDBRANCH  30  37
BRANCH  31  39
HETATM   39  O9  UNL     1       5.361   7.178  13.970  1.00  0.00    -0.388 OA
HETATM   40  H52 UNL     1       4.412   6.976  13.819  1.00  0.00     0.210 HD
ENDBRANCH  31  39
ENDBRANCH  25  26
ENDBRANCH  21  25
BRANCH   1  41
HETATM   41  C8  UNL     1      -6.671   7.104  15.772  1.00  0.00    -0.010 C 
HETATM   42  C9  UNL     1      -6.699   5.785  16.563  1.00  0.00     0.010 C 
BRANCH  41  43
HETATM   43  C7  UNL     1      -8.091   7.397  15.223  1.00  0.00     0.031 C 
BRANCH  43  44
HETATM   44  C6  UNL     1      -8.833   8.539  15.860  1.00  0.00    -0.027 C 
HETATM   45  C5  UNL     1      -9.401   9.543  15.167  1.00  0.00     0.006 C 
BRANCH  45  46
HETATM   46  C2  UNL     1     -10.247  10.657  15.759  1.00  0.00     0.070 C 
HETATM   47  C3  UNL     1      -9.425  11.940  15.945  1.00  0.00     0.050 C 
HETATM   48  C4  UNL     1     -10.760  10.202  17.133  1.00  0.00     0.050 C 
BRANCH  46  49
HETATM   49  O1  UNL     1     -11.423  10.892  14.962  1.00  0.00    -0.382 OA
HETATM   50  C1  UNL     1     -12.609  11.220  15.675  1.00  0.00     0.202 C 
ENDBRANCH  46  49
ENDBRANCH  45  46
ENDBRANCH  43  44
ENDBRANCH  41  43
ENDBRANCH   1  41
TORSDOF 12
ENDMDL
MODEL 4
REMARK minimizedAffinity -7.77752304
REMARK CNNscore 0.279294223
REMARK CNNaffinity 6.73304033
REMARK  12 active torsions:
REMARK  status: ('A' for Active; 'I' for Inactive)
REMARK    1  A    between atoms: O1_2  and  C2_3 
REMARK    2  A    between atoms: C2_3  and  C5_6 
REMARK    3  A    between atoms: C6_7  and  C7_8 
REMARK    4  A    between atoms: C7_8  and  C8_9 
REMARK    5  A    between atoms: C8_9  and  C10_11 
REMARK    6  A    between atoms: C28_31  and  O4_32 
REMARK    7  A    between atoms: O4_32  and  C29_33 
REMARK    8  A    between atoms: C30_35  and  C31_36 
REMARK    9  A    between atoms: C31_36  and  O6_37 
REMARK   10  A    between atoms: C32_38  and  O7_39 
REMARK   11  A    between atoms: C33_40  and  O8_41 
REMARK   12  A    between atoms: C34_42  and  O9_43 
ROOT
HETATM    1  C10 UNL     1      -5.902   6.656  14.786  1.00  0.00    -0.002 C 
HETATM    2  C11 UNL     1      -6.507   7.318  13.510  1.00  0.00     0.006 C 
HETATM    3  C12 UNL     1      -5.365   8.055  12.774  1.00  0.00     0.011 C 
HETATM    4  C13 UNL     1      -4.082   7.613  13.501  1.00  0.00    -0.028 C 
HETATM    5  C14 UNL     1      -3.690   6.236  12.875  1.00  0.00     0.016 C 
HETATM    6  C15 UNL     1      -2.889   8.610  13.410  1.00  0.00     0.035 C 
HETATM    7  C16 UNL     1      -2.399   8.821  11.991  1.00  0.00    -0.021 C 
HETATM    8  C17 UNL     1      -1.100   8.718  11.679  1.00  0.00     0.009 C 
HETATM    9  C18 UNL     1      -0.047   8.317  12.712  1.00  0.00     0.102 C 
HETATM   10  O2  UNL     1       0.138   9.484  13.532  1.00  0.00    -0.304 OA
HETATM   11  C19 UNL     1      -0.850   9.515  14.490  1.00  0.00     0.270 C 
HETATM   12  O3  UNL     1      -1.010  10.446  15.263  1.00  0.00    -0.264 OA
HETATM   13  C20 UNL     1      -1.711   8.246  14.394  1.00  0.00     0.062 C 
HETATM   14  C21 UNL     1      -2.207   7.820  15.803  1.00  0.00     0.022 C 
HETATM   15  C22 UNL     1      -3.472   6.939  15.854  1.00  0.00     0.011 C 
HETATM   16  C23 UNL     1      -4.603   7.515  14.985  1.00  0.00    -0.032 C 
HETATM   17  C24 UNL     1      -5.015   8.893  15.606  1.00  0.00     0.016 C 
HETATM   18  C25 UNL     1      -0.655   7.324  13.727  1.00  0.00     0.045 C 
HETATM   19  C26 UNL     1       0.377   6.758  14.721  1.00  0.00     0.012 C 
HETATM   20  C27 UNL     1       1.619   6.220  14.031  1.00  0.00     0.033 C 
HETATM   21  C28 UNL     1       2.286   7.281  13.152  1.00  0.00     0.136 C 
HETATM   22  C35 UNL     1       1.301   7.830  12.067  1.00  0.00     0.015 C 
HETATM   23  C36 UNL     1       1.039   6.704  11.032  1.00  0.00     0.021 C 
HETATM   24  C37 UNL     1       2.013   8.988  11.320  1.00  0.00     0.021 C 
ENDROOT
BRANCH  21  25
HETATM   25  O4  UNL     1       2.753   8.379  13.939  1.00  0.00    -0.352 OA
BRANCH  25  26
HETATM   26  C29 UNL     1       4.150   8.656  13.832  1.00  0.00     0.292 C 
HETATM   27  O5  UNL     1       4.749   7.849  12.823  1.00  0.00    -0.348 OA
HETATM   28  C30 UNL     1       6.122   8.228  12.565  1.00  0.00     0.179 C 
HETATM   29  C32 UNL     1       6.872   8.735  13.813  1.00  0.00     0.180 C 
HETATM   30  C33 UNL     1       6.298   8.109  15.089  1.00  0.00     0.183 C 
HETATM   31  C34 UNL     1       4.772   8.290  15.195  1.00  0.00     0.204 C 
BRANCH  28  32
HETATM   32  C31 UNL     1       6.800   6.984  11.978  1.00  0.00     0.198 C 
BRANCH  32  33
HETATM   33  O6  UNL     1       6.057   5.820  12.335  1.00  0.00    -0.398 OA
HETATM   34  H46 UNL     1       5.809   5.941  13.272  1.00  0.00     0.209 HD
ENDBRANCH  32  33
ENDBRANCH  28  32
BRANCH  29  35
HETATM   35  O7  UNL     1       6.728  10.164  13.907  1.00  0.00    -0.390 OA
HETATM   36  H48 UNL     1       7.088  10.393  14.794  1.00  0.00     0.210 HD
ENDBRANCH  29  35
BRANCH  30  37
HETATM   37  O8  UNL     1       6.949   8.693  16.231  1.00  0.00    -0.390 OA
HETATM   38  H50 UNL     1       6.231   9.137  16.734  1.00  0.00     0.210 HD
ENDBRANCH  30  37
BRANCH  31  39
HETATM   39  O9  UNL     1       4.462   9.281  16.201  1.00  0.00    -0.388 OA
HETATM   40  H52 UNL     1       3.482   9.343  16.203  1.00  0.00     0.210 HD
ENDBRANCH  31  39
ENDBRANCH  25  26
ENDBRANCH  21  25
BRANCH   1  41
HETATM   41  C8  UNL     1      -6.891   6.510  15.984  1.00  0.00    -0.010 C 
HETATM   42  C9  UNL     1      -6.763   5.132  16.654  1.00  0.00     0.010 C 
BRANCH  41  43
HETATM   43  C7  UNL     1      -8.383   6.780  15.658  1.00  0.00     0.031 C 
BRANCH  43  44
HETATM   44  C6  UNL     1      -8.802   8.221  15.581  1.00  0.00    -0.027 C 
HETATM   45  C5  UNL     1      -9.951   8.696  16.098  1.00  0.00     0.006 C 
BRANCH  45  46
HETATM   46  C2  UNL     1     -10.365  10.157  16.136  1.00  0.00     0.070 C 
HETATM   47  C3  UNL     1     -10.817  10.569  17.544  1.00  0.00     0.050 C 
HETATM   48  C4  UNL     1     -11.539  10.357  15.167  1.00  0.00     0.050 C 
BRANCH  46  49
HETATM   49  O1  UNL     1      -9.309  11.006  15.648  1.00  0.00    -0.382 OA
HETATM   50  C1  UNL     1      -9.710  12.256  15.104  1.00  0.00     0.202 C 
ENDBRANCH  46  49
ENDBRANCH  45  46
ENDBRANCH  43  44
ENDBRANCH  41  43
ENDBRANCH   1  41
TORSDOF 12
ENDMDL
MODEL 5
REMARK minimizedAffinity -7.46483707
REMARK CNNscore 0.191282332
REMARK CNNaffinity 6.21297836
REMARK  12 active torsions:
REMARK  status: ('A' for Active; 'I' for Inactive)
REMARK    1  A    between atoms: O1_2  and  C2_3 
REMARK    2  A    between atoms: C2_3  and  C5_6 
REMARK    3  A    between atoms: C6_7  and  C7_8 
REMARK    4  A    between atoms: C7_8  and  C8_9 
REMARK    5  A    between atoms: C8_9  and  C10_11 
REMARK    6  A    between atoms: C28_31  and  O4_32 
REMARK    7  A    between atoms: O4_32  and  C29_33 
REMARK    8  A    between atoms: C30_35  and  C31_36 
REMARK    9  A    between atoms: C31_36  and  O6_37 
REMARK   10  A    between atoms: C32_38  and  O7_39 
REMARK   11  A    between atoms: C33_40  and  O8_41 
REMARK   12  A    between atoms: C34_42  and  O9_43 
ROOT
HETATM    1  C10 UNL     1       2.838  15.037  20.428  1.00  0.00    -0.002 C 
HETATM    2  C11 UNL     1       3.577  15.749  19.253  1.00  0.00     0.006 C 
HETATM    3  C12 UNL     1       3.171  15.039  17.942  1.00  0.00     0.011 C 
HETATM    4  C13 UNL     1       2.030  14.089  18.349  1.00  0.00    -0.028 C 
HETATM    5  C14 UNL     1       0.733  14.959  18.359  1.00  0.00     0.016 C 
HETATM    6  C15 UNL     1       1.841  12.845  17.431  1.00  0.00     0.035 C 
HETATM    7  C16 UNL     1       1.466  13.209  16.008  1.00  0.00    -0.021 C 
HETATM    8  C17 UNL     1       0.422  12.635  15.393  1.00  0.00     0.009 C 
HETATM    9  C18 UNL     1      -0.488  11.635  16.105  1.00  0.00     0.102 C 
HETATM   10  O2  UNL     1       0.273  10.416  16.173  1.00  0.00    -0.304 OA
HETATM   11  C19 UNL     1       1.119  10.481  17.257  1.00  0.00     0.270 C 
HETATM   12  O3  UNL     1       1.961   9.633  17.505  1.00  0.00    -0.264 OA
HETATM   13  C20 UNL     1       0.861  11.774  18.045  1.00  0.00     0.062 C 
HETATM   14  C21 UNL     1       1.092  11.539  19.563  1.00  0.00     0.022 C 
HETATM   15  C22 UNL     1       1.407  12.784  20.415  1.00  0.00     0.011 C 
HETATM   16  C23 UNL     1       2.513  13.645  19.781  1.00  0.00    -0.032 C 
HETATM   17  C24 UNL     1       3.825  12.789  19.772  1.00  0.00     0.016 C 
HETATM   18  C25 UNL     1      -0.610  12.002  17.600  1.00  0.00     0.045 C 
HETATM   19  C26 UNL     1      -1.623  11.129  18.364  1.00  0.00     0.012 C 
HETATM   20  C27 UNL     1      -2.966  11.042  17.660  1.00  0.00     0.033 C 
HETATM   21  C28 UNL     1      -2.825  10.524  16.227  1.00  0.00     0.136 C 
HETATM   22  C35 UNL     1      -1.868  11.428  15.382  1.00  0.00     0.015 C 
HETATM   23  C36 UNL     1      -2.571  12.790  15.140  1.00  0.00     0.021 C 
HETATM   24  C37 UNL     1      -1.678  10.756  13.996  1.00  0.00     0.021 C 
ENDROOT
BRANCH  21  25
HETATM   25  O4  UNL     1      -2.319   9.188  16.212  1.00  0.00    -0.352 OA
BRANCH  25  26
HETATM   26  C29 UNL     1      -3.280   8.173  15.917  1.00  0.00     0.292 C 
HETATM   27  O5  UNL     1      -2.652   7.040  15.326  1.00  0.00    -0.348 OA
HETATM   28  C30 UNL     1      -3.564   5.926  15.177  1.00  0.00     0.179 C 
HETATM   29  C32 UNL     1      -5.019   6.348  14.887  1.00  0.00     0.180 C 
HETATM   30  C33 UNL     1      -5.063   7.696  14.160  1.00  0.00     0.183 C 
HETATM   31  C34 UNL     1      -4.261   8.786  14.898  1.00  0.00     0.204 C 
BRANCH  28  32
HETATM   32  C31 UNL     1      -2.999   5.066  14.041  1.00  0.00     0.198 C 
BRANCH  32  33
HETATM   33  O6  UNL     1      -1.697   5.531  13.690  1.00  0.00    -0.398 OA
HETATM   34  H46 UNL     1      -1.756   6.506  13.687  1.00  0.00     0.209 HD
ENDBRANCH  32  33
ENDBRANCH  28  32
BRANCH  29  35
HETATM   35  O7  UNL     1      -5.732   6.481  16.129  1.00  0.00    -0.390 OA
HETATM   36  H48 UNL     1      -6.588   6.899  15.881  1.00  0.00     0.210 HD
ENDBRANCH  29  35
BRANCH  30  37
HETATM   37  O8  UNL     1      -6.434   8.103  14.011  1.00  0.00    -0.390 OA
HETATM   38  H50 UNL     1      -6.506   8.946  14.511  1.00  0.00     0.210 HD
ENDBRANCH  30  37
BRANCH  31  39
HETATM   39  O9  UNL     1      -5.165   9.721  15.529  1.00  0.00    -0.388 OA
HETATM   40  H52 UNL     1      -4.585  10.372  15.978  1.00  0.00     0.210 HD
ENDBRANCH  31  39
ENDBRANCH  25  26
ENDBRANCH  21  25
BRANCH   1  41
HETATM   41  C8  UNL     1       3.592  15.068  21.794  1.00  0.00    -0.010 C 
HETATM   42  C9  UNL     1       5.097  14.804  21.612  1.00  0.00     0.010 C 
BRANCH  41  43
HETATM   43  C7  UNL     1       3.039  14.118  22.887  1.00  0.00     0.031 C 
BRANCH  43  44
HETATM   44  C6  UNL     1       3.730  12.791  23.034  1.00  0.00    -0.027 C 
HETATM   45  C5  UNL     1       3.088  11.608  23.044  1.00  0.00     0.006 C 
BRANCH  45  46
HETATM   46  C2  UNL     1       3.752  10.243  23.084  1.00  0.00     0.070 C 
HETATM   47  C3  UNL     1       5.239  10.359  23.447  1.00  0.00     0.050 C 
HETATM   48  C4  UNL     1       3.637   9.603  21.692  1.00  0.00     0.050 C 
BRANCH  46  49
HETATM   49  O1  UNL     1       3.055   9.355  23.979  1.00  0.00    -0.382 OA
HETATM   50  C1  UNL     1       2.269   8.340  23.369  1.00  0.00     0.202 C 
ENDBRANCH  46  49
ENDBRANCH  45  46
ENDBRANCH  43  44
ENDBRANCH  41  43
ENDBRANCH   1  41
TORSDOF 12
ENDMDL
MODEL 6
REMARK minimizedAffinity -9.22319412
REMARK CNNscore 0.190692529
REMARK CNNaffinity 6.9573369
REMARK  12 active torsions:
REMARK  status: ('A' for Active; 'I' for Inactive)
REMARK    1  A    between atoms: O1_2  and  C2_3 
REMARK    2  A    between atoms: C2_3  and  C5_6 
REMARK    3  A    between atoms: C6_7  and  C7_8 
REMARK    4  A    between atoms: C7_8  and  C8_9 
REMARK    5  A    between atoms: C8_9  and  C10_11 
REMARK    6  A    between atoms: C28_31  and  O4_32 
REMARK    7  A    between atoms: O4_32  and  C29_33 
REMARK    8  A    between atoms: C30_35  and  C31_36 
REMARK    9  A    between atoms: C31_36  and  O6_37 
REMARK   10  A    between atoms: C32_38  and  O7_39 
REMARK   11  A    between atoms: C33_40  and  O8_41 
REMARK   12  A    between atoms: C34_42  and  O9_43 
ROOT
HETATM    1  C10 UNL     1      -0.351  11.554  18.781  1.00  0.00    -0.002 C 
HETATM    2  C11 UNL     1      -1.513  12.583  18.944  1.00  0.00     0.006 C 
HETATM    3  C12 UNL     1      -2.611  12.219  17.918  1.00  0.00     0.011 C 
HETATM    4  C13 UNL     1      -2.178  10.857  17.348  1.00  0.00    -0.028 C 
HETATM    5  C14 UNL     1      -2.681   9.787  18.369  1.00  0.00     0.016 C 
HETATM    6  C15 UNL     1      -2.708  10.535  15.919  1.00  0.00     0.035 C 
HETATM    7  C16 UNL     1      -4.220  10.446  15.853  1.00  0.00    -0.021 C 
HETATM    8  C17 UNL     1      -4.833   9.399  15.284  1.00  0.00     0.009 C 
HETATM    9  C18 UNL     1      -4.054   8.206  14.730  1.00  0.00     0.102 C 
HETATM   10  O2  UNL     1      -3.481   8.672  13.496  1.00  0.00    -0.304 OA
HETATM   11  C19 UNL     1      -2.319   9.355  13.775  1.00  0.00     0.270 C 
HETATM   12  O3  UNL     1      -1.671   9.954  12.932  1.00  0.00    -0.264 OA
HETATM   13  C20 UNL     1      -2.013   9.273  15.278  1.00  0.00     0.062 C 
HETATM   14  C21 UNL     1      -0.479   9.237  15.518  1.00  0.00     0.022 C 
HETATM   15  C22 UNL     1       0.015   9.691  16.906  1.00  0.00     0.011 C 
HETATM   16  C23 UNL     1      -0.612  11.032  17.325  1.00  0.00    -0.032 C 
HETATM   17  C24 UNL     1      -0.109  12.118  16.315  1.00  0.00     0.016 C 
HETATM   18  C25 UNL     1      -2.788   7.961  15.580  1.00  0.00     0.045 C 
HETATM   19  C26 UNL     1      -2.018   6.689  15.177  1.00  0.00     0.012 C 
HETATM   20  C27 UNL     1      -2.916   5.468  15.080  1.00  0.00     0.033 C 
HETATM   21  C28 UNL     1      -4.077   5.691  14.107  1.00  0.00     0.136 C 
HETATM   22  C35 UNL     1      -4.943   6.927  14.521  1.00  0.00     0.015 C 
HETATM   23  C36 UNL     1      -5.708   6.571  15.823  1.00  0.00     0.021 C 
HETATM   24  C37 UNL     1      -6.003   7.158  13.412  1.00  0.00     0.021 C 
ENDROOT
BRANCH  21  25
HETATM   25  O4  UNL     1      -3.598   5.898  12.777  1.00  0.00    -0.352 OA
BRANCH  25  26
HETATM   26  C29 UNL     1      -2.432   5.151  12.425  1.00  0.00     0.292 C 
HETATM   27  O5  UNL     1      -1.436   6.003  11.868  1.00  0.00    -0.348 OA
HETATM   28  C30 UNL     1      -0.179   5.314  11.665  1.00  0.00     0.179 C 
HETATM   29  C32 UNL     1      -0.339   3.826  11.292  1.00  0.00     0.180 C 
HETATM   30  C33 UNL     1      -1.668   3.584  10.567  1.00  0.00     0.183 C 
HETATM   31  C34 UNL     1      -2.873   4.135  11.352  1.00  0.00     0.204 C 
BRANCH  28  32
HETATM   32  C31 UNL     1       0.552   6.086  10.561  1.00  0.00     0.198 C 
BRANCH  32  33
HETATM   33  O6  UNL     1       1.688   5.340  10.126  1.00  0.00    -0.398 OA
HETATM   34  H46 UNL     1       2.099   4.987  10.938  1.00  0.00     0.209 HD
ENDBRANCH  32  33
ENDBRANCH  28  32
BRANCH  29  35
HETATM   35  O7  UNL     1      -0.328   3.032  12.491  1.00  0.00    -0.390 OA
HETATM   36  H48 UNL     1      -0.590   2.130  12.196  1.00  0.00     0.210 HD
ENDBRANCH  29  35
BRANCH  30  37
HETATM   37  O8  UNL     1      -1.826   2.172  10.340  1.00  0.00    -0.390 OA
HETATM   38  H50 UNL     1      -2.636   1.923  10.838  1.00  0.00     0.210 HD
ENDBRANCH  30  37
BRANCH  31  39
HETATM   39  O9  UNL     1      -3.624   3.045  11.933  1.00  0.00    -0.388 OA
HETATM   40  H52 UNL     1      -4.363   3.474  12.416  1.00  0.00     0.210 HD
ENDBRANCH  31  39
ENDBRANCH  25  26
ENDBRANCH  21  25
BRANCH   1  41
HETATM   41  C8  UNL     1       1.066  12.102  19.136  1.00  0.00    -0.010 C 
HETATM   42  C9  UNL     1       1.436  13.312  18.261  1.00  0.00     0.010 C 
BRANCH  41  43
HETATM   43  C7  UNL     1       2.218  11.065  19.083  1.00  0.00     0.031 C 
BRANCH  43  44
HETATM   44  C6  UNL     1       2.595  10.416  20.385  1.00  0.00    -0.027 C 
HETATM   45  C5  UNL     1       3.408  10.982  21.297  1.00  0.00     0.006 C 
BRANCH  45  46
HETATM   46  C2  UNL     1       3.732  10.412  22.667  1.00  0.00     0.070 C 
HETATM   47  C3  UNL     1       3.265   8.955  22.786  1.00  0.00     0.050 C 
HETATM   48  C4  UNL     1       3.003  11.248  23.728  1.00  0.00     0.050 C 
BRANCH  46  49
HETATM   49  O1  UNL     1       5.135  10.545  22.963  1.00  0.00    -0.382 OA
HETATM   50  C1  UNL     1       5.652  11.869  22.972  1.00  0.00     0.202 C 
ENDBRANCH  46  49
ENDBRANCH  45  46
ENDBRANCH  43  44
ENDBRANCH  41  43
ENDBRANCH   1  41
TORSDOF 12
ENDMDL
MODEL 7
REMARK minimizedAffinity -9.60937309
REMARK CNNscore 0.172812849
REMARK CNNaffinity 6.6621871
REMARK  12 active torsions:
REMARK  status: ('A' for Active; 'I' for Inactive)
REMARK    1  A    between atoms: O1_2  and  C2_3 
REMARK    2  A    between atoms: C2_3  and  C5_6 
REMARK    3  A    between atoms: C6_7  and  C7_8 
REMARK    4  A    between atoms: C7_8  and  C8_9 
REMARK    5  A    between atoms: C8_9  and  C10_11 
REMARK    6  A    between atoms: C28_31  and  O4_32 
REMARK    7  A    between atoms: O4_32  and  C29_33 
REMARK    8  A    between atoms: C30_35  and  C31_36 
REMARK    9  A    between atoms: C31_36  and  O6_37 
REMARK   10  A    between atoms: C32_38  and  O7_39 
REMARK   11  A    between atoms: C33_40  and  O8_41 
REMARK   12  A    between atoms: C34_42  and  O9_43 
ROOT
HETATM    1  C10 UNL     1       4.290   7.912  13.275  1.00  0.00    -0.002 C 
HETATM    2  C11 UNL     1       4.576   9.295  13.938  1.00  0.00     0.006 C 
HETATM    3  C12 UNL     1       3.215   9.948  14.272  1.00  0.00     0.011 C 
HETATM    4  C13 UNL     1       2.177   8.840  14.017  1.00  0.00    -0.028 C 
HETATM    5  C14 UNL     1       2.154   7.970  15.314  1.00  0.00     0.016 C 
HETATM    6  C15 UNL     1       0.741   9.340  13.674  1.00  0.00     0.035 C 
HETATM    7  C16 UNL     1       0.103  10.128  14.800  1.00  0.00    -0.021 C 
HETATM    8  C17 UNL     1      -1.131   9.842  15.240  1.00  0.00     0.009 C 
HETATM    9  C18 UNL     1      -1.937   8.668  14.684  1.00  0.00     0.102 C 
HETATM   10  O2  UNL     1      -2.389   9.103  13.389  1.00  0.00    -0.304 OA
HETATM   11  C19 UNL     1      -1.382   8.898  12.475  1.00  0.00     0.270 C 
HETATM   12  O3  UNL     1      -1.440   9.268  11.314  1.00  0.00    -0.264 OA
HETATM   13  C20 UNL     1      -0.199   8.187  13.151  1.00  0.00     0.062 C 
HETATM   14  C21 UNL     1       0.507   7.235  12.147  1.00  0.00     0.022 C 
HETATM   15  C22 UNL     1       1.973   6.870  12.456  1.00  0.00     0.011 C 
HETATM   16  C23 UNL     1       2.817   8.116  12.772  1.00  0.00    -0.032 C 
HETATM   17  C24 UNL     1       2.857   8.996  11.477  1.00  0.00     0.016 C 
HETATM   18  C25 UNL     1      -0.990   7.509  14.303  1.00  0.00     0.045 C 
HETATM   19  C26 UNL     1      -1.733   6.232  13.866  1.00  0.00     0.012 C 
HETATM   20  C27 UNL     1      -2.814   5.820  14.850  1.00  0.00     0.033 C 
HETATM   21  C28 UNL     1      -3.827   6.943  15.086  1.00  0.00     0.136 C 
HETATM   22  C35 UNL     1      -3.132   8.241  15.613  1.00  0.00     0.015 C 
HETATM   23  C36 UNL     1      -2.635   7.977  17.059  1.00  0.00     0.021 C 
HETATM   24  C37 UNL     1      -4.206   9.358  15.691  1.00  0.00     0.021 C 
ENDROOT
BRANCH  21  25
HETATM   25  O4  UNL     1      -4.530   7.259  13.883  1.00  0.00    -0.352 OA
BRANCH  25  26
HETATM   26  C29 UNL     1      -5.916   6.911  13.876  1.00  0.00     0.292 C 
HETATM   27  O5  UNL     1      -6.587   7.488  14.992  1.00  0.00    -0.348 OA
HETATM   28  C30 UNL     1      -8.021   7.305  14.921  1.00  0.00     0.179 C 
HETATM   29  C32 UNL     1      -8.447   5.980  14.256  1.00  0.00     0.180 C 
HETATM   30  C33 UNL     1      -7.374   4.902  14.448  1.00  0.00     0.183 C 
HETATM   31  C34 UNL     1      -5.979   5.376  13.996  1.00  0.00     0.204 C 
BRANCH  28  32
HETATM   32  C31 UNL     1      -8.529   7.389  16.364  1.00  0.00     0.198 C 
BRANCH  32  33
HETATM   33  O6  UNL     1      -7.469   7.073  17.265  1.00  0.00    -0.398 OA
HETATM   34  H46 UNL     1      -7.006   6.309  16.871  1.00  0.00     0.209 HD
ENDBRANCH  32  33
ENDBRANCH  28  32
BRANCH  29  35
HETATM   35  O7  UNL     1      -8.625   6.193  12.844  1.00  0.00    -0.390 OA
HETATM   36  H48 UNL     1      -8.737   5.291  12.468  1.00  0.00     0.210 HD
ENDBRANCH  29  35
BRANCH  30  37
HETATM   37  O8  UNL     1      -7.759   3.724  13.719  1.00  0.00    -0.390 OA
HETATM   38  H50 UNL     1      -7.049   3.592  13.052  1.00  0.00     0.210 HD
ENDBRANCH  30  37
BRANCH  31  39
HETATM   39  O9  UNL     1      -5.619   4.732  12.752  1.00  0.00    -0.388 OA
HETATM   40  H52 UNL     1      -4.732   5.087  12.530  1.00  0.00     0.210 HD
ENDBRANCH  31  39
ENDBRANCH  25  26
ENDBRANCH  21  25
BRANCH   1  41
HETATM   41  C8  UNL     1       5.369   7.437  12.253  1.00  0.00    -0.010 C 
HETATM   42  C9  UNL     1       6.021   8.628  11.530  1.00  0.00     0.010 C 
BRANCH  41  43
HETATM   43  C7  UNL     1       4.887   6.406  11.200  1.00  0.00     0.031 C 
BRANCH  43  44
HETATM   44  C6  UNL     1       4.187   6.961   9.990  1.00  0.00    -0.027 C 
HETATM   45  C5  UNL     1       3.183   6.332   9.351  1.00  0.00     0.006 C 
BRANCH  45  46
HETATM   46  C2  UNL     1       2.380   6.900   8.194  1.00  0.00     0.070 C 
HETATM   47  C3  UNL     1       2.508   6.019   6.943  1.00  0.00     0.050 C 
HETATM   48  C4  UNL     1       2.922   8.299   7.864  1.00  0.00     0.050 C 
BRANCH  46  49
HETATM   49  O1  UNL     1       1.003   7.094   8.567  1.00  0.00    -0.382 OA
HETATM   50  C1  UNL     1       0.454   8.377   8.297  1.00  0.00     0.202 C 
ENDBRANCH  46  49
ENDBRANCH  45  46
ENDBRANCH  43  44
ENDBRANCH  41  43
ENDBRANCH   1  41
TORSDOF 12
ENDMDL
MODEL 8
REMARK minimizedAffinity -7.65216064
REMARK CNNscore 0.147547483
REMARK CNNaffinity 5.76926756
REMARK  12 active torsions:
REMARK  status: ('A' for Active; 'I' for Inactive)
REMARK    1  A    between atoms: O1_2  and  C2_3 
REMARK    2  A    between atoms: C2_3  and  C5_6 
REMARK    3  A    between atoms: C6_7  and  C7_8 
REMARK    4  A    between atoms: C7_8  and  C8_9 
REMARK    5  A    between atoms: C8_9  and  C10_11 
REMARK    6  A    between atoms: C28_31  and  O4_32 
REMARK    7  A    between atoms: O4_32  and  C29_33 
REMARK    8  A    between atoms: C30_35  and  C31_36 
REMARK    9  A    between atoms: C31_36  and  O6_37 
REMARK   10  A    between atoms: C32_38  and  O7_39 
REMARK   11  A    between atoms: C33_40  and  O8_41 
REMARK   12  A    between atoms: C34_42  and  O9_43 
ROOT
HETATM    1  C10 UNL     1       3.589  12.373  21.090  1.00  0.00    -0.002 C 
HETATM    2  C11 UNL     1       3.896  13.876  20.807  1.00  0.00     0.006 C 
HETATM    3  C12 UNL     1       3.006  14.325  19.625  1.00  0.00     0.011 C 
HETATM    4  C13 UNL     1       2.035  13.151  19.399  1.00  0.00    -0.028 C 
HETATM    5  C14 UNL     1       0.880  13.348  20.433  1.00  0.00     0.016 C 
HETATM    6  C15 UNL     1       1.458  13.033  17.957  1.00  0.00     0.035 C 
HETATM    7  C16 UNL     1       0.619  14.228  17.554  1.00  0.00    -0.021 C 
HETATM    8  C17 UNL     1      -0.607  14.076  17.033  1.00  0.00     0.009 C 
HETATM    9  C18 UNL     1      -1.257  12.701  16.878  1.00  0.00     0.102 C 
HETATM   10  O2  UNL     1      -0.593  12.098  15.753  1.00  0.00    -0.304 OA
HETATM   11  C19 UNL     1       0.588  11.537  16.183  1.00  0.00     0.270 C 
HETATM   12  O3  UNL     1       1.413  11.045  15.431  1.00  0.00    -0.264 OA
HETATM   13  C20 UNL     1       0.704  11.670  17.710  1.00  0.00     0.062 C 
HETATM   14  C21 UNL     1       1.452  10.446  18.305  1.00  0.00     0.022 C 
HETATM   15  C22 UNL     1       2.123  10.646  19.679  1.00  0.00     0.011 C 
HETATM   16  C23 UNL     1       2.974  11.926  19.717  1.00  0.00    -0.032 C 
HETATM   17  C24 UNL     1       4.144  11.741  18.691  1.00  0.00     0.016 C 
HETATM   18  C25 UNL     1      -0.812  11.773  18.029  1.00  0.00     0.045 C 
HETATM   19  C26 UNL     1      -1.531  10.411  18.029  1.00  0.00     0.012 C 
HETATM   20  C27 UNL     1      -3.040  10.548  17.922  1.00  0.00     0.033 C 
HETATM   21  C28 UNL     1      -3.454  11.343  16.681  1.00  0.00     0.136 C 
HETATM   22  C35 UNL     1      -2.814  12.770  16.675  1.00  0.00     0.015 C 
HETATM   23  C36 UNL     1      -3.478  13.606  17.801  1.00  0.00     0.021 C 
HETATM   24  C37 UNL     1      -3.173  13.447  15.326  1.00  0.00     0.021 C 
ENDROOT
BRANCH  21  25
HETATM   25  O4  UNL     1      -3.063  10.665  15.485  1.00  0.00    -0.352 OA
BRANCH  25  26
HETATM   26  C29 UNL     1      -3.265   9.251  15.490  1.00  0.00     0.292 C 
HETATM   27  O5  UNL     1      -2.041   8.566  15.241  1.00  0.00    -0.348 OA
HETATM   28  C30 UNL     1      -2.171   7.135  15.415  1.00  0.00     0.179 C 
HETATM   29  C32 UNL     1      -3.557   6.584  15.021  1.00  0.00     0.180 C 
HETATM   30  C33 UNL     1      -4.207   7.459  13.943  1.00  0.00     0.183 C 
HETATM   31  C34 UNL     1      -4.247   8.947  14.342  1.00  0.00     0.204 C 
BRANCH  28  32
HETATM   32  C31 UNL     1      -1.062   6.504  14.566  1.00  0.00     0.198 C 
BRANCH  32  33
HETATM   33  O6  UNL     1      -0.580   5.325  15.208  1.00  0.00    -0.398 OA
HETATM   34  H46 UNL     1      -0.509   5.549  16.156  1.00  0.00     0.209 HD
ENDBRANCH  32  33
ENDBRANCH  28  32
BRANCH  29  35
HETATM   35  O7  UNL     1      -4.413   6.581  16.177  1.00  0.00    -0.390 OA
HETATM   36  H48 UNL     1      -5.308   6.373  15.824  1.00  0.00     0.210 HD
ENDBRANCH  29  35
BRANCH  30  37
HETATM   37  O8  UNL     1      -5.537   6.976  13.689  1.00  0.00    -0.390 OA
HETATM   38  H50 UNL     1      -6.131   7.721  13.932  1.00  0.00     0.210 HD
ENDBRANCH  30  37
BRANCH  31  39
HETATM   39  O9  UNL     1      -5.598   9.328  14.686  1.00  0.00    -0.388 OA
HETATM   40  H52 UNL     1      -5.540  10.276  14.932  1.00  0.00     0.210 HD
ENDBRANCH  31  39
ENDBRANCH  25  26
ENDBRANCH  21  25
BRANCH   1  41
HETATM   41  C8  UNL     1       4.784  11.557  21.674  1.00  0.00    -0.010 C 
HETATM   42  C9  UNL     1       4.381  10.812  22.957  1.00  0.00     0.010 C 
BRANCH  41  43
HETATM   43  C7  UNL     1       6.080  12.366  21.942  1.00  0.00     0.031 C 
BRANCH  43  44
HETATM   44  C6  UNL     1       7.136  12.311  20.874  1.00  0.00    -0.027 C 
HETATM   45  C5  UNL     1       8.458  12.287  21.128  1.00  0.00     0.006 C 
BRANCH  45  46
HETATM   46  C2  UNL     1       9.554  12.127  20.089  1.00  0.00     0.070 C 
HETATM   47  C3  UNL     1       9.912  13.475  19.446  1.00  0.00     0.050 C 
HETATM   48  C4  UNL     1       9.050  11.180  18.990  1.00  0.00     0.050 C 
BRANCH  46  49
HETATM   49  O1  UNL     1      10.713  11.486  20.654  1.00  0.00    -0.382 OA
HETATM   50  C1  UNL     1      11.968  11.856  20.101  1.00  0.00     0.202 C 
ENDBRANCH  46  49
ENDBRANCH  45  46
ENDBRANCH  43  44
ENDBRANCH  41  43
ENDBRANCH   1  41
TORSDOF 12
ENDMDL
MODEL 9
REMARK minimizedAffinity -8.9067564
REMARK CNNscore 0.147328675
REMARK CNNaffinity 6.95025492
REMARK  12 active torsions:
REMARK  status: ('A' for Active; 'I' for Inactive)
REMARK    1  A    between atoms: O1_2  and  C2_3 
REMARK    2  A    between atoms: C2_3  and  C5_6 
REMARK    3  A    between atoms: C6_7  and  C7_8 
REMARK    4  A    between atoms: C7_8  and  C8_9 
REMARK    5  A    between atoms: C8_9  and  C10_11 
REMARK    6  A    between atoms: C28_31  and  O4_32 
REMARK    7  A    between atoms: O4_32  and  C29_33 
REMARK    8  A    between atoms: C30_35  and  C31_36 
REMARK    9  A    between atoms: C31_36  and  O6_37 
REMARK   10  A    between atoms: C32_38  and  O7_39 
REMARK   11  A    between atoms: C33_40  and  O8_41 
REMARK   12  A    between atoms: C34_42  and  O9_43 
ROOT
HETATM    1  C10 UNL     1      -8.251   7.124  14.582  1.00  0.00    -0.002 C 
HETATM    2  C11 UNL     1      -8.250   6.996  16.137  1.00  0.00     0.006 C 
HETATM    3  C12 UNL     1      -6.787   6.792  16.593  1.00  0.00     0.011 C 
HETATM    4  C13 UNL     1      -5.946   7.040  15.328  1.00  0.00    -0.028 C 
HETATM    5  C14 UNL     1      -5.771   8.590  15.230  1.00  0.00     0.016 C 
HETATM    6  C15 UNL     1      -4.557   6.335  15.304  1.00  0.00     0.035 C 
HETATM    7  C16 UNL     1      -3.631   6.809  16.406  1.00  0.00    -0.021 C 
HETATM    8  C17 UNL     1      -2.375   7.198  16.143  1.00  0.00     0.009 C 
HETATM    9  C18 UNL     1      -1.825   7.251  14.718  1.00  0.00     0.102 C 
HETATM   10  O2  UNL     1      -1.585   5.879  14.358  1.00  0.00    -0.304 OA
HETATM   11  C19 UNL     1      -2.765   5.320  13.926  1.00  0.00     0.270 C 
HETATM   12  O3  UNL     1      -2.891   4.137  13.652  1.00  0.00    -0.264 OA
HETATM   13  C20 UNL     1      -3.867   6.390  13.887  1.00  0.00     0.062 C 
HETATM   14  C21 UNL     1      -4.854   6.112  12.720  1.00  0.00     0.022 C 
HETATM   15  C22 UNL     1      -6.264   6.721  12.847  1.00  0.00     0.011 C 
HETATM   16  C23 UNL     1      -6.889   6.432  14.222  1.00  0.00    -0.032 C 
HETATM   17  C24 UNL     1      -7.080   4.882  14.333  1.00  0.00     0.016 C 
HETATM   18  C25 UNL     1      -2.949   7.633  13.731  1.00  0.00     0.045 C 
HETATM   19  C26 UNL     1      -2.450   7.848  12.290  1.00  0.00     0.012 C 
HETATM   20  C27 UNL     1      -1.251   8.779  12.219  1.00  0.00     0.033 C 
HETATM   21  C28 UNL     1      -0.095   8.285  13.091  1.00  0.00     0.136 C 
HETATM   22  C35 UNL     1      -0.529   8.130  14.587  1.00  0.00     0.015 C 
HETATM   23  C36 UNL     1      -0.764   9.546  15.175  1.00  0.00     0.021 C 
HETATM   24  C37 UNL     1       0.656   7.499  15.364  1.00  0.00     0.021 C 
ENDROOT
BRANCH  21  25
HETATM   25  O4  UNL     1       0.395   7.025  12.628  1.00  0.00    -0.352 OA
BRANCH  25  26
HETATM   26  C29 UNL     1       1.757   7.021  12.195  1.00  0.00     0.292 C 
HETATM   27  O5  UNL     1       2.401   8.242  12.544  1.00  0.00    -0.348 OA
HETATM   28  C30 UNL     1       3.824   8.203  12.281  1.00  0.00     0.179 C 
HETATM   29  C32 UNL     1       4.206   7.353  11.052  1.00  0.00     0.180 C 
HETATM   30  C33 UNL     1       3.064   7.325  10.029  1.00  0.00     0.183 C 
HETATM   31  C34 UNL     1       1.724   6.896  10.659  1.00  0.00     0.204 C 
BRANCH  28  32
HETATM   32  C31 UNL     1       4.261   9.661  12.104  1.00  0.00     0.198 C 
BRANCH  32  33
HETATM   33  O6  UNL     1       3.466  10.504  12.937  1.00  0.00    -0.398 OA
HETATM   34  H46 UNL     1       2.551  10.173  12.853  1.00  0.00     0.209 HD
ENDBRANCH  32  33
ENDBRANCH  28  32
BRANCH  29  35
HETATM   35  O7  UNL     1       4.470   6.002  11.471  1.00  0.00    -0.390 OA
HETATM   36  H48 UNL     1       4.548   5.492  10.633  1.00  0.00     0.210 HD
ENDBRANCH  29  35
BRANCH  30  37
HETATM   37  O8  UNL     1       3.417   6.435   8.957  1.00  0.00    -0.390 OA
HETATM   38  H50 UNL     1       2.736   5.726   8.978  1.00  0.00     0.210 HD
ENDBRANCH  30  37
BRANCH  31  39
HETATM   39  O9  UNL     1       1.393   5.552  10.243  1.00  0.00    -0.388 OA
HETATM   40  H52 UNL     1       0.540   5.352  10.686  1.00  0.00     0.210 HD
ENDBRANCH  31  39
ENDBRANCH  25  26
ENDBRANCH  21  25
BRANCH   1  41
HETATM   41  C8  UNL     1      -9.552   6.621  13.882  1.00  0.00    -0.010 C 
HETATM   42  C9  UNL     1      -9.242   5.958  12.530  1.00  0.00     0.010 C 
BRANCH  41  43
HETATM   43  C7  UNL     1     -10.660   7.688  13.682  1.00  0.00     0.031 C 
BRANCH  43  44
HETATM   44  C6  UNL     1     -12.079   7.193  13.711  1.00  0.00    -0.027 C 
HETATM   45  C5  UNL     1     -12.850   7.193  14.815  1.00  0.00     0.006 C 
BRANCH  45  46
HETATM   46  C2  UNL     1     -14.317   6.802  14.867  1.00  0.00     0.070 C 
HETATM   47  C3  UNL     1     -14.881   6.951  16.287  1.00  0.00     0.050 C 
HETATM   48  C4  UNL     1     -14.445   5.332  14.441  1.00  0.00     0.050 C 
BRANCH  46  49
HETATM   49  O1  UNL     1     -15.087   7.553  13.909  1.00  0.00    -0.382 OA
HETATM   50  C1  UNL     1     -15.492   6.851  12.741  1.00  0.00     0.202 C 
ENDBRANCH  46  49
ENDBRANCH  45  46
ENDBRANCH  43  44
ENDBRANCH  41  43
ENDBRANCH   1  41
TORSDOF 12
ENDMDL
