MODEL 1
REMARK minimizedAffinity -6.11352444
REMARK CNNscore 0.573794127
REMARK CNNaffinity 6.11875916
REMARK  5 active torsions:
REMARK  status: ('A' for Active; 'I' for Inactive)
REMARK    1  A    between atoms: C2_2  and  C3_3 
REMARK    2  A    between atoms: C6_6  and  C7_7 
REMARK    3  A    between atoms: C7_7  and  O1_9 
REMARK    4  A    between atoms: C23_29  and  O6_30 
REMARK    5  A    between atoms: C28_36  and  O8_37 
ROOT
HETATM    1  C3  UNL     1     -11.730  14.465   0.923  1.00  0.00     0.008 C 
HETATM    2  C4  UNL     1     -10.953  14.708  -0.375  1.00  0.00    -0.023 C 
HETATM    3  C5  UNL     1     -11.425  15.301  -1.489  1.00  0.00     0.004 C 
HETATM    4  C6  UNL     1     -10.717  15.380  -2.829  1.00  0.00     0.183 C 
HETATM    5  O2  UNL     1     -11.599  14.681  -3.728  1.00  0.00    -0.306 OA
HETATM    6  C9  UNL     1     -11.056  14.040  -4.794  1.00  0.00     0.289 C 
HETATM    7  O3  UNL     1      -9.941  14.224  -5.250  1.00  0.00    -0.260 OA
HETATM    8  C10 UNL     1     -11.968  12.900  -5.166  1.00  0.00     0.010 C 
HETATM    9  C11 UNL     1     -11.258  11.612  -5.444  1.00  0.00     0.054 C 
HETATM   10  C12 UNL     1     -13.292  13.085  -4.965  1.00  0.00     0.004 C 
HETATM   11  C13 UNL     1     -14.382  12.084  -4.636  1.00  0.00     0.147 C 
HETATM   12  C14 UNL     1     -14.287  10.622  -5.095  1.00  0.00     0.233 C 
HETATM   13  O4  UNL     1     -14.022  10.228  -6.218  1.00  0.00    -0.272 OA
HETATM   14  N1  UNL     1     -14.608   9.802  -4.023  1.00  0.00    -0.327 N 
HETATM   15  C15 UNL     1     -14.804  10.488  -2.865  1.00  0.00     0.056 C 
HETATM   16  C16 UNL     1     -15.129  10.012  -1.661  1.00  0.00     0.084 C 
HETATM   17  C17 UNL     1     -15.215  11.010  -0.544  1.00  0.00     0.185 C 
HETATM   18  O5  UNL     1     -15.060  10.633   0.608  1.00  0.00    -0.287 OA
HETATM   19  C18 UNL     1     -15.546  12.430  -0.915  1.00  0.00     0.040 C 
HETATM   20  C19 UNL     1     -15.393  12.812  -2.267  1.00  0.00    -0.001 C 
HETATM   21  C20 UNL     1     -15.888  14.050  -2.699  1.00  0.00     0.021 C 
HETATM   22  C21 UNL     1     -16.451  14.959  -1.790  1.00  0.00    -0.027 C 
HETATM   23  C22 UNL     1     -16.948  16.285  -2.296  1.00  0.00     0.051 C 
HETATM   24  C23 UNL     1     -16.407  14.647  -0.424  1.00  0.00     0.086 C 
HETATM   25  C24 UNL     1     -15.927  13.400   0.012  1.00  0.00     0.058 C 
HETATM   26  C25 UNL     1     -15.520  13.278   1.428  1.00  0.00     0.163 C 
HETATM   27  O7  UNL     1     -16.354  12.952   2.268  1.00  0.00    -0.292 OA
HETATM   28  C26 UNL     1     -14.052  13.589   1.778  1.00  0.00     0.084 C 
HETATM   29  C27 UNL     1     -13.242  14.269   0.658  1.00  0.00     0.016 C 
HETATM   30  C28 UNL     1     -14.484  11.931  -3.088  1.00  0.00     0.143 C 
HETATM   31  H20 UNL     1     -14.667   8.795  -4.128  1.00  0.00     0.168 HD
ENDROOT
BRANCH   4  32
HETATM   32  C7  UNL     1     -10.451  16.820  -3.335  1.00  0.00     0.147 C 
HETATM   33  C8  UNL     1     -11.616  17.782  -3.119  1.00  0.00     0.042 C 
BRANCH  32  34
HETATM   34  O1  UNL     1      -9.288  17.386  -2.723  1.00  0.00    -0.393 OA
HETATM   35  H14 UNL     1      -8.541  16.792  -2.909  1.00  0.00     0.210 HD
ENDBRANCH  32  34
ENDBRANCH   4  32
BRANCH   1  36
HETATM   36  C2  UNL     1     -11.477  15.577   1.956  1.00  0.00     0.004 C 
HETATM   37  C1  UNL     1     -10.834  15.077   3.244  1.00  0.00     0.006 C 
ENDBRANCH   1  36
BRANCH  30  38
HETATM   38  O8  UNL     1     -13.186  12.129  -2.479  1.00  0.00    -0.377 OA
HETATM   39  H31 UNL     1     -12.604  11.396  -2.743  1.00  0.00     0.211 HD
ENDBRANCH  30  38
BRANCH  24  40
HETATM   40  O6  UNL     1     -16.751  15.573   0.524  1.00  0.00    -0.359 OA
HETATM   41  H26 UNL     1     -17.230  16.316   0.127  1.00  0.00     0.217 HD
ENDBRANCH  24  40
TORSDOF 5
ENDMDL
MODEL 2
REMARK minimizedAffinity -6.46428633
REMARK CNNscore 0.512194395
REMARK CNNaffinity 5.98712778
REMARK  5 active torsions:
REMARK  status: ('A' for Active; 'I' for Inactive)
REMARK    1  A    between atoms: C2_2  and  C3_3 
REMARK    2  A    between atoms: C6_6  and  C7_7 
REMARK    3  A    between atoms: C7_7  and  O1_9 
REMARK    4  A    between atoms: C23_29  and  O6_30 
REMARK    5  A    between atoms: C28_36  and  O8_37 
ROOT
HETATM    1  C3  UNL     1      -1.276  18.062  -0.041  1.00  0.00     0.008 C 
HETATM    2  C4  UNL     1      -0.443  17.441  -1.167  1.00  0.00    -0.023 C 
HETATM    3  C5  UNL     1      -0.170  16.132  -1.329  1.00  0.00     0.004 C 
HETATM    4  C6  UNL     1       0.798  15.538  -2.335  1.00  0.00     0.183 C 
HETATM    5  O2  UNL     1       1.784  14.876  -1.519  1.00  0.00    -0.306 OA
HETATM    6  C9  UNL     1       3.051  14.778  -1.992  1.00  0.00     0.289 C 
HETATM    7  O3  UNL     1       3.397  14.925  -3.152  1.00  0.00    -0.260 OA
HETATM    8  C10 UNL     1       3.984  14.698  -0.812  1.00  0.00     0.010 C 
HETATM    9  C11 UNL     1       5.197  15.568  -0.927  1.00  0.00     0.054 C 
HETATM   10  C12 UNL     1       3.519  14.075   0.294  1.00  0.00     0.004 C 
HETATM   11  C13 UNL     1       3.845  14.301   1.757  1.00  0.00     0.147 C 
HETATM   12  C14 UNL     1       5.215  14.839   2.194  1.00  0.00     0.233 C 
HETATM   13  O4  UNL     1       6.306  14.430   1.834  1.00  0.00    -0.272 OA
HETATM   14  N1  UNL     1       5.016  15.850   3.123  1.00  0.00    -0.327 N 
HETATM   15  C15 UNL     1       3.704  16.158   3.304  1.00  0.00     0.056 C 
HETATM   16  C16 UNL     1       3.167  17.068   4.121  1.00  0.00     0.084 C 
HETATM   17  C17 UNL     1       1.677  17.232   4.060  1.00  0.00     0.185 C 
HETATM   18  O5  UNL     1       1.178  18.292   4.408  1.00  0.00    -0.287 OA
HETATM   19  C18 UNL     1       0.873  16.042   3.616  1.00  0.00     0.040 C 
HETATM   20  C19 UNL     1       1.551  14.998   2.948  1.00  0.00    -0.001 C 
HETATM   21  C20 UNL     1       0.893  13.784   2.708  1.00  0.00     0.021 C 
HETATM   22  C21 UNL     1      -0.461  13.619   3.038  1.00  0.00    -0.027 C 
HETATM   23  C22 UNL     1      -1.131  12.306   2.740  1.00  0.00     0.051 C 
HETATM   24  C23 UNL     1      -1.170  14.732   3.511  1.00  0.00     0.086 C 
HETATM   25  C24 UNL     1      -0.511  15.946   3.769  1.00  0.00     0.058 C 
HETATM   26  C25 UNL     1      -1.336  17.170   3.861  1.00  0.00     0.163 C 
HETATM   27  O7  UNL     1      -1.804  17.499   4.947  1.00  0.00    -0.292 OA
HETATM   28  C26 UNL     1      -1.582  17.964   2.564  1.00  0.00     0.084 C 
HETATM   29  C27 UNL     1      -1.177  17.241   1.265  1.00  0.00     0.016 C 
HETATM   30  C28 UNL     1       2.876  15.378   2.335  1.00  0.00     0.143 C 
HETATM   31  H20 UNL     1       5.796  16.301   3.588  1.00  0.00     0.168 HD
ENDROOT
BRANCH   4  32
HETATM   32  C7  UNL     1       0.159  14.542  -3.336  1.00  0.00     0.147 C 
HETATM   33  C8  UNL     1       1.164  13.851  -4.254  1.00  0.00     0.042 C 
BRANCH  32  34
HETATM   34  O1  UNL     1      -0.594  13.530  -2.662  1.00  0.00    -0.393 OA
HETATM   35  H14 UNL     1      -1.265  13.978  -2.118  1.00  0.00     0.210 HD
ENDBRANCH  32  34
ENDBRANCH   4  32
BRANCH   1  36
HETATM   36  C2  UNL     1      -2.739  18.276  -0.465  1.00  0.00     0.004 C 
HETATM   37  C1  UNL     1      -3.571  16.999  -0.448  1.00  0.00     0.006 C 
ENDBRANCH   1  36
BRANCH  30  38
HETATM   38  O8  UNL     1       2.508  16.325   1.303  1.00  0.00    -0.377 OA
HETATM   39  H31 UNL     1       3.297  16.836   1.057  1.00  0.00     0.211 HD
ENDBRANCH  30  38
BRANCH  24  40
HETATM   40  O6  UNL     1      -2.531  14.693   3.656  1.00  0.00    -0.359 OA
HETATM   41  H26 UNL     1      -2.858  13.781   3.630  1.00  0.00     0.217 HD
ENDBRANCH  24  40
TORSDOF 5
ENDMDL
MODEL 3
REMARK minimizedAffinity -5.81888676
REMARK CNNscore 0.35446924
REMARK CNNaffinity 5.27625322
REMARK  5 active torsions:
REMARK  status: ('A' for Active; 'I' for Inactive)
REMARK    1  A    between atoms: C2_2  and  C3_3 
REMARK    2  A    between atoms: C6_6  and  C7_7 
REMARK    3  A    between atoms: C7_7  and  O1_9 
REMARK    4  A    between atoms: C23_29  and  O6_30 
REMARK    5  A    between atoms: C28_36  and  O8_37 
ROOT
HETATM    1  C3  UNL     1     -21.552  -2.184  13.633  1.00  0.00     0.008 C 
HETATM    2  C4  UNL     1     -21.200  -2.995  14.884  1.00  0.00    -0.023 C 
HETATM    3  C5  UNL     1     -20.607  -2.526  15.999  1.00  0.00     0.004 C 
HETATM    4  C6  UNL     1     -20.098  -3.360  17.160  1.00  0.00     0.183 C 
HETATM    5  O2  UNL     1     -18.684  -3.085  17.191  1.00  0.00    -0.306 OA
HETATM    6  C9  UNL     1     -17.850  -4.052  17.648  1.00  0.00     0.289 C 
HETATM    7  O3  UNL     1     -18.172  -5.024  18.310  1.00  0.00    -0.260 OA
HETATM    8  C10 UNL     1     -16.505  -3.852  16.999  1.00  0.00     0.010 C 
HETATM    9  C11 UNL     1     -15.877  -5.111  16.486  1.00  0.00     0.054 C 
HETATM   10  C12 UNL     1     -16.141  -2.579  16.727  1.00  0.00     0.004 C 
HETATM   11  C13 UNL     1     -15.258  -2.027  15.625  1.00  0.00     0.147 C 
HETATM   12  C14 UNL     1     -14.126  -2.866  15.015  1.00  0.00     0.233 C 
HETATM   13  O4  UNL     1     -13.273  -3.490  15.624  1.00  0.00    -0.272 OA
HETATM   14  N1  UNL     1     -14.192  -2.757  13.633  1.00  0.00    -0.327 N 
HETATM   15  C15 UNL     1     -15.273  -2.054  13.204  1.00  0.00     0.056 C 
HETATM   16  C16 UNL     1     -15.631  -1.760  11.951  1.00  0.00     0.084 C 
HETATM   17  C17 UNL     1     -16.923  -1.016  11.778  1.00  0.00     0.185 C 
HETATM   18  O5  UNL     1     -17.525  -1.104  10.718  1.00  0.00    -0.287 OA
HETATM   19  C18 UNL     1     -17.376  -0.150  12.921  1.00  0.00     0.040 C 
HETATM   20  C19 UNL     1     -16.786  -0.365  14.187  1.00  0.00    -0.001 C 
HETATM   21  C20 UNL     1     -17.017   0.549  15.225  1.00  0.00     0.021 C 
HETATM   22  C21 UNL     1     -17.899   1.627  15.055  1.00  0.00    -0.027 C 
HETATM   23  C22 UNL     1     -18.131   2.569  16.204  1.00  0.00     0.051 C 
HETATM   24  C23 UNL     1     -18.630   1.706  13.861  1.00  0.00     0.086 C 
HETATM   25  C24 UNL     1     -18.391   0.801  12.812  1.00  0.00     0.058 C 
HETATM   26  C25 UNL     1     -19.435   0.661  11.775  1.00  0.00     0.163 C 
HETATM   27  O7  UNL     1     -19.410   1.396  10.792  1.00  0.00    -0.292 OA
HETATM   28  C26 UNL     1     -20.525  -0.405  11.999  1.00  0.00     0.084 C 
HETATM   29  C27 UNL     1     -20.567  -1.012  13.414  1.00  0.00     0.016 C 
HETATM   30  C28 UNL     1     -16.137  -1.714  14.375  1.00  0.00     0.143 C 
HETATM   31  H20 UNL     1     -13.494  -3.187  13.036  1.00  0.00     0.168 HD
ENDROOT
BRANCH   4  32
HETATM   32  C7  UNL     1     -20.749  -3.029  18.527  1.00  0.00     0.147 C 
HETATM   33  C8  UNL     1     -20.686  -1.552  18.905  1.00  0.00     0.042 C 
BRANCH  32  34
HETATM   34  O1  UNL     1     -22.118  -3.441  18.570  1.00  0.00    -0.393 OA
HETATM   35  H14 UNL     1     -22.144  -4.394  18.377  1.00  0.00     0.210 HD
ENDBRANCH  32  34
ENDBRANCH   4  32
BRANCH   1  36
HETATM   36  C2  UNL     1     -23.012  -1.699  13.658  1.00  0.00     0.004 C 
HETATM   37  C1  UNL     1     -23.215  -0.344  12.991  1.00  0.00     0.006 C 
ENDBRANCH   1  36
BRANCH  30  38
HETATM   38  O8  UNL     1     -17.251  -2.635  14.304  1.00  0.00    -0.377 OA
HETATM   39  H31 UNL     1     -16.906  -3.526  14.123  1.00  0.00     0.211 HD
ENDBRANCH  30  38
BRANCH  24  40
HETATM   40  O6  UNL     1     -19.649   2.608  13.715  1.00  0.00    -0.359 OA
HETATM   41  H26 UNL     1     -19.612   3.289  14.404  1.00  0.00     0.217 HD
ENDBRANCH  24  40
TORSDOF 5
ENDMDL
MODEL 4
REMARK minimizedAffinity -6.82578468
REMARK CNNscore 0.306770682
REMARK CNNaffinity 5.29323816
REMARK  5 active torsions:
REMARK  status: ('A' for Active; 'I' for Inactive)
REMARK    1  A    between atoms: C2_2  and  C3_3 
REMARK    2  A    between atoms: C6_6  and  C7_7 
REMARK    3  A    between atoms: C7_7  and  O1_9 
REMARK    4  A    between atoms: C23_29  and  O6_30 
REMARK    5  A    between atoms: C28_36  and  O8_37 
ROOT
HETATM    1  C3  UNL     1      13.204  -5.667   7.876  1.00  0.00     0.008 C 
HETATM    2  C4  UNL     1      14.588  -5.843   8.510  1.00  0.00    -0.023 C 
HETATM    3  C5  UNL     1      15.613  -4.972   8.442  1.00  0.00     0.004 C 
HETATM    4  C6  UNL     1      17.033  -5.224   8.914  1.00  0.00     0.183 C 
HETATM    5  O2  UNL     1      17.824  -5.097   7.716  1.00  0.00    -0.306 OA
HETATM    6  C9  UNL     1      18.968  -5.819   7.621  1.00  0.00     0.289 C 
HETATM    7  O3  UNL     1      19.564  -6.345   8.545  1.00  0.00    -0.260 OA
HETATM    8  C10 UNL     1      19.244  -6.064   6.160  1.00  0.00     0.010 C 
HETATM    9  C11 UNL     1      19.647  -7.469   5.839  1.00  0.00     0.054 C 
HETATM   10  C12 UNL     1      18.863  -5.097   5.296  1.00  0.00     0.004 C 
HETATM   11  C13 UNL     1      18.417  -5.196   3.850  1.00  0.00     0.147 C 
HETATM   12  C14 UNL     1      18.921  -6.321   2.936  1.00  0.00     0.233 C 
HETATM   13  O4  UNL     1      20.079  -6.673   2.784  1.00  0.00    -0.272 OA
HETATM   14  N1  UNL     1      17.837  -6.853   2.252  1.00  0.00    -0.327 N 
HETATM   15  C15 UNL     1      16.646  -6.328   2.648  1.00  0.00     0.056 C 
HETATM   16  C16 UNL     1      15.421  -6.609   2.197  1.00  0.00     0.084 C 
HETATM   17  C17 UNL     1      14.278  -5.912   2.874  1.00  0.00     0.185 C 
HETATM   18  O5  UNL     1      13.168  -6.420   2.845  1.00  0.00    -0.287 OA
HETATM   19  C18 UNL     1      14.566  -4.581   3.512  1.00  0.00     0.040 C 
HETATM   20  C19 UNL     1      15.916  -4.245   3.759  1.00  0.00    -0.001 C 
HETATM   21  C20 UNL     1      16.247  -2.940   4.151  1.00  0.00     0.021 C 
HETATM   22  C21 UNL     1      15.249  -1.984   4.392  1.00  0.00    -0.027 C 
HETATM   23  C22 UNL     1      15.650  -0.603   4.831  1.00  0.00     0.051 C 
HETATM   24  C23 UNL     1      13.909  -2.394   4.339  1.00  0.00     0.086 C 
HETATM   25  C24 UNL     1      13.572  -3.696   3.932  1.00  0.00     0.058 C 
HETATM   26  C25 UNL     1      12.227  -4.200   4.282  1.00  0.00     0.163 C 
HETATM   27  O7  UNL     1      11.291  -4.003   3.512  1.00  0.00    -0.292 OA
HETATM   28  C26 UNL     1      12.069  -4.939   5.625  1.00  0.00     0.084 C 
HETATM   29  C27 UNL     1      13.270  -4.822   6.582  1.00  0.00     0.016 C 
HETATM   30  C28 UNL     1      16.873  -5.410   3.806  1.00  0.00     0.143 C 
HETATM   31  H20 UNL     1      17.958  -7.571   1.546  1.00  0.00     0.168 HD
ENDROOT
BRANCH   4  32
HETATM   32  C7  UNL     1      17.534  -4.245  10.006  1.00  0.00     0.147 C 
HETATM   33  C8  UNL     1      17.884  -4.916  11.331  1.00  0.00     0.042 C 
BRANCH  32  34
HETATM   34  O1  UNL     1      18.679  -3.508   9.567  1.00  0.00    -0.393 OA
HETATM   35  H14 UNL     1      18.431  -3.043   8.748  1.00  0.00     0.210 HD
ENDBRANCH  32  34
ENDBRANCH   4  32
BRANCH   1  36
HETATM   36  C2  UNL     1      12.187  -5.092   8.877  1.00  0.00     0.004 C 
HETATM   37  C1  UNL     1      11.516  -6.154   9.740  1.00  0.00     0.006 C 
ENDBRANCH   1  36
BRANCH  30  38
HETATM   38  O8  UNL     1      16.439  -6.155   4.969  1.00  0.00    -0.377 OA
HETATM   39  H31 UNL     1      16.796  -7.057   4.911  1.00  0.00     0.211 HD
ENDBRANCH  30  38
BRANCH  24  40
HETATM   40  O6  UNL     1      12.901  -1.569   4.761  1.00  0.00    -0.359 OA
HETATM   41  H26 UNL     1      13.212  -0.655   4.845  1.00  0.00     0.217 HD
ENDBRANCH  24  40
TORSDOF 5
ENDMDL
MODEL 5
REMARK minimizedAffinity -6.64888859
REMARK CNNscore 0.283234775
REMARK CNNaffinity 5.55171442
REMARK  5 active torsions:
REMARK  status: ('A' for Active; 'I' for Inactive)
REMARK    1  A    between atoms: C2_2  and  C3_3 
REMARK    2  A    between atoms: C6_6  and  C7_7 
REMARK    3  A    between atoms: C7_7  and  O1_9 
REMARK    4  A    between atoms: C23_29  and  O6_30 
REMARK    5  A    between atoms: C28_36  and  O8_37 
ROOT
HETATM    1  C3  UNL     1     -18.120  -7.040  30.445  1.00  0.00     0.008 C 
HETATM    2  C4  UNL     1     -17.723  -8.265  31.275  1.00  0.00    -0.023 C 
HETATM    3  C5  UNL     1     -16.547  -8.457  31.904  1.00  0.00     0.004 C 
HETATM    4  C6  UNL     1     -16.089  -9.739  32.573  1.00  0.00     0.183 C 
HETATM    5  O2  UNL     1     -14.904 -10.108  31.840  1.00  0.00    -0.306 OA
HETATM    6  C9  UNL     1     -14.596 -11.425  31.737  1.00  0.00     0.289 C 
HETATM    7  O3  UNL     1     -15.037 -12.323  32.433  1.00  0.00    -0.260 OA
HETATM    8  C10 UNL     1     -13.806 -11.620  30.469  1.00  0.00     0.010 C 
HETATM    9  C11 UNL     1     -14.234 -12.801  29.654  1.00  0.00     0.054 C 
HETATM   10  C12 UNL     1     -13.003 -10.602  30.086  1.00  0.00     0.004 C 
HETATM   11  C13 UNL     1     -12.569 -10.163  28.702  1.00  0.00     0.147 C 
HETATM   12  C14 UNL     1     -12.456 -11.168  27.546  1.00  0.00     0.233 C 
HETATM   13  O4  UNL     1     -11.887 -12.246  27.572  1.00  0.00    -0.272 OA
HETATM   14  N1  UNL     1     -13.069 -10.622  26.427  1.00  0.00    -0.327 N 
HETATM   15  C15 UNL     1     -13.682  -9.435  26.678  1.00  0.00     0.056 C 
HETATM   16  C16 UNL     1     -14.352  -8.649  25.832  1.00  0.00     0.084 C 
HETATM   17  C17 UNL     1     -14.983  -7.418  26.414  1.00  0.00     0.185 C 
HETATM   18  O5  UNL     1     -15.942  -6.914  25.850  1.00  0.00    -0.287 OA
HETATM   19  C18 UNL     1     -14.348  -6.840  27.650  1.00  0.00     0.040 C 
HETATM   20  C19 UNL     1     -13.463  -7.660  28.383  1.00  0.00    -0.001 C 
HETATM   21  C20 UNL     1     -12.689  -7.102  29.411  1.00  0.00     0.021 C 
HETATM   22  C21 UNL     1     -12.846  -5.759  29.785  1.00  0.00    -0.027 C 
HETATM   23  C22 UNL     1     -12.009  -5.210  30.907  1.00  0.00     0.051 C 
HETATM   24  C23 UNL     1     -13.873  -5.017  29.183  1.00  0.00     0.086 C 
HETATM   25  C24 UNL     1     -14.640  -5.567  28.142  1.00  0.00     0.058 C 
HETATM   26  C25 UNL     1     -15.938  -4.930  27.835  1.00  0.00     0.163 C 
HETATM   27  O7  UNL     1     -15.980  -4.010  27.022  1.00  0.00    -0.292 OA
HETATM   28  C26 UNL     1     -17.184  -5.451  28.578  1.00  0.00     0.084 C 
HETATM   29  C27 UNL     1     -16.893  -6.386  29.767  1.00  0.00     0.016 C 
HETATM   30  C28 UNL     1     -13.607  -9.142  28.142  1.00  0.00     0.143 C 
HETATM   31  H20 UNL     1     -13.053 -11.099  25.532  1.00  0.00     0.168 HD
ENDROOT
BRANCH   4  32
HETATM   32  C7  UNL     1     -15.776  -9.604  34.085  1.00  0.00     0.147 C 
HETATM   33  C8  UNL     1     -14.534  -8.773  34.391  1.00  0.00     0.042 C 
BRANCH  32  34
HETATM   34  O1  UNL     1     -16.877  -9.037  34.801  1.00  0.00    -0.393 OA
HETATM   35  H14 UNL     1     -17.653  -9.601  34.640  1.00  0.00     0.210 HD
ENDBRANCH  32  34
ENDBRANCH   4  32
BRANCH   1  36
HETATM   36  C2  UNL     1     -18.917  -6.021  31.277  1.00  0.00     0.004 C 
HETATM   37  C1  UNL     1     -18.040  -5.112  32.130  1.00  0.00     0.006 C 
ENDBRANCH   1  36
BRANCH  30  38
HETATM   38  O8  UNL     1     -14.927  -9.439  28.656  1.00  0.00    -0.377 OA
HETATM   39  H31 UNL     1     -15.220 -10.289  28.286  1.00  0.00     0.211 HD
ENDBRANCH  30  38
BRANCH  24  40
HETATM   40  O6  UNL     1     -14.210  -3.774  29.646  1.00  0.00    -0.359 OA
HETATM   41  H26 UNL     1     -13.520  -3.420  30.228  1.00  0.00     0.217 HD
ENDBRANCH  24  40
TORSDOF 5
ENDMDL
MODEL 6
REMARK minimizedAffinity -6.97799349
REMARK CNNscore 0.280690759
REMARK CNNaffinity 5.82776833
REMARK  5 active torsions:
REMARK  status: ('A' for Active; 'I' for Inactive)
REMARK    1  A    between atoms: C2_2  and  C3_3 
REMARK    2  A    between atoms: C6_6  and  C7_7 
REMARK    3  A    between atoms: C7_7  and  O1_9 
REMARK    4  A    between atoms: C23_29  and  O6_30 
REMARK    5  A    between atoms: C28_36  and  O8_37 
ROOT
HETATM    1  C3  UNL     1     -12.145  13.631  -3.705  1.00  0.00     0.008 C 
HETATM    2  C4  UNL     1     -12.021  14.542  -2.481  1.00  0.00    -0.023 C 
HETATM    3  C5  UNL     1     -11.957  14.147  -1.194  1.00  0.00     0.004 C 
HETATM    4  C6  UNL     1     -12.015  15.051   0.023  1.00  0.00     0.183 C 
HETATM    5  O2  UNL     1     -13.193  14.610   0.726  1.00  0.00    -0.306 OA
HETATM    6  C9  UNL     1     -13.877  15.517   1.467  1.00  0.00     0.289 C 
HETATM    7  O3  UNL     1     -13.458  16.596   1.848  1.00  0.00    -0.260 OA
HETATM    8  C10 UNL     1     -15.316  15.074   1.533  1.00  0.00     0.010 C 
HETATM    9  C11 UNL     1     -16.308  16.172   1.306  1.00  0.00     0.054 C 
HETATM   10  C12 UNL     1     -15.546  13.742   1.532  1.00  0.00     0.004 C 
HETATM   11  C13 UNL     1     -16.726  12.952   1.001  1.00  0.00     0.147 C 
HETATM   12  C14 UNL     1     -18.134  13.562   0.947  1.00  0.00     0.233 C 
HETATM   13  O4  UNL     1     -18.708  14.148   1.849  1.00  0.00    -0.272 OA
HETATM   14  N1  UNL     1     -18.684  13.290  -0.297  1.00  0.00    -0.327 N 
HETATM   15  C15 UNL     1     -17.815  12.677  -1.144  1.00  0.00     0.056 C 
HETATM   16  C16 UNL     1     -18.020  12.274  -2.400  1.00  0.00     0.084 C 
HETATM   17  C17 UNL     1     -16.843  11.679  -3.117  1.00  0.00     0.185 C 
HETATM   18  O5  UNL     1     -16.811  11.707  -4.338  1.00  0.00    -0.287 OA
HETATM   19  C18 UNL     1     -15.784  11.026  -2.273  1.00  0.00     0.040 C 
HETATM   20  C19 UNL     1     -15.762  11.323  -0.892  1.00  0.00    -0.001 C 
HETATM   21  C20 UNL     1     -14.938  10.582  -0.034  1.00  0.00     0.021 C 
HETATM   22  C21 UNL     1     -14.062   9.608  -0.538  1.00  0.00    -0.027 C 
HETATM   23  C22 UNL     1     -13.180   8.853   0.418  1.00  0.00     0.051 C 
HETATM   24  C23 UNL     1     -13.950   9.470  -1.929  1.00  0.00     0.086 C 
HETATM   25  C24 UNL     1     -14.786  10.200  -2.792  1.00  0.00     0.058 C 
HETATM   26  C25 UNL     1     -14.365  10.337  -4.203  1.00  0.00     0.163 C 
HETATM   27  O7  UNL     1     -14.710   9.487  -5.019  1.00  0.00    -0.292 OA
HETATM   28  C26 UNL     1     -13.487  11.548  -4.572  1.00  0.00     0.084 C 
HETATM   29  C27 UNL     1     -12.910  12.328  -3.375  1.00  0.00     0.016 C 
HETATM   30  C28 UNL     1     -16.470  12.595  -0.495  1.00  0.00     0.143 C 
HETATM   31  H20 UNL     1     -19.637  13.553  -0.522  1.00  0.00     0.168 HD
ENDROOT
BRANCH   4  32
HETATM   32  C7  UNL     1     -10.770  14.977   0.943  1.00  0.00     0.147 C 
HETATM   33  C8  UNL     1     -10.823  13.852   1.973  1.00  0.00     0.042 C 
BRANCH  32  34
HETATM   34  O1  UNL     1      -9.565  14.829   0.187  1.00  0.00    -0.393 OA
HETATM   35  H14 UNL     1      -9.514  15.577  -0.433  1.00  0.00     0.210 HD
ENDBRANCH  32  34
ENDBRANCH   4  32
BRANCH   1  36
HETATM   36  C2  UNL     1     -10.774  13.336  -4.339  1.00  0.00     0.004 C 
HETATM   37  C1  UNL     1     -10.722  12.010  -5.088  1.00  0.00     0.006 C 
ENDBRANCH   1  36
BRANCH  30  38
HETATM   38  O8  UNL     1     -15.681  13.630  -1.128  1.00  0.00    -0.377 OA
HETATM   39  H31 UNL     1     -16.214  14.442  -1.174  1.00  0.00     0.211 HD
ENDBRANCH  30  38
BRANCH  24  40
HETATM   40  O6  UNL     1     -12.973   8.689  -2.485  1.00  0.00    -0.359 OA
HETATM   41  H26 UNL     1     -12.579   8.101  -1.823  1.00  0.00     0.217 HD
ENDBRANCH  24  40
TORSDOF 5
ENDMDL
MODEL 7
REMARK minimizedAffinity -7.75663519
REMARK CNNscore 0.265791535
REMARK CNNaffinity 5.79480696
REMARK  5 active torsions:
REMARK  status: ('A' for Active; 'I' for Inactive)
REMARK    1  A    between atoms: C2_2  and  C3_3 
REMARK    2  A    between atoms: C6_6  and  C7_7 
REMARK    3  A    between atoms: C7_7  and  O1_9 
REMARK    4  A    between atoms: C23_29  and  O6_30 
REMARK    5  A    between atoms: C28_36  and  O8_37 
ROOT
HETATM    1  C3  UNL     1       0.198   3.547  11.973  1.00  0.00     0.008 C 
HETATM    2  C4  UNL     1      -1.088   3.840  12.751  1.00  0.00    -0.023 C 
HETATM    3  C5  UNL     1      -1.997   4.792  12.461  1.00  0.00     0.004 C 
HETATM    4  C6  UNL     1      -3.173   5.199  13.329  1.00  0.00     0.183 C 
HETATM    5  O2  UNL     1      -2.919   6.586  13.628  1.00  0.00    -0.306 OA
HETATM    6  C9  UNL     1      -3.377   7.085  14.804  1.00  0.00     0.289 C 
HETATM    7  O3  UNL     1      -4.230   6.581  15.514  1.00  0.00    -0.260 OA
HETATM    8  C10 UNL     1      -2.485   8.233  15.201  1.00  0.00     0.010 C 
HETATM    9  C11 UNL     1      -2.081   8.227  16.642  1.00  0.00     0.054 C 
HETATM   10  C12 UNL     1      -1.955   8.970  14.199  1.00  0.00     0.004 C 
HETATM   11  C13 UNL     1      -0.646   9.730  14.129  1.00  0.00     0.147 C 
HETATM   12  C14 UNL     1       0.005  10.314  15.391  1.00  0.00     0.233 C 
HETATM   13  O4  UNL     1      -0.542  10.989  16.247  1.00  0.00    -0.272 OA
HETATM   14  N1  UNL     1       1.355   9.992  15.379  1.00  0.00    -0.327 N 
HETATM   15  C15 UNL     1       1.702   9.179  14.347  1.00  0.00     0.056 C 
HETATM   16  C16 UNL     1       2.906   8.690  14.040  1.00  0.00     0.084 C 
HETATM   17  C17 UNL     1       2.974   7.757  12.867  1.00  0.00     0.185 C 
HETATM   18  O5  UNL     1       3.888   6.949  12.799  1.00  0.00    -0.287 OA
HETATM   19  C18 UNL     1       1.924   7.914  11.802  1.00  0.00     0.040 C 
HETATM   20  C19 UNL     1       0.759   8.644  12.126  1.00  0.00    -0.001 C 
HETATM   21  C20 UNL     1      -0.144   8.998  11.113  1.00  0.00     0.021 C 
HETATM   22  C21 UNL     1       0.044   8.558   9.793  1.00  0.00    -0.027 C 
HETATM   23  C22 UNL     1      -0.962   8.944   8.745  1.00  0.00     0.051 C 
HETATM   24  C23 UNL     1       1.094   7.666   9.533  1.00  0.00     0.086 C 
HETATM   25  C24 UNL     1       2.010   7.321  10.542  1.00  0.00     0.058 C 
HETATM   26  C25 UNL     1       2.819   6.099  10.347  1.00  0.00     0.163 C 
HETATM   27  O7  UNL     1       3.896   6.177   9.763  1.00  0.00    -0.292 OA
HETATM   28  C26 UNL     1       2.246   4.771  10.879  1.00  0.00     0.084 C 
HETATM   29  C27 UNL     1       0.765   4.820  11.301  1.00  0.00     0.016 C 
HETATM   30  C28 UNL     1       0.470   8.778  13.600  1.00  0.00     0.143 C 
HETATM   31  H20 UNL     1       1.986  10.335  16.096  1.00  0.00     0.168 HD
ENDROOT
BRANCH   4  32
HETATM   32  C7  UNL     1      -4.560   5.030  12.659  1.00  0.00     0.147 C 
HETATM   33  C8  UNL     1      -4.686   3.776  11.798  1.00  0.00     0.042 C 
BRANCH  32  34
HETATM   34  O1  UNL     1      -5.613   5.011  13.627  1.00  0.00    -0.393 OA
HETATM   35  H14 UNL     1      -5.556   5.837  14.138  1.00  0.00     0.210 HD
ENDBRANCH  32  34
ENDBRANCH   4  32
BRANCH   1  36
HETATM   36  C2  UNL     1       0.003   2.410  10.954  1.00  0.00     0.004 C 
HETATM   37  C1  UNL     1      -1.362   1.737  11.047  1.00  0.00     0.006 C 
ENDBRANCH   1  36
BRANCH  30  38
HETATM   38  O8  UNL     1       0.203   7.417  14.015  1.00  0.00    -0.377 OA
HETATM   39  H31 UNL     1       0.296   7.363  14.981  1.00  0.00     0.211 HD
ENDBRANCH  30  38
BRANCH  24  40
HETATM   40  O6  UNL     1       1.206   7.043   8.319  1.00  0.00    -0.359 OA
HETATM   41  H26 UNL     1       0.651   7.476   7.653  1.00  0.00     0.217 HD
ENDBRANCH  24  40
TORSDOF 5
ENDMDL
MODEL 8
REMARK minimizedAffinity -7.50152111
REMARK CNNscore 0.253639162
REMARK CNNaffinity 5.5125618
REMARK  5 active torsions:
REMARK  status: ('A' for Active; 'I' for Inactive)
REMARK    1  A    between atoms: C2_2  and  C3_3 
REMARK    2  A    between atoms: C6_6  and  C7_7 
REMARK    3  A    between atoms: C7_7  and  O1_9 
REMARK    4  A    between atoms: C23_29  and  O6_30 
REMARK    5  A    between atoms: C28_36  and  O8_37 
ROOT
HETATM    1  C3  UNL     1       5.854  11.996  18.117  1.00  0.00     0.008 C 
HETATM    2  C4  UNL     1       6.878  12.752  18.968  1.00  0.00    -0.023 C 
HETATM    3  C5  UNL     1       7.088  12.596  20.290  1.00  0.00     0.004 C 
HETATM    4  C6  UNL     1       7.973  13.466  21.164  1.00  0.00     0.183 C 
HETATM    5  O2  UNL     1       7.062  14.021  22.134  1.00  0.00    -0.306 OA
HETATM    6  C9  UNL     1       7.340  15.244  22.651  1.00  0.00     0.289 C 
HETATM    7  O3  UNL     1       8.418  15.811  22.614  1.00  0.00    -0.260 OA
HETATM    8  C10 UNL     1       6.038  15.883  23.061  1.00  0.00     0.010 C 
HETATM    9  C11 UNL     1       5.903  17.317  22.655  1.00  0.00     0.054 C 
HETATM   10  C12 UNL     1       5.065  15.056  23.504  1.00  0.00     0.004 C 
HETATM   11  C13 UNL     1       3.557  15.186  23.422  1.00  0.00     0.147 C 
HETATM   12  C14 UNL     1       2.876  16.562  23.390  1.00  0.00     0.233 C 
HETATM   13  O4  UNL     1       3.090  17.498  24.141  1.00  0.00    -0.272 OA
HETATM   14  N1  UNL     1       1.919  16.557  22.384  1.00  0.00    -0.327 N 
HETATM   15  C15 UNL     1       1.922  15.413  21.650  1.00  0.00     0.056 C 
HETATM   16  C16 UNL     1       1.135  15.080  20.624  1.00  0.00     0.084 C 
HETATM   17  C17 UNL     1       1.414  13.763  19.961  1.00  0.00     0.185 C 
HETATM   18  O5  UNL     1       1.073  13.595  18.800  1.00  0.00    -0.287 OA
HETATM   19  C18 UNL     1       2.060  12.695  20.800  1.00  0.00     0.040 C 
HETATM   20  C19 UNL     1       2.687  13.089  22.003  1.00  0.00    -0.001 C 
HETATM   21  C20 UNL     1       3.113  12.115  22.917  1.00  0.00     0.021 C 
HETATM   22  C21 UNL     1       3.008  10.748  22.615  1.00  0.00    -0.027 C 
HETATM   23  C22 UNL     1       3.498   9.739  23.617  1.00  0.00     0.051 C 
HETATM   24  C23 UNL     1       2.573  10.382  21.334  1.00  0.00     0.086 C 
HETATM   25  C24 UNL     1       2.131  11.355  20.421  1.00  0.00     0.058 C 
HETATM   26  C25 UNL     1       2.081  10.982  18.991  1.00  0.00     0.163 C 
HETATM   27  O7  UNL     1       1.060  10.474  18.537  1.00  0.00    -0.292 OA
HETATM   28  C26 UNL     1       3.341  11.239  18.142  1.00  0.00     0.084 C 
HETATM   29  C27 UNL     1       4.609  11.592  18.942  1.00  0.00     0.016 C 
HETATM   30  C28 UNL     1       3.061  14.549  22.088  1.00  0.00     0.143 C 
HETATM   31  H20 UNL     1       1.309  17.352  22.233  1.00  0.00     0.168 HD
ENDROOT
BRANCH   4  32
HETATM   32  C7  UNL     1       9.128  12.712  21.869  1.00  0.00     0.147 C 
HETATM   33  C8  UNL     1       8.724  12.037  23.177  1.00  0.00     0.042 C 
BRANCH  32  34
HETATM   34  O1  UNL     1       9.704  11.718  21.017  1.00  0.00    -0.393 OA
HETATM   35  H14 UNL     1      10.004  12.165  20.206  1.00  0.00     0.210 HD
ENDBRANCH  32  34
ENDBRANCH   4  32
BRANCH   1  36
HETATM   36  C2  UNL     1       6.483  10.782  17.411  1.00  0.00     0.004 C 
HETATM   37  C1  UNL     1       7.957  10.582  17.742  1.00  0.00     0.006 C 
ENDBRANCH   1  36
BRANCH  30  38
HETATM   38  O8  UNL     1       4.067  14.698  21.059  1.00  0.00    -0.377 OA
HETATM   39  H31 UNL     1       4.151  15.643  20.843  1.00  0.00     0.211 HD
ENDBRANCH  30  38
BRANCH  24  40
HETATM   40  O6  UNL     1       2.643   9.082  20.909  1.00  0.00    -0.359 OA
HETATM   41  H26 UNL     1       2.784   8.479  21.655  1.00  0.00     0.217 HD
ENDBRANCH  24  40
TORSDOF 5
ENDMDL
MODEL 9
REMARK minimizedAffinity -6.15019798
REMARK CNNscore 0.253109723
REMARK CNNaffinity 5.19470787
REMARK  5 active torsions:
REMARK  status: ('A' for Active; 'I' for Inactive)
REMARK    1  A    between atoms: C2_2  and  C3_3 
REMARK    2  A    between atoms: C6_6  and  C7_7 
REMARK    3  A    between atoms: C7_7  and  O1_9 
REMARK    4  A    between atoms: C23_29  and  O6_30 
REMARK    5  A    between atoms: C28_36  and  O8_37 
ROOT
HETATM    1  C3  UNL     1     -11.739  -7.978   8.213  1.00  0.00     0.008 C 
HETATM    2  C4  UNL     1     -11.475  -8.583   9.595  1.00  0.00    -0.023 C 
HETATM    3  C5  UNL     1     -12.406  -9.006  10.472  1.00  0.00     0.004 C 
HETATM    4  C6  UNL     1     -12.155  -9.437  11.906  1.00  0.00     0.183 C 
HETATM    5  O2  UNL     1     -12.921  -8.499  12.688  1.00  0.00    -0.306 OA
HETATM    6  C9  UNL     1     -12.480  -8.189  13.933  1.00  0.00     0.289 C 
HETATM    7  O3  UNL     1     -11.672  -8.826  14.587  1.00  0.00    -0.260 OA
HETATM    8  C10 UNL     1     -12.972  -6.806  14.270  1.00  0.00     0.010 C 
HETATM    9  C11 UNL     1     -11.938  -5.922  14.894  1.00  0.00     0.054 C 
HETATM   10  C12 UNL     1     -14.168  -6.440  13.757  1.00  0.00     0.004 C 
HETATM   11  C13 UNL     1     -14.686  -5.073  13.358  1.00  0.00     0.147 C 
HETATM   12  C14 UNL     1     -14.184  -3.797  14.049  1.00  0.00     0.233 C 
HETATM   13  O4  UNL     1     -14.097  -3.606  15.250  1.00  0.00    -0.272 OA
HETATM   14  N1  UNL     1     -13.888  -2.855  13.074  1.00  0.00    -0.327 N 
HETATM   15  C15 UNL     1     -14.011  -3.339  11.809  1.00  0.00     0.056 C 
HETATM   16  C16 UNL     1     -13.810  -2.704  10.652  1.00  0.00     0.084 C 
HETATM   17  C17 UNL     1     -13.961  -3.519   9.402  1.00  0.00     0.185 C 
HETATM   18  O5  UNL     1     -13.382  -3.167   8.385  1.00  0.00    -0.287 OA
HETATM   19  C18 UNL     1     -14.876  -4.712   9.465  1.00  0.00     0.040 C 
HETATM   20  C19 UNL     1     -15.235  -5.201  10.741  1.00  0.00    -0.001 C 
HETATM   21  C20 UNL     1     -16.245  -6.167  10.856  1.00  0.00     0.021 C 
HETATM   22  C21 UNL     1     -16.844  -6.724   9.715  1.00  0.00    -0.027 C 
HETATM   23  C22 UNL     1     -17.907  -7.773   9.887  1.00  0.00     0.051 C 
HETATM   24  C23 UNL     1     -16.331  -6.375   8.458  1.00  0.00     0.086 C 
HETATM   25  C24 UNL     1     -15.330  -5.396   8.338  1.00  0.00     0.058 C 
HETATM   26  C25 UNL     1     -14.550  -5.362   7.082  1.00  0.00     0.163 C 
HETATM   27  O7  UNL     1     -14.954  -4.684   6.141  1.00  0.00    -0.292 OA
HETATM   28  C26 UNL     1     -13.263  -6.207   7.017  1.00  0.00     0.084 C 
HETATM   29  C27 UNL     1     -13.084  -7.216   8.168  1.00  0.00     0.016 C 
HETATM   30  C28 UNL     1     -14.315  -4.801  11.868  1.00  0.00     0.143 C 
HETATM   31  H20 UNL     1     -13.597  -1.915  13.319  1.00  0.00     0.168 HD
ENDROOT
BRANCH   4  32
HETATM   32  C7  UNL     1     -12.580 -10.892  12.227  1.00  0.00     0.147 C 
HETATM   33  C8  UNL     1     -14.078 -11.147  12.093  1.00  0.00     0.042 C 
BRANCH  32  34
HETATM   34  O1  UNL     1     -11.893 -11.835  11.399  1.00  0.00    -0.393 OA
HETATM   35  H14 UNL     1     -10.938 -11.698  11.529  1.00  0.00     0.210 HD
ENDBRANCH  32  34
ENDBRANCH   4  32
BRANCH   1  36
HETATM   36  C2  UNL     1     -11.651  -9.037   7.100  1.00  0.00     0.004 C 
HETATM   37  C1  UNL     1     -10.575  -8.741   6.062  1.00  0.00     0.006 C 
ENDBRANCH   1  36
BRANCH  30  38
HETATM   38  O8  UNL     1     -13.070  -5.460  11.535  1.00  0.00    -0.377 OA
HETATM   39  H31 UNL     1     -12.351  -5.034  12.031  1.00  0.00     0.211 HD
ENDBRANCH  30  38
BRANCH  24  40
HETATM   40  O6  UNL     1     -16.730  -7.033   7.325  1.00  0.00    -0.359 OA
HETATM   41  H26 UNL     1     -17.535  -7.547   7.487  1.00  0.00     0.217 HD
ENDBRANCH  24  40
TORSDOF 5
ENDMDL
