MODEL 1
REMARK minimizedAffinity -6.77012825
REMARK CNNscore 0.208098292
REMARK CNNaffinity 6.65462732
REMARK  10 active torsions:
REMARK  status: ('A' for Active; 'I' for Inactive)
REMARK    1  A    between atoms: C2_2  and  C3_3 
REMARK    2  A    between atoms: C5_5  and  S1_6 
REMARK    3  A    between atoms: C14_18  and  C15_19 
REMARK    4  A    between atoms: C15_19  and  O4_20 
REMARK    5  A    between atoms: C21_26  and  O5_27 
REMARK    6  A    between atoms: C33_40  and  C34_41 
REMARK    7  A    between atoms: C33_40  and  N1_45 
REMARK    8  A    between atoms: C34_41  and  C35_42 
REMARK    9  A    between atoms: C35_42  and  C36_43 
REMARK   10  A    between atoms: C36_43  and  O7_44 
REMARK       I    between atoms: N1_45  and  C37_47 
REMARK       I    between atoms: C37_47  and  N3_49 
ROOT
HETATM    1  C3  UNL     1     -17.506  -1.375  15.606  1.00  0.00     0.019 C 
HETATM    2  C4  UNL     1     -17.579   0.111  15.140  1.00  0.00     0.034 C 
HETATM    3  C5  UNL     1     -16.756   1.269  15.743  1.00  0.00     0.157 C 
HETATM    4  C6  UNL     1     -17.586   2.609  15.649  1.00  0.00     0.121 A 
HETATM    5  C7  UNL     1     -17.038   3.670  16.595  1.00  0.00     0.005 C 
HETATM    6  C8  UNL     1     -17.487   4.936  16.491  1.00  0.00    -0.048 C 
HETATM    7  C9  UNL     1     -18.684   5.181  15.620  1.00  0.00     0.044 C 
HETATM    8  C10 UNL     1     -18.319   4.725  14.201  1.00  0.00     0.019 C 
HETATM    9  C11 UNL     1     -17.312   5.707  13.519  1.00  0.00     0.039 C 
HETATM   10  C12 UNL     1     -16.097   6.150  14.373  1.00  0.00     0.123 C 
HETATM   11  C13 UNL     1     -15.146   7.097  13.606  1.00  0.00     0.039 C 
HETATM   12  C14 UNL     1     -15.639   8.569  13.453  1.00  0.00     0.023 C 
HETATM   13  C16 UNL     1     -14.942   9.556  14.432  1.00  0.00     0.101 C 
HETATM   14  C17 UNL     1     -15.337   9.338  15.829  1.00  0.00    -0.101 C 
HETATM   15  C18 UNL     1     -15.748   8.971  16.896  1.00  0.00    -0.066 C 
HETATM   16  C19 UNL     1     -16.358   8.320  18.020  1.00  0.00     0.029 A 
HETATM   17  C20 UNL     1     -16.510   9.058  19.201  1.00  0.00     0.057 A 
HETATM   18  C21 UNL     1     -17.091   8.465  20.318  1.00  0.00     0.067 A 
HETATM   19  C22 UNL     1     -17.543   7.152  20.279  1.00  0.00     0.037 A 
HETATM   20  C23 UNL     1     -17.406   6.412  19.102  1.00  0.00     0.014 A 
HETATM   21  C24 UNL     1     -16.811   6.974  17.947  1.00  0.00    -0.006 A 
HETATM   22  C25 UNL     1     -16.543   6.090  16.732  1.00  0.00     0.185 C 
HETATM   23  O6  UNL     1     -16.577   6.854  15.521  1.00  0.00    -0.371 OA
HETATM   24  C26 UNL     1     -17.806   3.225  14.187  1.00  0.00     0.115 A 
HETATM   25  C27 UNL     1     -18.752   2.393  13.308  1.00  0.00    -0.035 A 
HETATM   26  C28 UNL     1     -20.090   2.169  13.655  1.00  0.00     0.010 A 
HETATM   27  C29 UNL     1     -20.891   1.286  12.909  1.00  0.00     0.012 A 
HETATM   28  C30 UNL     1     -20.389   0.607  11.781  1.00  0.00    -0.003 A 
HETATM   29  C31 UNL     1     -19.065   0.894  11.400  1.00  0.00     0.012 A 
HETATM   30  C32 UNL     1     -18.265   1.767  12.150  1.00  0.00     0.010 A 
HETATM   31  C33 UNL     1     -21.225  -0.496  11.055  1.00  0.00     0.171 C 
HETATM   32  O8  UNL     1     -20.557  -1.814  11.070  1.00  0.00    -0.316 OA
HETATM   33  C38 UNL     1     -19.918  -2.146  12.236  1.00  0.00     0.072 C 
HETATM   34  C39 UNL     1     -18.555  -2.419  12.129  1.00  0.00     0.037 C 
HETATM   35  C40 UNL     1     -17.763  -2.373  13.272  1.00  0.00     0.010 C 
HETATM   36  C41 UNL     1     -18.344  -2.089  14.519  1.00  0.00    -0.054 C 
HETATM   37  C42 UNL     1     -19.745  -2.084  14.633  1.00  0.00     0.010 C 
HETATM   38  C43 UNL     1     -20.536  -2.109  13.484  1.00  0.00     0.037 C 
HETATM   39 NA1  UNL     1     -18.295   2.791  14.090  1.00  0.00    -0.404 Na
ATOM     40  HA1 UNL     1     -19.005   2.450  13.441  1.00  0.00     0.154 HD
ENDROOT
BRANCH  31  41
HETATM   41  C34 UNL     1     -21.273  -0.156   9.523  1.00  0.00     0.069 C 
BRANCH  41  42
HETATM   42  C35 UNL     1     -21.316   1.325   9.101  1.00  0.00     0.031 C 
BRANCH  42  43
HETATM   43  C36 UNL     1     -21.575   1.597   7.626  1.00  0.00     0.164 C 
BRANCH  43  44
HETATM   44  O7  UNL     1     -22.522   0.664   7.115  1.00  0.00    -0.401 OA
HETATM   45  H42 UNL     1     -22.726   0.952   6.212  1.00  0.00     0.209 HD
ENDBRANCH  43  44
ENDBRANCH  42  43
ENDBRANCH  41  42
ENDBRANCH  31  41
BRANCH  31  46
HETATM   46  N1  UNL     1     -22.625  -0.488  11.543  1.00  0.00    -0.331 N 
HETATM   47  C37 UNL     1     -23.425  -1.462  11.313  1.00  0.00     0.146 C 
HETATM   48  N2  UNL     1     -24.684  -1.407  11.794  1.00  0.00    -0.376 N 
HETATM   49  N3  UNL     1     -23.208  -2.637  10.680  1.00  0.00    -0.274 NA
HETATM   50  H43 UNL     1     -25.403  -1.890  11.284  1.00  0.00     0.158 HD
HETATM   51  H44 UNL     1     -24.931  -0.494  12.163  1.00  0.00     0.158 HD
HETATM   52  H45 UNL     1     -22.258  -2.724  10.328  1.00  0.00     0.127 HD
HETATM   53  H46 UNL     1     -23.876  -2.863   9.954  1.00  0.00     0.127 HD
ATOM     54  H1  UNL     1     -22.960   0.315  12.076  1.00  0.00     0.165 HD
ENDBRANCH  31  46
BRANCH   1  55
HETATM   55  C2  UNL     1     -16.118  -2.002  15.798  1.00  0.00     0.005 C 
HETATM   56  C1  UNL     1     -15.462  -2.367  14.471  1.00  0.00     0.006 C 
ENDBRANCH   1  55
BRANCH   3  57
HETATM   57  S1  UNL     1     -15.094   1.415  14.986  1.00  0.00     0.108 S 
HETATM   58  O1  UNL     1     -15.223   0.800  13.663  1.00  0.00    -0.595 OA
HETATM   59  O2  UNL     1     -14.802   2.850  14.945  1.00  0.00    -0.595 OA
HETATM   60  O3  UNL     1     -14.236   0.685  15.916  1.00  0.00    -0.595 OA
ENDBRANCH   3  57
BRANCH  12  61
HETATM   61  C15 UNL     1     -15.407   9.055  12.011  1.00  0.00     0.169 C 
BRANCH  61  62
HETATM   62  O4  UNL     1     -15.987   8.184  11.046  1.00  0.00    -0.400 OA
HETATM   63  H23 UNL     1     -16.910   8.023  11.290  1.00  0.00     0.209 HD
ENDBRANCH  61  62
ENDBRANCH  12  61
BRANCH  18  64
HETATM   64  O5  UNL     1     -17.201   9.208  21.462  1.00  0.00    -0.361 OA
HETATM   65  H27 UNL     1     -17.538   8.641  22.170  1.00  0.00     0.217 HD
ENDBRANCH  18  64
TORSDOF 10
ENDMDL
MODEL 2
REMARK minimizedAffinity -6.85998297
REMARK CNNscore 0.206397757
REMARK CNNaffinity 6.45206594
REMARK  10 active torsions:
REMARK  status: ('A' for Active; 'I' for Inactive)
REMARK    1  A    between atoms: C2_2  and  C3_3 
REMARK    2  A    between atoms: C5_5  and  S1_6 
REMARK    3  A    between atoms: C14_18  and  C15_19 
REMARK    4  A    between atoms: C15_19  and  O4_20 
REMARK    5  A    between atoms: C21_26  and  O5_27 
REMARK    6  A    between atoms: C33_40  and  C34_41 
REMARK    7  A    between atoms: C33_40  and  N1_45 
REMARK    8  A    between atoms: C34_41  and  C35_42 
REMARK    9  A    between atoms: C35_42  and  C36_43 
REMARK   10  A    between atoms: C36_43  and  O7_44 
REMARK       I    between atoms: N1_45  and  C37_47 
REMARK       I    between atoms: C37_47  and  N3_49 
ROOT
HETATM    1  C3  UNL     1      -6.158  17.824  22.968  1.00  0.00     0.019 C 
HETATM    2  C4  UNL     1      -5.828  16.635  22.016  1.00  0.00     0.034 C 
HETATM    3  C5  UNL     1      -4.620  16.577  21.058  1.00  0.00     0.157 C 
HETATM    4  C6  UNL     1      -5.002  15.733  19.779  1.00  0.00     0.121 A 
HETATM    5  C7  UNL     1      -4.040  16.000  18.628  1.00  0.00     0.005 C 
HETATM    6  C8  UNL     1      -4.087  15.210  17.538  1.00  0.00    -0.048 C 
HETATM    7  C9  UNL     1      -5.250  14.271  17.407  1.00  0.00     0.044 C 
HETATM    8  C10 UNL     1      -5.225  13.339  18.627  1.00  0.00     0.019 C 
HETATM    9  C11 UNL     1      -4.058  12.302  18.536  1.00  0.00     0.039 C 
HETATM   10  C12 UNL     1      -2.669  12.861  18.139  1.00  0.00     0.123 C 
HETATM   11  C13 UNL     1      -1.577  11.768  18.103  1.00  0.00     0.039 C 
HETATM   12  C14 UNL     1      -1.608  10.824  16.862  1.00  0.00     0.023 C 
HETATM   13  C16 UNL     1      -0.525  11.167  15.800  1.00  0.00     0.101 C 
HETATM   14  C17 UNL     1      -0.788  12.438  15.115  1.00  0.00    -0.101 C 
HETATM   15  C18 UNL     1      -1.155  13.509  14.713  1.00  0.00    -0.066 C 
HETATM   16  C19 UNL     1      -1.789  14.767  14.441  1.00  0.00     0.029 A 
HETATM   17  C20 UNL     1      -1.557  15.362  13.194  1.00  0.00     0.057 A 
HETATM   18  C21 UNL     1      -2.147  16.585  12.890  1.00  0.00     0.067 A 
HETATM   19  C22 UNL     1      -2.982  17.224  13.798  1.00  0.00     0.037 A 
HETATM   20  C23 UNL     1      -3.228  16.633  15.039  1.00  0.00     0.014 A 
HETATM   21  C24 UNL     1      -2.639  15.395  15.393  1.00  0.00    -0.006 A 
HETATM   22  C25 UNL     1      -2.811  14.857  16.811  1.00  0.00     0.185 C 
HETATM   23  O6  UNL     1      -2.760  13.425  16.829  1.00  0.00    -0.371 OA
HETATM   24  C26 UNL     1      -5.204  14.158  19.984  1.00  0.00     0.115 A 
HETATM   25  C27 UNL     1      -6.463  13.801  20.789  1.00  0.00    -0.035 A 
HETATM   26  C28 UNL     1      -7.750  14.131  20.348  1.00  0.00     0.010 A 
HETATM   27  C29 UNL     1      -8.870  13.923  21.171  1.00  0.00     0.012 A 
HETATM   28  C30 UNL     1      -8.748  13.363  22.458  1.00  0.00    -0.003 A 
HETATM   29  C31 UNL     1      -7.459  12.970  22.863  1.00  0.00     0.012 A 
HETATM   30  C32 UNL     1      -6.341  13.187  22.045  1.00  0.00     0.010 A 
HETATM   31  C33 UNL     1      -9.967  13.287  23.434  1.00  0.00     0.171 C 
HETATM   32  O8  UNL     1      -9.740  14.043  24.683  1.00  0.00    -0.316 OA
HETATM   33  C38 UNL     1      -9.093  15.243  24.546  1.00  0.00     0.072 C 
HETATM   34  C39 UNL     1      -7.905  15.381  25.261  1.00  0.00     0.037 C 
HETATM   35  C40 UNL     1      -7.000  16.370  24.888  1.00  0.00     0.010 C 
HETATM   36  C41 UNL     1      -7.304  17.236  23.825  1.00  0.00    -0.054 C 
HETATM   37  C42 UNL     1      -8.610  17.244  23.304  1.00  0.00     0.010 C 
HETATM   38  C43 UNL     1      -9.508  16.238  23.664  1.00  0.00     0.037 C 
HETATM   39 NA1  UNL     1      -5.811  14.277  20.217  1.00  0.00    -0.404 Na
ATOM     40  HA1 UNL     1      -6.667  13.867  20.592  1.00  0.00     0.154 HD
ENDROOT
BRANCH  31  41
HETATM   41  C34 UNL     1     -10.100  11.810  23.949  1.00  0.00     0.069 C 
BRANCH  41  42
HETATM   42  C35 UNL     1     -10.511  10.716  22.944  1.00  0.00     0.031 C 
BRANCH  42  43
HETATM   43  C36 UNL     1     -11.242   9.512  23.522  1.00  0.00     0.164 C 
BRANCH  43  44
HETATM   44  O7  UNL     1     -10.435   8.345  23.397  1.00  0.00    -0.401 OA
HETATM   45  H42 UNL     1     -10.901   7.642  23.874  1.00  0.00     0.209 HD
ENDBRANCH  43  44
ENDBRANCH  42  43
ENDBRANCH  41  42
ENDBRANCH  31  41
BRANCH  31  46
HETATM   46  N1  UNL     1     -11.224  13.609  22.715  1.00  0.00    -0.331 N 
HETATM   47  C37 UNL     1     -12.307  13.882  23.342  1.00  0.00     0.146 C 
HETATM   48  N2  UNL     1     -13.417  14.182  22.637  1.00  0.00    -0.376 N 
HETATM   49  N3  UNL     1     -12.544  13.983  24.670  1.00  0.00    -0.274 NA
HETATM   50  H43 UNL     1     -14.308  13.961  23.048  1.00  0.00     0.158 HD
HETATM   51  H44 UNL     1     -13.323  13.994  21.644  1.00  0.00     0.158 HD
HETATM   52  H45 UNL     1     -11.720  13.790  25.232  1.00  0.00     0.127 HD
HETATM   53  H46 UNL     1     -13.335  13.447  25.007  1.00  0.00     0.127 HD
ATOM     54  H1  UNL     1     -11.225  13.613  21.695  1.00  0.00     0.165 HD
ENDBRANCH  31  46
BRANCH   1  55
HETATM   55  C2  UNL     1      -5.017  18.406  23.816  1.00  0.00     0.005 C 
HETATM   56  C1  UNL     1      -4.534  19.751  23.285  1.00  0.00     0.006 C 
ENDBRANCH   1  55
BRANCH   3  57
HETATM   57  S1  UNL     1      -3.102  15.962  21.880  1.00  0.00     0.108 S 
HETATM   58  O1  UNL     1      -3.578  15.214  23.046  1.00  0.00    -0.595 OA
HETATM   59  O2  UNL     1      -2.420  15.134  20.883  1.00  0.00    -0.595 OA
HETATM   60  O3  UNL     1      -2.373  17.188  22.198  1.00  0.00    -0.595 OA
ENDBRANCH   3  57
BRANCH  12  61
HETATM   61  C15 UNL     1      -1.422   9.362  17.305  1.00  0.00     0.169 C 
BRANCH  61  62
HETATM   62  O4  UNL     1      -2.560   8.559  17.014  1.00  0.00    -0.400 OA
HETATM   63  H23 UNL     1      -2.799   8.686  16.085  1.00  0.00     0.209 HD
ENDBRANCH  61  62
ENDBRANCH  12  61
BRANCH  18  64
HETATM   64  O5  UNL     1      -1.879  17.148  11.671  1.00  0.00    -0.361 OA
HETATM   65  H27 UNL     1      -2.281  18.027  11.640  1.00  0.00     0.217 HD
ENDBRANCH  18  64
TORSDOF 10
ENDMDL
MODEL 3
REMARK minimizedAffinity -6.46984291
REMARK CNNscore 0.191144556
REMARK CNNaffinity 6.36851883
REMARK  10 active torsions:
REMARK  status: ('A' for Active; 'I' for Inactive)
REMARK    1  A    between atoms: C2_2  and  C3_3 
REMARK    2  A    between atoms: C5_5  and  S1_6 
REMARK    3  A    between atoms: C14_18  and  C15_19 
REMARK    4  A    between atoms: C15_19  and  O4_20 
REMARK    5  A    between atoms: C21_26  and  O5_27 
REMARK    6  A    between atoms: C33_40  and  C34_41 
REMARK    7  A    between atoms: C33_40  and  N1_45 
REMARK    8  A    between atoms: C34_41  and  C35_42 
REMARK    9  A    between atoms: C35_42  and  C36_43 
REMARK   10  A    between atoms: C36_43  and  O7_44 
REMARK       I    between atoms: N1_45  and  C37_47 
REMARK       I    between atoms: C37_47  and  N3_49 
ROOT
HETATM    1  C3  UNL     1      -0.875  12.417  19.172  1.00  0.00     0.019 C 
HETATM    2  C4  UNL     1      -1.618  13.180  18.033  1.00  0.00     0.034 C 
HETATM    3  C5  UNL     1      -1.844  14.705  17.990  1.00  0.00     0.157 C 
HETATM    4  C6  UNL     1      -3.200  15.017  17.242  1.00  0.00     0.121 A 
HETATM    5  C7  UNL     1      -3.692  16.427  17.545  1.00  0.00     0.005 C 
HETATM    6  C8  UNL     1      -4.713  16.932  16.827  1.00  0.00    -0.048 C 
HETATM    7  C9  UNL     1      -5.476  15.991  15.942  1.00  0.00     0.044 C 
HETATM    8  C10 UNL     1      -4.479  15.401  14.935  1.00  0.00     0.019 C 
HETATM    9  C11 UNL     1      -4.048  16.454  13.863  1.00  0.00     0.039 C 
HETATM   10  C12 UNL     1      -3.654  17.855  14.394  1.00  0.00     0.123 C 
HETATM   11  C13 UNL     1      -3.219  18.818  13.265  1.00  0.00     0.039 C 
HETATM   12  C14 UNL     1      -4.374  19.412  12.402  1.00  0.00     0.023 C 
HETATM   13  C16 UNL     1      -4.722  20.883  12.771  1.00  0.00     0.101 C 
HETATM   14  C17 UNL     1      -5.353  21.000  14.091  1.00  0.00    -0.101 C 
HETATM   15  C18 UNL     1      -5.805  20.885  15.198  1.00  0.00    -0.066 C 
HETATM   16  C19 UNL     1      -6.265  20.474  16.493  1.00  0.00     0.029 A 
HETATM   17  C20 UNL     1      -7.183  21.301  17.155  1.00  0.00     0.057 A 
HETATM   18  C21 UNL     1      -7.651  20.944  18.416  1.00  0.00     0.067 A 
HETATM   19  C22 UNL     1      -7.240  19.767  19.027  1.00  0.00     0.037 A 
HETATM   20  C23 UNL     1      -6.335  18.930  18.370  1.00  0.00     0.014 A 
HETATM   21  C24 UNL     1      -5.825  19.262  17.091  1.00  0.00    -0.006 A 
HETATM   22  C25 UNL     1      -4.727  18.401  16.472  1.00  0.00     0.185 C 
HETATM   23  O6  UNL     1      -4.790  18.434  15.042  1.00  0.00    -0.371 OA
HETATM   24  C26 UNL     1      -3.238  14.737  15.666  1.00  0.00     0.115 A 
HETATM   25  C27 UNL     1      -3.200  13.245  15.307  1.00  0.00    -0.035 A 
HETATM   26  C28 UNL     1      -4.200  12.353  15.711  1.00  0.00     0.010 A 
HETATM   27  C29 UNL     1      -4.066  10.971  15.494  1.00  0.00     0.012 A 
HETATM   28  C30 UNL     1      -2.935  10.430  14.851  1.00  0.00    -0.003 A 
HETATM   29  C31 UNL     1      -1.969  11.341  14.385  1.00  0.00     0.012 A 
HETATM   30  C32 UNL     1      -2.099  12.719  14.611  1.00  0.00     0.010 A 
HETATM   31  C33 UNL     1      -2.710   8.886  14.759  1.00  0.00     0.171 C 
HETATM   32  O8  UNL     1      -1.464   8.455  15.426  1.00  0.00    -0.316 OA
HETATM   33  C38 UNL     1      -1.171   9.085  16.608  1.00  0.00     0.072 C 
HETATM   34  C39 UNL     1       0.051   9.753  16.657  1.00  0.00     0.037 C 
HETATM   35  C40 UNL     1       0.254  10.724  17.633  1.00  0.00     0.010 C 
HETATM   36  C41 UNL     1      -0.753  10.996  18.574  1.00  0.00    -0.054 C 
HETATM   37  C42 UNL     1      -1.855  10.128  18.663  1.00  0.00     0.010 C 
HETATM   38  C43 UNL     1      -2.067   9.169  17.671  1.00  0.00     0.037 C 
HETATM   39 NA1  UNL     1      -3.332  14.096  15.793  1.00  0.00    -0.404 Na
ATOM     40  HA1 UNL     1      -3.467  13.167  15.392  1.00  0.00     0.154 HD
ENDROOT
BRANCH  31  41
HETATM   41  C34 UNL     1      -2.439   8.511  13.258  1.00  0.00     0.069 C 
BRANCH  41  42
HETATM   42  C35 UNL     1      -1.278   9.210  12.525  1.00  0.00     0.031 C 
BRANCH  42  43
HETATM   43  C36 UNL     1      -0.229   8.299  11.903  1.00  0.00     0.164 C 
BRANCH  43  44
HETATM   44  O7  UNL     1       0.139   8.784  10.615  1.00  0.00    -0.401 OA
HETATM   45  H42 UNL     1       0.878   8.233  10.319  1.00  0.00     0.209 HD
ENDBRANCH  43  44
ENDBRANCH  42  43
ENDBRANCH  41  42
ENDBRANCH  31  41
BRANCH  31  46
HETATM   46  N1  UNL     1      -3.935   8.160  15.171  1.00  0.00    -0.331 N 
HETATM   47  C37 UNL     1      -3.912   6.914  15.467  1.00  0.00     0.146 C 
HETATM   48  N2  UNL     1      -5.055   6.308  15.850  1.00  0.00    -0.376 N 
HETATM   49  N3  UNL     1      -2.874   6.049  15.520  1.00  0.00    -0.274 NA
HETATM   50  H43 UNL     1      -5.154   5.327  15.653  1.00  0.00     0.158 HD
HETATM   51  H44 UNL     1      -5.880   6.880  15.702  1.00  0.00     0.158 HD
HETATM   52  H45 UNL     1      -1.990   6.481  15.264  1.00  0.00     0.127 HD
HETATM   53  H46 UNL     1      -3.007   5.186  15.008  1.00  0.00     0.127 HD
ATOM     54  H1  UNL     1      -4.819   8.667  15.220  1.00  0.00     0.165 HD
ENDBRANCH  31  46
BRANCH   1  55
HETATM   55  C2  UNL     1       0.470  12.979  19.657  1.00  0.00     0.005 C 
HETATM   56  C1  UNL     1       1.189  12.018  20.597  1.00  0.00     0.006 C 
ENDBRANCH   1  55
BRANCH   3  57
HETATM   57  S1  UNL     1      -0.419  15.606  17.270  1.00  0.00     0.108 S 
HETATM   58  O1  UNL     1      -1.014  16.658  16.443  1.00  0.00    -0.595 OA
HETATM   59  O2  UNL     1       0.348  16.112  18.410  1.00  0.00    -0.595 OA
HETATM   60  O3  UNL     1       0.288  14.570  16.521  1.00  0.00    -0.595 OA
ENDBRANCH   3  57
BRANCH  12  61
HETATM   61  C15 UNL     1      -4.004  19.350  10.910  1.00  0.00     0.169 C 
BRANCH  61  62
HETATM   62  O4  UNL     1      -3.341  18.139  10.566  1.00  0.00    -0.400 OA
HETATM   63  H23 UNL     1      -3.864  17.395  10.899  1.00  0.00     0.209 HD
ENDBRANCH  61  62
ENDBRANCH  12  61
BRANCH  18  64
HETATM   64  O5  UNL     1      -8.527  21.788  19.044  1.00  0.00    -0.361 OA
HETATM   65  H27 UNL     1      -8.692  21.457  19.937  1.00  0.00     0.217 HD
ENDBRANCH  18  64
TORSDOF 10
ENDMDL
MODEL 4
REMARK minimizedAffinity -7.94610453
REMARK CNNscore 0.128996804
REMARK CNNaffinity 6.32033157
REMARK  10 active torsions:
REMARK  status: ('A' for Active; 'I' for Inactive)
REMARK    1  A    between atoms: C2_2  and  C3_3 
REMARK    2  A    between atoms: C5_5  and  S1_6 
REMARK    3  A    between atoms: C14_18  and  C15_19 
REMARK    4  A    between atoms: C15_19  and  O4_20 
REMARK    5  A    between atoms: C21_26  and  O5_27 
REMARK    6  A    between atoms: C33_40  and  C34_41 
REMARK    7  A    between atoms: C33_40  and  N1_45 
REMARK    8  A    between atoms: C34_41  and  C35_42 
REMARK    9  A    between atoms: C35_42  and  C36_43 
REMARK   10  A    between atoms: C36_43  and  O7_44 
REMARK       I    between atoms: N1_45  and  C37_47 
REMARK       I    between atoms: C37_47  and  N3_49 
ROOT
HETATM    1  C3  UNL     1      -3.866 -12.234  -0.827  1.00  0.00     0.019 C 
HETATM    2  C4  UNL     1      -5.269 -11.600  -0.585  1.00  0.00     0.034 C 
HETATM    3  C5  UNL     1      -6.343 -11.388  -1.671  1.00  0.00     0.157 C 
HETATM    4  C6  UNL     1      -7.198 -10.106  -1.323  1.00  0.00     0.121 A 
HETATM    5  C7  UNL     1      -7.959  -9.596  -2.540  1.00  0.00     0.005 C 
HETATM    6  C8  UNL     1      -8.900  -8.646  -2.375  1.00  0.00    -0.048 C 
HETATM    7  C9  UNL     1      -8.970  -7.960  -1.042  1.00  0.00     0.044 C 
HETATM    8  C10 UNL     1      -9.244  -9.040   0.014  1.00  0.00     0.019 C 
HETATM    9  C11 UNL     1     -10.713  -9.571  -0.069  1.00  0.00     0.039 C 
HETATM   10  C12 UNL     1     -11.238  -9.923  -1.484  1.00  0.00     0.123 C 
HETATM   11  C13 UNL     1     -12.686 -10.463  -1.462  1.00  0.00     0.039 C 
HETATM   12  C14 UNL     1     -13.802  -9.393  -1.257  1.00  0.00     0.023 C 
HETATM   13  C16 UNL     1     -14.545  -9.021  -2.572  1.00  0.00     0.101 C 
HETATM   14  C17 UNL     1     -13.697  -8.275  -3.510  1.00  0.00    -0.101 C 
HETATM   15  C18 UNL     1     -12.836  -7.725  -4.142  1.00  0.00    -0.066 C 
HETATM   16  C19 UNL     1     -11.639  -7.149  -4.682  1.00  0.00     0.029 A 
HETATM   17  C20 UNL     1     -11.772  -6.181  -5.686  1.00  0.00     0.057 A 
HETATM   18  C21 UNL     1     -10.637  -5.599  -6.242  1.00  0.00     0.067 A 
HETATM   19  C22 UNL     1      -9.366  -5.948  -5.805  1.00  0.00     0.037 A 
HETATM   20  C23 UNL     1      -9.223  -6.904  -4.796  1.00  0.00     0.014 A 
HETATM   21  C24 UNL     1     -10.351  -7.528  -4.211  1.00  0.00    -0.006 A 
HETATM   22  C25 UNL     1     -10.150  -8.672  -3.221  1.00  0.00     0.185 C 
HETATM   23  O6  UNL     1     -11.230  -8.737  -2.283  1.00  0.00    -0.371 OA
HETATM   24  C26 UNL     1      -8.173 -10.206  -0.056  1.00  0.00     0.115 A 
HETATM   25  C27 UNL     1      -7.429 -10.269   1.286  1.00  0.00    -0.035 A 
HETATM   26  C28 UNL     1      -6.601  -9.231   1.730  1.00  0.00     0.010 A 
HETATM   27  C29 UNL     1      -5.820  -9.376   2.890  1.00  0.00     0.012 A 
HETATM   28  C30 UNL     1      -5.851 -10.557   3.658  1.00  0.00    -0.003 A 
HETATM   29  C31 UNL     1      -6.740 -11.566   3.243  1.00  0.00     0.012 A 
HETATM   30  C32 UNL     1      -7.510 -11.424   2.080  1.00  0.00     0.010 A 
HETATM   31  C33 UNL     1      -4.862 -10.782   4.849  1.00  0.00     0.171 C 
HETATM   32  O8  UNL     1      -3.994 -11.961   4.649  1.00  0.00    -0.316 OA
HETATM   33  C38 UNL     1      -3.529 -12.150   3.374  1.00  0.00     0.072 C 
HETATM   34  C39 UNL     1      -3.857 -13.367   2.778  1.00  0.00     0.037 C 
HETATM   35  C40 UNL     1      -3.779 -13.487   1.394  1.00  0.00     0.010 C 
HETATM   36  C41 UNL     1      -3.339 -12.401   0.618  1.00  0.00    -0.054 C 
HETATM   37  C42 UNL     1      -2.766 -11.291   1.262  1.00  0.00     0.010 C 
HETATM   38  C43 UNL     1      -2.866 -11.163   2.649  1.00  0.00     0.037 C 
HETATM   39 NA1  UNL     1      -7.654 -10.098   0.338  1.00  0.00    -0.404 Na
ATOM     40  HA1 UNL     1      -7.333  -9.994   1.301  1.00  0.00     0.154 HD
ENDROOT
BRANCH  31  41
HETATM   41  C34 UNL     1      -5.696 -11.183   6.117  1.00  0.00     0.069 C 
BRANCH  41  42
HETATM   42  C35 UNL     1      -6.839 -10.254   6.569  1.00  0.00     0.031 C 
BRANCH  42  43
HETATM   43  C36 UNL     1      -6.500  -9.254   7.665  1.00  0.00     0.164 C 
BRANCH  43  44
HETATM   44  O7  UNL     1      -6.082  -8.020   7.090  1.00  0.00    -0.401 OA
HETATM   45  H42 UNL     1      -5.986  -7.397   7.826  1.00  0.00     0.209 HD
ENDBRANCH  43  44
ENDBRANCH  42  43
ENDBRANCH  41  42
ENDBRANCH  31  41
BRANCH  31  46
HETATM   46  N1  UNL     1      -4.156  -9.520   5.177  1.00  0.00    -0.331 N 
HETATM   47  C37 UNL     1      -3.084  -9.512   5.878  1.00  0.00     0.146 C 
HETATM   48  N2  UNL     1      -2.474  -8.336   6.135  1.00  0.00    -0.376 N 
HETATM   49  N3  UNL     1      -2.375 -10.539   6.399  1.00  0.00    -0.274 NA
HETATM   50  H43 UNL     1      -1.949  -8.256   6.988  1.00  0.00     0.158 HD
HETATM   51  H44 UNL     1      -3.035  -7.530   5.876  1.00  0.00     0.158 HD
HETATM   52  H45 UNL     1      -2.791 -11.444   6.201  1.00  0.00     0.127 HD
HETATM   53  H46 UNL     1      -2.161 -10.457   7.385  1.00  0.00     0.127 HD
ATOM     54  H1  UNL     1      -4.534  -8.636   4.836  1.00  0.00     0.165 HD
ENDBRANCH  31  46
BRANCH   1  55
HETATM   55  C2  UNL     1      -3.793 -13.533  -1.643  1.00  0.00     0.005 C 
HETATM   56  C1  UNL     1      -3.244 -13.301  -3.047  1.00  0.00     0.006 C 
ENDBRANCH   1  55
BRANCH   3  57
HETATM   57  S1  UNL     1      -7.381 -12.875  -1.932  1.00  0.00     0.108 S 
HETATM   58  O1  UNL     1      -8.741 -12.363  -2.117  1.00  0.00    -0.595 OA
HETATM   59  O2  UNL     1      -6.832 -13.538  -3.118  1.00  0.00    -0.595 OA
HETATM   60  O3  UNL     1      -7.181 -13.644  -0.706  1.00  0.00    -0.595 OA
ENDBRANCH   3  57
BRANCH  12  61
HETATM   61  C15 UNL     1     -14.833  -9.894  -0.230  1.00  0.00     0.169 C 
BRANCH  61  62
HETATM   62  O4  UNL     1     -15.334  -8.845   0.590  1.00  0.00    -0.400 OA
HETATM   63  H23 UNL     1     -15.630  -8.121   0.019  1.00  0.00     0.209 HD
ENDBRANCH  61  62
ENDBRANCH  12  61
BRANCH  18  64
HETATM   64  O5  UNL     1     -10.805  -4.675  -7.238  1.00  0.00    -0.361 OA
HETATM   65  H27 UNL     1      -9.935  -4.429  -7.583  1.00  0.00     0.217 HD
ENDBRANCH  18  64
TORSDOF 10
ENDMDL
MODEL 5
REMARK minimizedAffinity -7.74107981
REMARK CNNscore 0.109867632
REMARK CNNaffinity 6.11663675
REMARK  10 active torsions:
REMARK  status: ('A' for Active; 'I' for Inactive)
REMARK    1  A    between atoms: C2_2  and  C3_3 
REMARK    2  A    between atoms: C5_5  and  S1_6 
REMARK    3  A    between atoms: C14_18  and  C15_19 
REMARK    4  A    between atoms: C15_19  and  O4_20 
REMARK    5  A    between atoms: C21_26  and  O5_27 
REMARK    6  A    between atoms: C33_40  and  C34_41 
REMARK    7  A    between atoms: C33_40  and  N1_45 
REMARK    8  A    between atoms: C34_41  and  C35_42 
REMARK    9  A    between atoms: C35_42  and  C36_43 
REMARK   10  A    between atoms: C36_43  and  O7_44 
REMARK       I    between atoms: N1_45  and  C37_47 
REMARK       I    between atoms: C37_47  and  N3_49 
ROOT
HETATM    1  C3  UNL     1     -18.971   2.348  11.494  1.00  0.00     0.019 C 
HETATM    2  C4  UNL     1     -18.263   3.098  12.662  1.00  0.00     0.034 C 
HETATM    3  C5  UNL     1     -18.321   4.621  12.900  1.00  0.00     0.157 C 
HETATM    4  C6  UNL     1     -16.973   5.102  13.568  1.00  0.00     0.121 A 
HETATM    5  C7  UNL     1     -16.788   6.608  13.427  1.00  0.00     0.005 C 
HETATM    6  C8  UNL     1     -15.806   7.215  14.121  1.00  0.00    -0.048 C 
HETATM    7  C9  UNL     1     -14.789   6.343  14.797  1.00  0.00     0.044 C 
HETATM    8  C10 UNL     1     -15.542   5.448  15.791  1.00  0.00     0.019 C 
HETATM    9  C11 UNL     1     -16.042   6.256  17.033  1.00  0.00     0.039 C 
HETATM   10  C12 UNL     1     -16.744   7.605  16.739  1.00  0.00     0.123 C 
HETATM   11  C13 UNL     1     -17.225   8.317  18.025  1.00  0.00     0.039 C 
HETATM   12  C14 UNL     1     -16.113   9.020  18.863  1.00  0.00     0.023 C 
HETATM   13  C16 UNL     1     -16.086  10.564  18.677  1.00  0.00     0.101 C 
HETATM   14  C17 UNL     1     -15.637  10.964  17.338  1.00  0.00    -0.101 C 
HETATM   15  C18 UNL     1     -15.295  11.077  16.193  1.00  0.00    -0.066 C 
HETATM   16  C19 UNL     1     -14.911  10.927  14.819  1.00  0.00     0.029 A 
HETATM   17  C20 UNL     1     -14.241  11.994  14.205  1.00  0.00     0.057 A 
HETATM   18  C21 UNL     1     -13.856  11.894  12.871  1.00  0.00     0.067 A 
HETATM   19  C22 UNL     1     -14.106  10.742  12.137  1.00  0.00     0.037 A 
HETATM   20  C23 UNL     1     -14.762   9.668  12.744  1.00  0.00     0.014 A 
HETATM   21  C24 UNL     1     -15.181   9.733  14.095  1.00  0.00    -0.006 A 
HETATM   22  C25 UNL     1     -16.026   8.602  14.676  1.00  0.00     0.185 C 
HETATM   23  O6  UNL     1     -15.814   8.473  16.087  1.00  0.00    -0.371 OA
HETATM   24  C26 UNL     1     -16.711   4.646  15.081  1.00  0.00     0.115 A 
HETATM   25  C27 UNL     1     -16.432   3.143  15.228  1.00  0.00    -0.035 A 
HETATM   26  C28 UNL     1     -15.333   2.524  14.619  1.00  0.00     0.010 A 
HETATM   27  C29 UNL     1     -15.184   1.127  14.650  1.00  0.00     0.012 A 
HETATM   28  C30 UNL     1     -16.117   0.298  15.304  1.00  0.00    -0.003 A 
HETATM   29  C31 UNL     1     -17.179   0.935  15.972  1.00  0.00     0.012 A 
HETATM   30  C32 UNL     1     -17.332   2.328  15.933  1.00  0.00     0.010 A 
HETATM   31  C33 UNL     1     -16.041  -1.260  15.196  1.00  0.00     0.171 C 
HETATM   32  O8  UNL     1     -17.250  -1.845  14.581  1.00  0.00    -0.316 OA
HETATM   33  C38 UNL     1     -17.782  -1.147  13.529  1.00  0.00     0.072 C 
HETATM   34  C39 UNL     1     -19.105  -0.734  13.677  1.00  0.00     0.037 C 
HETATM   35  C40 UNL     1     -19.591   0.289  12.868  1.00  0.00     0.010 C 
HETATM   36  C41 UNL     1     -18.761   0.868  11.893  1.00  0.00    -0.054 C 
HETATM   37  C42 UNL     1     -17.533   0.254  11.591  1.00  0.00     0.010 C 
HETATM   38  C43 UNL     1     -17.039  -0.757  12.417  1.00  0.00     0.037 C 
HETATM   39 NA1  UNL     1     -16.514   4.056  14.857  1.00  0.00    -0.404 Na
ATOM     40  HA1 UNL     1     -16.166   3.131  15.110  1.00  0.00     0.154 HD
ENDROOT
BRANCH  31  41
HETATM   41  C34 UNL     1     -16.071  -1.861  16.646  1.00  0.00     0.069 C 
BRANCH  41  42
HETATM   42  C35 UNL     1     -17.224  -2.811  17.023  1.00  0.00     0.031 C 
BRANCH  42  43
HETATM   43  C36 UNL     1     -17.358  -3.154  18.500  1.00  0.00     0.164 C 
BRANCH  43  44
HETATM   44  O7  UNL     1     -16.412  -2.412  19.263  1.00  0.00    -0.401 OA
HETATM   45  H42 UNL     1     -16.616  -2.587  20.193  1.00  0.00     0.209 HD
ENDBRANCH  43  44
ENDBRANCH  42  43
ENDBRANCH  41  42
ENDBRANCH  31  41
BRANCH  31  46
HETATM   46  N1  UNL     1     -14.754  -1.672  14.584  1.00  0.00    -0.331 N 
HETATM   47  C37 UNL     1     -14.571  -2.858  14.136  1.00  0.00     0.146 C 
HETATM   48  N2  UNL     1     -13.385  -3.174  13.576  1.00  0.00    -0.376 N 
HETATM   49  N3  UNL     1     -15.423  -3.907  14.069  1.00  0.00    -0.274 NA
HETATM   50  H43 UNL     1     -13.077  -4.129  13.636  1.00  0.00     0.158 HD
HETATM   51  H44 UNL     1     -12.674  -2.464  13.719  1.00  0.00     0.158 HD
HETATM   52  H45 UNL     1     -16.338  -3.694  14.458  1.00  0.00     0.127 HD
HETATM   53  H46 UNL     1     -15.068  -4.774  14.453  1.00  0.00     0.127 HD
ATOM     54  H1  UNL     1     -13.995  -0.993  14.519  1.00  0.00     0.165 HD
ENDBRANCH  31  46
BRANCH   1  55
HETATM   55  C2  UNL     1     -20.442   2.686  11.207  1.00  0.00     0.005 C 
HETATM   56  C1  UNL     1     -20.923   2.090   9.888  1.00  0.00     0.006 C 
ENDBRANCH   1  55
BRANCH   3  57
HETATM   57  S1  UNL     1     -19.800   5.126  13.857  1.00  0.00     0.108 S 
HETATM   58  O1  UNL     1     -20.745   5.631  12.858  1.00  0.00    -0.595 OA
HETATM   59  O2  UNL     1     -20.258   3.917  14.546  1.00  0.00    -0.595 OA
HETATM   60  O3  UNL     1     -19.279   6.140  14.771  1.00  0.00    -0.595 OA
ENDBRANCH   3  57
BRANCH  12  61
HETATM   61  C15 UNL     1     -16.299   8.704  20.358  1.00  0.00     0.169 C 
BRANCH  61  62
HETATM   62  O4  UNL     1     -17.061   7.520  20.570  1.00  0.00    -0.400 OA
HETATM   63  H23 UNL     1     -16.680   6.808  20.037  1.00  0.00     0.209 HD
ENDBRANCH  61  62
ENDBRANCH  12  61
BRANCH  18  64
HETATM   64  O5  UNL     1     -13.225  12.965  12.298  1.00  0.00    -0.361 OA
HETATM   65  H27 UNL     1     -13.101  12.784  11.356  1.00  0.00     0.217 HD
ENDBRANCH  18  64
TORSDOF 10
ENDMDL
MODEL 6
REMARK minimizedAffinity -6.74123621
REMARK CNNscore 0.0987359285
REMARK CNNaffinity 5.9300046
REMARK  10 active torsions:
REMARK  status: ('A' for Active; 'I' for Inactive)
REMARK    1  A    between atoms: C2_2  and  C3_3 
REMARK    2  A    between atoms: C5_5  and  S1_6 
REMARK    3  A    between atoms: C14_18  and  C15_19 
REMARK    4  A    between atoms: C15_19  and  O4_20 
REMARK    5  A    between atoms: C21_26  and  O5_27 
REMARK    6  A    between atoms: C33_40  and  C34_41 
REMARK    7  A    between atoms: C33_40  and  N1_45 
REMARK    8  A    between atoms: C34_41  and  C35_42 
REMARK    9  A    between atoms: C35_42  and  C36_43 
REMARK   10  A    between atoms: C36_43  and  O7_44 
REMARK       I    between atoms: N1_45  and  C37_47 
REMARK       I    between atoms: C37_47  and  N3_49 
ROOT
HETATM    1  C3  UNL     1     -11.789  16.894  -2.094  1.00  0.00     0.019 C 
HETATM    2  C4  UNL     1     -11.810  16.526  -0.579  1.00  0.00     0.034 C 
HETATM    3  C5  UNL     1     -11.207  17.388   0.549  1.00  0.00     0.157 C 
HETATM    4  C6  UNL     1     -10.695  16.449   1.712  1.00  0.00     0.121 A 
HETATM    5  C7  UNL     1      -9.718  17.178   2.626  1.00  0.00     0.005 C 
HETATM    6  C8  UNL     1      -9.351  16.600   3.787  1.00  0.00    -0.048 C 
HETATM    7  C9  UNL     1      -9.725  15.162   3.998  1.00  0.00     0.044 C 
HETATM    8  C10 UNL     1     -11.256  15.072   3.925  1.00  0.00     0.019 C 
HETATM    9  C11 UNL     1     -11.931  15.692   5.192  1.00  0.00     0.039 C 
HETATM   10  C12 UNL     1     -11.401  17.074   5.648  1.00  0.00     0.123 C 
HETATM   11  C13 UNL     1     -12.147  17.616   6.889  1.00  0.00     0.039 C 
HETATM   12  C14 UNL     1     -11.758  16.961   8.250  1.00  0.00     0.023 C 
HETATM   13  C16 UNL     1     -10.815  17.847   9.112  1.00  0.00     0.101 C 
HETATM   14  C17 UNL     1      -9.470  17.968   8.536  1.00  0.00    -0.101 C 
HETATM   15  C18 UNL     1      -8.461  17.975   7.883  1.00  0.00    -0.066 C 
HETATM   16  C19 UNL     1      -7.414  17.845   6.911  1.00  0.00     0.029 A 
HETATM   17  C20 UNL     1      -6.094  18.027   7.343  1.00  0.00     0.057 A 
HETATM   18  C21 UNL     1      -5.047  17.915   6.432  1.00  0.00     0.067 A 
HETATM   19  C22 UNL     1      -5.286  17.606   5.100  1.00  0.00     0.037 A 
HETATM   20  C23 UNL     1      -6.598  17.410   4.663  1.00  0.00     0.014 A 
HETATM   21  C24 UNL     1      -7.693  17.526   5.554  1.00  0.00    -0.006 A 
HETATM   22  C25 UNL     1      -9.117  17.454   5.010  1.00  0.00     0.185 C 
HETATM   23  O6  UNL     1     -10.020  16.942   5.996  1.00  0.00    -0.371 OA
HETATM   24  C26 UNL     1     -11.811  15.692   2.576  1.00  0.00     0.115 A 
HETATM   25  C27 UNL     1     -12.547  14.591   1.798  1.00  0.00    -0.035 A 
HETATM   26  C28 UNL     1     -11.882  13.476   1.274  1.00  0.00     0.010 A 
HETATM   27  C29 UNL     1     -12.553  12.561   0.444  1.00  0.00     0.012 A 
HETATM   28  C30 UNL     1     -13.915  12.718   0.120  1.00  0.00    -0.003 A 
HETATM   29  C31 UNL     1     -14.591  13.802   0.709  1.00  0.00     0.012 A 
HETATM   30  C32 UNL     1     -13.919  14.719   1.529  1.00  0.00     0.010 A 
HETATM   31  C33 UNL     1     -14.614  11.797  -0.933  1.00  0.00     0.171 C 
HETATM   32  O8  UNL     1     -15.142  12.555  -2.085  1.00  0.00    -0.316 OA
HETATM   33  C38 UNL     1     -14.352  13.577  -2.541  1.00  0.00     0.072 C 
HETATM   34  C39 UNL     1     -14.932  14.845  -2.541  1.00  0.00     0.037 C 
HETATM   35  C40 UNL     1     -14.111  15.967  -2.601  1.00  0.00     0.010 C 
HETATM   36  C41 UNL     1     -12.718  15.813  -2.696  1.00  0.00    -0.054 C 
HETATM   37  C42 UNL     1     -12.188  14.538  -2.962  1.00  0.00     0.010 C 
HETATM   38  C43 UNL     1     -13.010  13.413  -2.879  1.00  0.00     0.037 C 
HETATM   39 NA1  UNL     1     -11.865  15.244   2.094  1.00  0.00    -0.404 Na
ATOM     40  HA1 UNL     1     -12.334  14.394   1.781  1.00  0.00     0.154 HD
ENDROOT
BRANCH  31  41
HETATM   41  C34 UNL     1     -15.917  11.205  -0.288  1.00  0.00     0.069 C 
BRANCH  41  42
HETATM   42  C35 UNL     1     -17.256  11.404  -1.024  1.00  0.00     0.031 C 
BRANCH  42  43
HETATM   43  C36 UNL     1     -18.431  11.862  -0.171  1.00  0.00     0.164 C 
BRANCH  43  44
HETATM   44  O7  UNL     1     -19.212  10.740   0.229  1.00  0.00    -0.401 OA
HETATM   45  H42 UNL     1     -19.873  11.078   0.851  1.00  0.00     0.209 HD
ENDBRANCH  43  44
ENDBRANCH  42  43
ENDBRANCH  41  42
ENDBRANCH  31  41
BRANCH  31  46
HETATM   46  N1  UNL     1     -13.741  10.648  -1.274  1.00  0.00    -0.331 N 
HETATM   47  C37 UNL     1     -13.984   9.892  -2.279  1.00  0.00     0.146 C 
HETATM   48  N2  UNL     1     -13.147   8.870  -2.552  1.00  0.00    -0.376 N 
HETATM   49  N3  UNL     1     -14.962   9.969  -3.211  1.00  0.00    -0.274 NA
HETATM   50  H43 UNL     1     -13.530   8.059  -3.005  1.00  0.00     0.158 HD
HETATM   51  H44 UNL     1     -12.475   8.695  -1.811  1.00  0.00     0.158 HD
HETATM   52  H45 UNL     1     -15.595  10.747  -3.052  1.00  0.00     0.127 HD
HETATM   53  H46 UNL     1     -15.482   9.113  -3.358  1.00  0.00     0.127 HD
ATOM     54  H1  UNL     1     -12.925  10.454  -0.692  1.00  0.00     0.165 HD
ENDBRANCH  31  46
BRANCH   1  55
HETATM   55  C2  UNL     1     -12.194  18.320  -2.494  1.00  0.00     0.005 C 
HETATM   56  C1  UNL     1     -13.708  18.497  -2.540  1.00  0.00     0.006 C 
ENDBRANCH   1  55
BRANCH   3  57
HETATM   57  S1  UNL     1     -12.365  18.677   1.143  1.00  0.00     0.108 S 
HETATM   58  O1  UNL     1     -12.109  18.785   2.581  1.00  0.00    -0.595 OA
HETATM   59  O2  UNL     1     -12.030  19.888   0.390  1.00  0.00    -0.595 OA
HETATM   60  O3  UNL     1     -13.677  18.135   0.796  1.00  0.00    -0.595 OA
ENDBRANCH   3  57
BRANCH  12  61
HETATM   61  C15 UNL     1     -13.025  16.646   9.065  1.00  0.00     0.169 C 
BRANCH  61  62
HETATM   62  O4  UNL     1     -13.118  15.269   9.411  1.00  0.00    -0.400 OA
HETATM   63  H23 UNL     1     -12.282  14.995   9.815  1.00  0.00     0.209 HD
ENDBRANCH  61  62
ENDBRANCH  12  61
BRANCH  18  64
HETATM   64  O5  UNL     1      -3.771  18.124   6.883  1.00  0.00    -0.361 OA
HETATM   65  H27 UNL     1      -3.167  18.101   6.129  1.00  0.00     0.217 HD
ENDBRANCH  18  64
TORSDOF 10
ENDMDL
MODEL 7
REMARK minimizedAffinity -7.25508404
REMARK CNNscore 0.096343264
REMARK CNNaffinity 6.06632662
REMARK  10 active torsions:
REMARK  status: ('A' for Active; 'I' for Inactive)
REMARK    1  A    between atoms: C2_2  and  C3_3 
REMARK    2  A    between atoms: C5_5  and  S1_6 
REMARK    3  A    between atoms: C14_18  and  C15_19 
REMARK    4  A    between atoms: C15_19  and  O4_20 
REMARK    5  A    between atoms: C21_26  and  O5_27 
REMARK    6  A    between atoms: C33_40  and  C34_41 
REMARK    7  A    between atoms: C33_40  and  N1_45 
REMARK    8  A    between atoms: C34_41  and  C35_42 
REMARK    9  A    between atoms: C35_42  and  C36_43 
REMARK   10  A    between atoms: C36_43  and  O7_44 
REMARK       I    between atoms: N1_45  and  C37_47 
REMARK       I    between atoms: C37_47  and  N3_49 
ROOT
HETATM    1  C3  UNL     1     -20.323   3.188  16.456  1.00  0.00     0.019 C 
HETATM    2  C4  UNL     1     -18.972   3.761  15.930  1.00  0.00     0.034 C 
HETATM    3  C5  UNL     1     -18.552   5.243  16.002  1.00  0.00     0.157 C 
HETATM    4  C6  UNL     1     -17.627   5.589  14.769  1.00  0.00     0.121 A 
HETATM    5  C7  UNL     1     -17.542   7.093  14.541  1.00  0.00     0.005 C 
HETATM    6  C8  UNL     1     -16.632   7.574  13.672  1.00  0.00    -0.048 C 
HETATM    7  C9  UNL     1     -15.925   6.589  12.788  1.00  0.00     0.044 C 
HETATM    8  C10 UNL     1     -15.183   5.604  13.702  1.00  0.00     0.019 C 
HETATM    9  C11 UNL     1     -13.940   6.267  14.378  1.00  0.00     0.039 C 
HETATM   10  C12 UNL     1     -14.162   7.666  15.006  1.00  0.00     0.123 C 
HETATM   11  C13 UNL     1     -12.885   8.228  15.672  1.00  0.00     0.039 C 
HETATM   12  C14 UNL     1     -11.801   8.781  14.696  1.00  0.00     0.023 C 
HETATM   13  C16 UNL     1     -11.780  10.334  14.618  1.00  0.00     0.101 C 
HETATM   14  C17 UNL     1     -12.970  10.883  13.957  1.00  0.00    -0.101 C 
HETATM   15  C18 UNL     1     -14.025  11.126  13.436  1.00  0.00    -0.066 C 
HETATM   16  C19 UNL     1     -15.331  11.136  12.843  1.00  0.00     0.029 A 
HETATM   17  C20 UNL     1     -15.691  12.247  12.069  1.00  0.00     0.057 A 
HETATM   18  C21 UNL     1     -16.951  12.302  11.480  1.00  0.00     0.067 A 
HETATM   19  C22 UNL     1     -17.857  11.260  11.628  1.00  0.00     0.037 A 
HETATM   20  C23 UNL     1     -17.503  10.142  12.388  1.00  0.00     0.014 A 
HETATM   21  C24 UNL     1     -16.236  10.052  13.014  1.00  0.00    -0.006 A 
HETATM   22  C25 UNL     1     -15.943   8.888  13.956  1.00  0.00     0.185 C 
HETATM   23  O6  UNL     1     -14.545   8.576  13.971  1.00  0.00    -0.371 OA
HETATM   24  C26 UNL     1     -16.164   4.938  14.755  1.00  0.00     0.115 A 
HETATM   25  C27 UNL     1     -16.170   3.420  14.526  1.00  0.00    -0.035 A 
HETATM   26  C28 UNL     1     -16.677   2.844  13.354  1.00  0.00     0.010 A 
HETATM   27  C29 UNL     1     -16.804   1.449  13.232  1.00  0.00     0.012 A 
HETATM   28  C30 UNL     1     -16.415   0.579  14.269  1.00  0.00    -0.003 A 
HETATM   29  C31 UNL     1     -15.842   1.164  15.413  1.00  0.00     0.012 A 
HETATM   30  C32 UNL     1     -15.725   2.555  15.538  1.00  0.00     0.010 A 
HETATM   31  C33 UNL     1     -16.710  -0.955  14.200  1.00  0.00     0.171 C 
HETATM   32  O8  UNL     1     -17.575  -1.416  15.306  1.00  0.00    -0.316 OA
HETATM   33  C38 UNL     1     -18.597  -0.573  15.655  1.00  0.00     0.072 C 
HETATM   34  C39 UNL     1     -18.603  -0.136  16.979  1.00  0.00     0.037 C 
HETATM   35  C40 UNL     1     -19.339   0.997  17.315  1.00  0.00     0.010 C 
HETATM   36  C41 UNL     1     -20.091   1.664  16.333  1.00  0.00    -0.054 C 
HETATM   37  C42 UNL     1     -20.276   1.050  15.082  1.00  0.00     0.010 C 
HETATM   38  C43 UNL     1     -19.521  -0.074  14.740  1.00  0.00     0.037 C 
HETATM   39 NA1  UNL     1     -16.428   4.375  14.534  1.00  0.00    -0.404 Na
ATOM     40  HA1 UNL     1     -16.246   3.414  14.245  1.00  0.00     0.154 HD
ENDROOT
BRANCH  31  41
HETATM   41  C34 UNL     1     -15.372  -1.732  14.468  1.00  0.00     0.069 C 
BRANCH  41  42
HETATM   42  C35 UNL     1     -15.414  -2.977  15.374  1.00  0.00     0.031 C 
BRANCH  42  43
HETATM   43  C36 UNL     1     -14.341  -4.027  15.126  1.00  0.00     0.164 C 
BRANCH  43  44
HETATM   44  O7  UNL     1     -13.065  -3.524  15.512  1.00  0.00    -0.401 OA
HETATM   45  H42 UNL     1     -12.447  -4.265  15.435  1.00  0.00     0.209 HD
ENDBRANCH  43  44
ENDBRANCH  42  43
ENDBRANCH  41  42
ENDBRANCH  31  41
BRANCH  31  46
HETATM   46  N1  UNL     1     -17.164  -1.332  12.840  1.00  0.00    -0.331 N 
HETATM   47  C37 UNL     1     -16.344  -1.434  11.860  1.00  0.00     0.146 C 
HETATM   48  N2  UNL     1     -16.810  -1.794  10.647  1.00  0.00    -0.376 N 
HETATM   49  N3  UNL     1     -15.000  -1.286  11.830  1.00  0.00    -0.274 NA
HETATM   50  H43 UNL     1     -16.319  -1.459   9.837  1.00  0.00     0.158 HD
HETATM   51  H44 UNL     1     -17.824  -1.790  10.590  1.00  0.00     0.158 HD
HETATM   52  H45 UNL     1     -14.611  -1.041  12.736  1.00  0.00     0.127 HD
HETATM   53  H46 UNL     1     -14.653  -0.660  11.115  1.00  0.00     0.127 HD
ATOM     54  H1  UNL     1     -18.155  -1.516  12.679  1.00  0.00     0.165 HD
ENDBRANCH  31  46
BRANCH   1  55
HETATM   55  C2  UNL     1     -20.787   3.611  17.858  1.00  0.00     0.005 C 
HETATM   56  C1  UNL     1     -20.185   2.736  18.952  1.00  0.00     0.006 C 
ENDBRANCH   1  55
BRANCH   3  57
HETATM   57  S1  UNL     1     -17.777   5.675  17.606  1.00  0.00     0.108 S 
HETATM   58  O1  UNL     1     -17.263   4.409  18.133  1.00  0.00    -0.595 OA
HETATM   59  O2  UNL     1     -16.732   6.652  17.291  1.00  0.00    -0.595 OA
HETATM   60  O3  UNL     1     -18.883   6.249  18.369  1.00  0.00    -0.595 OA
ENDBRANCH   3  57
BRANCH  12  61
HETATM   61  C15 UNL     1     -10.407   8.287  15.120  1.00  0.00     0.169 C 
BRANCH  61  62
HETATM   62  O4  UNL     1     -10.369   6.878  15.319  1.00  0.00    -0.400 OA
HETATM   63  H23 UNL     1     -10.746   6.446  14.539  1.00  0.00     0.209 HD
ENDBRANCH  61  62
ENDBRANCH  12  61
BRANCH  18  64
HETATM   64  O5  UNL     1     -17.277  13.414  10.751  1.00  0.00    -0.361 OA
HETATM   65  H27 UNL     1     -18.203  13.348  10.482  1.00  0.00     0.217 HD
ENDBRANCH  18  64
TORSDOF 10
ENDMDL
MODEL 8
REMARK minimizedAffinity -6.94162941
REMARK CNNscore 0.0956168696
REMARK CNNaffinity 6.57918501
REMARK  10 active torsions:
REMARK  status: ('A' for Active; 'I' for Inactive)
REMARK    1  A    between atoms: C2_2  and  C3_3 
REMARK    2  A    between atoms: C5_5  and  S1_6 
REMARK    3  A    between atoms: C14_18  and  C15_19 
REMARK    4  A    between atoms: C15_19  and  O4_20 
REMARK    5  A    between atoms: C21_26  and  O5_27 
REMARK    6  A    between atoms: C33_40  and  C34_41 
REMARK    7  A    between atoms: C33_40  and  N1_45 
REMARK    8  A    between atoms: C34_41  and  C35_42 
REMARK    9  A    between atoms: C35_42  and  C36_43 
REMARK   10  A    between atoms: C36_43  and  O7_44 
REMARK       I    between atoms: N1_45  and  C37_47 
REMARK       I    between atoms: C37_47  and  N3_49 
ROOT
HETATM    1  C3  UNL     1       1.649  14.039  18.077  1.00  0.00     0.019 C 
HETATM    2  C4  UNL     1       0.568  13.161  17.374  1.00  0.00     0.034 C 
HETATM    3  C5  UNL     1       0.770  11.699  16.927  1.00  0.00     0.157 C 
HETATM    4  C6  UNL     1      -0.106  11.415  15.643  1.00  0.00     0.121 A 
HETATM    5  C7  UNL     1       0.370  10.168  14.910  1.00  0.00     0.005 C 
HETATM    6  C8  UNL     1      -0.391   9.659  13.921  1.00  0.00    -0.048 C 
HETATM    7  C9  UNL     1      -1.538  10.491  13.426  1.00  0.00     0.044 C 
HETATM    8  C10 UNL     1      -2.472  10.738  14.618  1.00  0.00     0.019 C 
HETATM    9  C11 UNL     1      -3.257   9.445  15.015  1.00  0.00     0.039 C 
HETATM   10  C12 UNL     1      -2.427   8.141  15.122  1.00  0.00     0.123 C 
HETATM   11  C13 UNL     1      -3.283   6.925  15.544  1.00  0.00     0.039 C 
HETATM   12  C14 UNL     1      -4.188   6.318  14.429  1.00  0.00     0.023 C 
HETATM   13  C16 UNL     1      -3.616   5.007  13.818  1.00  0.00     0.101 C 
HETATM   14  C17 UNL     1      -2.407   5.237  13.018  1.00  0.00    -0.101 C 
HETATM   15  C18 UNL     1      -1.421   5.628  12.454  1.00  0.00    -0.066 C 
HETATM   16  C19 UNL     1      -0.307   6.344  11.903  1.00  0.00     0.029 A 
HETATM   17  C20 UNL     1       0.347   5.789  10.796  1.00  0.00     0.057 A 
HETATM   18  C21 UNL     1       1.437   6.447  10.233  1.00  0.00     0.067 A 
HETATM   19  C22 UNL     1       1.879   7.662  10.739  1.00  0.00     0.037 A 
HETATM   20  C23 UNL     1       1.225   8.230  11.835  1.00  0.00     0.014 A 
HETATM   21  C24 UNL     1       0.120   7.588  12.444  1.00  0.00    -0.006 A 
HETATM   22  C25 UNL     1      -0.471   8.163  13.729  1.00  0.00     0.185 C 
HETATM   23  O6  UNL     1      -1.864   7.850  13.840  1.00  0.00    -0.371 OA
HETATM   24  C26 UNL     1      -1.694  11.375  15.844  1.00  0.00     0.115 A 
HETATM   25  C27 UNL     1      -2.308  12.748  16.153  1.00  0.00    -0.035 A 
HETATM   26  C28 UNL     1      -2.229  13.820  15.257  1.00  0.00     0.010 A 
HETATM   27  C29 UNL     1      -2.671  15.103  15.625  1.00  0.00     0.012 A 
HETATM   28  C30 UNL     1      -3.222  15.357  16.896  1.00  0.00    -0.003 A 
HETATM   29  C31 UNL     1      -3.363  14.258  17.763  1.00  0.00     0.012 A 
HETATM   30  C32 UNL     1      -2.913  12.982  17.398  1.00  0.00     0.010 A 
HETATM   31  C33 UNL     1      -3.558  16.812  17.363  1.00  0.00     0.171 C 
HETATM   32  O8  UNL     1      -2.799  17.209  18.567  1.00  0.00    -0.316 OA
HETATM   33  C38 UNL     1      -1.492  16.798  18.611  1.00  0.00     0.072 C 
HETATM   34  C39 UNL     1      -1.138  16.006  19.702  1.00  0.00     0.037 C 
HETATM   35  C40 UNL     1       0.018  15.234  19.632  1.00  0.00     0.010 C 
HETATM   36  C41 UNL     1       0.829  15.285  18.486  1.00  0.00    -0.054 C 
HETATM   37  C42 UNL     1       0.591  16.283  17.526  1.00  0.00     0.010 C 
HETATM   38  C43 UNL     1      -0.580  17.042  17.587  1.00  0.00     0.037 C 
HETATM   39 NA1  UNL     1      -1.702  12.035  15.834  1.00  0.00    -0.404 Na
ATOM     40  HA1 UNL     1      -2.280  12.873  15.892  1.00  0.00     0.154 HD
ENDROOT
BRANCH  31  41
HETATM   41  C34 UNL     1      -5.043  16.840  17.872  1.00  0.00     0.069 C 
BRANCH  41  42
HETATM   42  C35 UNL     1      -5.301  17.102  19.368  1.00  0.00     0.031 C 
BRANCH  42  43
HETATM   43  C36 UNL     1      -5.692  15.892  20.205  1.00  0.00     0.164 C 
BRANCH  43  44
HETATM   44  O7  UNL     1      -7.075  15.955  20.541  1.00  0.00    -0.401 OA
HETATM   45  H42 UNL     1      -7.287  15.115  20.975  1.00  0.00     0.209 HD
ENDBRANCH  43  44
ENDBRANCH  42  43
ENDBRANCH  41  42
ENDBRANCH  31  41
BRANCH  31  46
HETATM   46  N1  UNL     1      -3.475  17.752  16.220  1.00  0.00    -0.331 N 
HETATM   47  C37 UNL     1      -3.450  19.022  16.393  1.00  0.00     0.146 C 
HETATM   48  N2  UNL     1      -3.359  19.830  15.317  1.00  0.00    -0.376 N 
HETATM   49  N3  UNL     1      -3.445  19.746  17.535  1.00  0.00    -0.274 NA
HETATM   50  H43 UNL     1      -3.770  20.745  15.382  1.00  0.00     0.158 HD
HETATM   51  H44 UNL     1      -3.489  19.341  14.437  1.00  0.00     0.158 HD
HETATM   52  H45 UNL     1      -3.484  19.166  18.368  1.00  0.00     0.127 HD
HETATM   53  H46 UNL     1      -4.142  20.479  17.581  1.00  0.00     0.127 HD
ATOM     54  H1  UNL     1      -3.437  17.379  15.271  1.00  0.00     0.165 HD
ENDBRANCH  31  46
BRANCH   1  55
HETATM   55  C2  UNL     1       2.426  13.423  19.249  1.00  0.00     0.005 C 
HETATM   56  C1  UNL     1       1.596  13.376  20.528  1.00  0.00     0.006 C 
ENDBRANCH   1  55
BRANCH   3  57
HETATM   57  S1  UNL     1       0.449  10.502  18.277  1.00  0.00     0.108 S 
HETATM   58  O1  UNL     1       1.765  10.219  18.855  1.00  0.00    -0.595 OA
HETATM   59  O2  UNL     1      -0.468  11.179  19.197  1.00  0.00    -0.595 OA
HETATM   60  O3  UNL     1      -0.168   9.373  17.585  1.00  0.00    -0.595 OA
ENDBRANCH   3  57
BRANCH  12  61
HETATM   61  C15 UNL     1      -5.594   6.032  14.987  1.00  0.00     0.169 C 
BRANCH  61  62
HETATM   62  O4  UNL     1      -5.761   6.524  16.312  1.00  0.00    -0.400 OA
HETATM   63  H23 UNL     1      -5.482   7.451  16.334  1.00  0.00     0.209 HD
ENDBRANCH  61  62
ENDBRANCH  12  61
BRANCH  18  64
HETATM   64  O5  UNL     1       2.067   5.862   9.168  1.00  0.00    -0.361 OA
HETATM   65  H27 UNL     1       2.850   6.385   8.945  1.00  0.00     0.217 HD
ENDBRANCH  18  64
TORSDOF 10
ENDMDL
MODEL 9
REMARK minimizedAffinity -7.01440525
REMARK CNNscore 0.090465419
REMARK CNNaffinity 6.03724146
REMARK  10 active torsions:
REMARK  status: ('A' for Active; 'I' for Inactive)
REMARK    1  A    between atoms: C2_2  and  C3_3 
REMARK    2  A    between atoms: C5_5  and  S1_6 
REMARK    3  A    between atoms: C14_18  and  C15_19 
REMARK    4  A    between atoms: C15_19  and  O4_20 
REMARK    5  A    between atoms: C21_26  and  O5_27 
REMARK    6  A    between atoms: C33_40  and  C34_41 
REMARK    7  A    between atoms: C33_40  and  N1_45 
REMARK    8  A    between atoms: C34_41  and  C35_42 
REMARK    9  A    between atoms: C35_42  and  C36_43 
REMARK   10  A    between atoms: C36_43  and  O7_44 
REMARK       I    between atoms: N1_45  and  C37_47 
REMARK       I    between atoms: C37_47  and  N3_49 
ROOT
HETATM    1  C3  UNL     1     -17.336  10.155  14.429  1.00  0.00     0.019 C 
HETATM    2  C4  UNL     1     -17.297   8.611  14.218  1.00  0.00     0.034 C 
HETATM    3  C5  UNL     1     -18.537   7.696  14.150  1.00  0.00     0.157 C 
HETATM    4  C6  UNL     1     -18.172   6.270  14.722  1.00  0.00     0.121 A 
HETATM    5  C7  UNL     1     -19.422   5.479  15.087  1.00  0.00     0.005 C 
HETATM    6  C8  UNL     1     -19.305   4.171  15.385  1.00  0.00    -0.048 C 
HETATM    7  C9  UNL     1     -17.923   3.622  15.589  1.00  0.00     0.044 C 
HETATM    8  C10 UNL     1     -17.144   3.848  14.286  1.00  0.00     0.019 C 
HETATM    9  C11 UNL     1     -17.627   2.887  13.150  1.00  0.00     0.039 C 
HETATM   10  C12 UNL     1     -19.159   2.764  12.958  1.00  0.00     0.123 C 
HETATM   11  C13 UNL     1     -19.538   1.814  11.798  1.00  0.00     0.039 C 
HETATM   12  C14 UNL     1     -19.402   0.291  12.102  1.00  0.00     0.023 C 
HETATM   13  C16 UNL     1     -20.764  -0.404  12.385  1.00  0.00     0.101 C 
HETATM   14  C17 UNL     1     -21.361   0.020  13.657  1.00  0.00    -0.101 C 
HETATM   15  C18 UNL     1     -21.694   0.526  14.694  1.00  0.00    -0.066 C 
HETATM   16  C19 UNL     1     -21.862   1.295  15.894  1.00  0.00     0.029 A 
HETATM   17  C20 UNL     1     -22.696   0.776  16.893  1.00  0.00     0.057 A 
HETATM   18  C21 UNL     1     -22.893   1.492  18.071  1.00  0.00     0.067 A 
HETATM   19  C22 UNL     1     -22.258   2.709  18.284  1.00  0.00     0.037 A 
HETATM   20  C23 UNL     1     -21.415   3.228  17.299  1.00  0.00     0.014 A 
HETATM   21  C24 UNL     1     -21.197   2.538  16.082  1.00  0.00    -0.006 A 
HETATM   22  C25 UNL     1     -20.392   3.206  14.971  1.00  0.00     0.185 C 
HETATM   23  O6  UNL     1     -19.730   2.232  14.156  1.00  0.00    -0.371 OA
HETATM   24  C26 UNL     1     -17.177   5.371  13.845  1.00  0.00     0.115 A 
HETATM   25  C27 UNL     1     -15.737   5.902  13.815  1.00  0.00    -0.035 A 
HETATM   26  C28 UNL     1     -14.960   6.021  14.973  1.00  0.00     0.010 A 
HETATM   27  C29 UNL     1     -13.700   6.644  14.937  1.00  0.00     0.012 A 
HETATM   28  C30 UNL     1     -13.164   7.158  13.740  1.00  0.00    -0.003 A 
HETATM   29  C31 UNL     1     -13.922   6.970  12.569  1.00  0.00     0.012 A 
HETATM   30  C32 UNL     1     -15.182   6.356  12.608  1.00  0.00     0.010 A 
HETATM   31  C33 UNL     1     -11.844   7.996  13.730  1.00  0.00     0.171 C 
HETATM   32  O8  UNL     1     -12.047   9.365  13.214  1.00  0.00    -0.316 OA
HETATM   33  C38 UNL     1     -13.206   9.984  13.603  1.00  0.00     0.072 C 
HETATM   34  C39 UNL     1     -14.052  10.397  12.574  1.00  0.00     0.037 C 
HETATM   35  C40 UNL     1     -15.388  10.662  12.861  1.00  0.00     0.010 C 
HETATM   36  C41 UNL     1     -15.860  10.547  14.179  1.00  0.00    -0.054 C 
HETATM   37  C42 UNL     1     -14.933  10.391  15.225  1.00  0.00     0.010 C 
HETATM   38  C43 UNL     1     -13.599  10.104  14.934  1.00  0.00     0.037 C 
HETATM   39 NA1  UNL     1     -16.669   5.716  14.088  1.00  0.00    -0.404 Na
ATOM     40  HA1 UNL     1     -15.656   5.840  14.087  1.00  0.00     0.154 HD
ENDROOT
BRANCH  31  41
HETATM   41  C34 UNL     1     -10.868   7.373  12.670  1.00  0.00     0.069 C 
BRANCH  41  42
HETATM   42  C35 UNL     1      -9.838   6.330  13.144  1.00  0.00     0.031 C 
BRANCH  42  43
HETATM   43  C36 UNL     1      -8.869   5.813  12.090  1.00  0.00     0.164 C 
BRANCH  43  44
HETATM   44  O7  UNL     1      -9.324   6.172  10.789  1.00  0.00    -0.401 OA
HETATM   45  H42 UNL     1      -8.620   5.915  10.175  1.00  0.00     0.209 HD
ENDBRANCH  43  44
ENDBRANCH  42  43
ENDBRANCH  41  42
ENDBRANCH  31  41
BRANCH  31  46
HETATM   46  N1  UNL     1     -11.167   7.906  15.046  1.00  0.00    -0.331 N 
HETATM   47  C37 UNL     1     -10.292   8.767  15.413  1.00  0.00     0.146 C 
HETATM   48  N2  UNL     1      -9.718   8.644  16.628  1.00  0.00    -0.376 N 
HETATM   49  N3  UNL     1      -9.846   9.879  14.785  1.00  0.00    -0.274 NA
HETATM   50  H43 UNL     1      -8.783   8.995  16.742  1.00  0.00     0.158 HD
HETATM   51  H44 UNL     1      -9.924   7.759  17.080  1.00  0.00     0.158 HD
HETATM   52  H45 UNL     1     -10.279  10.017  13.877  1.00  0.00     0.127 HD
HETATM   53  H46 UNL     1      -8.839   9.956  14.712  1.00  0.00     0.127 HD
ATOM     54  H1  UNL     1     -11.405   7.139  15.676  1.00  0.00     0.165 HD
ENDBRANCH  31  46
BRANCH   1  55
HETATM   55  C2  UNL     1     -18.322  10.973  13.582  1.00  0.00     0.005 C 
HETATM   56  C1  UNL     1     -17.828  11.171  12.153  1.00  0.00     0.006 C 
ENDBRANCH   1  55
BRANCH   3  57
HETATM   57  S1  UNL     1     -19.258   7.616  12.467  1.00  0.00     0.108 S 
HETATM   58  O1  UNL     1     -18.140   7.893  11.561  1.00  0.00    -0.595 OA
HETATM   59  O2  UNL     1     -19.806   6.264  12.334  1.00  0.00    -0.595 OA
HETATM   60  O3  UNL     1     -20.290   8.650  12.495  1.00  0.00    -0.595 OA
ENDBRANCH   3  57
BRANCH  12  61
HETATM   61  C15 UNL     1     -18.717  -0.424  10.923  1.00  0.00     0.169 C 
BRANCH  61  62
HETATM   62  O4  UNL     1     -17.304  -0.250  10.932  1.00  0.00    -0.400 OA
HETATM   63  H23 UNL     1     -16.970  -0.480  11.812  1.00  0.00     0.209 HD
ENDBRANCH  61  62
ENDBRANCH  12  61
BRANCH  18  64
HETATM   64  O5  UNL     1     -23.733   0.967  19.015  1.00  0.00    -0.361 OA
HETATM   65  H27 UNL     1     -23.839   1.610  19.729  1.00  0.00     0.217 HD
ENDBRANCH  18  64
TORSDOF 10
ENDMDL
