MODEL 1
REMARK minimizedAffinity -9.18995953
REMARK  7 active torsions:
REMARK  status: ('A' for Active; 'I' for Inactive)
REMARK       I    between atoms: C1_2  and  N1_3 
REMARK    1  A    between atoms: C1_2  and  C8_12 
REMARK    2  A    between atoms: N1_3  and  C2_4 
REMARK    3  A    between atoms: C2_4  and  C3_5 
REMARK    4  A    between atoms: C14_19  and  C15_20 
REMARK    5  A    between atoms: C15_20  and  N4_21 
REMARK    6  A    between atoms: C17_23  and  C18_24 
REMARK    7  A    between atoms: C18_24  and  C19_25 
ROOT
HETATM    1  C8  UNL     1      -2.744  49.289 -25.851  1.00  0.00     0.110 C 
HETATM    2  C9  UNL     1      -3.065  49.950 -27.204  1.00  0.00     0.287 C 
HETATM    3  N3  UNL     1      -2.389  51.273 -27.321  1.00  0.00     0.095 N 
HETATM    4  C10 UNL     1      -3.009  52.188 -26.338  1.00  0.00     0.273 C 
HETATM    5  C11 UNL     1      -2.907  51.642 -24.906  1.00  0.00     0.036 C 
HETATM    6  C12 UNL     1      -2.099  50.334 -24.913  1.00  0.00     0.004 C 
HETATM    7  C13 UNL     1      -0.732  50.704 -25.531  1.00  0.00     0.043 C 
HETATM    8  C14 UNL     1      -0.931  51.077 -27.025  1.00  0.00     0.242 C 
ENDROOT
BRANCH   8   9
HETATM    9  C15 UNL     1      -0.041  52.269 -27.424  1.00  0.00     0.181 C 
BRANCH   9  10
HETATM   10  N4  UNL     1       0.212  53.171 -26.322  1.00  0.00    -0.283 N 
HETATM   11  C16 UNL     1       0.762  52.886 -25.109  1.00  0.00     0.134 A 
HETATM   12  C17 UNL     1       0.800  54.104 -24.469  1.00  0.00     0.041 A 
HETATM   13  N5  UNL     1       0.295  55.065 -25.306  1.00  0.00    -0.287 N 
HETATM   14  N6  UNL     1      -0.055  54.482 -26.444  1.00  0.00    -0.020 NA
ATOM     15  H5  UNL     1       0.203  56.058 -25.090  1.00  0.00     0.184 HD
BRANCH  12  16
HETATM   16  C18 UNL     1       1.279  54.447 -23.105  1.00  0.00     0.064 C 
BRANCH  16  17
HETATM   17  C19 UNL     1       1.013  53.339 -22.068  1.00  0.00    -0.009 C 
HETATM   18  C20 UNL     1      -0.364  52.704 -22.322  1.00  0.00     0.005 C 
HETATM   19  C21 UNL     1      -0.693  51.625 -21.292  1.00  0.00     0.000 C 
HETATM   20  C22 UNL     1      -0.600  52.163 -19.868  1.00  0.00     0.000 C 
HETATM   21  C23 UNL     1       0.763  52.794 -19.600  1.00  0.00     0.000 C 
HETATM   22  C24 UNL     1       1.100  53.873 -20.627  1.00  0.00     0.005 C 
ENDBRANCH  16  17
ENDBRANCH  12  16
ENDBRANCH   9  10
ENDBRANCH   8   9
BRANCH   1  23
HETATM   23  C1  UNL     1      -3.913  48.534 -25.230  1.00  0.00     0.224 C 
HETATM   24  O1  UNL     1      -4.763  47.996 -25.937  1.00  0.00    -0.273 OA
HETATM   25  N1  UNL     1      -3.942  48.451 -23.859  1.00  0.00    -0.356 N 
HETATM   26  H1  UNL     1      -3.341  49.049 -23.312  1.00  0.00     0.162 HD
BRANCH  25  27
HETATM   27  C2  UNL     1      -5.058  47.844 -23.165  1.00  0.00     0.162 C 
BRANCH  27  28
HETATM   28  C3  UNL     1      -6.354  48.184 -23.838  1.00  0.00    -0.025 A 
HETATM   29  C4  UNL     1      -7.095  47.227 -24.537  1.00  0.00     0.011 A 
HETATM   30  C5  UNL     1      -8.303  47.586 -25.129  1.00  0.00     0.018 A 
HETATM   31  C6  UNL     1      -8.735  48.894 -24.995  1.00  0.00     0.087 A 
HETATM   32  N2  UNL     1      -8.055  49.843 -24.319  1.00  0.00    -0.375 N 
HETATM   33  C7  UNL     1      -6.884  49.469 -23.755  1.00  0.00     0.096 A 
ATOM     34  H2  UNL     1      -8.407  50.797 -24.237  1.00  0.00     0.164 HD
ENDBRANCH  27  28
ENDBRANCH  25  27
ENDBRANCH   1  23
TORSDOF 7
ENDMDL
MODEL 2
REMARK minimizedAffinity -9.07931423
REMARK  7 active torsions:
REMARK  status: ('A' for Active; 'I' for Inactive)
REMARK       I    between atoms: C1_2  and  N1_3 
REMARK    1  A    between atoms: C1_2  and  C8_12 
REMARK    2  A    between atoms: N1_3  and  C2_4 
REMARK    3  A    between atoms: C2_4  and  C3_5 
REMARK    4  A    between atoms: C14_19  and  C15_20 
REMARK    5  A    between atoms: C15_20  and  N4_21 
REMARK    6  A    between atoms: C17_23  and  C18_24 
REMARK    7  A    between atoms: C18_24  and  C19_25 
ROOT
HETATM    1  C8  UNL     1      -2.926  49.305 -25.812  1.00  0.00     0.110 C 
HETATM    2  C9  UNL     1      -3.013  49.894 -27.231  1.00  0.00     0.287 C 
HETATM    3  N3  UNL     1      -2.213  51.147 -27.335  1.00  0.00     0.095 N 
HETATM    4  C10 UNL     1      -2.869  52.175 -26.497  1.00  0.00     0.273 C 
HETATM    5  C11 UNL     1      -2.998  51.723 -25.035  1.00  0.00     0.036 C 
HETATM    6  C12 UNL     1      -2.315  50.357 -24.859  1.00  0.00     0.004 C 
HETATM    7  C13 UNL     1      -0.853  50.572 -25.312  1.00  0.00     0.043 C 
HETATM    8  C14 UNL     1      -0.827  50.856 -26.838  1.00  0.00     0.242 C 
ENDROOT
BRANCH   8   9
HETATM    9  C15 UNL     1       0.208  51.942 -27.185  1.00  0.00     0.181 C 
BRANCH   9  10
HETATM   10  N4  UNL     1       0.371  52.916 -26.128  1.00  0.00    -0.283 N 
HETATM   11  C16 UNL     1       0.920  52.737 -24.895  1.00  0.00     0.134 A 
HETATM   12  C17 UNL     1       0.852  53.986 -24.319  1.00  0.00     0.041 A 
HETATM   13  N5  UNL     1       0.287  54.860 -25.211  1.00  0.00    -0.287 N 
HETATM   14  N6  UNL     1       0.004  54.194 -26.322  1.00  0.00    -0.020 NA
ATOM     15  H5  UNL     1       0.115  55.852 -25.049  1.00  0.00     0.184 HD
BRANCH  12  16
HETATM   16  C18 UNL     1       1.279  54.435 -22.968  1.00  0.00     0.064 C 
BRANCH  16  17
HETATM   17  C19 UNL     1       1.048  53.378 -21.872  1.00  0.00    -0.009 C 
HETATM   18  C20 UNL     1      -0.310  52.689 -22.088  1.00  0.00     0.005 C 
HETATM   19  C21 UNL     1      -0.606  51.659 -21.000  1.00  0.00     0.000 C 
HETATM   20  C22 UNL     1      -0.528  52.276 -19.608  1.00  0.00     0.000 C 
HETATM   21  C23 UNL     1       0.815  52.962 -19.377  1.00  0.00     0.000 C 
HETATM   22  C24 UNL     1       1.119  53.992 -20.462  1.00  0.00     0.005 C 
ENDBRANCH  16  17
ENDBRANCH  12  16
ENDBRANCH   9  10
ENDBRANCH   8   9
BRANCH   1  23
HETATM   23  C1  UNL     1      -4.227  48.691 -25.307  1.00  0.00     0.224 C 
HETATM   24  O1  UNL     1      -4.379  48.428 -24.116  1.00  0.00    -0.273 OA
HETATM   25  N1  UNL     1      -5.222  48.492 -26.233  1.00  0.00    -0.356 N 
HETATM   26  H1  UNL     1      -5.003  48.547 -27.217  1.00  0.00     0.162 HD
BRANCH  25  27
HETATM   27  C2  UNL     1      -6.457  47.826 -25.880  1.00  0.00     0.162 C 
BRANCH  27  28
HETATM   28  C3  UNL     1      -7.060  47.152 -27.077  1.00  0.00    -0.025 A 
HETATM   29  C4  UNL     1      -6.516  47.295 -28.356  1.00  0.00     0.011 A 
HETATM   30  C5  UNL     1      -7.099  46.633 -29.433  1.00  0.00     0.018 A 
HETATM   31  C6  UNL     1      -8.208  45.841 -29.192  1.00  0.00     0.087 A 
HETATM   32  N2  UNL     1      -8.757  45.669 -27.971  1.00  0.00    -0.375 N 
HETATM   33  C7  UNL     1      -8.172  46.324 -26.943  1.00  0.00     0.096 A 
ATOM     34  H2  UNL     1      -9.573  45.073 -27.830  1.00  0.00     0.164 HD
ENDBRANCH  27  28
ENDBRANCH  25  27
ENDBRANCH   1  23
TORSDOF 7
ENDMDL
MODEL 3
REMARK minimizedAffinity -8.93921757
REMARK  7 active torsions:
REMARK  status: ('A' for Active; 'I' for Inactive)
REMARK       I    between atoms: C1_2  and  N1_3 
REMARK    1  A    between atoms: C1_2  and  C8_12 
REMARK    2  A    between atoms: N1_3  and  C2_4 
REMARK    3  A    between atoms: C2_4  and  C3_5 
REMARK    4  A    between atoms: C14_19  and  C15_20 
REMARK    5  A    between atoms: C15_20  and  N4_21 
REMARK    6  A    between atoms: C17_23  and  C18_24 
REMARK    7  A    between atoms: C18_24  and  C19_25 
ROOT
HETATM    1  C8  UNL     1      -3.907  51.569 -24.981  1.00  0.00     0.110 C 
HETATM    2  C9  UNL     1      -4.437  50.146 -24.729  1.00  0.00     0.287 C 
HETATM    3  N3  UNL     1      -4.321  49.785 -23.288  1.00  0.00     0.095 N 
HETATM    4  C10 UNL     1      -2.883  49.677 -22.962  1.00  0.00     0.273 C 
HETATM    5  C11 UNL     1      -2.128  50.979 -23.265  1.00  0.00     0.036 C 
HETATM    6  C12 UNL     1      -3.126  52.050 -23.738  1.00  0.00     0.004 C 
HETATM    7  C13 UNL     1      -4.152  52.184 -22.590  1.00  0.00     0.043 C 
HETATM    8  C14 UNL     1      -4.973  50.871 -22.483  1.00  0.00     0.242 C 
ENDROOT
BRANCH   8   9
HETATM    9  C15 UNL     1      -5.233  50.495 -21.012  1.00  0.00     0.181 C 
BRANCH   9  10
HETATM   10  N4  UNL     1      -4.018  50.426 -20.231  1.00  0.00    -0.283 N 
HETATM   11  C16 UNL     1      -3.276  51.453 -19.732  1.00  0.00     0.134 A 
HETATM   12  C17 UNL     1      -2.260  50.825 -19.048  1.00  0.00     0.041 A 
HETATM   13  N5  UNL     1      -2.426  49.468 -19.145  1.00  0.00    -0.287 N 
HETATM   14  N6  UNL     1      -3.515  49.234 -19.866  1.00  0.00    -0.020 NA
ATOM     15  H5  UNL     1      -1.819  48.760 -18.733  1.00  0.00     0.184 HD
BRANCH  12  16
HETATM   16  C18 UNL     1      -1.117  51.408 -18.298  1.00  0.00     0.064 C 
BRANCH  16  17
HETATM   17  C19 UNL     1      -0.004  51.957 -19.211  1.00  0.00    -0.009 C 
HETATM   18  C20 UNL     1      -0.168  53.478 -19.379  1.00  0.00     0.005 C 
HETATM   19  C21 UNL     1       0.889  54.065 -20.312  1.00  0.00     0.000 C 
HETATM   20  C22 UNL     1       0.889  53.368 -21.667  1.00  0.00     0.000 C 
HETATM   21  C23 UNL     1       1.054  51.859 -21.518  1.00  0.00     0.000 C 
HETATM   22  C24 UNL     1       0.002  51.264 -20.585  1.00  0.00     0.005 C 
ENDBRANCH  16  17
ENDBRANCH  12  16
ENDBRANCH   9  10
ENDBRANCH   8   9
BRANCH   1  23
HETATM   23  C1  UNL     1      -3.149  51.732 -26.293  1.00  0.00     0.224 C 
HETATM   24  O1  UNL     1      -3.364  50.982 -27.243  1.00  0.00    -0.273 OA
HETATM   25  N1  UNL     1      -2.257  52.774 -26.371  1.00  0.00    -0.356 N 
HETATM   26  H1  UNL     1      -1.974  53.250 -25.528  1.00  0.00     0.162 HD
BRANCH  25  27
HETATM   27  C2  UNL     1      -1.414  52.958 -27.533  1.00  0.00     0.162 C 
BRANCH  27  28
HETATM   28  C3  UNL     1      -0.016  52.492 -27.257  1.00  0.00    -0.025 A 
HETATM   29  C4  UNL     1       0.478  52.375 -25.955  1.00  0.00     0.011 A 
HETATM   30  C5  UNL     1       1.778  51.919 -25.747  1.00  0.00     0.018 A 
HETATM   31  C6  UNL     1       2.539  51.586 -26.853  1.00  0.00     0.087 A 
HETATM   32  N2  UNL     1       2.095  51.674 -28.125  1.00  0.00    -0.375 N 
HETATM   33  C7  UNL     1       0.831  52.122 -28.298  1.00  0.00     0.096 A 
ATOM     34  H2  UNL     1       2.684  51.416 -28.916  1.00  0.00     0.164 HD
ENDBRANCH  27  28
ENDBRANCH  25  27
ENDBRANCH   1  23
TORSDOF 7
ENDMDL
MODEL 4
REMARK minimizedAffinity -8.69126701
REMARK  7 active torsions:
REMARK  status: ('A' for Active; 'I' for Inactive)
REMARK       I    between atoms: C1_2  and  N1_3 
REMARK    1  A    between atoms: C1_2  and  C8_12 
REMARK    2  A    between atoms: N1_3  and  C2_4 
REMARK    3  A    between atoms: C2_4  and  C3_5 
REMARK    4  A    between atoms: C14_19  and  C15_20 
REMARK    5  A    between atoms: C15_20  and  N4_21 
REMARK    6  A    between atoms: C17_23  and  C18_24 
REMARK    7  A    between atoms: C18_24  and  C19_25 
ROOT
HETATM    1  C8  UNL     1      -2.527  49.639 -25.323  1.00  0.00     0.110 C 
HETATM    2  C9  UNL     1      -3.056  50.394 -26.555  1.00  0.00     0.287 C 
HETATM    3  N3  UNL     1      -2.529  51.788 -26.590  1.00  0.00     0.095 N 
HETATM    4  C10 UNL     1      -3.123  52.526 -25.456  1.00  0.00     0.273 C 
HETATM    5  C11 UNL     1      -2.814  51.854 -24.110  1.00  0.00     0.036 C 
HETATM    6  C12 UNL     1      -1.887  50.649 -24.342  1.00  0.00     0.004 C 
HETATM    7  C13 UNL     1      -0.638  51.224 -25.047  1.00  0.00     0.043 C 
HETATM    8  C14 UNL     1      -1.034  51.722 -26.463  1.00  0.00     0.242 C 
ENDROOT
BRANCH   8   9
HETATM    9  C15 UNL     1      -0.314  53.037 -26.813  1.00  0.00     0.181 C 
BRANCH   9  10
HETATM   10  N4  UNL     1       0.204  53.718 -25.646  1.00  0.00    -0.283 N 
HETATM   11  C16 UNL     1       0.616  53.175 -24.467  1.00  0.00     0.134 A 
HETATM   12  C17 UNL     1       1.039  54.261 -23.734  1.00  0.00     0.041 A 
HETATM   13  N5  UNL     1       0.882  55.397 -24.485  1.00  0.00    -0.287 N 
HETATM   14  N6  UNL     1       0.377  55.050 -25.661  1.00  0.00    -0.020 NA
ATOM     15  H5  UNL     1       1.115  56.345 -24.190  1.00  0.00     0.184 HD
BRANCH  12  16
HETATM   16  C18 UNL     1       1.585  54.321 -22.353  1.00  0.00     0.064 C 
BRANCH  16  17
HETATM   17  C19 UNL     1       0.647  53.705 -21.297  1.00  0.00    -0.009 C 
HETATM   18  C20 UNL     1       1.337  53.703 -19.922  1.00  0.00     0.005 C 
HETATM   19  C21 UNL     1       0.462  53.063 -18.847  1.00  0.00     0.000 C 
HETATM   20  C22 UNL     1       0.033  51.653 -19.239  1.00  0.00     0.000 C 
HETATM   21  C23 UNL     1      -0.655  51.639 -20.600  1.00  0.00     0.000 C 
HETATM   22  C24 UNL     1       0.213  52.279 -21.681  1.00  0.00     0.005 C 
ENDBRANCH  16  17
ENDBRANCH  12  16
ENDBRANCH   9  10
ENDBRANCH   8   9
BRANCH   1  23
HETATM   23  C1  UNL     1      -3.542  48.704 -24.677  1.00  0.00     0.224 C 
HETATM   24  O1  UNL     1      -4.438  48.189 -25.344  1.00  0.00    -0.273 OA
HETATM   25  N1  UNL     1      -3.379  48.436 -23.339  1.00  0.00    -0.356 N 
HETATM   26  H1  UNL     1      -2.755  49.008 -22.791  1.00  0.00     0.162 HD
BRANCH  25  27
HETATM   27  C2  UNL     1      -4.342  47.642 -22.608  1.00  0.00     0.162 C 
BRANCH  27  28
HETATM   28  C3  UNL     1      -5.273  48.520 -21.826  1.00  0.00    -0.025 A 
HETATM   29  C4  UNL     1      -6.546  48.088 -21.442  1.00  0.00     0.011 A 
HETATM   30  C5  UNL     1      -7.367  48.932 -20.699  1.00  0.00     0.018 A 
HETATM   31  C6  UNL     1      -6.883  50.182 -20.356  1.00  0.00     0.087 A 
HETATM   32  N2  UNL     1      -5.656  50.630 -20.697  1.00  0.00    -0.375 N 
HETATM   33  C7  UNL     1      -4.880  49.792 -21.420  1.00  0.00     0.096 A 
ATOM     34  H2  UNL     1      -5.331  51.558 -20.422  1.00  0.00     0.164 HD
ENDBRANCH  27  28
ENDBRANCH  25  27
ENDBRANCH   1  23
TORSDOF 7
ENDMDL
MODEL 5
REMARK minimizedAffinity -8.52503967
REMARK  7 active torsions:
REMARK  status: ('A' for Active; 'I' for Inactive)
REMARK       I    between atoms: C1_2  and  N1_3 
REMARK    1  A    between atoms: C1_2  and  C8_12 
REMARK    2  A    between atoms: N1_3  and  C2_4 
REMARK    3  A    between atoms: C2_4  and  C3_5 
REMARK    4  A    between atoms: C14_19  and  C15_20 
REMARK    5  A    between atoms: C15_20  and  N4_21 
REMARK    6  A    between atoms: C17_23  and  C18_24 
REMARK    7  A    between atoms: C18_24  and  C19_25 
ROOT
HETATM    1  C8  UNL     1      -1.053  51.481 -26.490  1.00  0.00     0.110 C 
HETATM    2  C9  UNL     1      -1.134  50.159 -25.706  1.00  0.00     0.287 C 
HETATM    3  N3  UNL     1      -2.523  49.619 -25.719  1.00  0.00     0.095 N 
HETATM    4  C10 UNL     1      -3.374  50.537 -24.931  1.00  0.00     0.273 C 
HETATM    5  C11 UNL     1      -3.335  51.969 -25.483  1.00  0.00     0.036 C 
HETATM    6  C12 UNL     1      -2.483  52.000 -26.763  1.00  0.00     0.004 C 
HETATM    7  C13 UNL     1      -3.150  50.988 -27.721  1.00  0.00     0.043 C 
HETATM    8  C14 UNL     1      -2.983  49.555 -27.147  1.00  0.00     0.242 C 
ENDROOT
BRANCH   8   9
HETATM    9  C15 UNL     1      -4.257  48.717 -27.361  1.00  0.00     0.181 C 
BRANCH   9  10
HETATM   10  N4  UNL     1      -4.728  48.756 -28.728  1.00  0.00    -0.283 N 
HETATM   11  C16 UNL     1      -5.712  48.011 -29.302  1.00  0.00     0.134 A 
HETATM   12  C17 UNL     1      -5.767  48.477 -30.597  1.00  0.00     0.041 A 
HETATM   13  N5  UNL     1      -4.841  49.476 -30.752  1.00  0.00    -0.287 N 
HETATM   14  N6  UNL     1      -4.215  49.645 -29.596  1.00  0.00    -0.020 NA
ATOM     15  H5  UNL     1      -4.665  49.999 -31.610  1.00  0.00     0.184 HD
BRANCH  12  16
HETATM   16  C18 UNL     1      -6.633  48.048 -31.726  1.00  0.00     0.064 C 
BRANCH  16  17
HETATM   17  C19 UNL     1      -6.262  46.662 -32.288  1.00  0.00    -0.009 C 
HETATM   18  C20 UNL     1      -7.216  45.596 -31.721  1.00  0.00     0.005 C 
HETATM   19  C21 UNL     1      -6.863  44.195 -32.216  1.00  0.00     0.000 C 
HETATM   20  C22 UNL     1      -5.413  43.841 -31.909  1.00  0.00     0.000 C 
HETATM   21  C23 UNL     1      -4.454  44.888 -32.467  1.00  0.00     0.000 C 
HETATM   22  C24 UNL     1      -4.801  46.292 -31.978  1.00  0.00     0.005 C 
ENDBRANCH  16  17
ENDBRANCH  12  16
ENDBRANCH   9  10
ENDBRANCH   8   9
BRANCH   1  23
HETATM   23  C1  UNL     1      -0.122  52.519 -25.874  1.00  0.00     0.224 C 
HETATM   24  O1  UNL     1       0.526  53.285 -26.586  1.00  0.00    -0.273 OA
HETATM   25  N1  UNL     1      -0.080  52.582 -24.503  1.00  0.00    -0.356 N 
HETATM   26  H1  UNL     1      -0.477  51.830 -23.959  1.00  0.00     0.162 HD
BRANCH  25  27
HETATM   27  C2  UNL     1       0.842  53.461 -23.817  1.00  0.00     0.162 C 
BRANCH  27  28
HETATM   28  C3  UNL     1       0.770  53.257 -22.333  1.00  0.00    -0.025 A 
HETATM   29  C4  UNL     1       0.156  52.134 -21.773  1.00  0.00     0.011 A 
HETATM   30  C5  UNL     1       0.131  51.979 -20.389  1.00  0.00     0.018 A 
HETATM   31  C6  UNL     1       0.732  52.951 -19.610  1.00  0.00     0.087 A 
HETATM   32  N2  UNL     1       1.346  54.043 -20.114  1.00  0.00    -0.375 N 
HETATM   33  C7  UNL     1       1.354  54.171 -21.460  1.00  0.00     0.096 A 
ATOM     34  H2  UNL     1       1.783  54.738 -19.508  1.00  0.00     0.164 HD
ENDBRANCH  27  28
ENDBRANCH  25  27
ENDBRANCH   1  23
TORSDOF 7
ENDMDL
MODEL 6
REMARK minimizedAffinity -8.45082092
REMARK  7 active torsions:
REMARK  status: ('A' for Active; 'I' for Inactive)
REMARK       I    between atoms: C1_2  and  N1_3 
REMARK    1  A    between atoms: C1_2  and  C8_12 
REMARK    2  A    between atoms: N1_3  and  C2_4 
REMARK    3  A    between atoms: C2_4  and  C3_5 
REMARK    4  A    between atoms: C14_19  and  C15_20 
REMARK    5  A    between atoms: C15_20  and  N4_21 
REMARK    6  A    between atoms: C17_23  and  C18_24 
REMARK    7  A    between atoms: C18_24  and  C19_25 
ROOT
HETATM    1  C8  UNL     1      -2.963  49.416 -20.655  1.00  0.00     0.110 C 
HETATM    2  C9  UNL     1      -3.435  50.865 -20.442  1.00  0.00     0.287 C 
HETATM    3  N3  UNL     1      -3.584  51.572 -21.745  1.00  0.00     0.095 N 
HETATM    4  C10 UNL     1      -2.235  51.734 -22.330  1.00  0.00     0.273 C 
HETATM    5  C11 UNL     1      -1.525  50.385 -22.513  1.00  0.00     0.036 C 
HETATM    6  C12 UNL     1      -2.478  49.247 -22.113  1.00  0.00     0.004 C 
HETATM    7  C13 UNL     1      -3.719  49.418 -23.018  1.00  0.00     0.043 C 
HETATM    8  C14 UNL     1      -4.455  50.730 -22.632  1.00  0.00     0.242 C 
ENDROOT
BRANCH   8   9
HETATM    9  C15 UNL     1      -4.976  51.464 -23.882  1.00  0.00     0.181 C 
BRANCH   9  10
HETATM   10  N4  UNL     1      -4.112  51.296 -25.030  1.00  0.00    -0.283 N 
HETATM   11  C16 UNL     1      -3.371  52.240 -25.672  1.00  0.00     0.134 A 
HETATM   12  C17 UNL     1      -2.721  51.534 -26.660  1.00  0.00     0.041 A 
HETATM   13  N5  UNL     1      -3.074  50.212 -26.572  1.00  0.00    -0.287 N 
HETATM   14  N6  UNL     1      -3.923  50.076 -25.562  1.00  0.00    -0.020 NA
ATOM     15  H5  UNL     1      -2.743  49.463 -27.179  1.00  0.00     0.184 HD
BRANCH  12  16
HETATM   16  C18 UNL     1      -1.777  52.010 -27.704  1.00  0.00     0.064 C 
BRANCH  16  17
HETATM   17  C19 UNL     1      -0.349  52.247 -27.175  1.00  0.00    -0.009 C 
HETATM   18  C20 UNL     1       0.679  51.713 -28.187  1.00  0.00     0.005 C 
HETATM   19  C21 UNL     1       2.112  51.886 -27.688  1.00  0.00     0.000 C 
HETATM   20  C22 UNL     1       2.312  51.241 -26.322  1.00  0.00     0.000 C 
HETATM   21  C23 UNL     1       1.301  51.762 -25.306  1.00  0.00     0.000 C 
HETATM   22  C24 UNL     1      -0.135  51.594 -25.798  1.00  0.00     0.005 C 
ENDBRANCH  16  17
ENDBRANCH  12  16
ENDBRANCH   9  10
ENDBRANCH   8   9
BRANCH   1  23
HETATM   23  C1  UNL     1      -1.971  48.920 -19.609  1.00  0.00     0.224 C 
HETATM   24  O1  UNL     1      -1.589  47.751 -19.608  1.00  0.00    -0.273 OA
HETATM   25  N1  UNL     1      -1.499  49.844 -18.710  1.00  0.00    -0.356 N 
HETATM   26  H1  UNL     1      -1.964  50.736 -18.625  1.00  0.00     0.162 HD
BRANCH  25  27
HETATM   27  C2  UNL     1      -0.633  49.458 -17.617  1.00  0.00     0.162 C 
BRANCH  27  28
HETATM   28  C3  UNL     1       0.231  50.607 -17.190  1.00  0.00    -0.025 A 
HETATM   29  C4  UNL     1       0.952  50.582 -15.993  1.00  0.00     0.011 A 
HETATM   30  C5  UNL     1       1.757  51.665 -15.648  1.00  0.00     0.018 A 
HETATM   31  C6  UNL     1       1.821  52.738 -16.520  1.00  0.00     0.087 A 
HETATM   32  N2  UNL     1       1.150  52.794 -17.690  1.00  0.00    -0.375 N 
HETATM   33  C7  UNL     1       0.374  51.731 -18.000  1.00  0.00     0.096 A 
ATOM     34  H2  UNL     1       1.224  53.601 -18.311  1.00  0.00     0.164 HD
ENDBRANCH  27  28
ENDBRANCH  25  27
ENDBRANCH   1  23
TORSDOF 7
ENDMDL
MODEL 7
REMARK minimizedAffinity -8.37451553
REMARK  7 active torsions:
REMARK  status: ('A' for Active; 'I' for Inactive)
REMARK       I    between atoms: C1_2  and  N1_3 
REMARK    1  A    between atoms: C1_2  and  C8_12 
REMARK    2  A    between atoms: N1_3  and  C2_4 
REMARK    3  A    between atoms: C2_4  and  C3_5 
REMARK    4  A    between atoms: C14_19  and  C15_20 
REMARK    5  A    between atoms: C15_20  and  N4_21 
REMARK    6  A    between atoms: C17_23  and  C18_24 
REMARK    7  A    between atoms: C18_24  and  C19_25 
ROOT
HETATM    1  C8  UNL     1      -1.061  51.655 -26.363  1.00  0.00     0.110 C 
HETATM    2  C9  UNL     1      -1.075  50.288 -25.655  1.00  0.00     0.287 C 
HETATM    3  N3  UNL     1      -2.436  49.682 -25.700  1.00  0.00     0.095 N 
HETATM    4  C10 UNL     1      -3.329  50.510 -24.862  1.00  0.00     0.273 C 
HETATM    5  C11 UNL     1      -3.363  51.971 -25.332  1.00  0.00     0.036 C 
HETATM    6  C12 UNL     1      -2.516  52.118 -26.607  1.00  0.00     0.004 C 
HETATM    7  C13 UNL     1      -3.133  51.129 -27.622  1.00  0.00     0.043 C 
HETATM    8  C14 UNL     1      -2.894  49.676 -27.130  1.00  0.00     0.242 C 
ENDROOT
BRANCH   8   9
HETATM    9  C15 UNL     1      -4.126  48.790 -27.392  1.00  0.00     0.181 C 
BRANCH   9  10
HETATM   10  N4  UNL     1      -4.520  48.779 -28.784  1.00  0.00    -0.283 N 
HETATM   11  C16 UNL     1      -5.259  47.845 -29.444  1.00  0.00     0.134 A 
HETATM   12  C17 UNL     1      -5.360  48.347 -30.722  1.00  0.00     0.041 A 
HETATM   13  N5  UNL     1      -4.702  49.548 -30.785  1.00  0.00    -0.287 N 
HETATM   14  N6  UNL     1      -4.197  49.808 -29.587  1.00  0.00    -0.020 NA
ATOM     15  H5  UNL     1      -4.615  50.139 -31.612  1.00  0.00     0.184 HD
BRANCH  12  16
HETATM   16  C18 UNL     1      -6.034  47.776 -31.917  1.00  0.00     0.064 C 
BRANCH  16  17
HETATM   17  C19 UNL     1      -7.533  47.495 -31.697  1.00  0.00    -0.009 C 
HETATM   18  C20 UNL     1      -8.182  48.674 -30.953  1.00  0.00     0.005 C 
HETATM   19  C21 UNL     1      -9.662  48.425 -30.673  1.00  0.00     0.000 C 
HETATM   20  C22 UNL     1      -9.877  47.122 -29.912  1.00  0.00     0.000 C 
HETATM   21  C23 UNL     1      -9.240  45.941 -30.639  1.00  0.00     0.000 C 
HETATM   22  C24 UNL     1      -7.760  46.183 -30.924  1.00  0.00     0.005 C 
ENDBRANCH  16  17
ENDBRANCH  12  16
ENDBRANCH   9  10
ENDBRANCH   8   9
BRANCH   1  23
HETATM   23  C1  UNL     1      -0.182  52.702 -25.688  1.00  0.00     0.224 C 
HETATM   24  O1  UNL     1       0.365  53.585 -26.347  1.00  0.00    -0.273 OA
HETATM   25  N1  UNL     1      -0.071  52.633 -24.321  1.00  0.00    -0.356 N 
HETATM   26  H1  UNL     1      -0.378  51.802 -23.839  1.00  0.00     0.162 HD
BRANCH  25  27
HETATM   27  C2  UNL     1       0.816  53.515 -23.593  1.00  0.00     0.162 C 
BRANCH  27  28
HETATM   28  C3  UNL     1       0.725  53.263 -22.117  1.00  0.00    -0.025 A 
HETATM   29  C4  UNL     1       0.139  52.103 -21.602  1.00  0.00     0.011 A 
HETATM   30  C5  UNL     1       0.096  51.903 -20.225  1.00  0.00     0.018 A 
HETATM   31  C6  UNL     1       0.651  52.871 -19.405  1.00  0.00     0.087 A 
HETATM   32  N2  UNL     1       1.236  53.997 -19.864  1.00  0.00    -0.375 N 
HETATM   33  C7  UNL     1       1.263  54.167 -21.205  1.00  0.00     0.096 A 
ATOM     34  H2  UNL     1       1.638  54.687 -19.229  1.00  0.00     0.164 HD
ENDBRANCH  27  28
ENDBRANCH  25  27
ENDBRANCH   1  23
TORSDOF 7
ENDMDL
MODEL 8
REMARK minimizedAffinity -8.30122566
REMARK  7 active torsions:
REMARK  status: ('A' for Active; 'I' for Inactive)
REMARK       I    between atoms: C1_2  and  N1_3 
REMARK    1  A    between atoms: C1_2  and  C8_12 
REMARK    2  A    between atoms: N1_3  and  C2_4 
REMARK    3  A    between atoms: C2_4  and  C3_5 
REMARK    4  A    between atoms: C14_19  and  C15_20 
REMARK    5  A    between atoms: C15_20  and  N4_21 
REMARK    6  A    between atoms: C17_23  and  C18_24 
REMARK    7  A    between atoms: C18_24  and  C19_25 
ROOT
HETATM    1  C8  UNL     1       0.216  51.995 -20.465  1.00  0.00     0.110 C 
HETATM    2  C9  UNL     1      -0.560  52.624 -19.294  1.00  0.00     0.287 C 
HETATM    3  N3  UNL     1      -1.640  51.711 -18.823  1.00  0.00     0.095 N 
HETATM    4  C10 UNL     1      -2.655  51.619 -19.895  1.00  0.00     0.273 C 
HETATM    5  C11 UNL     1      -2.049  51.119 -21.214  1.00  0.00     0.036 C 
HETATM    6  C12 UNL     1      -0.566  50.773 -20.998  1.00  0.00     0.004 C 
HETATM    7  C13 UNL     1      -0.556  49.713 -19.873  1.00  0.00     0.043 C 
HETATM    8  C14 UNL     1      -1.027  50.369 -18.548  1.00  0.00     0.242 C 
ENDROOT
BRANCH   8   9
HETATM    9  C15 UNL     1      -1.932  49.416 -17.745  1.00  0.00     0.181 C 
BRANCH   9  10
HETATM   10  N4  UNL     1      -2.301  49.952 -16.453  1.00  0.00    -0.283 N 
HETATM   11  C16 UNL     1      -1.781  49.643 -15.233  1.00  0.00     0.134 A 
HETATM   12  C17 UNL     1      -2.467  50.463 -14.365  1.00  0.00     0.041 A 
HETATM   13  N5  UNL     1      -3.350  51.232 -15.078  1.00  0.00    -0.287 N 
HETATM   14  N6  UNL     1      -3.233  50.916 -16.361  1.00  0.00    -0.020 NA
ATOM     15  H5  UNL     1      -3.987  51.927 -14.690  1.00  0.00     0.184 HD
BRANCH  12  16
HETATM   16  C18 UNL     1      -2.362  50.584 -12.887  1.00  0.00     0.064 C 
BRANCH  16  17
HETATM   17  C19 UNL     1      -2.432  52.039 -12.387  1.00  0.00    -0.009 C 
HETATM   18  C20 UNL     1      -1.231  52.336 -11.473  1.00  0.00     0.005 C 
HETATM   19  C21 UNL     1      -1.276  53.757 -10.916  1.00  0.00     0.000 C 
HETATM   20  C22 UNL     1      -2.588  54.033 -10.190  1.00  0.00     0.000 C 
HETATM   21  C23 UNL     1      -3.790  53.745 -11.084  1.00  0.00     0.000 C 
HETATM   22  C24 UNL     1      -3.751  52.326 -11.647  1.00  0.00     0.005 C 
ENDBRANCH  16  17
ENDBRANCH  12  16
ENDBRANCH   9  10
ENDBRANCH   8   9
BRANCH   1  23
HETATM   23  C1  UNL     1       0.631  52.986 -21.546  1.00  0.00     0.224 C 
HETATM   24  O1  UNL     1       1.136  54.067 -21.250  1.00  0.00    -0.273 OA
HETATM   25  N1  UNL     1       0.454  52.594 -22.851  1.00  0.00    -0.356 N 
HETATM   26  H1  UNL     1      -0.122  51.791 -23.055  1.00  0.00     0.162 HD
BRANCH  25  27
HETATM   27  C2  UNL     1       0.722  53.496 -23.951  1.00  0.00     0.162 C 
BRANCH  27  28
HETATM   28  C3  UNL     1       0.414  52.841 -25.265  1.00  0.00    -0.025 A 
HETATM   29  C4  UNL     1       0.408  51.451 -25.412  1.00  0.00     0.011 A 
HETATM   30  C5  UNL     1       0.097  50.888 -26.647  1.00  0.00     0.018 A 
HETATM   31  C6  UNL     1      -0.207  51.738 -27.696  1.00  0.00     0.087 A 
HETATM   32  N2  UNL     1      -0.223  53.084 -27.591  1.00  0.00    -0.375 N 
HETATM   33  C7  UNL     1       0.084  53.604 -26.381  1.00  0.00     0.096 A 
ATOM     34  H2  UNL     1      -0.457  53.679 -28.386  1.00  0.00     0.164 HD
ENDBRANCH  27  28
ENDBRANCH  25  27
ENDBRANCH   1  23
TORSDOF 7
ENDMDL
MODEL 9
REMARK minimizedAffinity -8.25018597
REMARK  7 active torsions:
REMARK  status: ('A' for Active; 'I' for Inactive)
REMARK       I    between atoms: C1_2  and  N1_3 
REMARK    1  A    between atoms: C1_2  and  C8_12 
REMARK    2  A    between atoms: N1_3  and  C2_4 
REMARK    3  A    between atoms: C2_4  and  C3_5 
REMARK    4  A    between atoms: C14_19  and  C15_20 
REMARK    5  A    between atoms: C15_20  and  N4_21 
REMARK    6  A    between atoms: C17_23  and  C18_24 
REMARK    7  A    between atoms: C18_24  and  C19_25 
ROOT
HETATM    1  C8  UNL     1      -4.856  49.322 -25.222  1.00  0.00     0.110 C 
HETATM    2  C9  UNL     1      -4.420  50.717 -24.740  1.00  0.00     0.287 C 
HETATM    3  N3  UNL     1      -2.940  50.869 -24.826  1.00  0.00     0.095 N 
HETATM    4  C10 UNL     1      -2.332  49.959 -23.832  1.00  0.00     0.273 C 
HETATM    5  C11 UNL     1      -2.750  48.499 -24.062  1.00  0.00     0.036 C 
HETATM    6  C12 UNL     1      -3.614  48.409 -25.331  1.00  0.00     0.004 C 
HETATM    7  C13 UNL     1      -2.735  48.985 -26.464  1.00  0.00     0.043 C 
HETATM    8  C14 UNL     1      -2.516  50.502 -26.219  1.00  0.00     0.242 C 
ENDROOT
BRANCH   8   9
HETATM    9  C15 UNL     1      -1.075  50.921 -26.569  1.00  0.00     0.181 C 
BRANCH   9  10
HETATM   10  N4  UNL     1      -0.598  52.016 -25.754  1.00  0.00    -0.283 N 
HETATM   11  C16 UNL     1       0.241  51.966 -24.682  1.00  0.00     0.134 A 
HETATM   12  C17 UNL     1       0.385  53.284 -24.313  1.00  0.00     0.041 A 
HETATM   13  N5  UNL     1      -0.347  54.070 -25.165  1.00  0.00    -0.287 N 
HETATM   14  N6  UNL     1      -0.940  53.281 -26.051  1.00  0.00    -0.020 NA
ATOM     15  H5  UNL     1      -0.424  55.086 -25.124  1.00  0.00     0.184 HD
BRANCH  12  16
HETATM   16  C18 UNL     1       1.167  53.880 -23.199  1.00  0.00     0.064 C 
BRANCH  16  17
HETATM   17  C19 UNL     1       1.040  53.099 -21.877  1.00  0.00    -0.009 C 
HETATM   18  C20 UNL     1      -0.384  52.534 -21.739  1.00  0.00     0.005 C 
HETATM   19  C21 UNL     1      -0.574  51.785 -20.422  1.00  0.00     0.000 C 
HETATM   20  C22 UNL     1      -0.220  52.659 -19.224  1.00  0.00     0.000 C 
HETATM   21  C23 UNL     1       1.191  53.225 -19.345  1.00  0.00     0.000 C 
HETATM   22  C24 UNL     1       1.390  53.974 -20.661  1.00  0.00     0.005 C 
ENDBRANCH  16  17
ENDBRANCH  12  16
ENDBRANCH   9  10
ENDBRANCH   8   9
BRANCH   1  23
HETATM   23  C1  UNL     1      -6.005  48.715 -24.426  1.00  0.00     0.224 C 
HETATM   24  O1  UNL     1      -5.805  47.800 -23.629  1.00  0.00    -0.273 OA
HETATM   25  N1  UNL     1      -7.250  49.265 -24.610  1.00  0.00    -0.356 N 
HETATM   26  H1  UNL     1      -7.409  49.881 -25.394  1.00  0.00     0.162 HD
BRANCH  25  27
HETATM   27  C2  UNL     1      -8.424  48.701 -23.980  1.00  0.00     0.162 C 
BRANCH  27  28
HETATM   28  C3  UNL     1      -9.390  48.193 -25.009  1.00  0.00    -0.025 A 
HETATM   29  C4  UNL     1     -10.184  47.066 -24.782  1.00  0.00     0.011 A 
HETATM   30  C5  UNL     1     -11.081  46.644 -25.760  1.00  0.00     0.018 A 
HETATM   31  C6  UNL     1     -11.159  47.371 -26.934  1.00  0.00     0.087 A 
HETATM   32  N2  UNL     1     -10.418  48.470 -27.187  1.00  0.00    -0.375 N 
HETATM   33  C7  UNL     1      -9.554  48.858 -26.221  1.00  0.00     0.096 A 
ATOM     34  H2  UNL     1     -10.506  48.985 -28.063  1.00  0.00     0.164 HD
ENDBRANCH  27  28
ENDBRANCH  25  27
ENDBRANCH   1  23
TORSDOF 7
ENDMDL
