MODEL 1
REMARK minimizedAffinity -7.97014236
REMARK CNNscore 0.620457053
REMARK CNNaffinity 7.37810564
REMARK  12 active torsions:
REMARK  status: ('A' for Active; 'I' for Inactive)
REMARK    1  A    between atoms: O1_2  and  C2_3 
REMARK    2  A    between atoms: C2_3  and  C3_4 
REMARK    3  A    between atoms: C2_3  and  C7_8 
REMARK    4  A    between atoms: C7_8  and  C8_9 
REMARK    5  A    between atoms: C8_9  and  C10_11 
REMARK    6  A    between atoms: C28_30  and  O3_31 
REMARK    7  A    between atoms: O3_31  and  C29_32 
REMARK    8  A    between atoms: C30_34  and  C31_35 
REMARK    9  A    between atoms: C31_35  and  O5_36 
REMARK   10  A    between atoms: C32_37  and  O6_38 
REMARK   11  A    between atoms: C33_39  and  O7_40 
REMARK   12  A    between atoms: C34_41  and  O8_42 
ROOT
HETATM    1  C10 UNL     1      -1.441  50.433 -22.905  1.00  0.00    -0.002 C 
HETATM    2  C11 UNL     1      -0.365  51.058 -21.953  1.00  0.00     0.006 C 
HETATM    3  C12 UNL     1      -0.724  50.663 -20.508  1.00  0.00     0.011 C 
HETATM    4  C13 UNL     1      -1.764  49.537 -20.656  1.00  0.00    -0.029 C 
HETATM    5  C14 UNL     1      -0.947  48.231 -20.922  1.00  0.00     0.016 C 
HETATM    6  C15 UNL     1      -2.719  49.352 -19.433  1.00  0.00     0.028 C 
HETATM    7  C16 UNL     1      -1.996  48.953 -18.158  1.00  0.00    -0.021 C 
HETATM    8  C17 UNL     1      -2.428  47.939 -17.384  1.00  0.00     0.008 C 
HETATM    9  C18 UNL     1      -3.666  47.132 -17.757  1.00  0.00     0.092 C 
HETATM   10  O2  UNL     1      -4.756  48.051 -17.508  1.00  0.00    -0.374 OA
HETATM   11  C19 UNL     1      -5.090  48.703 -18.741  1.00  0.00     0.179 C 
HETATM   12  C20 UNL     1      -3.958  48.404 -19.759  1.00  0.00    -0.004 C 
HETATM   13  C21 UNL     1      -4.532  48.582 -21.192  1.00  0.00     0.014 C 
HETATM   14  C22 UNL     1      -3.542  48.922 -22.319  1.00  0.00     0.011 C 
HETATM   15  C23 UNL     1      -2.584  50.052 -21.902  1.00  0.00    -0.032 C 
HETATM   16  C24 UNL     1      -3.426  51.336 -21.610  1.00  0.00     0.016 C 
HETATM   17  C25 UNL     1      -3.615  46.960 -19.308  1.00  0.00     0.036 C 
HETATM   18  C26 UNL     1      -4.518  45.831 -19.803  1.00  0.00     0.011 C 
HETATM   19  C27 UNL     1      -4.134  44.489 -19.169  1.00  0.00     0.033 C 
HETATM   20  C28 UNL     1      -3.396  44.609 -17.827  1.00  0.00     0.136 C 
HETATM   21  C35 UNL     1      -3.923  45.788 -16.963  1.00  0.00     0.014 C 
HETATM   22  C36 UNL     1      -5.427  45.583 -16.629  1.00  0.00     0.021 C 
HETATM   23  C37 UNL     1      -3.216  45.758 -15.582  1.00  0.00     0.021 C 
ENDROOT
BRANCH  20  24
HETATM   24  O3  UNL     1      -3.529  43.390 -17.091  1.00  0.00    -0.352 OA
BRANCH  24  25
HETATM   25  C29 UNL     1      -4.202  42.336 -17.777  1.00  0.00     0.292 C 
HETATM   26  O4  UNL     1      -5.367  41.922 -17.052  1.00  0.00    -0.348 OA
HETATM   27  C30 UNL     1      -5.119  41.013 -15.968  1.00  0.00     0.179 C 
HETATM   28  C32 UNL     1      -4.540  39.683 -16.502  1.00  0.00     0.180 C 
HETATM   29  C33 UNL     1      -3.854  39.843 -17.870  1.00  0.00     0.183 C 
HETATM   30  C34 UNL     1      -3.176  41.201 -17.991  1.00  0.00     0.204 C 
BRANCH  27  31
HETATM   31  C31 UNL     1      -4.280  41.642 -14.840  1.00  0.00     0.198 C 
BRANCH  31  32
HETATM   32  O5  UNL     1      -4.838  42.879 -14.402  1.00  0.00    -0.398 OA
HETATM   33  H48 UNL     1      -5.589  42.685 -13.816  1.00  0.00     0.209 HD
ENDBRANCH  31  32
ENDBRANCH  27  31
BRANCH  28  34
HETATM   34  O6  UNL     1      -5.603  38.717 -16.662  1.00  0.00    -0.390 OA
HETATM   35  H50 UNL     1      -6.320  39.139 -17.171  1.00  0.00     0.210 HD
ENDBRANCH  28  34
BRANCH  29  36
HETATM   36  O7  UNL     1      -2.851  38.818 -18.024  1.00  0.00    -0.390 OA
HETATM   37  H52 UNL     1      -3.019  38.374 -18.879  1.00  0.00     0.210 HD
ENDBRANCH  29  36
BRANCH  30  38
HETATM   38  O8  UNL     1      -2.572  41.305 -19.295  1.00  0.00    -0.388 OA
HETATM   39  H54 UNL     1      -1.806  40.700 -19.276  1.00  0.00     0.210 HD
ENDBRANCH  30  38
ENDBRANCH  24  25
ENDBRANCH  20  24
BRANCH   1  40
HETATM   40  C8  UNL     1      -1.764  51.378 -24.102  1.00  0.00    -0.011 C 
HETATM   41  C9  UNL     1      -2.544  52.627 -23.664  1.00  0.00     0.010 C 
BRANCH  40  42
HETATM   42  C7  UNL     1      -2.566  50.657 -25.227  1.00  0.00     0.040 C 
BRANCH  42  43
HETATM   43  C2  UNL     1      -1.808  50.662 -26.571  1.00  0.00     0.144 C 
BRANCH  43  44
HETATM   44  O1  UNL     1      -2.235  49.559 -27.372  1.00  0.00    -0.387 OA
HETATM   45  C1  UNL     1      -3.618  49.272 -27.232  1.00  0.00     0.202 C 
ENDBRANCH  43  44
BRANCH  43  46
HETATM   46  C3  UNL     1      -0.316  50.647 -26.337  1.00  0.00     0.007 C 
HETATM   47  C4  UNL     1       0.660  51.326 -26.978  1.00  0.00    -0.089 C 
HETATM   48  C5  UNL     1       0.446  52.213 -28.173  1.00  0.00     0.042 C 
HETATM   49  C6  UNL     1       2.099  51.225 -26.536  1.00  0.00     0.042 C 
ENDBRANCH  43  46
ENDBRANCH  42  43
ENDBRANCH  40  42
ENDBRANCH   1  40
TORSDOF 12
ENDMDL
MODEL 2
REMARK minimizedAffinity -8.41657829
REMARK CNNscore 0.455126107
REMARK CNNaffinity 7.11075401
REMARK  12 active torsions:
REMARK  status: ('A' for Active; 'I' for Inactive)
REMARK    1  A    between atoms: O1_2  and  C2_3 
REMARK    2  A    between atoms: C2_3  and  C3_4 
REMARK    3  A    between atoms: C2_3  and  C7_8 
REMARK    4  A    between atoms: C7_8  and  C8_9 
REMARK    5  A    between atoms: C8_9  and  C10_11 
REMARK    6  A    between atoms: C28_30  and  O3_31 
REMARK    7  A    between atoms: O3_31  and  C29_32 
REMARK    8  A    between atoms: C30_34  and  C31_35 
REMARK    9  A    between atoms: C31_35  and  O5_36 
REMARK   10  A    between atoms: C32_37  and  O6_38 
REMARK   11  A    between atoms: C33_39  and  O7_40 
REMARK   12  A    between atoms: C34_41  and  O8_42 
ROOT
HETATM    1  C10 UNL     1      -0.612  51.209 -23.108  1.00  0.00    -0.002 C 
HETATM    2  C11 UNL     1      -0.030  51.954 -21.859  1.00  0.00     0.006 C 
HETATM    3  C12 UNL     1      -0.884  51.566 -20.636  1.00  0.00     0.011 C 
HETATM    4  C13 UNL     1      -1.702  50.346 -21.099  1.00  0.00    -0.029 C 
HETATM    5  C14 UNL     1      -0.750  49.114 -20.959  1.00  0.00     0.016 C 
HETATM    6  C15 UNL     1      -3.034  50.107 -20.320  1.00  0.00     0.028 C 
HETATM    7  C16 UNL     1      -2.825  49.809 -18.845  1.00  0.00    -0.021 C 
HETATM    8  C17 UNL     1      -3.443  48.781 -18.233  1.00  0.00     0.008 C 
HETATM    9  C18 UNL     1      -4.381  47.855 -18.998  1.00  0.00     0.092 C 
HETATM   10  O2  UNL     1      -5.549  48.676 -19.235  1.00  0.00    -0.374 OA
HETATM   11  C19 UNL     1      -5.434  49.263 -20.538  1.00  0.00     0.179 C 
HETATM   12  C20 UNL     1      -3.981  49.042 -21.033  1.00  0.00    -0.004 C 
HETATM   13  C21 UNL     1      -3.975  49.129 -22.584  1.00  0.00     0.014 C 
HETATM   14  C22 UNL     1      -2.659  49.529 -23.271  1.00  0.00     0.011 C 
HETATM   15  C23 UNL     1      -2.019  50.751 -22.591  1.00  0.00    -0.032 C 
HETATM   16  C24 UNL     1      -3.002  51.960 -22.715  1.00  0.00     0.016 C 
HETATM   17  C25 UNL     1      -3.729  47.647 -20.402  1.00  0.00     0.036 C 
HETATM   18  C26 UNL     1      -4.288  46.428 -21.134  1.00  0.00     0.011 C 
HETATM   19  C27 UNL     1      -4.076  45.144 -20.324  1.00  0.00     0.033 C 
HETATM   20  C28 UNL     1      -3.918  45.366 -18.812  1.00  0.00     0.136 C 
HETATM   21  C35 UNL     1      -4.821  46.514 -18.282  1.00  0.00     0.014 C 
HETATM   22  C36 UNL     1      -6.319  46.182 -18.530  1.00  0.00     0.021 C 
HETATM   23  C37 UNL     1      -4.695  46.585 -16.738  1.00  0.00     0.021 C 
ENDROOT
BRANCH  20  24
HETATM   24  O3  UNL     1      -4.231  44.159 -18.110  1.00  0.00    -0.352 OA
BRANCH  24  25
HETATM   25  C29 UNL     1      -3.220  43.154 -18.149  1.00  0.00     0.292 C 
HETATM   26  O4  UNL     1      -3.744  41.928 -18.676  1.00  0.00    -0.348 OA
HETATM   27  C30 UNL     1      -4.466  41.119 -17.735  1.00  0.00     0.179 C 
HETATM   28  C32 UNL     1      -3.528  40.647 -16.600  1.00  0.00     0.180 C 
HETATM   29  C33 UNL     1      -2.305  41.564 -16.424  1.00  0.00     0.183 C 
HETATM   30  C34 UNL     1      -2.657  43.015 -16.717  1.00  0.00     0.204 C 
BRANCH  27  31
HETATM   31  C31 UNL     1      -5.754  41.795 -17.229  1.00  0.00     0.198 C 
BRANCH  31  32
HETATM   32  O5  UNL     1      -6.848  41.561 -18.113  1.00  0.00    -0.398 OA
HETATM   33  H48 UNL     1      -7.185  40.663 -17.951  1.00  0.00     0.209 HD
ENDBRANCH  31  32
ENDBRANCH  27  31
BRANCH  28  34
HETATM   34  O6  UNL     1      -3.036  39.321 -16.894  1.00  0.00    -0.390 OA
HETATM   35  H50 UNL     1      -2.684  39.324 -17.804  1.00  0.00     0.210 HD
ENDBRANCH  28  34
BRANCH  29  36
HETATM   36  O7  UNL     1      -1.835  41.475 -15.063  1.00  0.00    -0.390 OA
HETATM   37  H52 UNL     1      -0.878  41.277 -15.099  1.00  0.00     0.210 HD
ENDBRANCH  29  36
BRANCH  30  38
HETATM   38  O8  UNL     1      -1.474  43.822 -16.559  1.00  0.00    -0.388 OA
HETATM   39  H54 UNL     1      -1.303  43.848 -15.598  1.00  0.00     0.210 HD
ENDBRANCH  30  38
ENDBRANCH  24  25
ENDBRANCH  20  24
BRANCH   1  40
HETATM   40  C8  UNL     1      -0.523  52.089 -24.392  1.00  0.00    -0.011 C 
HETATM   41  C9  UNL     1       0.264  53.386 -24.156  1.00  0.00     0.010 C 
BRANCH  40  42
HETATM   42  C7  UNL     1      -1.928  52.453 -24.959  1.00  0.00     0.040 C 
BRANCH  42  43
HETATM   43  C2  UNL     1      -2.128  51.922 -26.394  1.00  0.00     0.144 C 
BRANCH  43  44
HETATM   44  O1  UNL     1      -3.062  50.841 -26.385  1.00  0.00    -0.387 OA
HETATM   45  C1  UNL     1      -3.213  50.227 -27.656  1.00  0.00     0.202 C 
ENDBRANCH  43  44
BRANCH  43  46
HETATM   46  C3  UNL     1      -0.803  51.521 -26.999  1.00  0.00     0.007 C 
HETATM   47  C4  UNL     1       0.058  52.251 -27.739  1.00  0.00    -0.089 C 
HETATM   48  C5  UNL     1      -0.188  53.659 -28.202  1.00  0.00     0.042 C 
HETATM   49  C6  UNL     1       1.379  51.677 -28.190  1.00  0.00     0.042 C 
ENDBRANCH  43  46
ENDBRANCH  42  43
ENDBRANCH  40  42
ENDBRANCH   1  40
TORSDOF 12
ENDMDL
MODEL 3
REMARK minimizedAffinity -7.59906101
REMARK CNNscore 0.40390864
REMARK CNNaffinity 7.04027128
REMARK  12 active torsions:
REMARK  status: ('A' for Active; 'I' for Inactive)
REMARK    1  A    between atoms: O1_2  and  C2_3 
REMARK    2  A    between atoms: C2_3  and  C3_4 
REMARK    3  A    between atoms: C2_3  and  C7_8 
REMARK    4  A    between atoms: C7_8  and  C8_9 
REMARK    5  A    between atoms: C8_9  and  C10_11 
REMARK    6  A    between atoms: C28_30  and  O3_31 
REMARK    7  A    between atoms: O3_31  and  C29_32 
REMARK    8  A    between atoms: C30_34  and  C31_35 
REMARK    9  A    between atoms: C31_35  and  O5_36 
REMARK   10  A    between atoms: C32_37  and  O6_38 
REMARK   11  A    between atoms: C33_39  and  O7_40 
REMARK   12  A    between atoms: C34_41  and  O8_42 
ROOT
HETATM    1  C10 UNL     1      -2.658  48.874 -23.580  1.00  0.00    -0.002 C 
HETATM    2  C11 UNL     1      -1.514  49.842 -23.124  1.00  0.00     0.006 C 
HETATM    3  C12 UNL     1      -1.524  49.893 -21.584  1.00  0.00     0.011 C 
HETATM    4  C13 UNL     1      -2.405  48.705 -21.157  1.00  0.00    -0.029 C 
HETATM    5  C14 UNL     1      -1.482  47.444 -21.215  1.00  0.00     0.016 C 
HETATM    6  C15 UNL     1      -3.065  48.842 -19.749  1.00  0.00     0.028 C 
HETATM    7  C16 UNL     1      -2.058  48.915 -18.614  1.00  0.00    -0.021 C 
HETATM    8  C17 UNL     1      -2.183  48.165 -17.502  1.00  0.00     0.008 C 
HETATM    9  C18 UNL     1      -3.346  47.193 -17.332  1.00  0.00     0.092 C 
HETATM   10  O2  UNL     1      -4.483  48.062 -17.115  1.00  0.00    -0.374 OA
HETATM   11  C19 UNL     1      -5.140  48.271 -18.373  1.00  0.00     0.179 C 
HETATM   12  C20 UNL     1      -4.200  47.752 -19.492  1.00  0.00    -0.004 C 
HETATM   13  C21 UNL     1      -5.063  47.431 -20.744  1.00  0.00     0.014 C 
HETATM   14  C22 UNL     1      -4.371  47.473 -22.117  1.00  0.00     0.011 C 
HETATM   15  C23 UNL     1      -3.517  48.743 -22.276  1.00  0.00    -0.032 C 
HETATM   16  C24 UNL     1      -4.456  49.989 -22.182  1.00  0.00     0.016 C 
HETATM   17  C25 UNL     1      -3.577  46.550 -18.735  1.00  0.00     0.036 C 
HETATM   18  C26 UNL     1      -4.393  45.260 -18.661  1.00  0.00     0.011 C 
HETATM   19  C27 UNL     1      -3.708  44.215 -17.773  1.00  0.00     0.033 C 
HETATM   20  C28 UNL     1      -2.745  44.802 -16.730  1.00  0.00     0.136 C 
HETATM   21  C35 UNL     1      -3.251  46.150 -16.146  1.00  0.00     0.014 C 
HETATM   22  C36 UNL     1      -4.617  45.951 -15.431  1.00  0.00     0.021 C 
HETATM   23  C37 UNL     1      -2.290  46.604 -15.016  1.00  0.00     0.021 C 
ENDROOT
BRANCH  20  24
HETATM   24  O3  UNL     1      -2.560  43.867 -15.663  1.00  0.00    -0.352 OA
BRANCH  24  25
HETATM   25  C29 UNL     1      -1.717  42.757 -15.967  1.00  0.00     0.292 C 
HETATM   26  O4  UNL     1      -2.406  41.521 -15.739  1.00  0.00    -0.348 OA
HETATM   27  C30 UNL     1      -2.434  41.082 -14.372  1.00  0.00     0.179 C 
HETATM   28  C32 UNL     1      -1.002  40.790 -13.869  1.00  0.00     0.180 C 
HETATM   29  C33 UNL     1       0.072  41.547 -14.671  1.00  0.00     0.183 C 
HETATM   30  C34 UNL     1      -0.434  42.910 -15.120  1.00  0.00     0.204 C 
BRANCH  27  31
HETATM   31  C31 UNL     1      -3.227  42.033 -13.455  1.00  0.00     0.198 C 
BRANCH  31  32
HETATM   32  O5  UNL     1      -2.704  42.037 -12.129  1.00  0.00    -0.398 OA
HETATM   33  H48 UNL     1      -1.907  42.593 -12.117  1.00  0.00     0.209 HD
ENDBRANCH  31  32
ENDBRANCH  27  31
BRANCH  28  34
HETATM   34  O6  UNL     1      -0.719  39.379 -13.994  1.00  0.00    -0.390 OA
HETATM   35  H50 UNL     1      -0.949  39.104 -14.901  1.00  0.00     0.210 HD
ENDBRANCH  28  34
BRANCH  29  36
HETATM   36  O7  UNL     1       1.236  41.743 -13.843  1.00  0.00    -0.390 OA
HETATM   37  H52 UNL     1       2.009  41.415 -14.345  1.00  0.00     0.210 HD
ENDBRANCH  29  36
BRANCH  30  38
HETATM   38  O8  UNL     1       0.600  43.563 -15.882  1.00  0.00    -0.388 OA
HETATM   39  H54 UNL     1       1.286  43.808 -15.233  1.00  0.00     0.210 HD
ENDBRANCH  30  38
ENDBRANCH  24  25
ENDBRANCH  20  24
BRANCH   1  40
HETATM   40  C8  UNL     1      -3.339  49.372 -24.892  1.00  0.00    -0.011 C 
HETATM   41  C9  UNL     1      -4.513  48.478 -25.315  1.00  0.00     0.010 C 
BRANCH  40  42
HETATM   42  C7  UNL     1      -2.335  49.473 -26.079  1.00  0.00     0.040 C 
BRANCH  42  43
HETATM   43  C2  UNL     1      -1.802  50.909 -26.266  1.00  0.00     0.144 C 
BRANCH  43  44
HETATM   44  O1  UNL     1      -2.553  51.576 -27.282  1.00  0.00    -0.387 OA
HETATM   45  C1  UNL     1      -3.172  50.682 -28.194  1.00  0.00     0.202 C 
ENDBRANCH  43  44
BRANCH  43  46
HETATM   46  C3  UNL     1      -0.324  50.889 -26.577  1.00  0.00     0.007 C 
HETATM   47  C4  UNL     1       0.696  51.502 -25.938  1.00  0.00    -0.089 C 
HETATM   48  C5  UNL     1       0.539  52.446 -24.779  1.00  0.00     0.042 C 
HETATM   49  C6  UNL     1       2.126  51.290 -26.370  1.00  0.00     0.042 C 
ENDBRANCH  43  46
ENDBRANCH  42  43
ENDBRANCH  40  42
ENDBRANCH   1  40
TORSDOF 12
ENDMDL
MODEL 4
REMARK minimizedAffinity -7.76429939
REMARK CNNscore 0.357083559
REMARK CNNaffinity 7.09952402
REMARK  12 active torsions:
REMARK  status: ('A' for Active; 'I' for Inactive)
REMARK    1  A    between atoms: O1_2  and  C2_3 
REMARK    2  A    between atoms: C2_3  and  C3_4 
REMARK    3  A    between atoms: C2_3  and  C7_8 
REMARK    4  A    between atoms: C7_8  and  C8_9 
REMARK    5  A    between atoms: C8_9  and  C10_11 
REMARK    6  A    between atoms: C28_30  and  O3_31 
REMARK    7  A    between atoms: O3_31  and  C29_32 
REMARK    8  A    between atoms: C30_34  and  C31_35 
REMARK    9  A    between atoms: C31_35  and  O5_36 
REMARK   10  A    between atoms: C32_37  and  O6_38 
REMARK   11  A    between atoms: C33_39  and  O7_40 
REMARK   12  A    between atoms: C34_41  and  O8_42 
ROOT
HETATM    1  C10 UNL     1      -3.242  50.763 -23.768  1.00  0.00    -0.002 C 
HETATM    2  C11 UNL     1      -3.251  51.933 -22.728  1.00  0.00     0.006 C 
HETATM    3  C12 UNL     1      -4.067  51.472 -21.504  1.00  0.00     0.011 C 
HETATM    4  C13 UNL     1      -4.208  49.948 -21.678  1.00  0.00    -0.029 C 
HETATM    5  C14 UNL     1      -2.872  49.330 -21.154  1.00  0.00     0.016 C 
HETATM    6  C15 UNL     1      -5.435  49.310 -20.953  1.00  0.00     0.028 C 
HETATM    7  C16 UNL     1      -5.384  49.454 -19.441  1.00  0.00    -0.021 C 
HETATM    8  C17 UNL     1      -5.616  48.412 -18.619  1.00  0.00     0.008 C 
HETATM    9  C18 UNL     1      -5.934  47.027 -19.171  1.00  0.00     0.092 C 
HETATM   10  O2  UNL     1      -7.276  47.171 -19.693  1.00  0.00    -0.374 OA
HETATM   11  C19 UNL     1      -7.188  47.458 -21.095  1.00  0.00     0.179 C 
HETATM   12  C20 UNL     1      -5.713  47.810 -21.417  1.00  0.00    -0.004 C 
HETATM   13  C21 UNL     1      -5.471  47.562 -22.932  1.00  0.00     0.014 C 
HETATM   14  C22 UNL     1      -4.341  48.353 -23.613  1.00  0.00     0.011 C 
HETATM   15  C23 UNL     1      -4.398  49.845 -23.242  1.00  0.00    -0.032 C 
HETATM   16  C24 UNL     1      -5.756  50.432 -23.747  1.00  0.00     0.016 C 
HETATM   17  C25 UNL     1      -5.019  46.842 -20.423  1.00  0.00     0.036 C 
HETATM   18  C26 UNL     1      -4.883  45.378 -20.839  1.00  0.00     0.011 C 
HETATM   19  C27 UNL     1      -4.302  44.526 -19.704  1.00  0.00     0.033 C 
HETATM   20  C28 UNL     1      -4.519  45.108 -18.299  1.00  0.00     0.136 C 
HETATM   21  C35 UNL     1      -5.895  45.815 -18.154  1.00  0.00     0.014 C 
HETATM   22  C36 UNL     1      -7.050  44.805 -18.402  1.00  0.00     0.021 C 
HETATM   23  C37 UNL     1      -6.084  46.258 -16.679  1.00  0.00     0.021 C 
ENDROOT
BRANCH  20  24
HETATM   24  O3  UNL     1      -4.420  44.066 -17.323  1.00  0.00    -0.352 OA
BRANCH  24  25
HETATM   25  C29 UNL     1      -3.280  44.140 -16.469  1.00  0.00     0.292 C 
HETATM   26  O4  UNL     1      -2.117  43.624 -17.131  1.00  0.00    -0.348 OA
HETATM   27  C30 UNL     1      -1.993  42.194 -17.119  1.00  0.00     0.179 C 
HETATM   28  C32 UNL     1      -1.837  41.679 -15.670  1.00  0.00     0.180 C 
HETATM   29  C33 UNL     1      -2.409  42.658 -14.629  1.00  0.00     0.183 C 
HETATM   30  C34 UNL     1      -3.632  43.384 -15.169  1.00  0.00     0.204 C 
BRANCH  27  31
HETATM   31  C31 UNL     1      -3.115  41.490 -17.905  1.00  0.00     0.198 C 
BRANCH  31  32
HETATM   32  O5  UNL     1      -2.760  41.314 -19.275  1.00  0.00    -0.398 OA
HETATM   33  H48 UNL     1      -2.157  40.554 -19.340  1.00  0.00     0.209 HD
ENDBRANCH  31  32
ENDBRANCH  27  31
BRANCH  28  34
HETATM   34  O6  UNL     1      -0.436  41.495 -15.366  1.00  0.00    -0.390 OA
HETATM   35  H50 UNL     1       0.036  42.311 -15.613  1.00  0.00     0.210 HD
ENDBRANCH  28  34
BRANCH  29  36
HETATM   36  O7  UNL     1      -2.797  41.925 -13.449  1.00  0.00    -0.390 OA
HETATM   37  H52 UNL     1      -2.375  42.364 -12.683  1.00  0.00     0.210 HD
ENDBRANCH  29  36
BRANCH  30  38
HETATM   38  O8  UNL     1      -4.111  44.300 -14.166  1.00  0.00    -0.388 OA
HETATM   39  H54 UNL     1      -4.502  43.740 -13.468  1.00  0.00     0.210 HD
ENDBRANCH  30  38
ENDBRANCH  24  25
ENDBRANCH  20  24
BRANCH   1  40
HETATM   40  C8  UNL     1      -3.302  51.298 -25.231  1.00  0.00    -0.011 C 
HETATM   41  C9  UNL     1      -3.168  50.174 -26.269  1.00  0.00     0.010 C 
BRANCH  40  42
HETATM   42  C7  UNL     1      -2.210  52.373 -25.515  1.00  0.00     0.040 C 
BRANCH  42  43
HETATM   43  C2  UNL     1      -0.821  51.935 -25.007  1.00  0.00     0.144 C 
BRANCH  43  44
HETATM   44  O1  UNL     1      -0.258  52.961 -24.188  1.00  0.00    -0.387 OA
HETATM   45  C1  UNL     1       0.542  52.453 -23.132  1.00  0.00     0.202 C 
ENDBRANCH  43  44
BRANCH  43  46
HETATM   46  C3  UNL     1       0.079  51.581 -26.168  1.00  0.00     0.007 C 
HETATM   47  C4  UNL     1       0.429  52.324 -27.240  1.00  0.00    -0.089 C 
HETATM   48  C5  UNL     1      -0.106  53.694 -27.547  1.00  0.00     0.042 C 
HETATM   49  C6  UNL     1       1.410  51.804 -28.262  1.00  0.00     0.042 C 
ENDBRANCH  43  46
ENDBRANCH  42  43
ENDBRANCH  40  42
ENDBRANCH   1  40
TORSDOF 12
ENDMDL
MODEL 5
REMARK minimizedAffinity -9.60764027
REMARK CNNscore 0.352893263
REMARK CNNaffinity 7.13962936
REMARK  12 active torsions:
REMARK  status: ('A' for Active; 'I' for Inactive)
REMARK    1  A    between atoms: O1_2  and  C2_3 
REMARK    2  A    between atoms: C2_3  and  C3_4 
REMARK    3  A    between atoms: C2_3  and  C7_8 
REMARK    4  A    between atoms: C7_8  and  C8_9 
REMARK    5  A    between atoms: C8_9  and  C10_11 
REMARK    6  A    between atoms: C28_30  and  O3_31 
REMARK    7  A    between atoms: O3_31  and  C29_32 
REMARK    8  A    between atoms: C30_34  and  C31_35 
REMARK    9  A    between atoms: C31_35  and  O5_36 
REMARK   10  A    between atoms: C32_37  and  O6_38 
REMARK   11  A    between atoms: C33_39  and  O7_40 
REMARK   12  A    between atoms: C34_41  and  O8_42 
ROOT
HETATM    1  C10 UNL     1      -1.026  49.906 -20.972  1.00  0.00    -0.002 C 
HETATM    2  C11 UNL     1      -0.476  48.439 -20.990  1.00  0.00     0.006 C 
HETATM    3  C12 UNL     1      -1.681  47.481 -20.931  1.00  0.00     0.011 C 
HETATM    4  C13 UNL     1      -2.902  48.366 -21.245  1.00  0.00    -0.029 C 
HETATM    5  C14 UNL     1      -2.947  48.498 -22.802  1.00  0.00     0.016 C 
HETATM    6  C15 UNL     1      -4.264  47.835 -20.695  1.00  0.00     0.028 C 
HETATM    7  C16 UNL     1      -4.677  46.501 -21.292  1.00  0.00    -0.021 C 
HETATM    8  C17 UNL     1      -5.920  46.287 -21.765  1.00  0.00     0.008 C 
HETATM    9  C18 UNL     1      -6.977  47.385 -21.733  1.00  0.00     0.092 C 
HETATM   10  O2  UNL     1      -7.313  47.489 -20.329  1.00  0.00    -0.374 OA
HETATM   11  C19 UNL     1      -6.529  48.542 -19.751  1.00  0.00     0.179 C 
HETATM   12  C20 UNL     1      -5.424  48.926 -20.770  1.00  0.00    -0.004 C 
HETATM   13  C21 UNL     1      -4.953  50.373 -20.457  1.00  0.00     0.014 C 
HETATM   14  C22 UNL     1      -3.533  50.770 -20.891  1.00  0.00     0.011 C 
HETATM   15  C23 UNL     1      -2.504  49.697 -20.496  1.00  0.00    -0.032 C 
HETATM   16  C24 UNL     1      -2.501  49.561 -18.938  1.00  0.00     0.016 C 
HETATM   17  C25 UNL     1      -6.228  48.712 -22.079  1.00  0.00     0.036 C 
HETATM   18  C26 UNL     1      -7.180  49.825 -22.515  1.00  0.00     0.011 C 
HETATM   19  C27 UNL     1      -7.997  49.412 -23.744  1.00  0.00     0.033 C 
HETATM   20  C28 UNL     1      -8.150  47.894 -23.925  1.00  0.00     0.136 C 
HETATM   21  C35 UNL     1      -8.297  47.147 -22.571  1.00  0.00     0.014 C 
HETATM   22  C36 UNL     1      -9.565  47.636 -21.818  1.00  0.00     0.021 C 
HETATM   23  C37 UNL     1      -8.572  45.646 -22.849  1.00  0.00     0.021 C 
ENDROOT
BRANCH  20  24
HETATM   24  O3  UNL     1      -9.291  47.616 -24.742  1.00  0.00    -0.352 OA
BRANCH  24  25
HETATM   25  C29 UNL     1      -9.432  48.449 -25.891  1.00  0.00     0.292 C 
HETATM   26  O4  UNL     1     -10.787  48.900 -26.027  1.00  0.00    -0.348 OA
HETATM   27  C30 UNL     1     -11.683  47.959 -26.639  1.00  0.00     0.179 C 
HETATM   28  C32 UNL     1     -11.254  47.676 -28.097  1.00  0.00     0.180 C 
HETATM   29  C33 UNL     1      -9.762  47.964 -28.341  1.00  0.00     0.183 C 
HETATM   30  C34 UNL     1      -8.930  47.641 -27.108  1.00  0.00     0.204 C 
BRANCH  27  31
HETATM   31  C31 UNL     1     -11.880  46.686 -25.796  1.00  0.00     0.198 C 
BRANCH  31  32
HETATM   32  O5  UNL     1     -12.166  47.000 -24.435  1.00  0.00    -0.398 OA
HETATM   33  H48 UNL     1     -13.101  47.259 -24.370  1.00  0.00     0.209 HD
ENDBRANCH  31  32
ENDBRANCH  27  31
BRANCH  28  34
HETATM   34  O6  UNL     1     -12.009  48.514 -28.999  1.00  0.00    -0.390 OA
HETATM   35  H50 UNL     1     -11.951  49.433 -28.678  1.00  0.00     0.210 HD
ENDBRANCH  28  34
BRANCH  29  36
HETATM   36  O7  UNL     1      -9.292  47.149 -29.434  1.00  0.00    -0.390 OA
HETATM   37  H52 UNL     1      -8.852  47.745 -30.072  1.00  0.00     0.210 HD
ENDBRANCH  29  36
BRANCH  30  38
HETATM   38  O8  UNL     1      -7.550  47.949 -27.384  1.00  0.00    -0.388 OA
HETATM   39  H54 UNL     1      -7.251  47.265 -28.013  1.00  0.00     0.210 HD
ENDBRANCH  30  38
ENDBRANCH  24  25
ENDBRANCH  20  24
BRANCH   1  40
HETATM   40  C8  UNL     1      -0.093  50.856 -20.162  1.00  0.00    -0.011 C 
HETATM   41  C9  UNL     1      -0.472  50.917 -18.675  1.00  0.00     0.010 C 
BRANCH  40  42
HETATM   42  C7  UNL     1      -0.081  52.306 -20.734  1.00  0.00     0.040 C 
BRANCH  42  43
HETATM   43  C2  UNL     1       0.521  52.363 -22.153  1.00  0.00     0.144 C 
BRANCH  43  44
HETATM   44  O1  UNL     1       1.016  53.677 -22.417  1.00  0.00    -0.387 OA
HETATM   45  C1  UNL     1       1.551  54.311 -21.266  1.00  0.00     0.202 C 
ENDBRANCH  43  44
BRANCH  43  46
HETATM   46  C3  UNL     1      -0.498  51.926 -23.179  1.00  0.00     0.007 C 
HETATM   47  C4  UNL     1      -0.343  51.704 -24.502  1.00  0.00    -0.089 C 
HETATM   48  C5  UNL     1       0.925  51.947 -25.270  1.00  0.00     0.042 C 
HETATM   49  C6  UNL     1      -1.486  51.194 -25.345  1.00  0.00     0.042 C 
ENDBRANCH  43  46
ENDBRANCH  42  43
ENDBRANCH  40  42
ENDBRANCH   1  40
TORSDOF 12
ENDMDL
MODEL 6
REMARK minimizedAffinity -7.64987373
REMARK CNNscore 0.334194392
REMARK CNNaffinity 7.06323433
REMARK  12 active torsions:
REMARK  status: ('A' for Active; 'I' for Inactive)
REMARK    1  A    between atoms: O1_2  and  C2_3 
REMARK    2  A    between atoms: C2_3  and  C3_4 
REMARK    3  A    between atoms: C2_3  and  C7_8 
REMARK    4  A    between atoms: C7_8  and  C8_9 
REMARK    5  A    between atoms: C8_9  and  C10_11 
REMARK    6  A    between atoms: C28_30  and  O3_31 
REMARK    7  A    between atoms: O3_31  and  C29_32 
REMARK    8  A    between atoms: C30_34  and  C31_35 
REMARK    9  A    between atoms: C31_35  and  O5_36 
REMARK   10  A    between atoms: C32_37  and  O6_38 
REMARK   11  A    between atoms: C33_39  and  O7_40 
REMARK   12  A    between atoms: C34_41  and  O8_42 
ROOT
HETATM    1  C10 UNL     1      -1.414  50.268 -23.739  1.00  0.00    -0.002 C 
HETATM    2  C11 UNL     1      -0.857  51.247 -22.651  1.00  0.00     0.006 C 
HETATM    3  C12 UNL     1      -1.656  51.016 -21.354  1.00  0.00     0.011 C 
HETATM    4  C13 UNL     1      -2.400  49.687 -21.582  1.00  0.00    -0.029 C 
HETATM    5  C14 UNL     1      -1.366  48.558 -21.271  1.00  0.00     0.016 C 
HETATM    6  C15 UNL     1      -3.697  49.499 -20.731  1.00  0.00     0.028 C 
HETATM    7  C16 UNL     1      -3.438  49.466 -19.235  1.00  0.00    -0.021 C 
HETATM    8  C17 UNL     1      -3.972  48.518 -18.442  1.00  0.00     0.008 C 
HETATM    9  C18 UNL     1      -4.862  47.420 -19.012  1.00  0.00     0.092 C 
HETATM   10  O2  UNL     1      -6.087  48.116 -19.344  1.00  0.00    -0.374 OA
HETATM   11  C19 UNL     1      -6.039  48.482 -20.730  1.00  0.00     0.179 C 
HETATM   12  C20 UNL     1      -4.586  48.273 -21.228  1.00  0.00    -0.004 C 
HETATM   13  C21 UNL     1      -4.618  48.099 -22.771  1.00  0.00     0.014 C 
HETATM   14  C22 UNL     1      -3.347  48.460 -23.557  1.00  0.00     0.011 C 
HETATM   15  C23 UNL     1      -2.776  49.817 -23.109  1.00  0.00    -0.032 C 
HETATM   16  C24 UNL     1      -3.840  50.924 -23.400  1.00  0.00     0.016 C 
HETATM   17  C25 UNL     1      -4.227  47.022 -20.383  1.00  0.00     0.036 C 
HETATM   18  C26 UNL     1      -4.719  45.665 -20.884  1.00  0.00     0.011 C 
HETATM   19  C27 UNL     1      -4.404  44.550 -19.880  1.00  0.00     0.033 C 
HETATM   20  C28 UNL     1      -4.229  45.031 -18.432  1.00  0.00     0.136 C 
HETATM   21  C35 UNL     1      -5.195  46.193 -18.071  1.00  0.00     0.014 C 
HETATM   22  C36 UNL     1      -6.673  45.731 -18.212  1.00  0.00     0.021 C 
HETATM   23  C37 UNL     1      -5.042  46.529 -16.564  1.00  0.00     0.021 C 
ENDROOT
BRANCH  20  24
HETATM   24  O3  UNL     1      -4.445  43.942 -17.530  1.00  0.00    -0.352 OA
BRANCH  24  25
HETATM   25  C29 UNL     1      -3.474  42.899 -17.592  1.00  0.00     0.292 C 
HETATM   26  O4  UNL     1      -4.109  41.624 -17.751  1.00  0.00    -0.348 OA
HETATM   27  C30 UNL     1      -4.611  41.039 -16.539  1.00  0.00     0.179 C 
HETATM   28  C32 UNL     1      -3.450  40.740 -15.563  1.00  0.00     0.180 C 
HETATM   29  C33 UNL     1      -2.211  41.613 -15.833  1.00  0.00     0.183 C 
HETATM   30  C34 UNL     1      -2.610  43.001 -16.316  1.00  0.00     0.204 C 
BRANCH  27  31
HETATM   31  C31 UNL     1      -5.752  41.858 -15.907  1.00  0.00     0.198 C 
BRANCH  31  32
HETATM   32  O5  UNL     1      -6.861  41.031 -15.563  1.00  0.00    -0.398 OA
HETATM   33  H48 UNL     1      -6.653  40.569 -14.733  1.00  0.00     0.209 HD
ENDBRANCH  31  32
ENDBRANCH  27  31
BRANCH  28  34
HETATM   34  O6  UNL     1      -3.042  39.360 -15.698  1.00  0.00    -0.390 OA
HETATM   35  H50 UNL     1      -2.900  39.178 -16.645  1.00  0.00     0.210 HD
ENDBRANCH  28  34
BRANCH  29  36
HETATM   36  O7  UNL     1      -1.454  41.756 -14.614  1.00  0.00    -0.390 OA
HETATM   37  H52 UNL     1      -0.529  41.509 -14.817  1.00  0.00     0.210 HD
ENDBRANCH  29  36
BRANCH  30  38
HETATM   38  O8  UNL     1      -1.416  43.765 -16.573  1.00  0.00    -0.388 OA
HETATM   39  H54 UNL     1      -1.038  43.960 -15.695  1.00  0.00     0.210 HD
ENDBRANCH  30  38
ENDBRANCH  24  25
ENDBRANCH  20  24
BRANCH   1  40
HETATM   40  C8  UNL     1      -1.412  50.925 -25.153  1.00  0.00    -0.011 C 
HETATM   41  C9  UNL     1      -2.306  50.170 -26.148  1.00  0.00     0.010 C 
BRANCH  40  42
HETATM   42  C7  UNL     1       0.023  51.034 -25.754  1.00  0.00     0.040 C 
BRANCH  42  43
HETATM   43  C2  UNL     1       0.491  52.499 -25.873  1.00  0.00     0.144 C 
BRANCH  43  44
HETATM   44  O1  UNL     1       1.515  52.602 -26.862  1.00  0.00    -0.387 OA
HETATM   45  C1  UNL     1       2.500  51.586 -26.751  1.00  0.00     0.202 C 
ENDBRANCH  43  44
BRANCH  43  46
HETATM   46  C3  UNL     1       0.947  53.019 -24.530  1.00  0.00     0.007 C 
HETATM   47  C4  UNL     1       0.947  54.283 -24.054  1.00  0.00    -0.089 C 
HETATM   48  C5  UNL     1       0.551  55.498 -24.845  1.00  0.00     0.042 C 
HETATM   49  C6  UNL     1       1.381  54.584 -22.640  1.00  0.00     0.042 C 
ENDBRANCH  43  46
ENDBRANCH  42  43
ENDBRANCH  40  42
ENDBRANCH   1  40
TORSDOF 12
ENDMDL
MODEL 7
REMARK minimizedAffinity -7.64633656
REMARK CNNscore 0.298761696
REMARK CNNaffinity 6.93998909
REMARK  12 active torsions:
REMARK  status: ('A' for Active; 'I' for Inactive)
REMARK    1  A    between atoms: O1_2  and  C2_3 
REMARK    2  A    between atoms: C2_3  and  C3_4 
REMARK    3  A    between atoms: C2_3  and  C7_8 
REMARK    4  A    between atoms: C7_8  and  C8_9 
REMARK    5  A    between atoms: C8_9  and  C10_11 
REMARK    6  A    between atoms: C28_30  and  O3_31 
REMARK    7  A    between atoms: O3_31  and  C29_32 
REMARK    8  A    between atoms: C30_34  and  C31_35 
REMARK    9  A    between atoms: C31_35  and  O5_36 
REMARK   10  A    between atoms: C32_37  and  O6_38 
REMARK   11  A    between atoms: C33_39  and  O7_40 
REMARK   12  A    between atoms: C34_41  and  O8_42 
ROOT
HETATM    1  C10 UNL     1      -3.100  50.024 -24.464  1.00  0.00    -0.002 C 
HETATM    2  C11 UNL     1      -2.385  50.835 -23.330  1.00  0.00     0.006 C 
HETATM    3  C12 UNL     1      -3.069  50.484 -21.995  1.00  0.00     0.011 C 
HETATM    4  C13 UNL     1      -3.908  49.229 -22.301  1.00  0.00    -0.029 C 
HETATM    5  C14 UNL     1      -2.917  48.023 -22.232  1.00  0.00     0.016 C 
HETATM    6  C15 UNL     1      -5.127  48.999 -21.351  1.00  0.00     0.028 C 
HETATM    7  C16 UNL     1      -4.729  48.770 -19.903  1.00  0.00    -0.021 C 
HETATM    8  C17 UNL     1      -5.240  47.757 -19.177  1.00  0.00     0.008 C 
HETATM    9  C18 UNL     1      -6.243  46.781 -19.780  1.00  0.00     0.092 C 
HETATM   10  O2  UNL     1      -7.451  47.569 -19.901  1.00  0.00    -0.374 OA
HETATM   11  C19 UNL     1      -7.514  48.100 -21.231  1.00  0.00     0.179 C 
HETATM   12  C20 UNL     1      -6.129  47.886 -21.896  1.00  0.00    -0.004 C 
HETATM   13  C21 UNL     1      -6.319  47.905 -23.438  1.00  0.00     0.014 C 
HETATM   14  C22 UNL     1      -5.109  48.299 -24.300  1.00  0.00     0.011 C 
HETATM   15  C23 UNL     1      -4.419  49.563 -23.756  1.00  0.00    -0.032 C 
HETATM   16  C24 UNL     1      -5.440  50.746 -23.806  1.00  0.00     0.016 C 
HETATM   17  C25 UNL     1      -5.766  46.525 -21.245  1.00  0.00     0.036 C 
HETATM   18  C26 UNL     1      -6.382  45.264 -21.850  1.00  0.00     0.011 C 
HETATM   19  C27 UNL     1      -6.039  44.021 -21.021  1.00  0.00     0.033 C 
HETATM   20  C28 UNL     1      -5.699  44.312 -19.552  1.00  0.00     0.136 C 
HETATM   21  C35 UNL     1      -6.557  45.464 -18.960  1.00  0.00     0.014 C 
HETATM   22  C36 UNL     1      -8.066  45.093 -19.004  1.00  0.00     0.021 C 
HETATM   23  C37 UNL     1      -6.241  45.605 -17.448  1.00  0.00     0.021 C 
ENDROOT
BRANCH  20  24
HETATM   24  O3  UNL     1      -5.892  43.132 -18.767  1.00  0.00    -0.352 OA
BRANCH  24  25
HETATM   25  C29 UNL     1      -5.437  41.921 -19.368  1.00  0.00     0.292 C 
HETATM   26  O4  UNL     1      -6.469  40.926 -19.351  1.00  0.00    -0.348 OA
HETATM   27  C30 UNL     1      -6.611  40.218 -18.110  1.00  0.00     0.179 C 
HETATM   28  C32 UNL     1      -5.331  39.408 -17.803  1.00  0.00     0.180 C 
HETATM   29  C33 UNL     1      -4.089  39.973 -18.513  1.00  0.00     0.183 C 
HETATM   30  C34 UNL     1      -4.157  41.490 -18.619  1.00  0.00     0.204 C 
BRANCH  27  31
HETATM   31  C31 UNL     1      -7.059  41.127 -16.950  1.00  0.00     0.198 C 
BRANCH  31  32
HETATM   32  O5  UNL     1      -8.144  40.552 -16.225  1.00  0.00    -0.398 OA
HETATM   33  H48 UNL     1      -7.787  39.869 -15.631  1.00  0.00     0.209 HD
ENDBRANCH  31  32
ENDBRANCH  27  31
BRANCH  28  34
HETATM   34  O6  UNL     1      -5.499  38.043 -18.246  1.00  0.00    -0.390 OA
HETATM   35  H50 UNL     1      -5.816  38.062 -19.168  1.00  0.00     0.210 HD
ENDBRANCH  28  34
BRANCH  29  36
HETATM   36  O7  UNL     1      -2.909  39.622 -17.762  1.00  0.00    -0.390 OA
HETATM   37  H52 UNL     1      -2.282  39.202 -18.386  1.00  0.00     0.210 HD
ENDBRANCH  29  36
BRANCH  30  38
HETATM   38  O8  UNL     1      -2.984  41.962 -19.310  1.00  0.00    -0.388 OA
HETATM   39  H54 UNL     1      -2.245  41.838 -18.684  1.00  0.00     0.210 HD
ENDBRANCH  30  38
ENDBRANCH  24  25
ENDBRANCH  20  24
BRANCH   1  40
HETATM   40  C8  UNL     1      -3.193  50.849 -25.784  1.00  0.00    -0.011 C 
HETATM   41  C9  UNL     1      -2.675  50.065 -26.998  1.00  0.00     0.010 C 
BRANCH  40  42
HETATM   42  C7  UNL     1      -2.422  52.200 -25.695  1.00  0.00     0.040 C 
BRANCH  42  43
HETATM   43  C2  UNL     1      -0.981  52.012 -25.175  1.00  0.00     0.144 C 
BRANCH  43  44
HETATM   44  O1  UNL     1      -0.545  53.199 -24.513  1.00  0.00    -0.387 OA
HETATM   45  C1  UNL     1       0.611  52.998 -23.715  1.00  0.00     0.202 C 
ENDBRANCH  43  44
BRANCH  43  46
HETATM   46  C3  UNL     1      -0.058  51.623 -26.306  1.00  0.00     0.007 C 
HETATM   47  C4  UNL     1       0.297  52.326 -27.403  1.00  0.00    -0.089 C 
HETATM   48  C5  UNL     1      -0.254  53.673 -27.776  1.00  0.00     0.042 C 
HETATM   49  C6  UNL     1       1.303  51.779 -28.387  1.00  0.00     0.042 C 
ENDBRANCH  43  46
ENDBRANCH  42  43
ENDBRANCH  40  42
ENDBRANCH   1  40
TORSDOF 12
ENDMDL
MODEL 8
REMARK minimizedAffinity -8.28488159
REMARK CNNscore 0.297192216
REMARK CNNaffinity 6.68942881
REMARK  12 active torsions:
REMARK  status: ('A' for Active; 'I' for Inactive)
REMARK    1  A    between atoms: O1_2  and  C2_3 
REMARK    2  A    between atoms: C2_3  and  C3_4 
REMARK    3  A    between atoms: C2_3  and  C7_8 
REMARK    4  A    between atoms: C7_8  and  C8_9 
REMARK    5  A    between atoms: C8_9  and  C10_11 
REMARK    6  A    between atoms: C28_30  and  O3_31 
REMARK    7  A    between atoms: O3_31  and  C29_32 
REMARK    8  A    between atoms: C30_34  and  C31_35 
REMARK    9  A    between atoms: C31_35  and  O5_36 
REMARK   10  A    between atoms: C32_37  and  O6_38 
REMARK   11  A    between atoms: C33_39  and  O7_40 
REMARK   12  A    between atoms: C34_41  and  O8_42 
ROOT
HETATM    1  C10 UNL     1      -1.841  49.861 -19.868  1.00  0.00    -0.002 C 
HETATM    2  C11 UNL     1      -1.204  48.441 -19.697  1.00  0.00     0.006 C 
HETATM    3  C12 UNL     1      -2.301  47.394 -19.973  1.00  0.00     0.011 C 
HETATM    4  C13 UNL     1      -3.439  48.185 -20.644  1.00  0.00    -0.029 C 
HETATM    5  C14 UNL     1      -3.039  48.318 -22.149  1.00  0.00     0.016 C 
HETATM    6  C15 UNL     1      -4.859  47.551 -20.503  1.00  0.00     0.028 C 
HETATM    7  C16 UNL     1      -4.982  46.191 -21.168  1.00  0.00    -0.021 C 
HETATM    8  C17 UNL     1      -6.014  45.886 -21.977  1.00  0.00     0.008 C 
HETATM    9  C18 UNL     1      -7.112  46.900 -22.274  1.00  0.00     0.092 C 
HETATM   10  O2  UNL     1      -7.849  46.975 -21.030  1.00  0.00    -0.374 OA
HETATM   11  C19 UNL     1      -7.346  48.082 -20.270  1.00  0.00     0.179 C 
HETATM   12  C20 UNL     1      -6.024  48.551 -20.931  1.00  0.00    -0.004 C 
HETATM   13  C21 UNL     1      -5.772  50.029 -20.523  1.00  0.00     0.014 C 
HETATM   14  C22 UNL     1      -4.319  50.534 -20.534  1.00  0.00     0.011 C 
HETATM   15  C23 UNL     1      -3.374  49.540 -19.837  1.00  0.00    -0.032 C 
HETATM   16  C24 UNL     1      -3.814  49.400 -18.343  1.00  0.00     0.016 C 
HETATM   17  C25 UNL     1      -6.395  48.281 -22.414  1.00  0.00     0.036 C 
HETATM   18  C26 UNL     1      -7.258  49.320 -23.128  1.00  0.00     0.011 C 
HETATM   19  C27 UNL     1      -7.649  48.850 -24.534  1.00  0.00     0.033 C 
HETATM   20  C28 UNL     1      -7.631  47.326 -24.722  1.00  0.00     0.136 C 
HETATM   21  C35 UNL     1      -8.111  46.565 -23.455  1.00  0.00     0.014 C 
HETATM   22  C36 UNL     1      -9.576  46.955 -23.111  1.00  0.00     0.021 C 
HETATM   23  C37 UNL     1      -8.183  45.048 -23.772  1.00  0.00     0.021 C 
ENDROOT
BRANCH  20  24
HETATM   24  O3  UNL     1      -8.462  46.965 -25.829  1.00  0.00    -0.352 OA
BRANCH  24  25
HETATM   25  C29 UNL     1      -8.937  48.057 -26.614  1.00  0.00     0.292 C 
HETATM   26  O4  UNL     1     -10.353  48.215 -26.458  1.00  0.00    -0.348 OA
HETATM   27  C30 UNL     1     -11.156  47.334 -27.259  1.00  0.00     0.179 C 
HETATM   28  C32 UNL     1     -10.929  47.614 -28.762  1.00  0.00     0.180 C 
HETATM   29  C33 UNL     1      -9.573  48.286 -29.040  1.00  0.00     0.183 C 
HETATM   30  C34 UNL     1      -8.505  47.794 -28.074  1.00  0.00     0.204 C 
BRANCH  27  31
HETATM   31  C31 UNL     1     -10.982  45.852 -26.875  1.00  0.00     0.198 C 
BRANCH  31  32
HETATM   32  O5  UNL     1     -10.747  45.040 -28.022  1.00  0.00    -0.398 OA
HETATM   33  H48 UNL     1      -9.817  45.143 -28.285  1.00  0.00     0.209 HD
ENDBRANCH  31  32
ENDBRANCH  27  31
BRANCH  28  34
HETATM   34  O6  UNL     1     -11.960  48.500 -29.254  1.00  0.00    -0.390 OA
HETATM   35  H50 UNL     1     -12.014  49.264 -28.651  1.00  0.00     0.210 HD
ENDBRANCH  28  34
BRANCH  29  36
HETATM   36  O7  UNL     1      -9.152  47.972 -30.383  1.00  0.00    -0.390 OA
HETATM   37  H52 UNL     1      -8.936  48.818 -30.825  1.00  0.00     0.210 HD
ENDBRANCH  29  36
BRANCH  30  38
HETATM   38  O8  UNL     1      -7.267  48.470 -28.365  1.00  0.00    -0.388 OA
HETATM   39  H54 UNL     1      -6.958  48.095 -29.211  1.00  0.00     0.210 HD
ENDBRANCH  30  38
ENDBRANCH  24  25
ENDBRANCH  20  24
BRANCH   1  40
HETATM   40  C8  UNL     1      -1.256  50.877 -18.840  1.00  0.00    -0.011 C 
HETATM   41  C9  UNL     1      -0.779  52.175 -19.509  1.00  0.00     0.010 C 
BRANCH  40  42
HETATM   42  C7  UNL     1      -0.076  50.276 -18.018  1.00  0.00     0.040 C 
BRANCH  42  43
HETATM   43  C2  UNL     1      -0.433  50.116 -16.525  1.00  0.00     0.144 C 
BRANCH  43  44
HETATM   44  O1  UNL     1      -1.493  51.010 -16.182  1.00  0.00    -0.387 OA
HETATM   45  C1  UNL     1      -2.225  50.591 -15.039  1.00  0.00     0.202 C 
ENDBRANCH  43  44
BRANCH  43  46
HETATM   46  C3  UNL     1       0.789  50.331 -15.664  1.00  0.00     0.007 C 
HETATM   47  C4  UNL     1       1.624  51.391 -15.606  1.00  0.00    -0.089 C 
HETATM   48  C5  UNL     1       1.543  52.596 -16.501  1.00  0.00     0.042 C 
HETATM   49  C6  UNL     1       2.757  51.438 -14.611  1.00  0.00     0.042 C 
ENDBRANCH  43  46
ENDBRANCH  42  43
ENDBRANCH  40  42
ENDBRANCH   1  40
TORSDOF 12
ENDMDL
MODEL 9
REMARK minimizedAffinity -8.09444714
REMARK CNNscore 0.294570267
REMARK CNNaffinity 6.68405676
REMARK  12 active torsions:
REMARK  status: ('A' for Active; 'I' for Inactive)
REMARK    1  A    between atoms: O1_2  and  C2_3 
REMARK    2  A    between atoms: C2_3  and  C3_4 
REMARK    3  A    between atoms: C2_3  and  C7_8 
REMARK    4  A    between atoms: C7_8  and  C8_9 
REMARK    5  A    between atoms: C8_9  and  C10_11 
REMARK    6  A    between atoms: C28_30  and  O3_31 
REMARK    7  A    between atoms: O3_31  and  C29_32 
REMARK    8  A    between atoms: C30_34  and  C31_35 
REMARK    9  A    between atoms: C31_35  and  O5_36 
REMARK   10  A    between atoms: C32_37  and  O6_38 
REMARK   11  A    between atoms: C33_39  and  O7_40 
REMARK   12  A    between atoms: C34_41  and  O8_42 
ROOT
HETATM    1  C10 UNL     1      -1.203  50.855 -21.933  1.00  0.00    -0.002 C 
HETATM    2  C11 UNL     1      -1.234  51.338 -20.443  1.00  0.00     0.006 C 
HETATM    3  C12 UNL     1      -2.656  51.101 -19.898  1.00  0.00     0.011 C 
HETATM    4  C13 UNL     1      -3.321  50.168 -20.927  1.00  0.00    -0.029 C 
HETATM    5  C14 UNL     1      -2.832  48.725 -20.577  1.00  0.00     0.016 C 
HETATM    6  C15 UNL     1      -4.881  50.229 -20.966  1.00  0.00     0.028 C 
HETATM    7  C16 UNL     1      -5.535  49.788 -19.668  1.00  0.00    -0.021 C 
HETATM    8  C17 UNL     1      -6.560  48.915 -19.648  1.00  0.00     0.008 C 
HETATM    9  C18 UNL     1      -7.112  48.317 -20.937  1.00  0.00     0.092 C 
HETATM   10  O2  UNL     1      -7.807  49.427 -21.555  1.00  0.00    -0.374 OA
HETATM   11  C19 UNL     1      -6.920  50.051 -22.493  1.00  0.00     0.179 C 
HETATM   12  C20 UNL     1      -5.494  49.496 -22.242  1.00  0.00    -0.004 C 
HETATM   13  C21 UNL     1      -4.661  49.684 -23.540  1.00  0.00     0.014 C 
HETATM   14  C22 UNL     1      -3.133  49.776 -23.400  1.00  0.00     0.011 C 
HETATM   15  C23 UNL     1      -2.729  50.742 -22.273  1.00  0.00    -0.032 C 
HETATM   16  C24 UNL     1      -3.257  52.170 -22.630  1.00  0.00     0.016 C 
HETATM   17  C25 UNL     1      -5.874  48.044 -21.849  1.00  0.00     0.036 C 
HETATM   18  C26 UNL     1      -6.183  47.064 -22.979  1.00  0.00     0.011 C 
HETATM   19  C27 UNL     1      -6.670  45.716 -22.433  1.00  0.00     0.033 C 
HETATM   20  C28 UNL     1      -7.287  45.787 -21.029  1.00  0.00     0.136 C 
HETATM   21  C35 UNL     1      -8.102  47.090 -20.802  1.00  0.00     0.014 C 
HETATM   22  C36 UNL     1      -9.280  47.174 -21.813  1.00  0.00     0.021 C 
HETATM   23  C37 UNL     1      -8.792  47.021 -19.415  1.00  0.00     0.021 C 
ENDROOT
BRANCH  20  24
HETATM   24  O3  UNL     1      -8.139  44.657 -20.818  1.00  0.00    -0.352 OA
BRANCH  24  25
HETATM   25  C29 UNL     1      -8.022  43.618 -21.787  1.00  0.00     0.292 C 
HETATM   26  O4  UNL     1      -9.286  43.365 -22.415  1.00  0.00    -0.348 OA
HETATM   27  C30 UNL     1     -10.179  42.523 -21.670  1.00  0.00     0.179 C 
HETATM   28  C32 UNL     1      -9.575  41.110 -21.503  1.00  0.00     0.180 C 
HETATM   29  C33 UNL     1      -8.041  41.104 -21.630  1.00  0.00     0.183 C 
HETATM   30  C34 UNL     1      -7.437  42.383 -21.067  1.00  0.00     0.204 C 
BRANCH  27  31
HETATM   31  C31 UNL     1     -10.633  43.159 -20.343  1.00  0.00     0.198 C 
BRANCH  31  32
HETATM   32  O5  UNL     1     -11.142  44.476 -20.542  1.00  0.00    -0.398 OA
HETATM   33  H48 UNL     1     -12.049  44.404 -20.887  1.00  0.00     0.209 HD
ENDBRANCH  31  32
ENDBRANCH  27  31
BRANCH  28  34
HETATM   34  O6  UNL     1     -10.096  40.233 -22.527  1.00  0.00    -0.390 OA
HETATM   35  H50 UNL     1      -9.987  40.676 -23.388  1.00  0.00     0.210 HD
ENDBRANCH  28  34
BRANCH  29  36
HETATM   36  O7  UNL     1      -7.507  39.985 -20.893  1.00  0.00    -0.390 OA
HETATM   37  H52 UNL     1      -6.917  39.494 -21.499  1.00  0.00     0.210 HD
ENDBRANCH  29  36
BRANCH  30  38
HETATM   38  O8  UNL     1      -6.006  42.333 -21.231  1.00  0.00    -0.388 OA
HETATM   39  H54 UNL     1      -5.694  41.666 -20.591  1.00  0.00     0.210 HD
ENDBRANCH  30  38
ENDBRANCH  24  25
ENDBRANCH  20  24
BRANCH   1  40
HETATM   40  C8  UNL     1      -0.294  51.767 -22.811  1.00  0.00    -0.011 C 
HETATM   41  C9  UNL     1       0.251  52.971 -22.030  1.00  0.00     0.010 C 
BRANCH  40  42
HETATM   42  C7  UNL     1      -1.028  52.287 -24.083  1.00  0.00     0.040 C 
BRANCH  42  43
HETATM   43  C2  UNL     1      -0.159  53.275 -24.890  1.00  0.00     0.144 C 
BRANCH  43  44
HETATM   44  O1  UNL     1      -0.911  53.800 -25.985  1.00  0.00    -0.387 OA
HETATM   45  C1  UNL     1      -0.098  54.415 -26.973  1.00  0.00     0.202 C 
ENDBRANCH  43  44
BRANCH  43  46
HETATM   46  C3  UNL     1       1.115  52.606 -25.347  1.00  0.00     0.007 C 
HETATM   47  C4  UNL     1       1.280  51.527 -26.143  1.00  0.00    -0.089 C 
HETATM   48  C5  UNL     1       0.162  50.684 -26.688  1.00  0.00     0.042 C 
HETATM   49  C6  UNL     1       2.657  51.058 -26.544  1.00  0.00     0.042 C 
ENDBRANCH  43  46
ENDBRANCH  42  43
ENDBRANCH  40  42
ENDBRANCH   1  40
TORSDOF 12
ENDMDL
