MODEL 1
REMARK minimizedAffinity -7.53238344
REMARK CNNscore 0.84391439
REMARK CNNaffinity 6.89357758
REMARK  9 active torsions:
REMARK  status: ('A' for Active; 'I' for Inactive)
REMARK    1  A    between atoms: C2_2  and  C3_3 
REMARK    2  A    between atoms: C2_2  and  C9_12 
REMARK    3  A    between atoms: C3_3  and  C4_4 
REMARK    4  A    between atoms: C4_4  and  C5_5 
REMARK    5  A    between atoms: C5_5  and  O1_6 
REMARK    6  A    between atoms: C5_5  and  C6_7 
REMARK    7  A    between atoms: C6_7  and  O2_9 
REMARK    8  A    between atoms: C6_7  and  C8_10 
REMARK    9  A    between atoms: C8_10  and  O3_11 
ROOT
HETATM    1  C9  UNL     1       4.522  56.116  -8.063  1.00  0.00    -0.001 C 
HETATM    2  C10 UNL     1       5.436  55.170  -8.897  1.00  0.00     0.007 C 
HETATM    3  C11 UNL     1       4.519  54.276  -9.751  1.00  0.00     0.015 C 
HETATM    4  C12 UNL     1       3.132  54.938  -9.670  1.00  0.00    -0.004 C 
HETATM    5  C13 UNL     1       3.113  56.088 -10.728  1.00  0.00     0.021 C 
HETATM    6  C14 UNL     1       1.870  54.138  -9.960  1.00  0.00     0.007 C 
HETATM    7  C15 UNL     1       0.664  54.433  -9.411  1.00  0.00     0.007 C 
HETATM    8  C16 UNL     1       0.631  55.515  -8.340  1.00  0.00     0.157 C 
HETATM    9  O4  UNL     1      -0.406  55.767  -7.735  1.00  0.00    -0.293 OA
HETATM   10  C17 UNL     1       1.898  56.279  -7.969  1.00  0.00     0.094 C 
HETATM   11  C18 UNL     1       3.137  55.407  -8.168  1.00  0.00    -0.022 C 
HETATM   12  C19 UNL     1       3.088  54.225  -7.148  1.00  0.00     0.017 C 
HETATM   13  C20 UNL     1      -0.672  53.731  -9.781  1.00  0.00    -0.007 C 
HETATM   14  C21 UNL     1      -1.068  52.827  -8.593  1.00  0.00     0.021 C 
HETATM   15  C22 UNL     1      -1.789  54.767 -10.079  1.00  0.00     0.022 C 
HETATM   16  C23 UNL     1      -3.076  54.221 -10.694  1.00  0.00     0.080 C 
HETATM   17  C24 UNL     1      -3.055  52.766 -11.091  1.00  0.00     0.135 C 
HETATM   18  O5  UNL     1      -4.111  52.125 -11.073  1.00  0.00    -0.297 OA
HETATM   19  C25 UNL     1      -1.756  52.147 -11.615  1.00  0.00     0.018 C 
HETATM   20  C26 UNL     1      -1.833  52.218 -13.155  1.00  0.00     0.023 C 
HETATM   21  C27 UNL     1      -1.735  50.656 -11.215  1.00  0.00     0.023 C 
HETATM   22  C28 UNL     1      -0.500  52.939 -11.124  1.00  0.00     0.021 C 
HETATM   23  C29 UNL     1       0.778  52.102 -11.098  1.00  0.00     0.090 C 
HETATM   24  C30 UNL     1       1.967  53.009 -10.938  1.00  0.00     0.157 C 
HETATM   25  O6  UNL     1       3.001  52.792 -11.568  1.00  0.00    -0.293 OA
ENDROOT
BRANCH   1  26
HETATM   26  C2  UNL     1       5.158  56.454  -6.677  1.00  0.00    -0.014 C 
HETATM   27  C1  UNL     1       4.682  57.800  -6.127  1.00  0.00     0.010 C 
BRANCH  26  28
HETATM   28  C3  UNL     1       6.710  56.441  -6.807  1.00  0.00     0.007 C 
BRANCH  28  29
HETATM   29  C4  UNL     1       7.474  57.229  -5.737  1.00  0.00     0.035 C 
BRANCH  29  30
HETATM   30  C5  UNL     1       8.406  56.428  -4.815  1.00  0.00     0.154 C 
BRANCH  30  31
HETATM   31  O1  UNL     1       8.559  55.118  -5.413  1.00  0.00    -0.392 OA
HETATM   32  H10 UNL     1       7.680  54.699  -5.427  1.00  0.00     0.210 HD
ENDBRANCH  30  31
BRANCH  30  33
HETATM   33  C6  UNL     1       9.851  56.959  -4.574  1.00  0.00     0.101 C 
HETATM   34  C7  UNL     1      10.129  57.329  -3.111  1.00  0.00     0.051 C 
BRANCH  33  35
HETATM   35  O2  UNL     1       9.967  58.195  -5.332  1.00  0.00    -0.385 OA
HETATM   36  H14 UNL     1       9.153  58.690  -5.099  1.00  0.00     0.210 HD
ENDBRANCH  33  35
BRANCH  33  37
HETATM   37  C8  UNL     1      10.952  56.030  -5.119  1.00  0.00     0.204 C 
BRANCH  37  38
HETATM   38  O3  UNL     1      12.226  56.668  -5.020  1.00  0.00    -0.398 OA
HETATM   39  H17 UNL     1      12.040  57.609  -5.231  1.00  0.00     0.209 HD
ENDBRANCH  37  38
ENDBRANCH  33  37
ENDBRANCH  30  33
ENDBRANCH  29  30
ENDBRANCH  28  29
ENDBRANCH  26  28
ENDBRANCH   1  26
TORSDOF 9
ENDMDL
MODEL 2
REMARK minimizedAffinity -7.22618008
REMARK CNNscore 0.690861583
REMARK CNNaffinity 6.30844307
REMARK  9 active torsions:
REMARK  status: ('A' for Active; 'I' for Inactive)
REMARK    1  A    between atoms: C2_2  and  C3_3 
REMARK    2  A    between atoms: C2_2  and  C9_12 
REMARK    3  A    between atoms: C3_3  and  C4_4 
REMARK    4  A    between atoms: C4_4  and  C5_5 
REMARK    5  A    between atoms: C5_5  and  O1_6 
REMARK    6  A    between atoms: C5_5  and  C6_7 
REMARK    7  A    between atoms: C6_7  and  O2_9 
REMARK    8  A    between atoms: C6_7  and  C8_10 
REMARK    9  A    between atoms: C8_10  and  O3_11 
ROOT
HETATM    1  C9  UNL     1       4.757  56.322  -8.416  1.00  0.00    -0.001 C 
HETATM    2  C10 UNL     1       5.631  55.333  -9.246  1.00  0.00     0.007 C 
HETATM    3  C11 UNL     1       4.674  54.403 -10.012  1.00  0.00     0.015 C 
HETATM    4  C12 UNL     1       3.293  55.073  -9.899  1.00  0.00    -0.004 C 
HETATM    5  C13 UNL     1       3.226  56.171 -11.008  1.00  0.00     0.021 C 
HETATM    6  C14 UNL     1       2.019  54.264 -10.091  1.00  0.00     0.007 C 
HETATM    7  C15 UNL     1       0.839  54.588  -9.501  1.00  0.00     0.007 C 
HETATM    8  C16 UNL     1       0.857  55.720  -8.483  1.00  0.00     0.157 C 
HETATM    9  O4  UNL     1      -0.150  56.004  -7.842  1.00  0.00    -0.293 OA
HETATM   10  C17 UNL     1       2.141  56.496  -8.208  1.00  0.00     0.094 C 
HETATM   11  C18 UNL     1       3.369  55.612  -8.423  1.00  0.00    -0.022 C 
HETATM   12  C19 UNL     1       3.366  54.481  -7.347  1.00  0.00     0.017 C 
HETATM   13  C20 UNL     1      -0.513  53.874  -9.775  1.00  0.00    -0.007 C 
HETATM   14  C21 UNL     1      -0.854  53.028  -8.528  1.00  0.00     0.021 C 
HETATM   15  C22 UNL     1      -1.641  54.898 -10.070  1.00  0.00     0.022 C 
HETATM   16  C23 UNL     1      -2.956  54.327 -10.597  1.00  0.00     0.080 C 
HETATM   17  C24 UNL     1      -2.955  52.855 -10.926  1.00  0.00     0.135 C 
HETATM   18  O5  UNL     1      -4.010  52.219 -10.828  1.00  0.00    -0.297 OA
HETATM   19  C25 UNL     1      -1.683  52.208 -11.479  1.00  0.00     0.018 C 
HETATM   20  C26 UNL     1      -1.831  52.206 -13.016  1.00  0.00     0.023 C 
HETATM   21  C27 UNL     1      -1.645  50.737 -11.010  1.00  0.00     0.023 C 
HETATM   22  C28 UNL     1      -0.404  53.018 -11.085  1.00  0.00     0.021 C 
HETATM   23  C29 UNL     1       0.872  52.179 -11.079  1.00  0.00     0.090 C 
HETATM   24  C30 UNL     1       2.069  53.089 -11.018  1.00  0.00     0.157 C 
HETATM   25  O6  UNL     1       3.072  52.840 -11.684  1.00  0.00    -0.293 OA
ENDROOT
BRANCH   1  26
HETATM   26  C2  UNL     1       5.458  56.722  -7.078  1.00  0.00    -0.014 C 
HETATM   27  C1  UNL     1       6.633  55.803  -6.736  1.00  0.00     0.010 C 
BRANCH  26  28
HETATM   28  C3  UNL     1       4.410  56.713  -5.926  1.00  0.00     0.007 C 
BRANCH  28  29
HETATM   29  C4  UNL     1       3.787  58.070  -5.583  1.00  0.00     0.035 C 
BRANCH  29  30
HETATM   30  C5  UNL     1       3.349  58.288  -4.126  1.00  0.00     0.154 C 
BRANCH  30  31
HETATM   31  O1  UNL     1       3.466  59.707  -3.864  1.00  0.00    -0.392 OA
HETATM   32  H10 UNL     1       4.406  59.946  -3.958  1.00  0.00     0.210 HD
ENDBRANCH  30  31
BRANCH  30  33
HETATM   33  C6  UNL     1       1.898  57.896  -3.718  1.00  0.00     0.101 C 
HETATM   34  C7  UNL     1       1.219  58.929  -2.810  1.00  0.00     0.051 C 
BRANCH  33  35
HETATM   35  O2  UNL     1       2.007  56.676  -2.931  1.00  0.00    -0.385 OA
HETATM   36  H14 UNL     1       2.724  56.874  -2.292  1.00  0.00     0.210 HD
ENDBRANCH  33  35
BRANCH  33  37
HETATM   37  C8  UNL     1       0.992  57.542  -4.912  1.00  0.00     0.204 C 
BRANCH  37  38
HETATM   38  O3  UNL     1       0.688  56.146  -4.902  1.00  0.00    -0.398 OA
HETATM   39  H17 UNL     1       1.520  55.722  -4.600  1.00  0.00     0.209 HD
ENDBRANCH  37  38
ENDBRANCH  33  37
ENDBRANCH  30  33
ENDBRANCH  29  30
ENDBRANCH  28  29
ENDBRANCH  26  28
ENDBRANCH   1  26
TORSDOF 9
ENDMDL
MODEL 3
REMARK minimizedAffinity -7.68624592
REMARK CNNscore 0.523279846
REMARK CNNaffinity 6.46894884
REMARK  9 active torsions:
REMARK  status: ('A' for Active; 'I' for Inactive)
REMARK    1  A    between atoms: C2_2  and  C3_3 
REMARK    2  A    between atoms: C2_2  and  C9_12 
REMARK    3  A    between atoms: C3_3  and  C4_4 
REMARK    4  A    between atoms: C4_4  and  C5_5 
REMARK    5  A    between atoms: C5_5  and  O1_6 
REMARK    6  A    between atoms: C5_5  and  C6_7 
REMARK    7  A    between atoms: C6_7  and  O2_9 
REMARK    8  A    between atoms: C6_7  and  C8_10 
REMARK    9  A    between atoms: C8_10  and  O3_11 
ROOT
HETATM    1  C9  UNL     1       1.944  53.872 -10.863  1.00  0.00    -0.001 C 
HETATM    2  C10 UNL     1       0.827  54.863 -10.414  1.00  0.00     0.007 C 
HETATM    3  C11 UNL     1       1.395  55.707  -9.261  1.00  0.00     0.015 C 
HETATM    4  C12 UNL     1       2.912  55.449  -9.288  1.00  0.00    -0.004 C 
HETATM    5  C13 UNL     1       3.516  56.397 -10.373  1.00  0.00     0.021 C 
HETATM    6  C14 UNL     1       3.765  55.697  -8.053  1.00  0.00     0.007 C 
HETATM    7  C15 UNL     1       4.915  55.021  -7.800  1.00  0.00     0.007 C 
HETATM    8  C16 UNL     1       5.261  53.862  -8.724  1.00  0.00     0.157 C 
HETATM    9  O4  UNL     1       6.234  53.149  -8.500  1.00  0.00    -0.293 OA
HETATM   10  C17 UNL     1       4.379  53.538  -9.925  1.00  0.00     0.094 C 
HETATM   11  C18 UNL     1       2.924  53.918  -9.651  1.00  0.00    -0.022 C 
HETATM   12  C19 UNL     1       2.373  53.005  -8.511  1.00  0.00     0.017 C 
HETATM   13  C20 UNL     1       5.885  55.334  -6.627  1.00  0.00    -0.007 C 
HETATM   14  C21 UNL     1       5.742  54.199  -5.589  1.00  0.00     0.021 C 
HETATM   15  C22 UNL     1       7.352  55.443  -7.123  1.00  0.00     0.022 C 
HETATM   16  C23 UNL     1       8.369  55.988  -6.122  1.00  0.00     0.080 C 
HETATM   17  C24 UNL     1       7.806  56.511  -4.824  1.00  0.00     0.135 C 
HETATM   18  O5  UNL     1       8.502  56.457  -3.805  1.00  0.00    -0.297 OA
HETATM   19  C25 UNL     1       6.437  57.198  -4.819  1.00  0.00     0.018 C 
HETATM   20  C26 UNL     1       6.713  58.714  -4.919  1.00  0.00     0.023 C 
HETATM   21  C27 UNL     1       5.768  56.933  -3.453  1.00  0.00     0.023 C 
HETATM   22  C28 UNL     1       5.562  56.750  -6.036  1.00  0.00     0.021 C 
HETATM   23  C29 UNL     1       4.062  56.909  -5.799  1.00  0.00     0.090 C 
HETATM   24  C30 UNL     1       3.332  56.775  -7.108  1.00  0.00     0.157 C 
HETATM   25  O6  UNL     1       2.379  57.508  -7.364  1.00  0.00    -0.293 OA
ENDROOT
BRANCH   1  26
HETATM   26  C2  UNL     1       1.344  52.523 -11.371  1.00  0.00    -0.014 C 
HETATM   27  C1  UNL     1       2.187  51.890 -12.480  1.00  0.00     0.010 C 
BRANCH  26  28
HETATM   28  C3  UNL     1      -0.113  52.763 -11.869  1.00  0.00     0.007 C 
BRANCH  28  29
HETATM   29  C4  UNL     1      -1.085  51.595 -11.668  1.00  0.00     0.035 C 
BRANCH  29  30
HETATM   30  C5  UNL     1      -2.286  51.840 -10.741  1.00  0.00     0.154 C 
BRANCH  30  31
HETATM   31  O1  UNL     1      -1.792  52.599  -9.612  1.00  0.00    -0.392 OA
HETATM   32  H10 UNL     1      -1.137  52.045  -9.151  1.00  0.00     0.210 HD
ENDBRANCH  30  31
BRANCH  30  33
HETATM   33  C6  UNL     1      -3.502  52.640 -11.295  1.00  0.00     0.101 C 
HETATM   34  C7  UNL     1      -3.621  54.054 -10.711  1.00  0.00     0.051 C 
BRANCH  33  35
HETATM   35  O2  UNL     1      -4.695  51.925 -10.866  1.00  0.00    -0.385 OA
HETATM   36  H14 UNL     1      -4.536  51.755  -9.913  1.00  0.00     0.210 HD
ENDBRANCH  33  35
BRANCH  33  37
HETATM   37  C8  UNL     1      -3.570  52.680 -12.833  1.00  0.00     0.204 C 
BRANCH  37  38
HETATM   38  O3  UNL     1      -4.314  53.821 -13.263  1.00  0.00    -0.398 OA
HETATM   39  H17 UNL     1      -5.037  53.899 -12.602  1.00  0.00     0.209 HD
ENDBRANCH  37  38
ENDBRANCH  33  37
ENDBRANCH  30  33
ENDBRANCH  29  30
ENDBRANCH  28  29
ENDBRANCH  26  28
ENDBRANCH   1  26
TORSDOF 9
ENDMDL
MODEL 4
REMARK minimizedAffinity -7.56694555
REMARK CNNscore 0.472725749
REMARK CNNaffinity 6.48118019
REMARK  9 active torsions:
REMARK  status: ('A' for Active; 'I' for Inactive)
REMARK    1  A    between atoms: C2_2  and  C3_3 
REMARK    2  A    between atoms: C2_2  and  C9_12 
REMARK    3  A    between atoms: C3_3  and  C4_4 
REMARK    4  A    between atoms: C4_4  and  C5_5 
REMARK    5  A    between atoms: C5_5  and  O1_6 
REMARK    6  A    between atoms: C5_5  and  C6_7 
REMARK    7  A    between atoms: C6_7  and  O2_9 
REMARK    8  A    between atoms: C6_7  and  C8_10 
REMARK    9  A    between atoms: C8_10  and  O3_11 
ROOT
HETATM    1  C9  UNL     1      -1.772  49.333 -21.965  1.00  0.00    -0.001 C 
HETATM    2  C10 UNL     1      -1.037  48.817 -20.691  1.00  0.00     0.007 C 
HETATM    3  C11 UNL     1      -2.099  48.213 -19.757  1.00  0.00     0.015 C 
HETATM    4  C12 UNL     1      -3.359  48.067 -20.629  1.00  0.00    -0.004 C 
HETATM    5  C13 UNL     1      -3.206  46.736 -21.431  1.00  0.00     0.021 C 
HETATM    6  C14 UNL     1      -4.738  47.969 -19.992  1.00  0.00     0.007 C 
HETATM    7  C15 UNL     1      -5.872  48.379 -20.617  1.00  0.00     0.007 C 
HETATM    8  C16 UNL     1      -5.713  49.112 -21.942  1.00  0.00     0.157 C 
HETATM    9  O4  UNL     1      -6.686  49.593 -22.513  1.00  0.00    -0.293 OA
HETATM   10  C17 UNL     1      -4.333  49.298 -22.565  1.00  0.00     0.094 C 
HETATM   11  C18 UNL     1      -3.255  49.383 -21.485  1.00  0.00    -0.022 C 
HETATM   12  C19 UNL     1      -3.480  50.685 -20.653  1.00  0.00     0.017 C 
HETATM   13  C20 UNL     1      -7.309  48.175 -20.063  1.00  0.00    -0.007 C 
HETATM   14  C21 UNL     1      -7.830  49.552 -19.596  1.00  0.00     0.021 C 
HETATM   15  C22 UNL     1      -8.247  47.570 -21.143  1.00  0.00     0.022 C 
HETATM   16  C23 UNL     1      -9.615  47.090 -20.662  1.00  0.00     0.080 C 
HETATM   17  C24 UNL     1      -9.837  47.106 -19.170  1.00  0.00     0.135 C 
HETATM   18  O5  UNL     1     -10.982  47.266 -18.737  1.00  0.00    -0.297 OA
HETATM   19  C25 UNL     1      -8.663  46.811 -18.231  1.00  0.00     0.018 C 
HETATM   20  C26 UNL     1      -8.751  45.308 -17.888  1.00  0.00     0.023 C 
HETATM   21  C27 UNL     1      -8.879  47.604 -16.924  1.00  0.00     0.023 C 
HETATM   22  C28 UNL     1      -7.288  47.106 -18.916  1.00  0.00     0.021 C 
HETATM   23  C29 UNL     1      -6.163  47.398 -17.925  1.00  0.00     0.090 C 
HETATM   24  C30 UNL     1      -4.840  47.340 -18.638  1.00  0.00     0.157 C 
HETATM   25  O6  UNL     1      -3.865  46.825 -18.094  1.00  0.00    -0.293 OA
ENDROOT
BRANCH   1  26
HETATM   26  C2  UNL     1      -1.069  50.593 -22.563  1.00  0.00    -0.014 C 
HETATM   27  C1  UNL     1      -1.326  51.854 -21.735  1.00  0.00     0.010 C 
BRANCH  26  28
HETATM   28  C3  UNL     1      -1.549  50.801 -24.030  1.00  0.00     0.007 C 
BRANCH  28  29
HETATM   29  C4  UNL     1      -1.691  52.259 -24.482  1.00  0.00     0.035 C 
BRANCH  29  30
HETATM   30  C5  UNL     1      -0.598  52.809 -25.412  1.00  0.00     0.154 C 
BRANCH  30  31
HETATM   31  O1  UNL     1       0.531  51.909 -25.305  1.00  0.00    -0.392 OA
HETATM   32  H10 UNL     1       0.845  51.942 -24.383  1.00  0.00     0.210 HD
ENDBRANCH  30  31
BRANCH  30  33
HETATM   33  C6  UNL     1      -0.906  52.929 -26.934  1.00  0.00     0.101 C 
HETATM   34  C7  UNL     1      -0.170  54.088 -27.617  1.00  0.00     0.051 C 
BRANCH  33  35
HETATM   35  O2  UNL     1      -2.326  53.231 -27.044  1.00  0.00    -0.385 OA
HETATM   36  H14 UNL     1      -2.461  53.955 -26.397  1.00  0.00     0.210 HD
ENDBRANCH  33  35
BRANCH  33  37
HETATM   37  C8  UNL     1      -0.697  51.617 -27.714  1.00  0.00     0.204 C 
BRANCH  37  38
HETATM   38  O3  UNL     1      -1.955  51.096 -28.146  1.00  0.00    -0.398 OA
HETATM   39  H17 UNL     1      -2.564  51.291 -27.400  1.00  0.00     0.209 HD
ENDBRANCH  37  38
ENDBRANCH  33  37
ENDBRANCH  30  33
ENDBRANCH  29  30
ENDBRANCH  28  29
ENDBRANCH  26  28
ENDBRANCH   1  26
TORSDOF 9
ENDMDL
MODEL 5
REMARK minimizedAffinity -8.04369545
REMARK CNNscore 0.449626595
REMARK CNNaffinity 6.78967714
REMARK  9 active torsions:
REMARK  status: ('A' for Active; 'I' for Inactive)
REMARK    1  A    between atoms: C2_2  and  C3_3 
REMARK    2  A    between atoms: C2_2  and  C9_12 
REMARK    3  A    between atoms: C3_3  and  C4_4 
REMARK    4  A    between atoms: C4_4  and  C5_5 
REMARK    5  A    between atoms: C5_5  and  O1_6 
REMARK    6  A    between atoms: C5_5  and  C6_7 
REMARK    7  A    between atoms: C6_7  and  O2_9 
REMARK    8  A    between atoms: C6_7  and  C8_10 
REMARK    9  A    between atoms: C8_10  and  O3_11 
ROOT
HETATM    1  C9  UNL     1      -4.592  49.053 -26.396  1.00  0.00    -0.001 C 
HETATM    2  C10 UNL     1      -4.951  48.249 -25.110  1.00  0.00     0.007 C 
HETATM    3  C11 UNL     1      -4.109  48.822 -23.957  1.00  0.00     0.015 C 
HETATM    4  C12 UNL     1      -3.550  50.151 -24.495  1.00  0.00    -0.004 C 
HETATM    5  C13 UNL     1      -4.667  51.226 -24.307  1.00  0.00     0.021 C 
HETATM    6  C14 UNL     1      -2.311  50.781 -23.874  1.00  0.00     0.007 C 
HETATM    7  C15 UNL     1      -1.462  51.582 -24.568  1.00  0.00     0.007 C 
HETATM    8  C16 UNL     1      -1.691  51.710 -26.067  1.00  0.00     0.157 C 
HETATM    9  O4  UNL     1      -0.907  52.339 -26.771  1.00  0.00    -0.293 OA
HETATM   10  C17 UNL     1      -2.878  51.021 -26.732  1.00  0.00     0.094 C 
HETATM   11  C18 UNL     1      -3.254  49.742 -25.985  1.00  0.00    -0.022 C 
HETATM   12  C19 UNL     1      -2.085  48.716 -26.128  1.00  0.00     0.017 C 
HETATM   13  C20 UNL     1      -0.266  52.353 -23.944  1.00  0.00    -0.007 C 
HETATM   14  C21 UNL     1       1.032  51.655 -24.406  1.00  0.00     0.021 C 
HETATM   15  C22 UNL     1      -0.271  53.844 -24.375  1.00  0.00     0.022 C 
HETATM   16  C23 UNL     1       0.700  54.767 -23.640  1.00  0.00     0.080 C 
HETATM   17  C24 UNL     1       1.434  54.161 -22.470  1.00  0.00     0.135 C 
HETATM   18  O5  UNL     1       2.554  54.591 -22.179  1.00  0.00    -0.297 OA
HETATM   19  C25 UNL     1       0.732  53.111 -21.603  1.00  0.00     0.018 C 
HETATM   20  C26 UNL     1       0.135  53.873 -20.400  1.00  0.00     0.023 C 
HETATM   21  C27 UNL     1       1.803  52.141 -21.058  1.00  0.00     0.023 C 
HETATM   22  C28 UNL     1      -0.418  52.393 -22.383  1.00  0.00     0.021 C 
HETATM   23  C29 UNL     1      -0.753  51.007 -21.836  1.00  0.00     0.090 C 
HETATM   24  C30 UNL     1      -2.060  50.542 -22.418  1.00  0.00     0.157 C 
HETATM   25  O6  UNL     1      -2.873  49.944 -21.716  1.00  0.00    -0.293 OA
ENDROOT
BRANCH   1  26
HETATM   26  C2  UNL     1      -4.688  48.163 -27.676  1.00  0.00    -0.014 C 
HETATM   27  C1  UNL     1      -4.585  48.981 -28.965  1.00  0.00     0.010 C 
BRANCH  26  28
HETATM   28  C3  UNL     1      -6.024  47.364 -27.646  1.00  0.00     0.007 C 
BRANCH  28  29
HETATM   29  C4  UNL     1      -6.620  47.015 -29.015  1.00  0.00     0.035 C 
BRANCH  29  30
HETATM   30  C5  UNL     1      -8.148  47.108 -29.153  1.00  0.00     0.154 C 
BRANCH  30  31
HETATM   31  O1  UNL     1      -8.692  47.053 -27.812  1.00  0.00    -0.392 OA
HETATM   32  H10 UNL     1      -8.453  46.186 -27.435  1.00  0.00     0.210 HD
ENDBRANCH  30  31
BRANCH  30  33
HETATM   33  C6  UNL     1      -8.760  48.380 -29.810  1.00  0.00     0.101 C 
HETATM   34  C7  UNL     1      -7.912  48.943 -30.958  1.00  0.00     0.051 C 
BRANCH  33  35
HETATM   35  O2  UNL     1      -8.778  49.408 -28.780  1.00  0.00    -0.385 OA
HETATM   36  H14 UNL     1      -7.877  49.367 -28.394  1.00  0.00     0.210 HD
ENDBRANCH  33  35
BRANCH  33  37
HETATM   37  C8  UNL     1     -10.226  48.206 -30.251  1.00  0.00     0.204 C 
BRANCH  37  38
HETATM   38  O3  UNL     1     -10.853  47.181 -29.479  1.00  0.00    -0.398 OA
HETATM   39  H17 UNL     1     -10.151  46.505 -29.362  1.00  0.00     0.209 HD
ENDBRANCH  37  38
ENDBRANCH  33  37
ENDBRANCH  30  33
ENDBRANCH  29  30
ENDBRANCH  28  29
ENDBRANCH  26  28
ENDBRANCH   1  26
TORSDOF 9
ENDMDL
MODEL 6
REMARK minimizedAffinity -8.62938595
REMARK CNNscore 0.412845254
REMARK CNNaffinity 6.91633987
REMARK  9 active torsions:
REMARK  status: ('A' for Active; 'I' for Inactive)
REMARK    1  A    between atoms: C2_2  and  C3_3 
REMARK    2  A    between atoms: C2_2  and  C9_12 
REMARK    3  A    between atoms: C3_3  and  C4_4 
REMARK    4  A    between atoms: C4_4  and  C5_5 
REMARK    5  A    between atoms: C5_5  and  O1_6 
REMARK    6  A    between atoms: C5_5  and  C6_7 
REMARK    7  A    between atoms: C6_7  and  O2_9 
REMARK    8  A    between atoms: C6_7  and  C8_10 
REMARK    9  A    between atoms: C8_10  and  O3_11 
ROOT
HETATM    1  C9  UNL     1      -4.823  49.351 -25.142  1.00  0.00    -0.001 C 
HETATM    2  C10 UNL     1      -5.819  49.181 -23.955  1.00  0.00     0.007 C 
HETATM    3  C11 UNL     1      -5.185  49.848 -22.721  1.00  0.00     0.015 C 
HETATM    4  C12 UNL     1      -4.020  50.686 -23.278  1.00  0.00    -0.004 C 
HETATM    5  C13 UNL     1      -4.627  52.034 -23.782  1.00  0.00     0.021 C 
HETATM    6  C14 UNL     1      -2.865  51.105 -22.379  1.00  0.00     0.007 C 
HETATM    7  C15 UNL     1      -1.610  51.333 -22.844  1.00  0.00     0.007 C 
HETATM    8  C16 UNL     1      -1.334  50.995 -24.303  1.00  0.00     0.157 C 
HETATM    9  O4  UNL     1      -0.202  51.086 -24.765  1.00  0.00    -0.293 OA
HETATM   10  C17 UNL     1      -2.455  50.494 -25.208  1.00  0.00     0.094 C 
HETATM   11  C18 UNL     1      -3.499  49.720 -24.405  1.00  0.00    -0.022 C 
HETATM   12  C19 UNL     1      -2.841  48.416 -23.851  1.00  0.00     0.017 C 
HETATM   13  C20 UNL     1      -0.438  51.891 -21.990  1.00  0.00    -0.007 C 
HETATM   14  C21 UNL     1       0.552  50.732 -21.744  1.00  0.00     0.021 C 
HETATM   15  C22 UNL     1       0.267  53.074 -22.706  1.00  0.00     0.022 C 
HETATM   16  C23 UNL     1       1.270  53.871 -21.874  1.00  0.00     0.080 C 
HETATM   17  C24 UNL     1       1.341  53.522 -20.408  1.00  0.00     0.135 C 
HETATM   18  O5  UNL     1       2.408  53.682 -19.806  1.00  0.00    -0.297 OA
HETATM   19  C25 UNL     1       0.069  53.088 -19.675  1.00  0.00     0.018 C 
HETATM   20  C26 UNL     1      -0.495  54.357 -19.000  1.00  0.00     0.023 C 
HETATM   21  C27 UNL     1       0.467  52.101 -18.557  1.00  0.00     0.023 C 
HETATM   22  C28 UNL     1      -0.998  52.511 -20.662  1.00  0.00     0.021 C 
HETATM   23  C29 UNL     1      -1.992  51.560 -19.999  1.00  0.00     0.090 C 
HETATM   24  C30 UNL     1      -3.153  51.322 -20.926  1.00  0.00     0.157 C 
HETATM   25  O6  UNL     1      -4.299  51.267 -20.483  1.00  0.00    -0.293 OA
ENDROOT
BRANCH   1  26
HETATM   26  C2  UNL     1      -4.895  48.141 -26.128  1.00  0.00    -0.014 C 
HETATM   27  C1  UNL     1      -4.408  48.503 -27.532  1.00  0.00     0.010 C 
BRANCH  26  28
HETATM   28  C3  UNL     1      -6.357  47.608 -26.182  1.00  0.00     0.007 C 
BRANCH  28  29
HETATM   29  C4  UNL     1      -6.889  47.266 -27.578  1.00  0.00     0.035 C 
BRANCH  29  30
HETATM   30  C5  UNL     1      -8.396  46.991 -27.702  1.00  0.00     0.154 C 
BRANCH  30  31
HETATM   31  O1  UNL     1      -8.744  46.092 -26.621  1.00  0.00    -0.392 OA
HETATM   32  H10 UNL     1      -8.252  45.262 -26.761  1.00  0.00     0.210 HD
ENDBRANCH  30  31
BRANCH  30  33
HETATM   33  C6  UNL     1      -9.383  48.191 -27.594  1.00  0.00     0.101 C 
HETATM   34  C7  UNL     1     -10.748  47.919 -28.240  1.00  0.00     0.051 C 
BRANCH  33  35
HETATM   35  O2  UNL     1      -8.788  49.282 -28.352  1.00  0.00    -0.385 OA
HETATM   36  H14 UNL     1      -8.523  48.862 -29.197  1.00  0.00     0.210 HD
ENDBRANCH  33  35
BRANCH  33  37
HETATM   37  C8  UNL     1      -9.556  48.725 -26.160  1.00  0.00     0.204 C 
BRANCH  37  38
HETATM   38  O3  UNL     1     -10.207  49.996 -26.184  1.00  0.00    -0.398 OA
HETATM   39  H17 UNL     1      -9.835  50.441 -26.977  1.00  0.00     0.209 HD
ENDBRANCH  37  38
ENDBRANCH  33  37
ENDBRANCH  30  33
ENDBRANCH  29  30
ENDBRANCH  28  29
ENDBRANCH  26  28
ENDBRANCH   1  26
TORSDOF 9
ENDMDL
MODEL 7
REMARK minimizedAffinity -7.18789053
REMARK CNNscore 0.405011594
REMARK CNNaffinity 5.67649603
REMARK  9 active torsions:
REMARK  status: ('A' for Active; 'I' for Inactive)
REMARK    1  A    between atoms: C2_2  and  C3_3 
REMARK    2  A    between atoms: C2_2  and  C9_12 
REMARK    3  A    between atoms: C3_3  and  C4_4 
REMARK    4  A    between atoms: C4_4  and  C5_5 
REMARK    5  A    between atoms: C5_5  and  O1_6 
REMARK    6  A    between atoms: C5_5  and  C6_7 
REMARK    7  A    between atoms: C6_7  and  O2_9 
REMARK    8  A    between atoms: C6_7  and  C8_10 
REMARK    9  A    between atoms: C8_10  and  O3_11 
ROOT
HETATM    1  C9  UNL     1     -15.266  45.594 -27.432  1.00  0.00    -0.001 C 
HETATM    2  C10 UNL     1     -15.675  44.213 -28.028  1.00  0.00     0.007 C 
HETATM    3  C11 UNL     1     -16.526  43.488 -26.971  1.00  0.00     0.015 C 
HETATM    4  C12 UNL     1     -16.890  44.572 -25.942  1.00  0.00    -0.004 C 
HETATM    5  C13 UNL     1     -18.125  45.343 -26.509  1.00  0.00     0.021 C 
HETATM    6  C14 UNL     1     -17.300  44.194 -24.526  1.00  0.00     0.007 C 
HETATM    7  C15 UNL     1     -17.105  45.008 -23.457  1.00  0.00     0.007 C 
HETATM    8  C16 UNL     1     -16.297  46.278 -23.685  1.00  0.00     0.157 C 
HETATM    9  O4  UNL     1     -16.002  47.012 -22.746  1.00  0.00    -0.293 OA
HETATM   10  C17 UNL     1     -15.803  46.643 -25.080  1.00  0.00     0.094 C 
HETATM   11  C18 UNL     1     -15.545  45.387 -25.912  1.00  0.00    -0.022 C 
HETATM   12  C19 UNL     1     -14.355  44.599 -25.276  1.00  0.00     0.017 C 
HETATM   13  C20 UNL     1     -17.627  44.723 -22.021  1.00  0.00    -0.007 C 
HETATM   14  C21 UNL     1     -16.409  44.347 -21.149  1.00  0.00     0.021 C 
HETATM   15  C22 UNL     1     -18.363  45.957 -21.434  1.00  0.00     0.022 C 
HETATM   16  C23 UNL     1     -19.137  45.732 -20.136  1.00  0.00     0.080 C 
HETATM   17  C24 UNL     1     -19.233  44.304 -19.661  1.00  0.00     0.135 C 
HETATM   18  O5  UNL     1     -19.333  44.082 -18.450  1.00  0.00    -0.297 OA
HETATM   19  C25 UNL     1     -19.321  43.172 -20.689  1.00  0.00     0.018 C 
HETATM   20  C26 UNL     1     -20.823  42.860 -20.862  1.00  0.00     0.023 C 
HETATM   21  C27 UNL     1     -18.649  41.919 -20.087  1.00  0.00     0.023 C 
HETATM   22  C28 UNL     1     -18.718  43.597 -22.068  1.00  0.00     0.021 C 
HETATM   23  C29 UNL     1     -18.244  42.419 -22.916  1.00  0.00     0.090 C 
HETATM   24  C30 UNL     1     -17.996  42.884 -24.325  1.00  0.00     0.157 C 
HETATM   25  O6  UNL     1     -18.321  42.178 -25.277  1.00  0.00    -0.293 OA
ENDROOT
BRANCH   1  26
HETATM   26  C2  UNL     1     -13.863  46.048 -27.947  1.00  0.00    -0.014 C 
HETATM   27  C1  UNL     1     -12.984  44.867 -28.367  1.00  0.00     0.010 C 
BRANCH  26  28
HETATM   28  C3  UNL     1     -13.155  46.883 -26.839  1.00  0.00     0.007 C 
BRANCH  28  29
HETATM   29  C4  UNL     1     -11.623  46.846 -26.856  1.00  0.00     0.035 C 
BRANCH  29  30
HETATM   30  C5  UNL     1     -10.898  48.165 -27.172  1.00  0.00     0.154 C 
BRANCH  30  31
HETATM   31  O1  UNL     1     -11.778  49.234 -26.750  1.00  0.00    -0.392 OA
HETATM   32  H10 UNL     1     -12.589  49.175 -27.287  1.00  0.00     0.210 HD
ENDBRANCH  30  31
BRANCH  30  33
HETATM   33  C6  UNL     1      -9.528  48.444 -26.486  1.00  0.00     0.101 C 
HETATM   34  C7  UNL     1      -9.433  47.886 -25.060  1.00  0.00     0.051 C 
BRANCH  33  35
HETATM   35  O2  UNL     1      -9.416  49.890 -26.363  1.00  0.00    -0.385 OA
HETATM   36  H14 UNL     1     -10.282  50.160 -25.991  1.00  0.00     0.210 HD
ENDBRANCH  33  35
BRANCH  33  37
HETATM   37  C8  UNL     1      -8.314  48.001 -27.325  1.00  0.00     0.204 C 
BRANCH  37  38
HETATM   38  O3  UNL     1      -8.149  48.869 -28.447  1.00  0.00    -0.398 OA
HETATM   39  H17 UNL     1      -9.067  49.069 -28.733  1.00  0.00     0.209 HD
ENDBRANCH  37  38
ENDBRANCH  33  37
ENDBRANCH  30  33
ENDBRANCH  29  30
ENDBRANCH  28  29
ENDBRANCH  26  28
ENDBRANCH   1  26
TORSDOF 9
ENDMDL
MODEL 8
REMARK minimizedAffinity -7.29081964
REMARK CNNscore 0.383201897
REMARK CNNaffinity 5.63393974
REMARK  9 active torsions:
REMARK  status: ('A' for Active; 'I' for Inactive)
REMARK    1  A    between atoms: C2_2  and  C3_3 
REMARK    2  A    between atoms: C2_2  and  C9_12 
REMARK    3  A    between atoms: C3_3  and  C4_4 
REMARK    4  A    between atoms: C4_4  and  C5_5 
REMARK    5  A    between atoms: C5_5  and  O1_6 
REMARK    6  A    between atoms: C5_5  and  C6_7 
REMARK    7  A    between atoms: C6_7  and  O2_9 
REMARK    8  A    between atoms: C6_7  and  C8_10 
REMARK    9  A    between atoms: C8_10  and  O3_11 
ROOT
HETATM    1  C9  UNL     1     -11.739  46.007 -27.950  1.00  0.00    -0.001 C 
HETATM    2  C10 UNL     1     -11.762  47.414 -27.281  1.00  0.00     0.007 C 
HETATM    3  C11 UNL     1     -13.012  47.481 -26.387  1.00  0.00     0.015 C 
HETATM    4  C12 UNL     1     -13.497  46.025 -26.273  1.00  0.00    -0.004 C 
HETATM    5  C13 UNL     1     -12.646  45.348 -25.151  1.00  0.00     0.021 C 
HETATM    6  C14 UNL     1     -14.938  45.713 -25.894  1.00  0.00     0.007 C 
HETATM    7  C15 UNL     1     -15.578  44.581 -26.286  1.00  0.00     0.007 C 
HETATM    8  C16 UNL     1     -14.856  43.680 -27.279  1.00  0.00     0.157 C 
HETATM    9  O4  UNL     1     -15.412  42.692 -27.748  1.00  0.00    -0.293 OA
HETATM   10  C17 UNL     1     -13.441  44.011 -27.740  1.00  0.00     0.094 C 
HETATM   11  C18 UNL     1     -13.205  45.521 -27.734  1.00  0.00    -0.022 C 
HETATM   12  C19 UNL     1     -14.125  46.177 -28.813  1.00  0.00     0.017 C 
HETATM   13  C20 UNL     1     -16.996  44.158 -25.814  1.00  0.00    -0.007 C 
HETATM   14  C21 UNL     1     -17.962  44.354 -27.003  1.00  0.00     0.021 C 
HETATM   15  C22 UNL     1     -17.011  42.683 -25.330  1.00  0.00     0.022 C 
HETATM   16  C23 UNL     1     -18.276  42.217 -24.611  1.00  0.00     0.080 C 
HETATM   17  C24 UNL     1     -19.298  43.285 -24.307  1.00  0.00     0.135 C 
HETATM   18  O5  UNL     1     -20.491  42.971 -24.247  1.00  0.00    -0.297 OA
HETATM   19  C25 UNL     1     -18.827  44.703 -23.970  1.00  0.00     0.018 C 
HETATM   20  C26 UNL     1     -18.778  44.787 -22.429  1.00  0.00     0.023 C 
HETATM   21  C27 UNL     1     -19.902  45.698 -24.460  1.00  0.00     0.023 C 
HETATM   22  C28 UNL     1     -17.404  44.992 -24.549  1.00  0.00     0.021 C 
HETATM   23  C29 UNL     1     -17.124  46.478 -24.767  1.00  0.00     0.090 C 
HETATM   24  C30 UNL     1     -15.652  46.681 -25.003  1.00  0.00     0.157 C 
HETATM   25  O6  UNL     1     -15.072  47.645 -24.507  1.00  0.00    -0.293 OA
ENDROOT
BRANCH   1  26
HETATM   26  C2  UNL     1     -11.101  46.058 -29.375  1.00  0.00    -0.014 C 
HETATM   27  C1  UNL     1     -10.019  44.994 -29.569  1.00  0.00     0.010 C 
BRANCH  26  28
HETATM   28  C3  UNL     1     -10.515  47.479 -29.624  1.00  0.00     0.007 C 
BRANCH  28  29
HETATM   29  C4  UNL     1      -9.280  47.539 -30.530  1.00  0.00     0.035 C 
BRANCH  29  30
HETATM   30  C5  UNL     1      -8.176  48.535 -30.137  1.00  0.00     0.154 C 
BRANCH  30  31
HETATM   31  O1  UNL     1      -8.626  49.201 -28.933  1.00  0.00    -0.392 OA
HETATM   32  H10 UNL     1      -9.438  49.691 -29.156  1.00  0.00     0.210 HD
ENDBRANCH  30  31
BRANCH  30  33
HETATM   33  C6  UNL     1      -6.756  47.983 -29.816  1.00  0.00     0.101 C 
HETATM   34  C7  UNL     1      -6.699  46.452 -29.734  1.00  0.00     0.051 C 
BRANCH  33  35
HETATM   35  O2  UNL     1      -6.415  48.471 -28.488  1.00  0.00    -0.385 OA
HETATM   36  H14 UNL     1      -7.215  48.276 -27.955  1.00  0.00     0.210 HD
ENDBRANCH  33  35
BRANCH  33  37
HETATM   37  C8  UNL     1      -5.656  48.519 -30.752  1.00  0.00     0.204 C 
BRANCH  37  38
HETATM   38  O3  UNL     1      -4.611  47.554 -30.885  1.00  0.00    -0.398 OA
HETATM   39  H17 UNL     1      -4.533  47.160 -29.989  1.00  0.00     0.209 HD
ENDBRANCH  37  38
ENDBRANCH  33  37
ENDBRANCH  30  33
ENDBRANCH  29  30
ENDBRANCH  28  29
ENDBRANCH  26  28
ENDBRANCH   1  26
TORSDOF 9
ENDMDL
MODEL 9
REMARK minimizedAffinity -7.41839838
REMARK CNNscore 0.355549425
REMARK CNNaffinity 5.83415842
REMARK  9 active torsions:
REMARK  status: ('A' for Active; 'I' for Inactive)
REMARK    1  A    between atoms: C2_2  and  C3_3 
REMARK    2  A    between atoms: C2_2  and  C9_12 
REMARK    3  A    between atoms: C3_3  and  C4_4 
REMARK    4  A    between atoms: C4_4  and  C5_5 
REMARK    5  A    between atoms: C5_5  and  O1_6 
REMARK    6  A    between atoms: C5_5  and  C6_7 
REMARK    7  A    between atoms: C6_7  and  O2_9 
REMARK    8  A    between atoms: C6_7  and  C8_10 
REMARK    9  A    between atoms: C8_10  and  O3_11 
ROOT
HETATM    1  C9  UNL     1      -8.703  47.371 -28.016  1.00  0.00    -0.001 C 
HETATM    2  C10 UNL     1      -8.942  48.387 -26.859  1.00  0.00     0.007 C 
HETATM    3  C11 UNL     1     -10.291  48.037 -26.207  1.00  0.00     0.015 C 
HETATM    4  C12 UNL     1     -10.643  46.639 -26.749  1.00  0.00    -0.004 C 
HETATM    5  C13 UNL     1      -9.870  45.603 -25.871  1.00  0.00     0.021 C 
HETATM    6  C14 UNL     1     -12.081  46.142 -26.741  1.00  0.00     0.007 C 
HETATM    7  C15 UNL     1     -12.557  45.240 -27.638  1.00  0.00     0.007 C 
HETATM    8  C16 UNL     1     -11.638  44.846 -28.786  1.00  0.00     0.157 C 
HETATM    9  O4  UNL     1     -12.035  44.110 -29.683  1.00  0.00    -0.293 OA
HETATM   10  C17 UNL     1     -10.216  45.393 -28.864  1.00  0.00     0.094 C 
HETATM   11  C18 UNL     1     -10.131  46.780 -28.229  1.00  0.00    -0.022 C 
HETATM   12  C19 UNL     1     -10.974  47.777 -29.086  1.00  0.00     0.017 C 
HETATM   13  C20 UNL     1     -13.974  44.605 -27.586  1.00  0.00    -0.007 C 
HETATM   14  C21 UNL     1     -14.805  45.224 -28.731  1.00  0.00     0.021 C 
HETATM   15  C22 UNL     1     -13.904  43.061 -27.730  1.00  0.00     0.022 C 
HETATM   16  C23 UNL     1     -15.194  42.293 -27.449  1.00  0.00     0.080 C 
HETATM   17  C24 UNL     1     -16.343  43.105 -26.905  1.00  0.00     0.135 C 
HETATM   18  O5  UNL     1     -17.499  42.745 -27.151  1.00  0.00    -0.297 OA
HETATM   19  C25 UNL     1     -16.057  44.284 -25.971  1.00  0.00     0.018 C 
HETATM   20  C26 UNL     1     -16.201  43.742 -24.533  1.00  0.00     0.023 C 
HETATM   21  C27 UNL     1     -17.156  45.348 -26.184  1.00  0.00     0.023 C 
HETATM   22  C28 UNL     1     -14.609  44.841 -26.171  1.00  0.00     0.021 C 
HETATM   23  C29 UNL     1     -14.450  46.298 -25.743  1.00  0.00     0.090 C 
HETATM   24  C30 UNL     1     -12.988  46.639 -25.658  1.00  0.00     0.157 C 
HETATM   25  O6  UNL     1     -12.567  47.344 -24.743  1.00  0.00    -0.293 OA
ENDROOT
BRANCH   1  26
HETATM   26  C2  UNL     1      -7.908  48.018 -29.194  1.00  0.00    -0.014 C 
HETATM   27  C1  UNL     1      -8.751  49.017 -29.990  1.00  0.00     0.010 C 
BRANCH  26  28
HETATM   28  C3  UNL     1      -7.371  46.896 -30.131  1.00  0.00     0.007 C 
BRANCH  28  29
HETATM   29  C4  UNL     1      -5.916  47.050 -30.588  1.00  0.00     0.035 C 
BRANCH  29  30
HETATM   30  C5  UNL     1      -5.664  47.933 -31.821  1.00  0.00     0.154 C 
BRANCH  30  31
HETATM   31  O1  UNL     1      -4.634  48.881 -31.450  1.00  0.00    -0.392 OA
HETATM   32  H10 UNL     1      -4.989  49.430 -30.726  1.00  0.00     0.210 HD
ENDBRANCH  30  31
BRANCH  30  33
HETATM   33  C6  UNL     1      -5.168  47.255 -33.132  1.00  0.00     0.101 C 
HETATM   34  C7  UNL     1      -5.555  48.025 -34.402  1.00  0.00     0.051 C 
BRANCH  33  35
HETATM   35  O2  UNL     1      -5.848  45.971 -33.215  1.00  0.00    -0.385 OA
HETATM   36  H14 UNL     1      -6.786  46.192 -33.030  1.00  0.00     0.210 HD
ENDBRANCH  33  35
BRANCH  33  37
HETATM   37  C8  UNL     1      -3.663  46.930 -33.132  1.00  0.00     0.204 C 
BRANCH  37  38
HETATM   38  O3  UNL     1      -2.911  48.079 -33.528  1.00  0.00    -0.398 OA
HETATM   39  H17 UNL     1      -3.461  48.495 -34.226  1.00  0.00     0.209 HD
ENDBRANCH  37  38
ENDBRANCH  33  37
ENDBRANCH  30  33
ENDBRANCH  29  30
ENDBRANCH  28  29
ENDBRANCH  26  28
ENDBRANCH   1  26
TORSDOF 9
ENDMDL
