MODEL 1
REMARK minimizedAffinity -10.1684933
REMARK  7 active torsions:
REMARK  status: ('A' for Active; 'I' for Inactive)
REMARK    1  A    between atoms: C2_2  and  C30_32 
REMARK    2  A    between atoms: C3_3  and  C4_4 
REMARK    3  A    between atoms: C4_4  and  O1_5 
REMARK    4  A    between atoms: C4_4  and  C5_6 
REMARK    5  A    between atoms: C5_6  and  C6_7 
REMARK    6  A    between atoms: C6_7  and  C8_9 
REMARK    7  A    between atoms: C30_32  and  O4_34 
ROOT
HETATM    1  C8  UNL     1      -0.298  50.650 -21.098  1.00  0.00    -0.002 C 
HETATM    2  C9  UNL     1      -0.481  50.143 -19.648  1.00  0.00     0.006 C 
HETATM    3  C10 UNL     1      -1.785  49.318 -19.626  1.00  0.00     0.011 C 
HETATM    4  C11 UNL     1      -2.126  49.060 -21.110  1.00  0.00    -0.032 C 
HETATM    5  C12 UNL     1      -1.278  47.827 -21.556  1.00  0.00     0.016 C 
HETATM    6  C13 UNL     1      -3.629  48.800 -21.398  1.00  0.00     0.004 C 
HETATM    7  C14 UNL     1      -4.121  47.410 -20.961  1.00  0.00     0.007 C 
HETATM    8  C15 UNL     1      -5.628  47.308 -21.171  1.00  0.00     0.007 C 
HETATM    9  C16 UNL     1      -5.972  47.293 -22.668  1.00  0.00     0.010 C 
HETATM   10  C17 UNL     1      -7.501  47.263 -22.992  1.00  0.00     0.018 C 
HETATM   11  C18 UNL     1      -7.987  45.804 -23.066  1.00  0.00     0.023 C 
HETATM   12  C19 UNL     1      -8.360  48.002 -21.949  1.00  0.00     0.023 C 
HETATM   13  C20 UNL     1      -7.776  47.896 -24.368  1.00  0.00     0.135 C 
HETATM   14  O2  UNL     1      -8.868  48.397 -24.646  1.00  0.00    -0.297 OA
HETATM   15  C21 UNL     1      -6.719  47.783 -25.445  1.00  0.00     0.080 C 
HETATM   16  C22 UNL     1      -5.303  48.059 -24.956  1.00  0.00     0.018 C 
HETATM   17  C23 UNL     1      -5.250  48.375 -23.473  1.00  0.00    -0.026 A 
HETATM   18  C24 UNL     1      -5.336  49.822 -23.075  1.00  0.00     0.021 A 
HETATM   19  C25 UNL     1      -4.009  49.094 -22.875  1.00  0.00    -0.027 A 
HETATM   20  C26 UNL     1      -2.865  49.451 -23.834  1.00  0.00     0.011 C 
HETATM   21  C27 UNL     1      -1.686  50.270 -23.275  1.00  0.00     0.011 C 
HETATM   22  C28 UNL     1      -1.697  50.432 -21.752  1.00  0.00    -0.032 C 
HETATM   23  C29 UNL     1      -2.650  51.606 -21.406  1.00  0.00     0.016 C 
ENDROOT
BRANCH   1  24
HETATM   24  C6  UNL     1       0.534  51.947 -21.314  1.00  0.00    -0.011 C 
HETATM   25  C7  UNL     1       0.398  52.849 -20.072  1.00  0.00     0.010 C 
BRANCH  24  26
HETATM   26  C5  UNL     1       0.420  52.798 -22.606  1.00  0.00     0.040 C 
BRANCH  26  27
HETATM   27  C4  UNL     1      -0.134  52.175 -23.893  1.00  0.00     0.142 C 
BRANCH  27  28
HETATM   28  C3  UNL     1       0.926  52.148 -24.964  1.00  0.00     0.018 C 
HETATM   29  C2  UNL     1       0.890  51.522 -26.159  1.00  0.00     0.010 C 
HETATM   30  C1  UNL     1      -0.234  50.672 -26.676  1.00  0.00     0.055 C 
BRANCH  29  31
HETATM   31  C30 UNL     1       2.029  51.644 -27.109  1.00  0.00     0.171 C 
HETATM   32  O3  UNL     1       1.964  52.115 -28.232  1.00  0.00    -0.646 OA
BRANCH  31  33
HETATM   33  O4  UNL     1       3.197  51.199 -26.621  1.00  0.00    -0.773 OA
HETATM   34  H46 UNL     1       3.829  51.348 -27.356  1.00  0.00     0.167 HD
ENDBRANCH  31  33
ENDBRANCH  29  31
ENDBRANCH  27  28
BRANCH  27  35
HETATM   35  O1  UNL     1      -1.214  52.950 -24.399  1.00  0.00    -0.392 OA
HETATM   36  H6  UNL     1      -1.375  52.665 -25.313  1.00  0.00     0.210 HD
ENDBRANCH  27  35
ENDBRANCH  26  27
ENDBRANCH  24  26
ENDBRANCH   1  24
TORSDOF 7
ENDMDL
MODEL 2
REMARK minimizedAffinity -9.88755226
REMARK  7 active torsions:
REMARK  status: ('A' for Active; 'I' for Inactive)
REMARK    1  A    between atoms: C2_2  and  C30_32 
REMARK    2  A    between atoms: C3_3  and  C4_4 
REMARK    3  A    between atoms: C4_4  and  O1_5 
REMARK    4  A    between atoms: C4_4  and  C5_6 
REMARK    5  A    between atoms: C5_6  and  C6_7 
REMARK    6  A    between atoms: C6_7  and  C8_9 
REMARK    7  A    between atoms: C30_32  and  O4_34 
ROOT
HETATM    1  C8  UNL     1      -4.024  50.047 -24.449  1.00  0.00    -0.002 C 
HETATM    2  C9  UNL     1      -5.437  49.578 -24.029  1.00  0.00     0.006 C 
HETATM    3  C10 UNL     1      -5.416  49.422 -22.493  1.00  0.00     0.011 C 
HETATM    4  C11 UNL     1      -4.132  50.145 -22.031  1.00  0.00    -0.032 C 
HETATM    5  C12 UNL     1      -4.483  51.664 -21.937  1.00  0.00     0.016 C 
HETATM    6  C13 UNL     1      -3.556  49.651 -20.677  1.00  0.00     0.004 C 
HETATM    7  C14 UNL     1      -4.355  50.115 -19.448  1.00  0.00     0.007 C 
HETATM    8  C15 UNL     1      -3.783  49.471 -18.189  1.00  0.00     0.007 C 
HETATM    9  C16 UNL     1      -2.390  50.034 -17.873  1.00  0.00     0.010 C 
HETATM   10  C17 UNL     1      -1.682  49.386 -16.638  1.00  0.00     0.018 C 
HETATM   11  C18 UNL     1      -2.067  50.153 -15.359  1.00  0.00     0.023 C 
HETATM   12  C19 UNL     1      -2.045  47.903 -16.435  1.00  0.00     0.023 C 
HETATM   13  C20 UNL     1      -0.153  49.486 -16.775  1.00  0.00     0.135 C 
HETATM   14  O2  UNL     1       0.603  48.690 -16.212  1.00  0.00    -0.297 OA
HETATM   15  C21 UNL     1       0.436  50.666 -17.517  1.00  0.00     0.080 C 
HETATM   16  C22 UNL     1      -0.283  51.004 -18.816  1.00  0.00     0.018 C 
HETATM   17  C23 UNL     1      -1.460  50.086 -19.086  1.00  0.00    -0.026 A 
HETATM   18  C24 UNL     1      -1.198  48.858 -19.914  1.00  0.00     0.021 A 
HETATM   19  C25 UNL     1      -2.045  49.973 -20.521  1.00  0.00    -0.027 A 
HETATM   20  C26 UNL     1      -1.395  50.824 -21.622  1.00  0.00     0.011 C 
HETATM   21  C27 UNL     1      -1.887  50.629 -23.068  1.00  0.00     0.011 C 
HETATM   22  C28 UNL     1      -3.144  49.761 -23.195  1.00  0.00    -0.032 C 
HETATM   23  C29 UNL     1      -2.698  48.275 -23.168  1.00  0.00     0.016 C 
ENDROOT
BRANCH   1  24
HETATM   24  C6  UNL     1      -3.551  49.722 -25.896  1.00  0.00    -0.011 C 
HETATM   25  C7  UNL     1      -4.290  48.467 -26.400  1.00  0.00     0.010 C 
BRANCH  24  26
HETATM   26  C5  UNL     1      -2.050  49.646 -26.279  1.00  0.00     0.040 C 
BRANCH  26  27
HETATM   27  C4  UNL     1      -1.353  50.860 -26.908  1.00  0.00     0.142 C 
BRANCH  27  28
HETATM   28  C3  UNL     1       0.122  50.838 -26.601  1.00  0.00     0.018 C 
HETATM   29  C2  UNL     1       1.113  51.510 -27.221  1.00  0.00     0.010 C 
HETATM   30  C1  UNL     1       0.956  52.425 -28.401  1.00  0.00     0.055 C 
BRANCH  29  31
HETATM   31  C30 UNL     1       2.519  51.389 -26.746  1.00  0.00     0.171 C 
HETATM   32  O3  UNL     1       2.897  50.673 -25.834  1.00  0.00    -0.646 OA
BRANCH  31  33
HETATM   33  O4  UNL     1       3.394  52.140 -27.433  1.00  0.00    -0.773 OA
HETATM   34  H46 UNL     1       4.254  51.948 -27.002  1.00  0.00     0.167 HD
ENDBRANCH  31  33
ENDBRANCH  29  31
ENDBRANCH  27  28
BRANCH  27  35
HETATM   35  O1  UNL     1      -1.871  52.068 -26.366  1.00  0.00    -0.392 OA
HETATM   36  H6  UNL     1      -1.258  52.782 -26.605  1.00  0.00     0.210 HD
ENDBRANCH  27  35
ENDBRANCH  26  27
ENDBRANCH  24  26
ENDBRANCH   1  24
TORSDOF 7
ENDMDL
MODEL 3
REMARK minimizedAffinity -9.74274635
REMARK  7 active torsions:
REMARK  status: ('A' for Active; 'I' for Inactive)
REMARK    1  A    between atoms: C2_2  and  C30_32 
REMARK    2  A    between atoms: C3_3  and  C4_4 
REMARK    3  A    between atoms: C4_4  and  O1_5 
REMARK    4  A    between atoms: C4_4  and  C5_6 
REMARK    5  A    between atoms: C5_6  and  C6_7 
REMARK    6  A    between atoms: C6_7  and  C8_9 
REMARK    7  A    between atoms: C30_32  and  O4_34 
ROOT
HETATM    1  C8  UNL     1      -2.687  48.908 -18.688  1.00  0.00    -0.002 C 
HETATM    2  C9  UNL     1      -3.789  47.990 -19.272  1.00  0.00     0.006 C 
HETATM    3  C10 UNL     1      -3.772  48.193 -20.802  1.00  0.00     0.011 C 
HETATM    4  C11 UNL     1      -2.444  48.924 -21.099  1.00  0.00    -0.032 C 
HETATM    5  C12 UNL     1      -1.335  47.827 -21.166  1.00  0.00     0.016 C 
HETATM    6  C13 UNL     1      -2.439  49.762 -22.405  1.00  0.00     0.004 C 
HETATM    7  C14 UNL     1      -2.355  48.922 -23.690  1.00  0.00     0.007 C 
HETATM    8  C15 UNL     1      -2.487  49.829 -24.909  1.00  0.00     0.007 C 
HETATM    9  C16 UNL     1      -1.251  50.729 -25.056  1.00  0.00     0.010 C 
HETATM   10  C17 UNL     1      -1.317  51.752 -26.236  1.00  0.00     0.018 C 
HETATM   11  C18 UNL     1      -0.755  51.104 -27.515  1.00  0.00     0.023 C 
HETATM   12  C19 UNL     1      -2.745  52.246 -26.536  1.00  0.00     0.023 C 
HETATM   13  C20 UNL     1      -0.442  52.982 -25.937  1.00  0.00     0.135 C 
HETATM   14  O2  UNL     1      -0.669  54.080 -26.452  1.00  0.00    -0.297 OA
HETATM   15  C21 UNL     1       0.799  52.804 -25.091  1.00  0.00     0.080 C 
HETATM   16  C22 UNL     1       0.591  51.932 -23.860  1.00  0.00     0.018 C 
HETATM   17  C23 UNL     1      -0.827  51.407 -23.751  1.00  0.00    -0.026 A 
HETATM   18  C24 UNL     1      -1.804  52.225 -22.953  1.00  0.00     0.021 A 
HETATM   19  C25 UNL     1      -1.359  50.878 -22.391  1.00  0.00    -0.027 A 
HETATM   20  C26 UNL     1      -0.396  50.903 -21.194  1.00  0.00     0.011 C 
HETATM   21  C27 UNL     1      -0.949  50.495 -19.816  1.00  0.00     0.011 C 
HETATM   22  C28 UNL     1      -2.355  49.886 -19.856  1.00  0.00    -0.032 C 
HETATM   23  C29 UNL     1      -3.377  51.053 -19.898  1.00  0.00     0.016 C 
ENDROOT
BRANCH   1  24
HETATM   24  C6  UNL     1      -2.844  49.384 -17.215  1.00  0.00    -0.011 C 
HETATM   25  C7  UNL     1      -2.553  50.896 -17.138  1.00  0.00     0.010 C 
BRANCH  24  26
HETATM   26  C5  UNL     1      -2.164  48.649 -16.031  1.00  0.00     0.040 C 
BRANCH  26  27
HETATM   27  C4  UNL     1      -0.704  48.956 -15.669  1.00  0.00     0.142 C 
BRANCH  27  28
HETATM   28  C3  UNL     1      -0.257  50.238 -16.325  1.00  0.00     0.018 C 
HETATM   29  C2  UNL     1       0.810  51.003 -16.019  1.00  0.00     0.010 C 
HETATM   30  C1  UNL     1       1.791  50.748 -14.911  1.00  0.00     0.055 C 
BRANCH  29  31
HETATM   31  C30 UNL     1       1.115  52.226 -16.812  1.00  0.00     0.171 C 
HETATM   32  O3  UNL     1       0.952  52.345 -18.015  1.00  0.00    -0.646 OA
BRANCH  31  33
HETATM   33  O4  UNL     1       1.584  53.248 -16.081  1.00  0.00    -0.773 OA
HETATM   34  H46 UNL     1       1.730  53.959 -16.740  1.00  0.00     0.167 HD
ENDBRANCH  31  33
ENDBRANCH  29  31
ENDBRANCH  27  28
BRANCH  27  35
HETATM   35  O1  UNL     1       0.154  47.927 -16.145  1.00  0.00    -0.392 OA
HETATM   36  H6  UNL     1       1.064  48.265 -16.108  1.00  0.00     0.210 HD
ENDBRANCH  27  35
ENDBRANCH  26  27
ENDBRANCH  24  26
ENDBRANCH   1  24
TORSDOF 7
ENDMDL
MODEL 4
REMARK minimizedAffinity -9.70575714
REMARK  7 active torsions:
REMARK  status: ('A' for Active; 'I' for Inactive)
REMARK    1  A    between atoms: C2_2  and  C30_32 
REMARK    2  A    between atoms: C3_3  and  C4_4 
REMARK    3  A    between atoms: C4_4  and  O1_5 
REMARK    4  A    between atoms: C4_4  and  C5_6 
REMARK    5  A    between atoms: C5_6  and  C6_7 
REMARK    6  A    between atoms: C6_7  and  C8_9 
REMARK    7  A    between atoms: C30_32  and  O4_34 
ROOT
HETATM    1  C8  UNL     1      -0.871  51.063 -17.771  1.00  0.00    -0.002 C 
HETATM    2  C9  UNL     1       0.620  51.454 -17.641  1.00  0.00     0.006 C 
HETATM    3  C10 UNL     1       1.089  51.894 -19.044  1.00  0.00     0.011 C 
HETATM    4  C11 UNL     1      -0.208  52.098 -19.858  1.00  0.00    -0.032 C 
HETATM    5  C12 UNL     1      -0.731  53.528 -19.514  1.00  0.00     0.016 C 
HETATM    6  C13 UNL     1      -0.044  51.951 -21.394  1.00  0.00     0.004 C 
HETATM    7  C14 UNL     1       0.661  53.141 -22.068  1.00  0.00     0.007 C 
HETATM    8  C15 UNL     1       0.885  52.838 -23.545  1.00  0.00     0.007 C 
HETATM    9  C16 UNL     1      -0.450  52.808 -24.305  1.00  0.00     0.010 C 
HETATM   10  C17 UNL     1      -0.338  52.433 -25.819  1.00  0.00     0.018 C 
HETATM   11  C18 UNL     1      -0.116  53.708 -26.653  1.00  0.00     0.023 C 
HETATM   12  C19 UNL     1       0.813  51.455 -26.122  1.00  0.00     0.023 C 
HETATM   13  C20 UNL     1      -1.647  51.796 -26.318  1.00  0.00     0.135 C 
HETATM   14  O2  UNL     1      -1.668  51.027 -27.282  1.00  0.00    -0.297 OA
HETATM   15  C21 UNL     1      -2.953  52.225 -25.686  1.00  0.00     0.080 C 
HETATM   16  C22 UNL     1      -2.903  52.327 -24.167  1.00  0.00     0.018 C 
HETATM   17  C23 UNL     1      -1.536  51.989 -23.605  1.00  0.00    -0.026 A 
HETATM   18  C24 UNL     1      -1.291  50.560 -23.206  1.00  0.00     0.021 A 
HETATM   19  C25 UNL     1      -1.383  51.613 -22.105  1.00  0.00    -0.027 A 
HETATM   20  C26 UNL     1      -2.652  51.612 -21.240  1.00  0.00     0.011 C 
HETATM   21  C27 UNL     1      -2.530  51.124 -19.784  1.00  0.00     0.011 C 
HETATM   22  C28 UNL     1      -1.089  50.916 -19.307  1.00  0.00    -0.032 C 
HETATM   23  C29 UNL     1      -0.627  49.516 -19.792  1.00  0.00     0.016 C 
ENDROOT
BRANCH   1  24
HETATM   24  C6  UNL     1      -1.448  50.048 -16.742  1.00  0.00    -0.011 C 
HETATM   25  C7  UNL     1      -1.726  48.709 -17.453  1.00  0.00     0.010 C 
BRANCH  24  26
HETATM   26  C5  UNL     1      -2.626  50.404 -15.798  1.00  0.00     0.040 C 
BRANCH  26  27
HETATM   27  C4  UNL     1      -2.411  50.449 -14.280  1.00  0.00     0.142 C 
BRANCH  27  28
HETATM   28  C3  UNL     1      -2.984  51.718 -13.703  1.00  0.00     0.018 C 
HETATM   29  C2  UNL     1      -3.429  51.938 -12.449  1.00  0.00     0.010 C 
HETATM   30  C1  UNL     1      -3.477  50.928 -11.339  1.00  0.00     0.055 C 
BRANCH  29  31
HETATM   31  C30 UNL     1      -3.930  53.283 -12.051  1.00  0.00     0.171 C 
HETATM   32  O3  UNL     1      -3.999  53.700 -10.907  1.00  0.00    -0.646 OA
BRANCH  31  33
HETATM   33  O4  UNL     1      -4.300  54.055 -13.084  1.00  0.00    -0.773 OA
HETATM   34  H46 UNL     1      -4.597  54.887 -12.658  1.00  0.00     0.167 HD
ENDBRANCH  31  33
ENDBRANCH  29  31
ENDBRANCH  27  28
BRANCH  27  35
HETATM   35  O1  UNL     1      -1.022  50.445 -13.973  1.00  0.00    -0.392 OA
HETATM   36  H6  UNL     1      -0.928  50.708 -13.043  1.00  0.00     0.210 HD
ENDBRANCH  27  35
ENDBRANCH  26  27
ENDBRANCH  24  26
ENDBRANCH   1  24
TORSDOF 7
ENDMDL
MODEL 5
REMARK minimizedAffinity -9.58445168
REMARK  7 active torsions:
REMARK  status: ('A' for Active; 'I' for Inactive)
REMARK    1  A    between atoms: C2_2  and  C30_32 
REMARK    2  A    between atoms: C3_3  and  C4_4 
REMARK    3  A    between atoms: C4_4  and  O1_5 
REMARK    4  A    between atoms: C4_4  and  C5_6 
REMARK    5  A    between atoms: C5_6  and  C6_7 
REMARK    6  A    between atoms: C6_7  and  C8_9 
REMARK    7  A    between atoms: C30_32  and  O4_34 
ROOT
HETATM    1  C8  UNL     1      -5.529  48.843 -21.546  1.00  0.00    -0.002 C 
HETATM    2  C9  UNL     1      -5.939  47.921 -22.720  1.00  0.00     0.006 C 
HETATM    3  C10 UNL     1      -5.014  48.272 -23.904  1.00  0.00     0.011 C 
HETATM    4  C11 UNL     1      -3.869  49.108 -23.291  1.00  0.00    -0.032 C 
HETATM    5  C12 UNL     1      -2.840  48.091 -22.702  1.00  0.00     0.016 C 
HETATM    6  C13 UNL     1      -3.158  50.067 -24.282  1.00  0.00     0.004 C 
HETATM    7  C14 UNL     1      -2.218  49.362 -25.273  1.00  0.00     0.007 C 
HETATM    8  C15 UNL     1      -1.676  50.374 -26.277  1.00  0.00     0.007 C 
HETATM    9  C16 UNL     1      -0.712  51.356 -25.595  1.00  0.00     0.010 C 
HETATM   10  C17 UNL     1      -0.154  52.483 -26.524  1.00  0.00     0.018 C 
HETATM   11  C18 UNL     1       1.137  51.998 -27.209  1.00  0.00     0.023 C 
HETATM   12  C19 UNL     1      -1.144  52.916 -27.621  1.00  0.00     0.023 C 
HETATM   13  C20 UNL     1       0.218  53.729 -25.702  1.00  0.00     0.135 C 
HETATM   14  O2  UNL     1       0.237  54.856 -26.203  1.00  0.00    -0.297 OA
HETATM   15  C21 UNL     1       0.696  53.546 -24.278  1.00  0.00     0.080 C 
HETATM   16  C22 UNL     1      -0.125  52.547 -23.472  1.00  0.00     0.018 C 
HETATM   17  C23 UNL     1      -1.249  51.929 -24.282  1.00  0.00    -0.026 A 
HETATM   18  C24 UNL     1      -2.590  52.605 -24.224  1.00  0.00     0.021 A 
HETATM   19  C25 UNL     1      -2.439  51.240 -23.560  1.00  0.00    -0.027 A 
HETATM   20  C26 UNL     1      -2.416  51.207 -22.025  1.00  0.00     0.011 C 
HETATM   21  C27 UNL     1      -3.648  50.634 -21.299  1.00  0.00     0.011 C 
HETATM   22  C28 UNL     1      -4.661  49.948 -22.221  1.00  0.00    -0.032 C 
HETATM   23  C29 UNL     1      -5.563  51.049 -22.838  1.00  0.00     0.016 C 
ENDROOT
BRANCH   1  24
HETATM   24  C6  UNL     1      -6.603  49.164 -20.466  1.00  0.00    -0.011 C 
HETATM   25  C7  UNL     1      -6.041  48.814 -19.074  1.00  0.00     0.010 C 
BRANCH  24  26
HETATM   26  C5  UNL     1      -8.070  48.675 -20.586  1.00  0.00     0.040 C 
BRANCH  26  27
HETATM   27  C4  UNL     1      -8.462  47.281 -20.077  1.00  0.00     0.142 C 
BRANCH  27  28
HETATM   28  C3  UNL     1      -9.123  47.380 -18.727  1.00  0.00     0.018 C 
HETATM   29  C2  UNL     1     -10.411  47.667 -18.447  1.00  0.00     0.010 C 
HETATM   30  C1  UNL     1     -11.482  47.987 -19.449  1.00  0.00     0.055 C 
BRANCH  29  31
HETATM   31  C30 UNL     1     -10.892  47.680 -17.038  1.00  0.00     0.171 C 
HETATM   32  O3  UNL     1     -11.993  47.311 -16.665  1.00  0.00    -0.646 OA
BRANCH  31  33
HETATM   33  O4  UNL     1      -9.986  48.128 -16.156  1.00  0.00    -0.773 OA
HETATM   34  H46 UNL     1     -10.451  48.073 -15.295  1.00  0.00     0.167 HD
ENDBRANCH  31  33
ENDBRANCH  29  31
ENDBRANCH  27  28
BRANCH  27  35
HETATM   35  O1  UNL     1      -7.307  46.467 -19.915  1.00  0.00    -0.392 OA
HETATM   36  H6  UNL     1      -7.565  45.698 -19.382  1.00  0.00     0.210 HD
ENDBRANCH  27  35
ENDBRANCH  26  27
ENDBRANCH  24  26
ENDBRANCH   1  24
TORSDOF 7
ENDMDL
MODEL 6
REMARK minimizedAffinity -9.43423176
REMARK  7 active torsions:
REMARK  status: ('A' for Active; 'I' for Inactive)
REMARK    1  A    between atoms: C2_2  and  C30_32 
REMARK    2  A    between atoms: C3_3  and  C4_4 
REMARK    3  A    between atoms: C4_4  and  O1_5 
REMARK    4  A    between atoms: C4_4  and  C5_6 
REMARK    5  A    between atoms: C5_6  and  C6_7 
REMARK    6  A    between atoms: C6_7  and  C8_9 
REMARK    7  A    between atoms: C30_32  and  O4_34 
ROOT
HETATM    1  C8  UNL     1      -5.445  48.662 -21.893  1.00  0.00    -0.002 C 
HETATM    2  C9  UNL     1      -5.839  47.817 -23.128  1.00  0.00     0.006 C 
HETATM    3  C10 UNL     1      -4.915  48.258 -24.282  1.00  0.00     0.011 C 
HETATM    4  C11 UNL     1      -3.783  49.064 -23.609  1.00  0.00    -0.032 C 
HETATM    5  C12 UNL     1      -2.742  48.023 -23.086  1.00  0.00     0.016 C 
HETATM    6  C13 UNL     1      -3.080  50.097 -24.530  1.00  0.00     0.004 C 
HETATM    7  C14 UNL     1      -2.128  49.472 -25.563  1.00  0.00     0.007 C 
HETATM    8  C15 UNL     1      -1.595  50.556 -26.494  1.00  0.00     0.007 C 
HETATM    9  C16 UNL     1      -0.646  51.502 -25.743  1.00  0.00     0.010 C 
HETATM   10  C17 UNL     1      -0.099  52.696 -26.592  1.00  0.00     0.018 C 
HETATM   11  C18 UNL     1       1.201  52.274 -27.302  1.00  0.00     0.023 C 
HETATM   12  C19 UNL     1      -1.091  53.190 -27.661  1.00  0.00     0.023 C 
HETATM   13  C20 UNL     1       0.255  53.888 -25.685  1.00  0.00     0.135 C 
HETATM   14  O2  UNL     1       0.261  55.047 -26.109  1.00  0.00    -0.297 OA
HETATM   15  C21 UNL     1       0.730  53.614 -24.275  1.00  0.00     0.080 C 
HETATM   16  C22 UNL     1      -0.081  52.554 -23.542  1.00  0.00     0.018 C 
HETATM   17  C23 UNL     1      -1.194  51.978 -24.396  1.00  0.00    -0.026 A 
HETATM   18  C24 UNL     1      -2.544  52.633 -24.298  1.00  0.00     0.021 A 
HETATM   19  C25 UNL     1      -2.378  51.227 -23.728  1.00  0.00    -0.027 A 
HETATM   20  C26 UNL     1      -2.360  51.091 -22.198  1.00  0.00     0.011 C 
HETATM   21  C27 UNL     1      -3.587  50.455 -21.517  1.00  0.00     0.011 C 
HETATM   22  C28 UNL     1      -4.588  49.821 -22.488  1.00  0.00    -0.032 C 
HETATM   23  C29 UNL     1      -5.502  50.950 -23.033  1.00  0.00     0.016 C 
ENDROOT
BRANCH   1  24
HETATM   24  C6  UNL     1      -6.526  48.896 -20.798  1.00  0.00    -0.011 C 
HETATM   25  C7  UNL     1      -6.557  50.392 -20.428  1.00  0.00     0.010 C 
BRANCH  24  26
HETATM   26  C5  UNL     1      -6.605  48.029 -19.514  1.00  0.00     0.040 C 
BRANCH  26  27
HETATM   27  C4  UNL     1      -5.720  48.359 -18.305  1.00  0.00     0.142 C 
BRANCH  27  28
HETATM   28  C3  UNL     1      -4.278  48.037 -18.605  1.00  0.00     0.018 C 
HETATM   29  C2  UNL     1      -3.189  48.801 -18.382  1.00  0.00     0.010 C 
HETATM   30  C1  UNL     1      -3.186  50.184 -17.798  1.00  0.00     0.055 C 
BRANCH  29  31
HETATM   31  C30 UNL     1      -1.830  48.292 -18.713  1.00  0.00     0.171 C 
HETATM   32  O3  UNL     1      -1.511  47.762 -19.763  1.00  0.00    -0.646 OA
BRANCH  31  33
HETATM   33  O4  UNL     1      -0.925  48.480 -17.740  1.00  0.00    -0.773 OA
HETATM   34  H46 UNL     1      -0.101  48.097 -18.110  1.00  0.00     0.167 HD
ENDBRANCH  31  33
ENDBRANCH  29  31
ENDBRANCH  27  28
BRANCH  27  35
HETATM   35  O1  UNL     1      -6.095  47.570 -17.183  1.00  0.00    -0.392 OA
HETATM   36  H6  UNL     1      -5.380  47.634 -16.529  1.00  0.00     0.210 HD
ENDBRANCH  27  35
ENDBRANCH  26  27
ENDBRANCH  24  26
ENDBRANCH   1  24
TORSDOF 7
ENDMDL
MODEL 7
REMARK minimizedAffinity -9.43380928
REMARK  7 active torsions:
REMARK  status: ('A' for Active; 'I' for Inactive)
REMARK    1  A    between atoms: C2_2  and  C30_32 
REMARK    2  A    between atoms: C3_3  and  C4_4 
REMARK    3  A    between atoms: C4_4  and  O1_5 
REMARK    4  A    between atoms: C4_4  and  C5_6 
REMARK    5  A    between atoms: C5_6  and  C6_7 
REMARK    6  A    between atoms: C6_7  and  C8_9 
REMARK    7  A    between atoms: C30_32  and  O4_34 
ROOT
HETATM    1  C8  UNL     1      -1.192  49.604 -18.021  1.00  0.00    -0.002 C 
HETATM    2  C9  UNL     1      -2.458  48.721 -18.129  1.00  0.00     0.006 C 
HETATM    3  C10 UNL     1      -2.890  48.742 -19.611  1.00  0.00     0.011 C 
HETATM    4  C11 UNL     1      -1.681  49.322 -20.377  1.00  0.00    -0.032 C 
HETATM    5  C12 UNL     1      -0.693  48.136 -20.615  1.00  0.00     0.016 C 
HETATM    6  C13 UNL     1      -2.029  50.000 -21.729  1.00  0.00     0.004 C 
HETATM    7  C14 UNL     1      -2.372  49.013 -22.857  1.00  0.00     0.007 C 
HETATM    8  C15 UNL     1      -2.821  49.782 -24.095  1.00  0.00     0.007 C 
HETATM    9  C16 UNL     1      -1.646  50.552 -24.715  1.00  0.00     0.010 C 
HETATM   10  C17 UNL     1      -2.016  51.434 -25.952  1.00  0.00     0.018 C 
HETATM   11  C18 UNL     1      -1.893  50.598 -27.240  1.00  0.00     0.023 C 
HETATM   12  C19 UNL     1      -3.444  52.007 -25.888  1.00  0.00     0.023 C 
HETATM   13  C20 UNL     1      -1.037  52.613 -26.090  1.00  0.00     0.135 C 
HETATM   14  O2  UNL     1      -1.357  53.659 -26.659  1.00  0.00    -0.297 OA
HETATM   15  C21 UNL     1       0.391  52.431 -25.626  1.00  0.00     0.080 C 
HETATM   16  C22 UNL     1       0.522  51.727 -24.281  1.00  0.00     0.018 C 
HETATM   17  C23 UNL     1      -0.821  51.339 -23.695  1.00  0.00    -0.026 A 
HETATM   18  C24 UNL     1      -1.476  52.322 -22.765  1.00  0.00     0.021 A 
HETATM   19  C25 UNL     1      -0.945  51.016 -22.180  1.00  0.00    -0.027 A 
HETATM   20  C26 UNL     1       0.332  51.099 -21.330  1.00  0.00     0.011 C 
HETATM   21  C27 UNL     1       0.199  50.900 -19.808  1.00  0.00     0.011 C 
HETATM   22  C28 UNL     1      -1.180  50.410 -19.355  1.00  0.00    -0.032 C 
HETATM   23  C29 UNL     1      -2.114  51.645 -19.255  1.00  0.00     0.016 C 
ENDROOT
BRANCH   1  24
HETATM   24  C6  UNL     1      -0.879  50.259 -16.644  1.00  0.00    -0.011 C 
HETATM   25  C7  UNL     1      -2.072  50.035 -15.694  1.00  0.00     0.010 C 
BRANCH  24  26
HETATM   26  C5  UNL     1      -0.365  51.716 -16.519  1.00  0.00     0.040 C 
BRANCH  26  27
HETATM   27  C4  UNL     1       1.139  52.011 -16.590  1.00  0.00     0.142 C 
BRANCH  27  28
HETATM   28  C3  UNL     1       1.863  51.339 -15.451  1.00  0.00     0.018 C 
HETATM   29  C2  UNL     1       3.167  51.436 -15.119  1.00  0.00     0.010 C 
HETATM   30  C1  UNL     1       4.208  52.232 -15.851  1.00  0.00     0.055 C 
BRANCH  29  31
HETATM   31  C30 UNL     1       3.696  50.720 -13.925  1.00  0.00     0.171 C 
HETATM   32  O3  UNL     1       4.478  49.786 -13.952  1.00  0.00    -0.646 OA
BRANCH  31  33
HETATM   33  O4  UNL     1       3.251  51.206 -12.756  1.00  0.00    -0.773 OA
HETATM   34  H46 UNL     1       3.685  50.637 -12.086  1.00  0.00     0.167 HD
ENDBRANCH  31  33
ENDBRANCH  29  31
ENDBRANCH  27  28
BRANCH  27  35
HETATM   35  O1  UNL     1       1.380  53.408 -16.467  1.00  0.00    -0.392 OA
HETATM   36  H6  UNL     1       2.326  53.526 -16.282  1.00  0.00     0.210 HD
ENDBRANCH  27  35
ENDBRANCH  26  27
ENDBRANCH  24  26
ENDBRANCH   1  24
TORSDOF 7
ENDMDL
MODEL 8
REMARK minimizedAffinity -9.32930851
REMARK  7 active torsions:
REMARK  status: ('A' for Active; 'I' for Inactive)
REMARK    1  A    between atoms: C2_2  and  C30_32 
REMARK    2  A    between atoms: C3_3  and  C4_4 
REMARK    3  A    between atoms: C4_4  and  O1_5 
REMARK    4  A    between atoms: C4_4  and  C5_6 
REMARK    5  A    between atoms: C5_6  and  C6_7 
REMARK    6  A    between atoms: C6_7  and  C8_9 
REMARK    7  A    between atoms: C30_32  and  O4_34 
ROOT
HETATM    1  C8  UNL     1      -5.661  48.705 -22.196  1.00  0.00    -0.002 C 
HETATM    2  C9  UNL     1      -5.826  47.718 -23.377  1.00  0.00     0.006 C 
HETATM    3  C10 UNL     1      -4.759  48.097 -24.426  1.00  0.00     0.011 C 
HETATM    4  C11 UNL     1      -3.779  49.035 -23.687  1.00  0.00    -0.032 C 
HETATM    5  C12 UNL     1      -2.783  48.117 -22.909  1.00  0.00     0.016 C 
HETATM    6  C13 UNL     1      -2.995  50.012 -24.602  1.00  0.00     0.004 C 
HETATM    7  C14 UNL     1      -1.870  49.346 -25.413  1.00  0.00     0.007 C 
HETATM    8  C15 UNL     1      -1.253  50.363 -26.368  1.00  0.00     0.007 C 
HETATM    9  C16 UNL     1      -0.472  51.435 -25.594  1.00  0.00     0.010 C 
HETATM   10  C17 UNL     1       0.141  52.570 -26.478  1.00  0.00     0.018 C 
HETATM   11  C18 UNL     1       1.550  52.159 -26.943  1.00  0.00     0.023 C 
HETATM   12  C19 UNL     1      -0.701  52.893 -27.727  1.00  0.00     0.023 C 
HETATM   13  C20 UNL     1       0.299  53.866 -25.664  1.00  0.00     0.135 C 
HETATM   14  O2  UNL     1       0.316  54.974 -26.205  1.00  0.00    -0.297 OA
HETATM   15  C21 UNL     1       0.568  53.764 -24.179  1.00  0.00     0.080 C 
HETATM   16  C22 UNL     1      -0.294  52.734 -23.461  1.00  0.00     0.018 C 
HETATM   17  C23 UNL     1      -1.238  52.009 -24.400  1.00  0.00    -0.026 A 
HETATM   18  C24 UNL     1      -2.616  52.586 -24.570  1.00  0.00     0.021 A 
HETATM   19  C25 UNL     1      -2.474  51.257 -23.834  1.00  0.00    -0.027 A 
HETATM   20  C26 UNL     1      -2.680  51.276 -22.312  1.00  0.00     0.011 C 
HETATM   21  C27 UNL     1      -3.965  50.637 -21.751  1.00  0.00     0.011 C 
HETATM   22  C28 UNL     1      -4.779  49.849 -22.782  1.00  0.00    -0.032 C 
HETATM   23  C29 UNL     1      -5.651  50.860 -23.573  1.00  0.00     0.016 C 
ENDROOT
BRANCH   1  24
HETATM   24  C6  UNL     1      -6.904  48.980 -21.301  1.00  0.00    -0.011 C 
HETATM   25  C7  UNL     1      -6.491  48.887 -19.819  1.00  0.00     0.010 C 
BRANCH  24  26
HETATM   26  C5  UNL     1      -8.260  48.260 -21.523  1.00  0.00     0.040 C 
BRANCH  26  27
HETATM   27  C4  UNL     1      -8.466  47.369 -22.754  1.00  0.00     0.142 C 
BRANCH  27  28
HETATM   28  C3  UNL     1      -9.127  48.146 -23.863  1.00  0.00     0.018 C 
HETATM   29  C2  UNL     1      -9.085  47.907 -25.190  1.00  0.00     0.010 C 
HETATM   30  C1  UNL     1      -8.327  46.801 -25.864  1.00  0.00     0.055 C 
BRANCH  29  31
HETATM   31  C30 UNL     1      -9.842  48.772 -26.137  1.00  0.00     0.171 C 
HETATM   32  O3  UNL     1     -11.057  48.848 -26.207  1.00  0.00    -0.646 OA
BRANCH  31  33
HETATM   33  O4  UNL     1      -9.063  49.516 -26.937  1.00  0.00    -0.773 OA
HETATM   34  H46 UNL     1      -9.703  50.017 -27.486  1.00  0.00     0.167 HD
ENDBRANCH  31  33
ENDBRANCH  29  31
ENDBRANCH  27  28
BRANCH  27  35
HETATM   35  O1  UNL     1      -9.327  46.280 -22.442  1.00  0.00    -0.392 OA
HETATM   36  H6  UNL     1      -9.615  45.886 -23.282  1.00  0.00     0.210 HD
ENDBRANCH  27  35
ENDBRANCH  26  27
ENDBRANCH  24  26
ENDBRANCH   1  24
TORSDOF 7
ENDMDL
MODEL 9
REMARK minimizedAffinity -9.31461239
REMARK  7 active torsions:
REMARK  status: ('A' for Active; 'I' for Inactive)
REMARK    1  A    between atoms: C2_2  and  C30_32 
REMARK    2  A    between atoms: C3_3  and  C4_4 
REMARK    3  A    between atoms: C4_4  and  O1_5 
REMARK    4  A    between atoms: C4_4  and  C5_6 
REMARK    5  A    between atoms: C5_6  and  C6_7 
REMARK    6  A    between atoms: C6_7  and  C8_9 
REMARK    7  A    between atoms: C30_32  and  O4_34 
ROOT
HETATM    1  C8  UNL     1      -1.538  51.208 -23.251  1.00  0.00    -0.002 C 
HETATM    2  C9  UNL     1      -1.364  50.655 -24.686  1.00  0.00     0.006 C 
HETATM    3  C10 UNL     1      -2.589  49.760 -24.969  1.00  0.00     0.011 C 
HETATM    4  C11 UNL     1      -3.606  50.103 -23.859  1.00  0.00    -0.032 C 
HETATM    5  C12 UNL     1      -4.358  51.391 -24.323  1.00  0.00     0.016 C 
HETATM    6  C13 UNL     1      -4.628  48.980 -23.541  1.00  0.00     0.004 C 
HETATM    7  C14 UNL     1      -5.726  48.810 -24.604  1.00  0.00     0.007 C 
HETATM    8  C15 UNL     1      -6.595  47.604 -24.260  1.00  0.00     0.007 C 
HETATM    9  C16 UNL     1      -7.433  47.875 -23.002  1.00  0.00     0.010 C 
HETATM   10  C17 UNL     1      -8.307  46.672 -22.521  1.00  0.00     0.018 C 
HETATM   11  C18 UNL     1      -9.683  46.722 -23.210  1.00  0.00     0.023 C 
HETATM   12  C19 UNL     1      -7.672  45.300 -22.817  1.00  0.00     0.023 C 
HETATM   13  C20 UNL     1      -8.563  46.759 -21.006  1.00  0.00     0.135 C 
HETATM   14  O2  UNL     1      -8.807  45.756 -20.330  1.00  0.00    -0.297 OA
HETATM   15  C21 UNL     1      -8.641  48.124 -20.358  1.00  0.00     0.080 C 
HETATM   16  C22 UNL     1      -7.557  49.091 -20.817  1.00  0.00     0.018 C 
HETATM   17  C23 UNL     1      -6.629  48.479 -21.849  1.00  0.00    -0.026 A 
HETATM   18  C24 UNL     1      -5.382  47.811 -21.342  1.00  0.00     0.021 A 
HETATM   19  C25 UNL     1      -5.238  49.116 -22.119  1.00  0.00    -0.027 A 
HETATM   20  C26 UNL     1      -4.863  50.370 -21.315  1.00  0.00     0.011 C 
HETATM   21  C27 UNL     1      -3.441  50.937 -21.487  1.00  0.00     0.011 C 
HETATM   22  C28 UNL     1      -2.643  50.301 -22.629  1.00  0.00    -0.032 C 
HETATM   23  C29 UNL     1      -2.029  48.978 -22.101  1.00  0.00     0.016 C 
ENDROOT
BRANCH   1  24
HETATM   24  C6  UNL     1      -0.255  51.620 -22.472  1.00  0.00    -0.011 C 
HETATM   25  C7  UNL     1      -0.575  51.677 -20.965  1.00  0.00     0.010 C 
BRANCH  24  26
HETATM   26  C5  UNL     1       0.605  52.844 -22.880  1.00  0.00     0.040 C 
BRANCH  26  27
HETATM   27  C4  UNL     1       0.416  53.493 -24.258  1.00  0.00     0.142 C 
BRANCH  27  28
HETATM   28  C3  UNL     1       1.150  52.709 -25.315  1.00  0.00     0.018 C 
HETATM   29  C2  UNL     1       0.941  52.707 -26.647  1.00  0.00     0.010 C 
HETATM   30  C1  UNL     1      -0.115  53.486 -27.377  1.00  0.00     0.055 C 
BRANCH  29  31
HETATM   31  C30 UNL     1       1.802  51.888 -27.544  1.00  0.00     0.171 C 
HETATM   32  O3  UNL     1       1.411  51.248 -28.506  1.00  0.00    -0.646 OA
BRANCH  31  33
HETATM   33  O4  UNL     1       3.105  51.914 -27.225  1.00  0.00    -0.773 OA
HETATM   34  H46 UNL     1       3.522  51.337 -27.899  1.00  0.00     0.167 HD
ENDBRANCH  31  33
ENDBRANCH  29  31
ENDBRANCH  27  28
BRANCH  27  35
HETATM   35  O1  UNL     1       0.957  54.809 -24.267  1.00  0.00    -0.392 OA
HETATM   36  H6  UNL     1       1.030  55.087 -25.195  1.00  0.00     0.210 HD
ENDBRANCH  27  35
ENDBRANCH  26  27
ENDBRANCH  24  26
ENDBRANCH   1  24
TORSDOF 7
ENDMDL
