MODEL 1
REMARK minimizedAffinity -7.72849751
REMARK CNNscore 0.622312129
REMARK CNNaffinity 6.84166384
REMARK  8 active torsions:
REMARK  status: ('A' for Active; 'I' for Inactive)
REMARK    1  A    between atoms: C2_2  and  C30_34 
REMARK    2  A    between atoms: C3_3  and  C4_4 
REMARK    3  A    between atoms: C4_4  and  O1_5 
REMARK    4  A    between atoms: C4_4  and  C5_6 
REMARK    5  A    between atoms: C5_6  and  C6_7 
REMARK    6  A    between atoms: C6_7  and  C8_9 
REMARK    7  A    between atoms: C10_11  and  O2_12 
REMARK    8  A    between atoms: C30_34  and  O6_36 
ROOT
HETATM    1  C8  UNL     1     -12.570   8.729  14.390  1.00  0.00     0.001 C 
HETATM    2  C9  UNL     1     -12.424   9.109  15.895  1.00  0.00     0.038 C 
HETATM    3  C10 UNL     1     -11.047   8.603  16.370  1.00  0.00     0.131 C 
HETATM    4  C11 UNL     1     -10.277   8.293  15.060  1.00  0.00     0.014 C 
HETATM    5  C12 UNL     1      -9.676   9.623  14.505  1.00  0.00     0.023 C 
HETATM    6  C13 UNL     1      -9.104   7.319  15.085  1.00  0.00    -0.058 C 
HETATM    7  C14 UNL     1      -8.743   6.587  14.000  1.00  0.00    -0.000 C 
HETATM    8  C15 UNL     1      -9.605   6.690  12.752  1.00  0.00     0.157 C 
HETATM    9  O3  UNL     1      -9.279   6.144  11.699  1.00  0.00    -0.293 OA
HETATM   10  C16 UNL     1     -10.909   7.481  12.780  1.00  0.00     0.094 C 
HETATM   11  C17 UNL     1     -11.438   7.671  14.200  1.00  0.00    -0.019 C 
HETATM   12  C18 UNL     1     -11.935   6.286  14.728  1.00  0.00     0.017 C 
HETATM   13  C19 UNL     1      -7.560   5.595  14.072  1.00  0.00    -0.008 C 
HETATM   14  C20 UNL     1      -8.160   4.297  14.697  1.00  0.00     0.021 C 
HETATM   15  C21 UNL     1      -6.968   5.175  12.694  1.00  0.00     0.022 C 
HETATM   16  C22 UNL     1      -5.595   4.534  12.794  1.00  0.00     0.080 C 
HETATM   17  C23 UNL     1      -4.594   5.534  13.306  1.00  0.00     0.135 C 
HETATM   18  O4  UNL     1      -3.414   5.457  12.958  1.00  0.00    -0.297 OA
HETATM   19  C24 UNL     1      -5.094   6.615  14.275  1.00  0.00     0.018 C 
HETATM   20  C25 UNL     1      -5.302   7.914  13.474  1.00  0.00     0.023 C 
HETATM   21  C26 UNL     1      -3.956   6.855  15.297  1.00  0.00     0.023 C 
HETATM   22  C27 UNL     1      -6.390   6.111  15.018  1.00  0.00     0.014 C 
HETATM   23  C28 UNL     1      -6.833   7.127  16.098  1.00  0.00     0.011 C 
HETATM   24  C29 UNL     1      -8.323   7.204  16.366  1.00  0.00     0.036 C 
ENDROOT
BRANCH   1  25
HETATM   25  C6  UNL     1     -14.046   8.377  14.022  1.00  0.00    -0.011 C 
HETATM   26  C7  UNL     1     -14.837   7.856  15.227  1.00  0.00     0.010 C 
BRANCH  25  27
HETATM   27  C5  UNL     1     -14.073   7.325  12.878  1.00  0.00     0.040 C 
BRANCH  27  28
HETATM   28  C4  UNL     1     -15.460   6.934  12.338  1.00  0.00     0.142 C 
BRANCH  28  29
HETATM   29  C3  UNL     1     -16.608   7.614  13.033  1.00  0.00     0.018 C 
HETATM   30  C2  UNL     1     -17.447   8.569  12.585  1.00  0.00     0.010 C 
HETATM   31  C1  UNL     1     -18.621   9.056  13.377  1.00  0.00     0.055 C 
BRANCH  30  32
HETATM   32  C30 UNL     1     -17.305   9.214  11.265  1.00  0.00     0.171 C 
HETATM   33  O5  UNL     1     -18.027   9.029  10.301  1.00  0.00    -0.646 OA
BRANCH  32  34
HETATM   34  O6  UNL     1     -16.366  10.176  11.269  1.00  0.00    -0.773 OA
HETATM   35  H44 UNL     1     -16.381  10.486  10.341  1.00  0.00     0.167 HD
ENDBRANCH  32  34
ENDBRANCH  30  32
ENDBRANCH  28  29
BRANCH  28  36
HETATM   36  O1  UNL     1     -15.517   7.203  10.941  1.00  0.00    -0.392 OA
HETATM   37  H6  UNL     1     -14.799   6.701  10.519  1.00  0.00     0.210 HD
ENDBRANCH  28  36
ENDBRANCH  27  28
ENDBRANCH  25  27
ENDBRANCH   1  25
BRANCH   3  38
HETATM   38  O2  UNL     1     -10.424   9.590  17.179  1.00  0.00    -0.394 OA
HETATM   39  H17 UNL     1     -11.013   9.764  17.935  1.00  0.00     0.210 HD
ENDBRANCH   3  38
TORSDOF 8
ENDMDL
MODEL 2
REMARK minimizedAffinity -8.28240395
REMARK CNNscore 0.502247334
REMARK CNNaffinity 6.37265444
REMARK  8 active torsions:
REMARK  status: ('A' for Active; 'I' for Inactive)
REMARK    1  A    between atoms: C2_2  and  C30_34 
REMARK    2  A    between atoms: C3_3  and  C4_4 
REMARK    3  A    between atoms: C4_4  and  O1_5 
REMARK    4  A    between atoms: C4_4  and  C5_6 
REMARK    5  A    between atoms: C5_6  and  C6_7 
REMARK    6  A    between atoms: C6_7  and  C8_9 
REMARK    7  A    between atoms: C10_11  and  O2_12 
REMARK    8  A    between atoms: C30_34  and  O6_36 
ROOT
HETATM    1  C8  UNL     1      -1.250   7.666  13.750  1.00  0.00     0.001 C 
HETATM    2  C9  UNL     1      -1.489   6.666  14.921  1.00  0.00     0.038 C 
HETATM    3  C10 UNL     1      -1.911   7.488  16.155  1.00  0.00     0.131 C 
HETATM    4  C11 UNL     1      -2.279   8.882  15.584  1.00  0.00     0.014 C 
HETATM    5  C12 UNL     1      -3.739   8.827  15.033  1.00  0.00     0.023 C 
HETATM    6  C13 UNL     1      -2.255  10.103  16.496  1.00  0.00    -0.058 C 
HETATM    7  C14 UNL     1      -2.019  11.356  16.027  1.00  0.00    -0.000 C 
HETATM    8  C15 UNL     1      -1.682  11.514  14.554  1.00  0.00     0.157 C 
HETATM    9  O3  UNL     1      -1.565  12.624  14.036  1.00  0.00    -0.293 OA
HETATM   10  C16 UNL     1      -1.478  10.284  13.673  1.00  0.00     0.094 C 
HETATM   11  C17 UNL     1      -1.156   9.036  14.493  1.00  0.00    -0.019 C 
HETATM   12  C18 UNL     1       0.279   9.199  15.092  1.00  0.00     0.017 C 
HETATM   13  C19 UNL     1      -1.982  12.566  16.987  1.00  0.00    -0.008 C 
HETATM   14  C20 UNL     1      -0.541  12.562  17.586  1.00  0.00     0.021 C 
HETATM   15  C21 UNL     1      -2.161  13.954  16.304  1.00  0.00     0.022 C 
HETATM   16  C22 UNL     1      -2.512  15.068  17.276  1.00  0.00     0.080 C 
HETATM   17  C23 UNL     1      -3.861  14.811  17.889  1.00  0.00     0.135 C 
HETATM   18  O4  UNL     1      -4.574  15.759  18.229  1.00  0.00    -0.297 OA
HETATM   19  C24 UNL     1      -4.293  13.351  18.086  1.00  0.00     0.018 C 
HETATM   20  C25 UNL     1      -5.247  12.976  16.937  1.00  0.00     0.023 C 
HETATM   21  C26 UNL     1      -5.090  13.300  19.413  1.00  0.00     0.023 C 
HETATM   22  C27 UNL     1      -3.020  12.425  18.184  1.00  0.00     0.014 C 
HETATM   23  C28 UNL     1      -3.426  10.970  18.520  1.00  0.00     0.011 C 
HETATM   24  C29 UNL     1      -2.528   9.885  17.959  1.00  0.00     0.036 C 
ENDROOT
BRANCH   1  25
HETATM   25  C6  UNL     1      -0.091   7.198  12.815  1.00  0.00    -0.011 C 
HETATM   26  C7  UNL     1      -0.416   7.415  11.333  1.00  0.00     0.010 C 
BRANCH  25  27
HETATM   27  C5  UNL     1       0.227   5.699  13.071  1.00  0.00     0.040 C 
BRANCH  27  28
HETATM   28  C4  UNL     1      -0.437   4.684  12.123  1.00  0.00     0.142 C 
BRANCH  28  29
HETATM   29  C3  UNL     1      -1.937   4.781  12.067  1.00  0.00     0.018 C 
HETATM   30  C2  UNL     1      -2.850   3.860  11.698  1.00  0.00     0.010 C 
HETATM   31  C1  UNL     1      -4.326   4.087  11.814  1.00  0.00     0.055 C 
BRANCH  30  32
HETATM   32  C30 UNL     1      -2.487   2.534  11.163  1.00  0.00     0.171 C 
HETATM   33  O5  UNL     1      -2.786   1.461  11.657  1.00  0.00    -0.646 OA
BRANCH  32  34
HETATM   34  O6  UNL     1      -1.909   2.615   9.952  1.00  0.00    -0.773 OA
HETATM   35  H44 UNL     1      -1.718   1.678   9.747  1.00  0.00     0.167 HD
ENDBRANCH  32  34
ENDBRANCH  30  32
ENDBRANCH  28  29
BRANCH  28  36
HETATM   36  O1  UNL     1       0.104   4.833  10.815  1.00  0.00    -0.392 OA
HETATM   37  H6  UNL     1       1.066   4.705  10.881  1.00  0.00     0.210 HD
ENDBRANCH  28  36
ENDBRANCH  27  28
ENDBRANCH  25  27
ENDBRANCH   1  25
BRANCH   3  38
HETATM   38  O2  UNL     1      -2.986   6.841  16.821  1.00  0.00    -0.394 OA
HETATM   39  H17 UNL     1      -2.678   5.953  17.079  1.00  0.00     0.210 HD
ENDBRANCH   3  38
TORSDOF 8
ENDMDL
MODEL 3
REMARK minimizedAffinity -8.86639404
REMARK CNNscore 0.490079612
REMARK CNNaffinity 6.73228598
REMARK  8 active torsions:
REMARK  status: ('A' for Active; 'I' for Inactive)
REMARK    1  A    between atoms: C2_2  and  C30_34 
REMARK    2  A    between atoms: C3_3  and  C4_4 
REMARK    3  A    between atoms: C4_4  and  O1_5 
REMARK    4  A    between atoms: C4_4  and  C5_6 
REMARK    5  A    between atoms: C5_6  and  C6_7 
REMARK    6  A    between atoms: C6_7  and  C8_9 
REMARK    7  A    between atoms: C10_11  and  O2_12 
REMARK    8  A    between atoms: C30_34  and  O6_36 
ROOT
HETATM    1  C8  UNL     1      -6.053   7.087  14.735  1.00  0.00     0.001 C 
HETATM    2  C9  UNL     1      -5.699   8.319  15.622  1.00  0.00     0.038 C 
HETATM    3  C10 UNL     1      -4.207   8.635  15.405  1.00  0.00     0.131 C 
HETATM    4  C11 UNL     1      -3.826   7.842  14.128  1.00  0.00     0.014 C 
HETATM    5  C12 UNL     1      -4.257   8.671  12.877  1.00  0.00     0.023 C 
HETATM    6  C13 UNL     1      -2.367   7.480  13.869  1.00  0.00    -0.058 C 
HETATM    7  C14 UNL     1      -2.007   6.388  13.145  1.00  0.00    -0.000 C 
HETATM    8  C15 UNL     1      -3.107   5.459  12.660  1.00  0.00     0.157 C 
HETATM    9  O3  UNL     1      -2.867   4.515  11.909  1.00  0.00    -0.293 OA
HETATM   10  C16 UNL     1      -4.552   5.679  13.100  1.00  0.00     0.094 C 
HETATM   11  C17 UNL     1      -4.645   6.520  14.372  1.00  0.00    -0.019 C 
HETATM   12  C18 UNL     1      -4.110   5.666  15.567  1.00  0.00     0.017 C 
HETATM   13  C19 UNL     1      -0.517   6.044  12.923  1.00  0.00    -0.008 C 
HETATM   14  C20 UNL     1      -0.082   5.282  14.214  1.00  0.00     0.021 C 
HETATM   15  C21 UNL     1      -0.235   5.076  11.736  1.00  0.00     0.022 C 
HETATM   16  C22 UNL     1       1.218   5.064  11.294  1.00  0.00     0.080 C 
HETATM   17  C23 UNL     1       1.599   6.409  10.738  1.00  0.00     0.135 C 
HETATM   18  O4  UNL     1       2.457   6.489   9.856  1.00  0.00    -0.297 OA
HETATM   19  C24 UNL     1       0.903   7.648  11.318  1.00  0.00     0.018 C 
HETATM   20  C25 UNL     1      -0.215   8.067  10.345  1.00  0.00     0.023 C 
HETATM   21  C26 UNL     1       1.962   8.776  11.352  1.00  0.00     0.023 C 
HETATM   22  C27 UNL     1       0.393   7.341  12.778  1.00  0.00     0.014 C 
HETATM   23  C28 UNL     1      -0.190   8.615  13.434  1.00  0.00     0.011 C 
HETATM   24  C29 UNL     1      -1.313   8.396  14.428  1.00  0.00     0.036 C 
ENDROOT
BRANCH   1  25
HETATM   25  C6  UNL     1      -7.118   6.170  15.415  1.00  0.00    -0.011 C 
HETATM   26  C7  UNL     1      -8.109   5.582  14.404  1.00  0.00     0.010 C 
BRANCH  25  27
HETATM   27  C5  UNL     1      -7.888   6.965  16.506  1.00  0.00     0.040 C 
BRANCH  27  28
HETATM   28  C4  UNL     1      -8.975   7.936  16.010  1.00  0.00     0.142 C 
BRANCH  28  29
HETATM   29  C3  UNL     1      -9.862   7.372  14.934  1.00  0.00     0.018 C 
HETATM   30  C2  UNL     1     -10.654   8.006  14.046  1.00  0.00     0.010 C 
HETATM   31  C1  UNL     1     -11.389   7.289  12.956  1.00  0.00     0.055 C 
BRANCH  30  32
HETATM   32  C30 UNL     1     -10.860   9.467  14.048  1.00  0.00     0.171 C 
HETATM   33  O5  UNL     1     -10.428  10.246  14.879  1.00  0.00    -0.646 OA
BRANCH  32  34
HETATM   34  O6  UNL     1     -11.459   9.897  12.923  1.00  0.00    -0.773 OA
HETATM   35  H44 UNL     1     -11.538  10.859  13.082  1.00  0.00     0.167 HD
ENDBRANCH  32  34
ENDBRANCH  30  32
ENDBRANCH  28  29
BRANCH  28  36
HETATM   36  O1  UNL     1      -9.767   8.363  17.113  1.00  0.00    -0.392 OA
HETATM   37  H6  UNL     1      -9.169   8.774  17.759  1.00  0.00     0.210 HD
ENDBRANCH  28  36
ENDBRANCH  27  28
ENDBRANCH  25  27
ENDBRANCH   1  25
BRANCH   3  38
HETATM   38  O2  UNL     1      -4.024  10.038  15.282  1.00  0.00    -0.394 OA
HETATM   39  H17 UNL     1      -4.353  10.449  16.101  1.00  0.00     0.210 HD
ENDBRANCH   3  38
TORSDOF 8
ENDMDL
MODEL 4
REMARK minimizedAffinity -8.33312798
REMARK CNNscore 0.46726796
REMARK CNNaffinity 6.10945892
REMARK  8 active torsions:
REMARK  status: ('A' for Active; 'I' for Inactive)
REMARK    1  A    between atoms: C2_2  and  C30_34 
REMARK    2  A    between atoms: C3_3  and  C4_4 
REMARK    3  A    between atoms: C4_4  and  O1_5 
REMARK    4  A    between atoms: C4_4  and  C5_6 
REMARK    5  A    between atoms: C5_6  and  C6_7 
REMARK    6  A    between atoms: C6_7  and  C8_9 
REMARK    7  A    between atoms: C10_11  and  O2_12 
REMARK    8  A    between atoms: C30_34  and  O6_36 
ROOT
HETATM    1  C8  UNL     1      -1.882   7.692  13.323  1.00  0.00     0.001 C 
HETATM    2  C9  UNL     1      -2.143   6.597  14.401  1.00  0.00     0.038 C 
HETATM    3  C10 UNL     1      -2.388   7.315  15.743  1.00  0.00     0.131 C 
HETATM    4  C11 UNL     1      -2.646   8.792  15.349  1.00  0.00     0.014 C 
HETATM    5  C12 UNL     1      -4.139   8.941  14.916  1.00  0.00     0.023 C 
HETATM    6  C13 UNL     1      -2.429   9.898  16.377  1.00  0.00    -0.058 C 
HETATM    7  C14 UNL     1      -2.096  11.165  16.021  1.00  0.00    -0.000 C 
HETATM    8  C15 UNL     1      -1.848  11.451  14.550  1.00  0.00     0.157 C 
HETATM    9  O3  UNL     1      -1.652  12.595  14.141  1.00  0.00    -0.293 OA
HETATM   10  C16 UNL     1      -1.838  10.312  13.534  1.00  0.00     0.094 C 
HETATM   11  C17 UNL     1      -1.592   8.956  14.193  1.00  0.00    -0.019 C 
HETATM   12  C18 UNL     1      -0.109   8.911  14.687  1.00  0.00     0.017 C 
HETATM   13  C19 UNL     1      -1.864  12.253  17.095  1.00  0.00    -0.008 C 
HETATM   14  C20 UNL     1      -0.392  12.043  17.570  1.00  0.00     0.021 C 
HETATM   15  C21 UNL     1      -1.943  13.719  16.574  1.00  0.00     0.022 C 
HETATM   16  C22 UNL     1      -2.105  14.748  17.680  1.00  0.00     0.080 C 
HETATM   17  C23 UNL     1      -3.428  14.557  18.371  1.00  0.00     0.135 C 
HETATM   18  O4  UNL     1      -4.010  15.527  18.863  1.00  0.00    -0.297 OA
HETATM   19  C24 UNL     1      -3.996  13.133  18.452  1.00  0.00     0.018 C 
HETATM   20  C25 UNL     1      -5.063  12.981  17.352  1.00  0.00     0.023 C 
HETATM   21  C26 UNL     1      -4.699  13.014  19.827  1.00  0.00     0.023 C 
HETATM   22  C27 UNL     1      -2.824  12.082  18.351  1.00  0.00     0.014 C 
HETATM   23  C28 UNL     1      -3.356  10.646  18.567  1.00  0.00     0.011 C 
HETATM   24  C29 UNL     1      -2.620   9.547  17.827  1.00  0.00     0.036 C 
ENDROOT
BRANCH   1  25
HETATM   25  C6  UNL     1      -0.848   7.219  12.254  1.00  0.00    -0.011 C 
HETATM   26  C7  UNL     1      -0.901   5.705  12.023  1.00  0.00     0.010 C 
BRANCH  25  27
HETATM   27  C5  UNL     1       0.587   7.638  12.678  1.00  0.00     0.040 C 
BRANCH  27  28
HETATM   28  C4  UNL     1       1.648   6.524  12.707  1.00  0.00     0.142 C 
BRANCH  28  29
HETATM   29  C3  UNL     1       2.989   6.934  12.160  1.00  0.00     0.018 C 
HETATM   30  C2  UNL     1       3.620   6.541  11.036  1.00  0.00     0.010 C 
HETATM   31  C1  UNL     1       4.913   7.143  10.578  1.00  0.00     0.055 C 
BRANCH  30  32
HETATM   32  C30 UNL     1       3.094   5.497  10.137  1.00  0.00     0.171 C 
HETATM   33  O5  UNL     1       2.273   4.647  10.436  1.00  0.00    -0.646 OA
BRANCH  32  34
HETATM   34  O6  UNL     1       3.499   5.668   8.866  1.00  0.00    -0.773 OA
HETATM   35  H44 UNL     1       3.090   4.905   8.410  1.00  0.00     0.167 HD
ENDBRANCH  32  34
ENDBRANCH  30  32
ENDBRANCH  28  29
BRANCH  28  36
HETATM   36  O1  UNL     1       1.797   6.045  14.039  1.00  0.00    -0.392 OA
HETATM   37  H6  UNL     1       0.925   5.735  14.336  1.00  0.00     0.210 HD
ENDBRANCH  28  36
ENDBRANCH  27  28
ENDBRANCH  25  27
ENDBRANCH   1  25
BRANCH   3  38
HETATM   38  O2  UNL     1      -3.475   6.706  16.424  1.00  0.00    -0.394 OA
HETATM   39  H17 UNL     1      -3.246   5.770  16.565  1.00  0.00     0.210 HD
ENDBRANCH   3  38
TORSDOF 8
ENDMDL
MODEL 5
REMARK minimizedAffinity -8.17100048
REMARK CNNscore 0.461175799
REMARK CNNaffinity 6.5612216
REMARK  8 active torsions:
REMARK  status: ('A' for Active; 'I' for Inactive)
REMARK    1  A    between atoms: C2_2  and  C30_34 
REMARK    2  A    between atoms: C3_3  and  C4_4 
REMARK    3  A    between atoms: C4_4  and  O1_5 
REMARK    4  A    between atoms: C4_4  and  C5_6 
REMARK    5  A    between atoms: C5_6  and  C6_7 
REMARK    6  A    between atoms: C6_7  and  C8_9 
REMARK    7  A    between atoms: C10_11  and  O2_12 
REMARK    8  A    between atoms: C30_34  and  O6_36 
ROOT
HETATM    1  C8  UNL     1      -5.023   7.454  14.654  1.00  0.00     0.001 C 
HETATM    2  C9  UNL     1      -4.643   8.860  15.209  1.00  0.00     0.038 C 
HETATM    3  C10 UNL     1      -3.199   9.161  14.762  1.00  0.00     0.131 C 
HETATM    4  C11 UNL     1      -2.913   8.117  13.652  1.00  0.00     0.014 C 
HETATM    5  C12 UNL     1      -3.513   8.639  12.308  1.00  0.00     0.023 C 
HETATM    6  C13 UNL     1      -1.472   7.747  13.315  1.00  0.00    -0.058 C 
HETATM    7  C14 UNL     1      -1.133   6.534  12.808  1.00  0.00    -0.000 C 
HETATM    8  C15 UNL     1      -2.228   5.491  12.661  1.00  0.00     0.157 C 
HETATM    9  O3  UNL     1      -2.019   4.412  12.109  1.00  0.00    -0.293 OA
HETATM   10  C16 UNL     1      -3.629   5.763  13.203  1.00  0.00     0.094 C 
HETATM   11  C17 UNL     1      -3.633   6.860  14.265  1.00  0.00    -0.019 C 
HETATM   12  C18 UNL     1      -2.934   6.304  15.549  1.00  0.00     0.017 C 
HETATM   13  C19 UNL     1       0.342   6.189  12.499  1.00  0.00    -0.008 C 
HETATM   14  C20 UNL     1       0.946   5.742  13.867  1.00  0.00     0.021 C 
HETATM   15  C21 UNL     1       0.548   4.992  11.524  1.00  0.00     0.022 C 
HETATM   16  C22 UNL     1       1.947   4.923  10.936  1.00  0.00     0.080 C 
HETATM   17  C23 UNL     1       2.198   6.123  10.063  1.00  0.00     0.135 C 
HETATM   18  O4  UNL     1       2.955   6.031   9.094  1.00  0.00    -0.297 OA
HETATM   19  C24 UNL     1       1.504   7.440  10.438  1.00  0.00     0.018 C 
HETATM   20  C25 UNL     1       0.271   7.604   9.529  1.00  0.00     0.023 C 
HETATM   21  C26 UNL     1       2.502   8.577  10.109  1.00  0.00     0.023 C 
HETATM   22  C27 UNL     1       1.164   7.448  11.977  1.00  0.00     0.014 C 
HETATM   23  C28 UNL     1       0.587   8.818  12.404  1.00  0.00     0.011 C 
HETATM   24  C29 UNL     1      -0.414   8.792  13.542  1.00  0.00     0.036 C 
ENDROOT
BRANCH   1  25
HETATM   25  C6  UNL     1      -5.964   6.680  15.630  1.00  0.00    -0.011 C 
HETATM   26  C7  UNL     1      -5.377   5.330  16.055  1.00  0.00     0.010 C 
BRANCH  25  27
HETATM   27  C5  UNL     1      -7.356   6.467  14.972  1.00  0.00     0.040 C 
BRANCH  27  28
HETATM   28  C4  UNL     1      -7.392   6.446  13.433  1.00  0.00     0.142 C 
BRANCH  28  29
HETATM   29  C3  UNL     1      -6.512   5.398  12.809  1.00  0.00     0.018 C 
HETATM   30  C2  UNL     1      -6.710   4.072  12.672  1.00  0.00     0.010 C 
HETATM   31  C1  UNL     1      -5.773   3.184  11.913  1.00  0.00     0.055 C 
BRANCH  30  32
HETATM   32  C30 UNL     1      -7.877   3.368  13.238  1.00  0.00     0.171 C 
HETATM   33  O5  UNL     1      -8.821   2.931  12.604  1.00  0.00    -0.646 OA
BRANCH  32  34
HETATM   34  O6  UNL     1      -7.726   3.106  14.549  1.00  0.00    -0.773 OA
HETATM   35  H44 UNL     1      -8.569   2.664  14.773  1.00  0.00     0.167 HD
ENDBRANCH  32  34
ENDBRANCH  30  32
ENDBRANCH  28  29
BRANCH  28  36
HETATM   36  O1  UNL     1      -8.735   6.271  12.994  1.00  0.00    -0.392 OA
HETATM   37  H6  UNL     1      -9.261   6.998  13.368  1.00  0.00     0.210 HD
ENDBRANCH  28  36
ENDBRANCH  27  28
ENDBRANCH  25  27
ENDBRANCH   1  25
BRANCH   3  38
HETATM   38  O2  UNL     1      -3.102  10.507  14.320  1.00  0.00    -0.394 OA
HETATM   39  H17 UNL     1      -3.365  11.080  15.063  1.00  0.00     0.210 HD
ENDBRANCH   3  38
TORSDOF 8
ENDMDL
MODEL 6
REMARK minimizedAffinity -7.03545523
REMARK CNNscore 0.45938769
REMARK CNNaffinity 6.19402456
REMARK  8 active torsions:
REMARK  status: ('A' for Active; 'I' for Inactive)
REMARK    1  A    between atoms: C2_2  and  C30_34 
REMARK    2  A    between atoms: C3_3  and  C4_4 
REMARK    3  A    between atoms: C4_4  and  O1_5 
REMARK    4  A    between atoms: C4_4  and  C5_6 
REMARK    5  A    between atoms: C5_6  and  C6_7 
REMARK    6  A    between atoms: C6_7  and  C8_9 
REMARK    7  A    between atoms: C10_11  and  O2_12 
REMARK    8  A    between atoms: C30_34  and  O6_36 
ROOT
HETATM    1  C8  UNL     1       7.858  10.540  14.356  1.00  0.00     0.001 C 
HETATM    2  C9  UNL     1       8.728   9.249  14.287  1.00  0.00     0.038 C 
HETATM    3  C10 UNL     1       7.902   8.169  13.560  1.00  0.00     0.131 C 
HETATM    4  C11 UNL     1       6.745   8.955  12.890  1.00  0.00     0.014 C 
HETATM    5  C12 UNL     1       7.264   9.563  11.549  1.00  0.00     0.023 C 
HETATM    6  C13 UNL     1       5.457   8.230  12.514  1.00  0.00    -0.058 C 
HETATM    7  C14 UNL     1       4.258   8.865  12.452  1.00  0.00    -0.000 C 
HETATM    8  C15 UNL     1       4.203  10.327  12.862  1.00  0.00     0.157 C 
HETATM    9  O3  UNL     1       3.178  10.994  12.728  1.00  0.00    -0.293 OA
HETATM   10  C16 UNL     1       5.432  11.008  13.456  1.00  0.00     0.094 C 
HETATM   11  C17 UNL     1       6.431  10.000  14.023  1.00  0.00    -0.019 C 
HETATM   12  C18 UNL     1       5.810   9.362  15.308  1.00  0.00     0.017 C 
HETATM   13  C19 UNL     1       2.971   8.090  12.088  1.00  0.00    -0.008 C 
HETATM   14  C20 UNL     1       2.507   7.428  13.423  1.00  0.00     0.021 C 
HETATM   15  C21 UNL     1       1.782   8.976  11.611  1.00  0.00     0.022 C 
HETATM   16  C22 UNL     1       0.692   8.195  10.897  1.00  0.00     0.080 C 
HETATM   17  C23 UNL     1       1.226   7.618   9.615  1.00  0.00     0.135 C 
HETATM   18  O4  UNL     1       0.472   7.455   8.653  1.00  0.00    -0.297 OA
HETATM   19  C24 UNL     1       2.711   7.231   9.567  1.00  0.00     0.018 C 
HETATM   20  C25 UNL     1       3.474   8.358   8.847  1.00  0.00     0.023 C 
HETATM   21  C26 UNL     1       2.808   5.952   8.699  1.00  0.00     0.023 C 
HETATM   22  C27 UNL     1       3.236   6.937  11.024  1.00  0.00     0.014 C 
HETATM   23  C28 UNL     1       4.691   6.414  10.987  1.00  0.00     0.011 C 
HETATM   24  C29 UNL     1       5.554   6.766  12.183  1.00  0.00     0.036 C 
ENDROOT
BRANCH   1  25
HETATM   25  C6  UNL     1       8.109  11.339  15.673  1.00  0.00    -0.011 C 
HETATM   26  C7  UNL     1       8.296  12.838  15.417  1.00  0.00     0.010 C 
BRANCH  25  27
HETATM   27  C5  UNL     1       9.352  10.770  16.413  1.00  0.00     0.040 C 
BRANCH  27  28
HETATM   28  C4  UNL     1       9.563  11.241  17.863  1.00  0.00     0.142 C 
BRANCH  28  29
HETATM   29  C3  UNL     1      10.398  12.485  17.993  1.00  0.00     0.018 C 
HETATM   30  C2  UNL     1      11.264  12.848  18.961  1.00  0.00     0.010 C 
HETATM   31  C1  UNL     1      12.109  14.082  18.875  1.00  0.00     0.055 C 
BRANCH  30  32
HETATM   32  C30 UNL     1      11.479  12.058  20.188  1.00  0.00     0.171 C 
HETATM   33  O5  UNL     1      10.626  11.429  20.788  1.00  0.00    -0.646 OA
BRANCH  32  34
HETATM   34  O6  UNL     1      12.781  11.967  20.511  1.00  0.00    -0.773 OA
HETATM   35  H44 UNL     1      12.756  11.440  21.336  1.00  0.00     0.167 HD
ENDBRANCH  32  34
ENDBRANCH  30  32
ENDBRANCH  28  29
BRANCH  28  36
HETATM   36  O1  UNL     1       8.298  11.444  18.484  1.00  0.00    -0.392 OA
HETATM   37  H6  UNL     1       7.811  10.604  18.433  1.00  0.00     0.210 HD
ENDBRANCH  28  36
ENDBRANCH  27  28
ENDBRANCH  25  27
ENDBRANCH   1  25
BRANCH   3  38
HETATM   38  O2  UNL     1       8.727   7.470  12.640  1.00  0.00    -0.394 OA
HETATM   39  H17 UNL     1       9.457   7.070  13.146  1.00  0.00     0.210 HD
ENDBRANCH   3  38
TORSDOF 8
ENDMDL
MODEL 7
REMARK minimizedAffinity -8.2898531
REMARK CNNscore 0.455036432
REMARK CNNaffinity 6.48778296
REMARK  8 active torsions:
REMARK  status: ('A' for Active; 'I' for Inactive)
REMARK    1  A    between atoms: C2_2  and  C30_34 
REMARK    2  A    between atoms: C3_3  and  C4_4 
REMARK    3  A    between atoms: C4_4  and  O1_5 
REMARK    4  A    between atoms: C4_4  and  C5_6 
REMARK    5  A    between atoms: C5_6  and  C6_7 
REMARK    6  A    between atoms: C6_7  and  C8_9 
REMARK    7  A    between atoms: C10_11  and  O2_12 
REMARK    8  A    between atoms: C30_34  and  O6_36 
ROOT
HETATM    1  C8  UNL     1      -3.740   8.359  14.238  1.00  0.00     0.001 C 
HETATM    2  C9  UNL     1      -3.168   9.746  14.660  1.00  0.00     0.038 C 
HETATM    3  C10 UNL     1      -1.721   9.831  14.136  1.00  0.00     0.131 C 
HETATM    4  C11 UNL     1      -1.615   8.676  13.106  1.00  0.00     0.014 C 
HETATM    5  C12 UNL     1      -2.210   9.162  11.747  1.00  0.00     0.023 C 
HETATM    6  C13 UNL     1      -0.246   8.106  12.748  1.00  0.00    -0.058 C 
HETATM    7  C14 UNL     1      -0.080   6.824  12.331  1.00  0.00    -0.000 C 
HETATM    8  C15 UNL     1      -1.298   5.916  12.312  1.00  0.00     0.157 C 
HETATM    9  O3  UNL     1      -1.246   4.780  11.844  1.00  0.00    -0.293 OA
HETATM   10  C16 UNL     1      -2.629   6.400  12.881  1.00  0.00     0.094 C 
HETATM   11  C17 UNL     1      -2.451   7.569  13.848  1.00  0.00    -0.019 C 
HETATM   12  C18 UNL     1      -1.764   7.032  15.146  1.00  0.00     0.017 C 
HETATM   13  C19 UNL     1       1.327   6.278  11.998  1.00  0.00    -0.008 C 
HETATM   14  C20 UNL     1       1.937   5.867  13.374  1.00  0.00     0.021 C 
HETATM   15  C21 UNL     1       1.342   4.992  11.118  1.00  0.00     0.022 C 
HETATM   16  C22 UNL     1       2.693   4.705  10.486  1.00  0.00     0.080 C 
HETATM   17  C23 UNL     1       3.046   5.793   9.508  1.00  0.00     0.135 C 
HETATM   18  O4  UNL     1       3.739   5.533   8.522  1.00  0.00    -0.297 OA
HETATM   19  C24 UNL     1       2.532   7.211   9.797  1.00  0.00     0.018 C 
HETATM   20  C25 UNL     1       1.287   7.455   8.924  1.00  0.00     0.023 C 
HETATM   21  C26 UNL     1       3.643   8.187   9.338  1.00  0.00     0.023 C 
HETATM   22  C27 UNL     1       2.269   7.380  11.342  1.00  0.00     0.014 C 
HETATM   23  C28 UNL     1       1.882   8.841  11.675  1.00  0.00     0.011 C 
HETATM   24  C29 UNL     1       0.939   9.027  12.848  1.00  0.00     0.036 C 
ENDROOT
BRANCH   1  25
HETATM   25  C6  UNL     1      -4.720   7.785  15.309  1.00  0.00    -0.011 C 
HETATM   26  C7  UNL     1      -4.877   6.265  15.198  1.00  0.00     0.010 C 
BRANCH  25  27
HETATM   27  C5  UNL     1      -6.109   8.470  15.181  1.00  0.00     0.040 C 
BRANCH  27  28
HETATM   28  C4  UNL     1      -7.199   8.000  16.161  1.00  0.00     0.142 C 
BRANCH  28  29
HETATM   29  C3  UNL     1      -8.588   7.992  15.582  1.00  0.00     0.018 C 
HETATM   30  C2  UNL     1      -9.153   7.140  14.703  1.00  0.00     0.010 C 
HETATM   31  C1  UNL     1     -10.598   7.210  14.318  1.00  0.00     0.055 C 
BRANCH  30  32
HETATM   32  C30 UNL     1      -8.411   6.044  14.051  1.00  0.00     0.171 C 
HETATM   33  O5  UNL     1      -7.919   6.082  12.937  1.00  0.00    -0.646 OA
BRANCH  32  34
HETATM   34  O6  UNL     1      -8.185   5.015  14.887  1.00  0.00    -0.773 OA
HETATM   35  H44 UNL     1      -7.711   4.379  14.313  1.00  0.00     0.167 HD
ENDBRANCH  32  34
ENDBRANCH  30  32
ENDBRANCH  28  29
BRANCH  28  36
HETATM   36  O1  UNL     1      -6.873   6.702  16.646  1.00  0.00    -0.392 OA
HETATM   37  H6  UNL     1      -5.997   6.760  17.065  1.00  0.00     0.210 HD
ENDBRANCH  28  36
ENDBRANCH  27  28
ENDBRANCH  25  27
ENDBRANCH   1  25
BRANCH   3  38
HETATM   38  O2  UNL     1      -1.484  11.116  13.581  1.00  0.00    -0.394 OA
HETATM   39  H17 UNL     1      -1.641  11.773  14.283  1.00  0.00     0.210 HD
ENDBRANCH   3  38
TORSDOF 8
ENDMDL
MODEL 8
REMARK minimizedAffinity -6.89338923
REMARK CNNscore 0.396469831
REMARK CNNaffinity 6.27902412
REMARK  8 active torsions:
REMARK  status: ('A' for Active; 'I' for Inactive)
REMARK    1  A    between atoms: C2_2  and  C30_34 
REMARK    2  A    between atoms: C3_3  and  C4_4 
REMARK    3  A    between atoms: C4_4  and  O1_5 
REMARK    4  A    between atoms: C4_4  and  C5_6 
REMARK    5  A    between atoms: C5_6  and  C6_7 
REMARK    6  A    between atoms: C6_7  and  C8_9 
REMARK    7  A    between atoms: C10_11  and  O2_12 
REMARK    8  A    between atoms: C30_34  and  O6_36 
ROOT
HETATM    1  C8  UNL     1     -10.045  -7.443  -5.148  1.00  0.00     0.001 C 
HETATM    2  C9  UNL     1      -8.663  -7.283  -5.851  1.00  0.00     0.038 C 
HETATM    3  C10 UNL     1      -7.638  -8.113  -5.054  1.00  0.00     0.131 C 
HETATM    4  C11 UNL     1      -8.502  -9.032  -4.152  1.00  0.00     0.014 C 
HETATM    5  C12 UNL     1      -8.958 -10.268  -4.990  1.00  0.00     0.023 C 
HETATM    6  C13 UNL     1      -7.902  -9.625  -2.882  1.00  0.00    -0.058 C 
HETATM    7  C14 UNL     1      -8.661  -9.950  -1.804  1.00  0.00    -0.000 C 
HETATM    8  C15 UNL     1     -10.144  -9.622  -1.850  1.00  0.00     0.157 C 
HETATM    9  O3  UNL     1     -10.912  -9.986  -0.960  1.00  0.00    -0.293 OA
HETATM   10  C16 UNL     1     -10.721  -8.826  -3.017  1.00  0.00     0.094 C 
HETATM   11  C17 UNL     1      -9.648  -8.030  -3.757  1.00  0.00    -0.019 C 
HETATM   12  C18 UNL     1      -9.169  -6.867  -2.827  1.00  0.00     0.017 C 
HETATM   13  C19 UNL     1      -8.013 -10.529  -0.526  1.00  0.00    -0.008 C 
HETATM   14  C20 UNL     1      -7.496  -9.287   0.264  1.00  0.00     0.021 C 
HETATM   15  C21 UNL     1      -8.993 -11.271   0.431  1.00  0.00     0.022 C 
HETATM   16  C22 UNL     1      -8.293 -12.152   1.452  1.00  0.00     0.080 C 
HETATM   17  C23 UNL     1      -7.577 -13.278   0.757  1.00  0.00     0.135 C 
HETATM   18  O4  UNL     1      -7.436 -14.362   1.325  1.00  0.00    -0.297 OA
HETATM   19  C24 UNL     1      -7.024 -13.013  -0.652  1.00  0.00     0.018 C 
HETATM   20  C25 UNL     1      -8.009 -13.615  -1.671  1.00  0.00     0.023 C 
HETATM   21  C26 UNL     1      -5.688 -13.789  -0.756  1.00  0.00     0.023 C 
HETATM   22  C27 UNL     1      -6.770 -11.470  -0.847  1.00  0.00     0.014 C 
HETATM   23  C28 UNL     1      -6.086 -11.195  -2.207  1.00  0.00     0.011 C 
HETATM   24  C29 UNL     1      -6.418  -9.868  -2.860  1.00  0.00     0.036 C 
ENDROOT
BRANCH   1  25
HETATM   25  C6  UNL     1     -10.897  -6.138  -5.237  1.00  0.00    -0.011 C 
HETATM   26  C7  UNL     1     -12.246  -6.369  -5.927  1.00  0.00     0.010 C 
BRANCH  25  27
HETATM   27  C5  UNL     1     -10.102  -5.034  -5.989  1.00  0.00     0.040 C 
BRANCH  27  28
HETATM   28  C4  UNL     1      -9.684  -3.805  -5.163  1.00  0.00     0.142 C 
BRANCH  28  29
HETATM   29  C3  UNL     1      -9.743  -2.504  -5.918  1.00  0.00     0.018 C 
HETATM   30  C2  UNL     1      -8.780  -1.584  -6.130  1.00  0.00     0.010 C 
HETATM   31  C1  UNL     1      -8.978  -0.390  -7.012  1.00  0.00     0.055 C 
BRANCH  30  32
HETATM   32  C30 UNL     1      -7.434  -1.672  -5.533  1.00  0.00     0.171 C 
HETATM   33  O5  UNL     1      -6.383  -1.473  -6.116  1.00  0.00    -0.646 OA
BRANCH  32  34
HETATM   34  O6  UNL     1      -7.480  -1.846  -4.200  1.00  0.00    -0.773 OA
HETATM   35  H44 UNL     1      -6.532  -1.900  -3.963  1.00  0.00     0.167 HD
ENDBRANCH  32  34
ENDBRANCH  30  32
ENDBRANCH  28  29
BRANCH  28  36
HETATM   36  O1  UNL     1     -10.495  -3.720  -3.996  1.00  0.00    -0.392 OA
HETATM   37  H6  UNL     1     -10.385  -4.552  -3.505  1.00  0.00     0.210 HD
ENDBRANCH  28  36
ENDBRANCH  27  28
ENDBRANCH  25  27
ENDBRANCH   1  25
BRANCH   3  38
HETATM   38  O2  UNL     1      -6.791  -8.820  -5.948  1.00  0.00    -0.394 OA
HETATM   39  H17 UNL     1      -6.346  -8.163  -6.513  1.00  0.00     0.210 HD
ENDBRANCH   3  38
TORSDOF 8
ENDMDL
MODEL 9
REMARK minimizedAffinity -8.73441124
REMARK CNNscore 0.390944421
REMARK CNNaffinity 6.46754837
REMARK  8 active torsions:
REMARK  status: ('A' for Active; 'I' for Inactive)
REMARK    1  A    between atoms: C2_2  and  C30_34 
REMARK    2  A    between atoms: C3_3  and  C4_4 
REMARK    3  A    between atoms: C4_4  and  O1_5 
REMARK    4  A    between atoms: C4_4  and  C5_6 
REMARK    5  A    between atoms: C5_6  and  C6_7 
REMARK    6  A    between atoms: C6_7  and  C8_9 
REMARK    7  A    between atoms: C10_11  and  O2_12 
REMARK    8  A    between atoms: C30_34  and  O6_36 
ROOT
HETATM    1  C8  UNL     1       7.094   9.116  14.097  1.00  0.00     0.001 C 
HETATM    2  C9  UNL     1       7.940   7.895  13.626  1.00  0.00     0.038 C 
HETATM    3  C10 UNL     1       7.099   7.118  12.593  1.00  0.00     0.131 C 
HETATM    4  C11 UNL     1       5.963   8.099  12.203  1.00  0.00     0.014 C 
HETATM    5  C12 UNL     1       6.505   9.088  11.124  1.00  0.00     0.023 C 
HETATM    6  C13 UNL     1       4.665   7.557  11.615  1.00  0.00    -0.058 C 
HETATM    7  C14 UNL     1       3.479   8.203  11.755  1.00  0.00    -0.000 C 
HETATM    8  C15 UNL     1       3.448   9.462  12.606  1.00  0.00     0.157 C 
HETATM    9  O3  UNL     1       2.438  10.159  12.687  1.00  0.00    -0.293 OA
HETATM   10  C16 UNL     1       4.685   9.894  13.387  1.00  0.00     0.094 C 
HETATM   11  C17 UNL     1       5.660   8.739  13.608  1.00  0.00    -0.019 C 
HETATM   12  C18 UNL     1       5.016   7.740  14.624  1.00  0.00     0.017 C 
HETATM   13  C19 UNL     1       2.180   7.610  11.162  1.00  0.00    -0.008 C 
HETATM   14  C20 UNL     1       1.692   6.570  12.218  1.00  0.00     0.021 C 
HETATM   15  C21 UNL     1       1.013   8.627  10.987  1.00  0.00     0.022 C 
HETATM   16  C22 UNL     1      -0.087   8.134  10.061  1.00  0.00     0.080 C 
HETATM   17  C23 UNL     1       0.447   7.981   8.663  1.00  0.00     0.135 C 
HETATM   18  O4  UNL     1      -0.302   8.146   7.697  1.00  0.00    -0.297 OA
HETATM   19  C24 UNL     1       1.925   7.598   8.498  1.00  0.00     0.018 C 
HETATM   20  C25 UNL     1       2.716   8.879   8.173  1.00  0.00     0.023 C 
HETATM   21  C26 UNL     1       2.004   6.657   7.271  1.00  0.00     0.023 C 
HETATM   22  C27 UNL     1       2.432   6.848   9.789  1.00  0.00     0.014 C 
HETATM   23  C28 UNL     1       3.877   6.333   9.591  1.00  0.00     0.011 C 
HETATM   24  C29 UNL     1       4.736   6.271  10.838  1.00  0.00     0.036 C 
ENDROOT
BRANCH   1  25
HETATM   25  C6  UNL     1       7.349   9.453  15.600  1.00  0.00    -0.011 C 
HETATM   26  C7  UNL     1       6.384  10.520  16.128  1.00  0.00     0.010 C 
BRANCH  25  27
HETATM   27  C5  UNL     1       8.817   9.923  15.798  1.00  0.00     0.040 C 
BRANCH  27  28
HETATM   28  C4  UNL     1       9.572   9.328  17.000  1.00  0.00     0.142 C 
BRANCH  28  29
HETATM   29  C3  UNL     1       9.515  10.171  18.245  1.00  0.00     0.018 C 
HETATM   30  C2  UNL     1      10.399  11.072  18.720  1.00  0.00     0.010 C 
HETATM   31  C1  UNL     1      10.129  11.917  19.927  1.00  0.00     0.055 C 
BRANCH  30  32
HETATM   32  C30 UNL     1      11.708  11.328  18.089  1.00  0.00     0.171 C 
HETATM   33  O5  UNL     1      11.930  12.152  17.219  1.00  0.00    -0.646 OA
BRANCH  32  34
HETATM   34  O6  UNL     1      12.703  10.654  18.692  1.00  0.00    -0.773 OA
HETATM   35  H44 UNL     1      13.483  10.911  18.160  1.00  0.00     0.167 HD
ENDBRANCH  32  34
ENDBRANCH  30  32
ENDBRANCH  28  29
BRANCH  28  36
HETATM   36  O1  UNL     1       9.069   8.026  17.278  1.00  0.00    -0.392 OA
HETATM   37  H6  UNL     1       9.177   7.494  16.471  1.00  0.00     0.210 HD
ENDBRANCH  28  36
ENDBRANCH  27  28
ENDBRANCH  25  27
ENDBRANCH   1  25
BRANCH   3  38
HETATM   38  O2  UNL     1       7.918   6.728  11.500  1.00  0.00    -0.394 OA
HETATM   39  H17 UNL     1       8.636   6.174  11.855  1.00  0.00     0.210 HD
ENDBRANCH   3  38
TORSDOF 8
ENDMDL
