MODEL 1
REMARK minimizedAffinity -8.93309784
REMARK CNNscore 0.886244178
REMARK CNNaffinity 7.7986455
REMARK  12 active torsions:
REMARK  status: ('A' for Active; 'I' for Inactive)
REMARK    1  A    between atoms: C2_2  and  C17_19 
REMARK    2  A    between atoms: C3_3  and  C4_4 
REMARK    3  A    between atoms: C4_4  and  C5_5 
REMARK    4  A    between atoms: C5_5  and  C6_6 
REMARK    5  A    between atoms: C12_12  and  O1_13 
REMARK    6  A    between atoms: C17_19  and  C18_20 
REMARK    7  A    between atoms: C19_21  and  C20_22 
REMARK    8  A    between atoms: C20_22  and  C22_24 
REMARK    9  A    between atoms: C22_24  and  C23_26 
REMARK   10  A    between atoms: C23_26  and  O4_27 
REMARK   11  A    between atoms: C23_26  and  C24_28 
REMARK   12  A    between atoms: C24_28  and  C25_29 
ROOT
HETATM    1  C1  UNL     1      -4.391  51.381 -22.052  1.00  0.00     0.043 C 
HETATM    2  C2  UNL     1      -4.315  49.926 -21.670  1.00  0.00    -0.084 C 
HETATM    3  C3  UNL     1      -4.052  49.492 -20.418  1.00  0.00    -0.024 C 
ENDROOT
BRANCH   3   4
HETATM    4  C4  UNL     1      -3.896  50.337 -19.187  1.00  0.00     0.030 C 
BRANCH   4   5
HETATM    5  C5  UNL     1      -2.561  51.073 -19.038  1.00  0.00     0.042 C 
BRANCH   5   6
HETATM    6  C6  UNL     1      -1.244  50.278 -19.257  1.00  0.00     0.065 C 
HETATM    7  C7  UNL     1      -1.503  48.763 -19.193  1.00  0.00     0.046 C 
HETATM    8  C8  UNL     1      -0.103  50.623 -18.292  1.00  0.00     0.043 C 
HETATM    9  C9  UNL     1       0.318  52.078 -18.438  1.00  0.00     0.044 C 
HETATM   10  C10 UNL     1       0.457  52.444 -19.886  1.00  0.00    -0.021 A 
HETATM   11  C11 UNL     1       1.137  53.618 -20.236  1.00  0.00     0.046 A 
HETATM   12  C16 UNL     1      -0.114  51.649 -20.891  1.00  0.00     0.082 A 
HETATM   13  C12 UNL     1       1.264  53.967 -21.574  1.00  0.00     0.066 A 
HETATM   14  C13 UNL     1       0.727  53.170 -22.577  1.00  0.00     0.046 A 
HETATM   15  C14 UNL     1       0.035  51.996 -22.244  1.00  0.00    -0.025 A 
HETATM   16  C15 UNL     1      -0.553  51.139 -23.327  1.00  0.00     0.051 C 
HETATM   17  O2  UNL     1      -0.825  50.505 -20.627  1.00  0.00    -0.340 OA
BRANCH  13  18
HETATM   18  O1  UNL     1       1.906  55.112 -21.954  1.00  0.00    -0.361 OA
HETATM   19  H17 UNL     1       2.196  55.588 -21.155  1.00  0.00     0.217 HD
ENDBRANCH  13  18
ENDBRANCH   5   6
ENDBRANCH   4   5
ENDBRANCH   3   4
BRANCH   2  20
HETATM   20  C17 UNL     1      -4.537  48.945 -22.808  1.00  0.00     0.060 C 
BRANCH  20  21
HETATM   21  C18 UNL     1      -3.246  48.603 -23.502  1.00  0.00    -0.026 C 
HETATM   22  C19 UNL     1      -2.907  48.811 -24.785  1.00  0.00    -0.019 C 
BRANCH  22  23
HETATM   23  C20 UNL     1      -3.747  49.437 -25.872  1.00  0.00     0.076 C 
HETATM   24  C21 UNL     1      -3.732  48.605 -27.149  1.00  0.00     0.022 C 
BRANCH  23  25
HETATM   25  C22 UNL     1      -3.303  50.883 -26.128  1.00  0.00     0.162 C 
HETATM   26  O3  UNL     1      -3.746  51.805 -25.433  1.00  0.00    -0.294 OA
BRANCH  25  27
HETATM   27  C23 UNL     1      -2.280  51.154 -27.243  1.00  0.00     0.188 C 
BRANCH  27  28
HETATM   28  O4  UNL     1      -2.760  50.709 -28.508  1.00  0.00    -0.388 OA
HETATM   29  H31 UNL     1      -2.661  49.733 -28.541  1.00  0.00     0.210 HD
ENDBRANCH  27  28
BRANCH  27  30
HETATM   30  C24 UNL     1      -0.875  50.596 -26.958  1.00  0.00     0.043 C 
BRANCH  30  31
HETATM   31  C25 UNL     1       0.356  51.386 -27.453  1.00  0.00    -0.020 C 
HETATM   32  C26 UNL     1       1.335  51.566 -26.288  1.00  0.00     0.009 C 
HETATM   33  C27 UNL     1       0.026  52.762 -28.036  1.00  0.00     0.009 C 
ENDBRANCH  30  31
ENDBRANCH  27  30
ENDBRANCH  25  27
ENDBRANCH  23  25
ENDBRANCH  22  23
ENDBRANCH  20  21
ENDBRANCH   2  20
TORSDOF 12
ENDMDL
MODEL 2
REMARK minimizedAffinity -8.63289642
REMARK CNNscore 0.586642504
REMARK CNNaffinity 7.25601244
REMARK  12 active torsions:
REMARK  status: ('A' for Active; 'I' for Inactive)
REMARK    1  A    between atoms: C2_2  and  C17_19 
REMARK    2  A    between atoms: C3_3  and  C4_4 
REMARK    3  A    between atoms: C4_4  and  C5_5 
REMARK    4  A    between atoms: C5_5  and  C6_6 
REMARK    5  A    between atoms: C12_12  and  O1_13 
REMARK    6  A    between atoms: C17_19  and  C18_20 
REMARK    7  A    between atoms: C19_21  and  C20_22 
REMARK    8  A    between atoms: C20_22  and  C22_24 
REMARK    9  A    between atoms: C22_24  and  C23_26 
REMARK   10  A    between atoms: C23_26  and  O4_27 
REMARK   11  A    between atoms: C23_26  and  C24_28 
REMARK   12  A    between atoms: C24_28  and  C25_29 
ROOT
HETATM    1  C1  UNL     1      -2.633  47.027 -21.567  1.00  0.00     0.043 C 
HETATM    2  C2  UNL     1      -2.393  48.512 -21.660  1.00  0.00    -0.084 C 
HETATM    3  C3  UNL     1      -2.632  49.242 -22.772  1.00  0.00    -0.024 C 
ENDROOT
BRANCH   3   4
HETATM    4  C4  UNL     1      -3.259  48.760 -24.047  1.00  0.00     0.030 C 
BRANCH   4   5
HETATM    5  C5  UNL     1      -2.716  49.374 -25.341  1.00  0.00     0.042 C 
BRANCH   5   6
HETATM    6  C6  UNL     1      -2.892  50.901 -25.571  1.00  0.00     0.065 C 
HETATM    7  C7  UNL     1      -4.130  51.427 -24.825  1.00  0.00     0.046 C 
HETATM    8  C8  UNL     1      -2.981  51.335 -27.040  1.00  0.00     0.043 C 
HETATM    9  C9  UNL     1      -1.702  50.996 -27.790  1.00  0.00     0.044 C 
HETATM   10  C10 UNL     1      -0.499  51.392 -26.988  1.00  0.00    -0.021 A 
HETATM   11  C11 UNL     1       0.753  51.468 -27.616  1.00  0.00     0.046 A 
HETATM   12  C16 UNL     1      -0.598  51.654 -25.614  1.00  0.00     0.082 A 
HETATM   13  C12 UNL     1       1.873  51.827 -26.878  1.00  0.00     0.066 A 
HETATM   14  C13 UNL     1       1.776  52.116 -25.524  1.00  0.00     0.046 A 
HETATM   15  C14 UNL     1       0.534  52.037 -24.877  1.00  0.00    -0.025 A 
HETATM   16  C15 UNL     1       0.431  52.341 -23.410  1.00  0.00     0.051 C 
HETATM   17  O2  UNL     1      -1.780  51.567 -24.920  1.00  0.00    -0.340 OA
BRANCH  13  18
HETATM   18  O1  UNL     1       3.112  51.895 -27.451  1.00  0.00    -0.361 OA
HETATM   19  H17 UNL     1       3.038  51.634 -28.387  1.00  0.00     0.217 HD
ENDBRANCH  13  18
ENDBRANCH   5   6
ENDBRANCH   4   5
ENDBRANCH   3   4
BRANCH   2  20
HETATM   20  C17 UNL     1      -1.833  49.157 -20.405  1.00  0.00     0.060 C 
BRANCH  20  21
HETATM   21  C18 UNL     1      -0.448  49.700 -20.634  1.00  0.00    -0.026 C 
HETATM   22  C19 UNL     1       0.091  50.837 -20.165  1.00  0.00    -0.019 C 
BRANCH  22  23
HETATM   23  C20 UNL     1      -0.563  51.875 -19.286  1.00  0.00     0.076 C 
HETATM   24  C21 UNL     1      -0.155  53.290 -19.680  1.00  0.00     0.022 C 
BRANCH  23  25
HETATM   25  C22 UNL     1      -0.271  51.589 -17.807  1.00  0.00     0.162 C 
HETATM   26  O3  UNL     1      -0.920  50.731 -17.197  1.00  0.00    -0.294 OA
BRANCH  25  27
HETATM   27  C23 UNL     1       0.858  52.367 -17.114  1.00  0.00     0.188 C 
BRANCH  27  28
HETATM   28  O4  UNL     1       1.629  53.111 -18.054  1.00  0.00    -0.388 OA
HETATM   29  H31 UNL     1       2.229  52.486 -18.512  1.00  0.00     0.210 HD
ENDBRANCH  27  28
BRANCH  27  30
HETATM   30  C24 UNL     1       1.764  51.502 -16.220  1.00  0.00     0.043 C 
BRANCH  30  31
HETATM   31  C25 UNL     1       2.919  52.179 -15.451  1.00  0.00    -0.020 C 
HETATM   32  C26 UNL     1       4.206  52.056 -16.274  1.00  0.00     0.009 C 
HETATM   33  C27 UNL     1       3.169  51.601 -14.057  1.00  0.00     0.009 C 
ENDBRANCH  30  31
ENDBRANCH  27  30
ENDBRANCH  25  27
ENDBRANCH  23  25
ENDBRANCH  22  23
ENDBRANCH  20  21
ENDBRANCH   2  20
TORSDOF 12
ENDMDL
MODEL 3
REMARK minimizedAffinity -8.59936142
REMARK CNNscore 0.556485236
REMARK CNNaffinity 7.04372835
REMARK  12 active torsions:
REMARK  status: ('A' for Active; 'I' for Inactive)
REMARK    1  A    between atoms: C2_2  and  C17_19 
REMARK    2  A    between atoms: C3_3  and  C4_4 
REMARK    3  A    between atoms: C4_4  and  C5_5 
REMARK    4  A    between atoms: C5_5  and  C6_6 
REMARK    5  A    between atoms: C12_12  and  O1_13 
REMARK    6  A    between atoms: C17_19  and  C18_20 
REMARK    7  A    between atoms: C19_21  and  C20_22 
REMARK    8  A    between atoms: C20_22  and  C22_24 
REMARK    9  A    between atoms: C22_24  and  C23_26 
REMARK   10  A    between atoms: C23_26  and  O4_27 
REMARK   11  A    between atoms: C23_26  and  C24_28 
REMARK   12  A    between atoms: C24_28  and  C25_29 
ROOT
HETATM    1  C1  UNL     1      -5.197  48.446 -25.439  1.00  0.00     0.043 C 
HETATM    2  C2  UNL     1      -3.701  48.443 -25.264  1.00  0.00    -0.084 C 
HETATM    3  C3  UNL     1      -3.085  48.451 -24.061  1.00  0.00    -0.024 C 
ENDROOT
BRANCH   3   4
HETATM    4  C4  UNL     1      -3.743  48.361 -22.715  1.00  0.00     0.030 C 
BRANCH   4   5
HETATM    5  C5  UNL     1      -3.033  49.086 -21.568  1.00  0.00     0.042 C 
BRANCH   5   6
HETATM    6  C6  UNL     1      -3.627  50.426 -21.052  1.00  0.00     0.065 C 
HETATM    7  C7  UNL     1      -5.057  50.222 -20.521  1.00  0.00     0.046 C 
HETATM    8  C8  UNL     1      -3.641  51.571 -22.072  1.00  0.00     0.043 C 
HETATM    9  C9  UNL     1      -2.229  51.939 -22.503  1.00  0.00     0.044 C 
HETATM   10  C10 UNL     1      -1.323  52.038 -21.312  1.00  0.00    -0.021 A 
HETATM   11  C11 UNL     1      -0.079  52.671 -21.445  1.00  0.00     0.046 A 
HETATM   12  C16 UNL     1      -1.685  51.478 -20.078  1.00  0.00     0.082 A 
HETATM   13  C12 UNL     1       0.768  52.761 -20.348  1.00  0.00     0.066 A 
HETATM   14  C13 UNL     1       0.404  52.234 -19.116  1.00  0.00     0.046 A 
HETATM   15  C14 UNL     1      -0.834  51.589 -18.967  1.00  0.00    -0.025 A 
HETATM   16  C15 UNL     1      -1.224  51.012 -17.638  1.00  0.00     0.051 C 
HETATM   17  O2  UNL     1      -2.869  50.812 -19.878  1.00  0.00    -0.340 OA
BRANCH  13  18
HETATM   18  O1  UNL     1       1.995  53.355 -20.443  1.00  0.00    -0.361 OA
HETATM   19  H17 UNL     1       2.133  53.643 -21.363  1.00  0.00     0.217 HD
ENDBRANCH  13  18
ENDBRANCH   5   6
ENDBRANCH   4   5
ENDBRANCH   3   4
BRANCH   2  20
HETATM   20  C17 UNL     1      -2.898  48.449 -26.554  1.00  0.00     0.060 C 
BRANCH  20  21
HETATM   21  C18 UNL     1      -3.471  49.415 -27.556  1.00  0.00    -0.026 C 
HETATM   22  C19 UNL     1      -3.341  50.752 -27.595  1.00  0.00    -0.019 C 
BRANCH  22  23
HETATM   23  C20 UNL     1      -2.587  51.635 -26.631  1.00  0.00     0.076 C 
HETATM   24  C21 UNL     1      -3.525  52.343 -25.661  1.00  0.00     0.022 C 
BRANCH  23  25
HETATM   25  C22 UNL     1      -1.700  52.628 -27.393  1.00  0.00     0.162 C 
HETATM   26  O3  UNL     1      -2.151  53.723 -27.749  1.00  0.00    -0.294 OA
BRANCH  25  27
HETATM   27  C23 UNL     1      -0.239  52.245 -27.676  1.00  0.00     0.188 C 
BRANCH  27  28
HETATM   28  O4  UNL     1      -0.008  52.075 -29.072  1.00  0.00    -0.388 OA
HETATM   29  H31 UNL     1      -0.374  51.202 -29.332  1.00  0.00     0.210 HD
ENDBRANCH  27  28
BRANCH  27  30
HETATM   30  C24 UNL     1       0.258  51.025 -26.882  1.00  0.00     0.043 C 
BRANCH  30  31
HETATM   31  C25 UNL     1       1.493  51.184 -25.967  1.00  0.00    -0.020 C 
HETATM   32  C26 UNL     1       1.203  52.267 -24.922  1.00  0.00     0.009 C 
HETATM   33  C27 UNL     1       2.781  51.549 -26.709  1.00  0.00     0.009 C 
ENDBRANCH  30  31
ENDBRANCH  27  30
ENDBRANCH  25  27
ENDBRANCH  23  25
ENDBRANCH  22  23
ENDBRANCH  20  21
ENDBRANCH   2  20
TORSDOF 12
ENDMDL
MODEL 4
REMARK minimizedAffinity -7.41217995
REMARK CNNscore 0.525136292
REMARK CNNaffinity 6.37649345
REMARK  12 active torsions:
REMARK  status: ('A' for Active; 'I' for Inactive)
REMARK    1  A    between atoms: C2_2  and  C17_19 
REMARK    2  A    between atoms: C3_3  and  C4_4 
REMARK    3  A    between atoms: C4_4  and  C5_5 
REMARK    4  A    between atoms: C5_5  and  C6_6 
REMARK    5  A    between atoms: C12_12  and  O1_13 
REMARK    6  A    between atoms: C17_19  and  C18_20 
REMARK    7  A    between atoms: C19_21  and  C20_22 
REMARK    8  A    between atoms: C20_22  and  C22_24 
REMARK    9  A    between atoms: C22_24  and  C23_26 
REMARK   10  A    between atoms: C23_26  and  O4_27 
REMARK   11  A    between atoms: C23_26  and  C24_28 
REMARK   12  A    between atoms: C24_28  and  C25_29 
ROOT
HETATM    1  C1  UNL     1      -5.661  48.086 -22.518  1.00  0.00     0.043 C 
HETATM    2  C2  UNL     1      -5.026  48.908 -23.610  1.00  0.00    -0.084 C 
HETATM    3  C3  UNL     1      -4.249  49.989 -23.379  1.00  0.00    -0.024 C 
ENDROOT
BRANCH   3   4
HETATM    4  C4  UNL     1      -3.794  50.501 -22.043  1.00  0.00     0.030 C 
BRANCH   4   5
HETATM    5  C5  UNL     1      -3.275  49.449 -21.059  1.00  0.00     0.042 C 
BRANCH   5   6
HETATM    6  C6  UNL     1      -1.857  48.855 -21.282  1.00  0.00     0.065 C 
HETATM    7  C7  UNL     1      -1.931  47.550 -22.095  1.00  0.00     0.046 C 
HETATM    8  C8  UNL     1      -1.049  48.593 -20.005  1.00  0.00     0.043 C 
HETATM    9  C9  UNL     1      -0.789  49.885 -19.245  1.00  0.00     0.044 C 
HETATM   10  C10 UNL     1      -0.337  50.966 -20.180  1.00  0.00    -0.021 A 
HETATM   11  C11 UNL     1       0.257  52.123 -19.658  1.00  0.00     0.046 A 
HETATM   12  C16 UNL     1      -0.531  50.853 -21.565  1.00  0.00     0.082 A 
HETATM   13  C12 UNL     1       0.672  53.132 -20.518  1.00  0.00     0.066 A 
HETATM   14  C13 UNL     1       0.510  53.014 -21.892  1.00  0.00     0.046 A 
HETATM   15  C14 UNL     1      -0.091  51.867 -22.431  1.00  0.00    -0.025 A 
HETATM   16  C15 UNL     1      -0.275  51.743 -23.916  1.00  0.00     0.051 C 
HETATM   17  O2  UNL     1      -1.137  49.769 -22.149  1.00  0.00    -0.340 OA
BRANCH  13  18
HETATM   18  O1  UNL     1       1.241  54.281 -20.046  1.00  0.00    -0.361 OA
HETATM   19  H17 UNL     1       1.259  54.244 -19.072  1.00  0.00     0.217 HD
ENDBRANCH  13  18
ENDBRANCH   5   6
ENDBRANCH   4   5
ENDBRANCH   3   4
BRANCH   2  20
HETATM   20  C17 UNL     1      -5.334  48.453 -25.025  1.00  0.00     0.060 C 
BRANCH  20  21
HETATM   21  C18 UNL     1      -6.518  47.525 -25.061  1.00  0.00    -0.026 C 
HETATM   22  C19 UNL     1      -7.389  47.320 -26.064  1.00  0.00    -0.019 C 
BRANCH  22  23
HETATM   23  C20 UNL     1      -7.408  47.983 -27.420  1.00  0.00     0.076 C 
HETATM   24  C21 UNL     1      -8.829  48.248 -27.901  1.00  0.00     0.022 C 
BRANCH  23  25
HETATM   25  C22 UNL     1      -6.608  47.154 -28.434  1.00  0.00     0.162 C 
HETATM   26  O3  UNL     1      -6.855  45.952 -28.592  1.00  0.00    -0.294 OA
BRANCH  25  27
HETATM   27  C23 UNL     1      -5.520  47.852 -29.263  1.00  0.00     0.188 C 
BRANCH  27  28
HETATM   28  O4  UNL     1      -4.881  48.885 -28.518  1.00  0.00    -0.388 OA
HETATM   29  H31 UNL     1      -5.483  49.660 -28.502  1.00  0.00     0.210 HD
ENDBRANCH  27  28
BRANCH  27  30
HETATM   30  C24 UNL     1      -6.005  48.375 -30.627  1.00  0.00     0.043 C 
BRANCH  30  31
HETATM   31  C25 UNL     1      -5.394  47.779 -31.914  1.00  0.00    -0.020 C 
HETATM   32  C26 UNL     1      -6.523  47.465 -32.902  1.00  0.00     0.009 C 
HETATM   33  C27 UNL     1      -4.569  46.510 -31.689  1.00  0.00     0.009 C 
ENDBRANCH  30  31
ENDBRANCH  27  30
ENDBRANCH  25  27
ENDBRANCH  23  25
ENDBRANCH  22  23
ENDBRANCH  20  21
ENDBRANCH   2  20
TORSDOF 12
ENDMDL
MODEL 5
REMARK minimizedAffinity -8.06885624
REMARK CNNscore 0.518610001
REMARK CNNaffinity 7.15852594
REMARK  12 active torsions:
REMARK  status: ('A' for Active; 'I' for Inactive)
REMARK    1  A    between atoms: C2_2  and  C17_19 
REMARK    2  A    between atoms: C3_3  and  C4_4 
REMARK    3  A    between atoms: C4_4  and  C5_5 
REMARK    4  A    between atoms: C5_5  and  C6_6 
REMARK    5  A    between atoms: C12_12  and  O1_13 
REMARK    6  A    between atoms: C17_19  and  C18_20 
REMARK    7  A    between atoms: C19_21  and  C20_22 
REMARK    8  A    between atoms: C20_22  and  C22_24 
REMARK    9  A    between atoms: C22_24  and  C23_26 
REMARK   10  A    between atoms: C23_26  and  O4_27 
REMARK   11  A    between atoms: C23_26  and  C24_28 
REMARK   12  A    between atoms: C24_28  and  C25_29 
ROOT
HETATM    1  C1  UNL     1      -4.611  50.046 -21.692  1.00  0.00     0.043 C 
HETATM    2  C2  UNL     1      -4.141  48.648 -22.004  1.00  0.00    -0.084 C 
HETATM    3  C3  UNL     1      -3.944  48.185 -23.258  1.00  0.00    -0.024 C 
ENDROOT
BRANCH   3   4
HETATM    4  C4  UNL     1      -4.047  48.971 -24.533  1.00  0.00     0.030 C 
BRANCH   4   5
HETATM    5  C5  UNL     1      -2.772  49.684 -24.992  1.00  0.00     0.042 C 
BRANCH   5   6
HETATM    6  C6  UNL     1      -2.865  51.174 -25.422  1.00  0.00     0.065 C 
HETATM    7  C7  UNL     1      -4.067  51.862 -24.752  1.00  0.00     0.046 C 
HETATM    8  C8  UNL     1      -2.942  51.415 -26.935  1.00  0.00     0.043 C 
HETATM    9  C9  UNL     1      -1.689  50.909 -27.635  1.00  0.00     0.044 C 
HETATM   10  C10 UNL     1      -0.460  51.340 -26.893  1.00  0.00    -0.021 A 
HETATM   11  C11 UNL     1       0.789  51.262 -27.526  1.00  0.00     0.046 A 
HETATM   12  C16 UNL     1      -0.534  51.786 -25.565  1.00  0.00     0.082 A 
HETATM   13  C12 UNL     1       1.933  51.653 -26.842  1.00  0.00     0.066 A 
HETATM   14  C13 UNL     1       1.863  52.123 -25.538  1.00  0.00     0.046 A 
HETATM   15  C14 UNL     1       0.623  52.199 -24.885  1.00  0.00    -0.025 A 
HETATM   16  C15 UNL     1       0.548  52.699 -23.472  1.00  0.00     0.051 C 
HETATM   17  O2  UNL     1      -1.713  51.857 -24.865  1.00  0.00    -0.340 OA
BRANCH  13  18
HETATM   18  O1  UNL     1       3.169  51.576 -27.420  1.00  0.00    -0.361 OA
HETATM   19  H17 UNL     1       3.074  51.198 -28.313  1.00  0.00     0.217 HD
ENDBRANCH  13  18
ENDBRANCH   5   6
ENDBRANCH   4   5
ENDBRANCH   3   4
BRANCH   2  20
HETATM   20  C17 UNL     1      -3.912  47.757 -20.796  1.00  0.00     0.060 C 
BRANCH  20  21
HETATM   21  C18 UNL     1      -2.473  47.328 -20.691  1.00  0.00    -0.026 C 
HETATM   22  C19 UNL     1      -1.386  48.093 -20.493  1.00  0.00    -0.019 C 
BRANCH  22  23
HETATM   23  C20 UNL     1      -1.329  49.592 -20.332  1.00  0.00     0.076 C 
HETATM   24  C21 UNL     1      -0.250  50.215 -21.210  1.00  0.00     0.022 C 
BRANCH  23  25
HETATM   25  C22 UNL     1      -1.148  49.968 -18.855  1.00  0.00     0.162 C 
HETATM   26  O3  UNL     1      -0.510  49.229 -18.096  1.00  0.00    -0.294 OA
BRANCH  25  27
HETATM   27  C23 UNL     1      -1.751  51.288 -18.350  1.00  0.00     0.188 C 
BRANCH  27  28
HETATM   28  O4  UNL     1      -3.082  51.467 -18.827  1.00  0.00    -0.388 OA
HETATM   29  H31 UNL     1      -3.030  51.753 -19.764  1.00  0.00     0.210 HD
ENDBRANCH  27  28
BRANCH  27  30
HETATM   30  C24 UNL     1      -0.888  52.528 -18.645  1.00  0.00     0.043 C 
BRANCH  30  31
HETATM   31  C25 UNL     1       0.642  52.358 -18.772  1.00  0.00    -0.020 C 
HETATM   32  C26 UNL     1       1.277  52.516 -17.386  1.00  0.00     0.009 C 
HETATM   33  C27 UNL     1       1.306  53.345 -19.734  1.00  0.00     0.009 C 
ENDBRANCH  30  31
ENDBRANCH  27  30
ENDBRANCH  25  27
ENDBRANCH  23  25
ENDBRANCH  22  23
ENDBRANCH  20  21
ENDBRANCH   2  20
TORSDOF 12
ENDMDL
MODEL 6
REMARK minimizedAffinity -7.63399744
REMARK CNNscore 0.508152604
REMARK CNNaffinity 7.07009888
REMARK  12 active torsions:
REMARK  status: ('A' for Active; 'I' for Inactive)
REMARK    1  A    between atoms: C2_2  and  C17_19 
REMARK    2  A    between atoms: C3_3  and  C4_4 
REMARK    3  A    between atoms: C4_4  and  C5_5 
REMARK    4  A    between atoms: C5_5  and  C6_6 
REMARK    5  A    between atoms: C12_12  and  O1_13 
REMARK    6  A    between atoms: C17_19  and  C18_20 
REMARK    7  A    between atoms: C19_21  and  C20_22 
REMARK    8  A    between atoms: C20_22  and  C22_24 
REMARK    9  A    between atoms: C22_24  and  C23_26 
REMARK   10  A    between atoms: C23_26  and  O4_27 
REMARK   11  A    between atoms: C23_26  and  C24_28 
REMARK   12  A    between atoms: C24_28  and  C25_29 
ROOT
HETATM    1  C1  UNL     1      -0.634  48.781 -20.240  1.00  0.00     0.043 C 
HETATM    2  C2  UNL     1      -1.771  47.833 -20.521  1.00  0.00    -0.084 C 
HETATM    3  C3  UNL     1      -2.574  47.319 -19.564  1.00  0.00    -0.024 C 
ENDROOT
BRANCH   3   4
HETATM    4  C4  UNL     1      -2.562  47.661 -18.102  1.00  0.00     0.030 C 
BRANCH   4   5
HETATM    5  C5  UNL     1      -1.494  48.662 -17.651  1.00  0.00     0.042 C 
BRANCH   5   6
HETATM    6  C6  UNL     1      -1.933  49.888 -16.804  1.00  0.00     0.065 C 
HETATM    7  C7  UNL     1      -2.495  49.440 -15.443  1.00  0.00     0.046 C 
HETATM    8  C8  UNL     1      -2.953  50.816 -17.475  1.00  0.00     0.043 C 
HETATM    9  C9  UNL     1      -2.382  51.433 -18.744  1.00  0.00     0.044 C 
HETATM   10  C10 UNL     1      -0.990  51.936 -18.505  1.00  0.00    -0.021 A 
HETATM   11  C11 UNL     1      -0.408  52.815 -19.429  1.00  0.00     0.046 A 
HETATM   12  C16 UNL     1      -0.248  51.514 -17.391  1.00  0.00     0.082 A 
HETATM   13  C12 UNL     1       0.883  53.280 -19.219  1.00  0.00     0.066 A 
HETATM   14  C13 UNL     1       1.612  52.889 -18.103  1.00  0.00     0.046 A 
HETATM   15  C14 UNL     1       1.050  52.003 -17.173  1.00  0.00    -0.025 A 
HETATM   16  C15 UNL     1       1.841  51.574 -15.972  1.00  0.00     0.051 C 
HETATM   17  O2  UNL     1      -0.734  50.628 -16.462  1.00  0.00    -0.340 OA
BRANCH  13  18
HETATM   18  O1  UNL     1       1.490  54.124 -20.105  1.00  0.00    -0.361 OA
HETATM   19  H17 UNL     1       0.883  54.284 -20.851  1.00  0.00     0.217 HD
ENDBRANCH  13  18
ENDBRANCH   5   6
ENDBRANCH   4   5
ENDBRANCH   3   4
BRANCH   2  20
HETATM   20  C17 UNL     1      -1.957  47.461 -21.982  1.00  0.00     0.060 C 
BRANCH  20  21
HETATM   21  C18 UNL     1      -3.250  48.004 -22.529  1.00  0.00    -0.026 C 
HETATM   22  C19 UNL     1      -3.433  49.045 -23.359  1.00  0.00    -0.019 C 
BRANCH  22  23
HETATM   23  C20 UNL     1      -2.380  49.950 -23.951  1.00  0.00     0.076 C 
HETATM   24  C21 UNL     1      -1.936  51.024 -22.965  1.00  0.00     0.022 C 
BRANCH  23  25
HETATM   25  C22 UNL     1      -2.874  50.557 -25.271  1.00  0.00     0.162 C 
HETATM   26  O3  UNL     1      -3.931  50.166 -25.782  1.00  0.00    -0.294 OA
BRANCH  25  27
HETATM   27  C23 UNL     1      -2.047  51.674 -25.925  1.00  0.00     0.188 C 
BRANCH  27  28
HETATM   28  O4  UNL     1      -2.863  52.787 -26.279  1.00  0.00    -0.388 OA
HETATM   29  H31 UNL     1      -3.350  52.554 -27.098  1.00  0.00     0.210 HD
ENDBRANCH  27  28
BRANCH  27  30
HETATM   30  C24 UNL     1      -1.197  51.211 -27.121  1.00  0.00     0.043 C 
BRANCH  30  31
HETATM   31  C25 UNL     1       0.335  51.109 -26.953  1.00  0.00    -0.020 C 
HETATM   32  C26 UNL     1       0.732  51.741 -25.614  1.00  0.00     0.009 C 
HETATM   33  C27 UNL     1       1.136  51.778 -28.071  1.00  0.00     0.009 C 
ENDBRANCH  30  31
ENDBRANCH  27  30
ENDBRANCH  25  27
ENDBRANCH  23  25
ENDBRANCH  22  23
ENDBRANCH  20  21
ENDBRANCH   2  20
TORSDOF 12
ENDMDL
MODEL 7
REMARK minimizedAffinity -8.59502983
REMARK CNNscore 0.507427037
REMARK CNNaffinity 7.28794432
REMARK  12 active torsions:
REMARK  status: ('A' for Active; 'I' for Inactive)
REMARK    1  A    between atoms: C2_2  and  C17_19 
REMARK    2  A    between atoms: C3_3  and  C4_4 
REMARK    3  A    between atoms: C4_4  and  C5_5 
REMARK    4  A    between atoms: C5_5  and  C6_6 
REMARK    5  A    between atoms: C12_12  and  O1_13 
REMARK    6  A    between atoms: C17_19  and  C18_20 
REMARK    7  A    between atoms: C19_21  and  C20_22 
REMARK    8  A    between atoms: C20_22  and  C22_24 
REMARK    9  A    between atoms: C22_24  and  C23_26 
REMARK   10  A    between atoms: C23_26  and  O4_27 
REMARK   11  A    between atoms: C23_26  and  C24_28 
REMARK   12  A    between atoms: C24_28  and  C25_29 
ROOT
HETATM    1  C1  UNL     1      -2.013  47.554 -21.830  1.00  0.00     0.043 C 
HETATM    2  C2  UNL     1      -2.458  48.913 -22.304  1.00  0.00    -0.084 C 
HETATM    3  C3  UNL     1      -1.805  50.060 -22.014  1.00  0.00    -0.024 C 
ENDROOT
BRANCH   3   4
HETATM    4  C4  UNL     1      -0.500  50.192 -21.283  1.00  0.00     0.030 C 
BRANCH   4   5
HETATM    5  C5  UNL     1      -0.518  49.817 -19.798  1.00  0.00     0.042 C 
BRANCH   5   6
HETATM    6  C6  UNL     1      -1.348  50.692 -18.819  1.00  0.00     0.065 C 
HETATM    7  C7  UNL     1      -2.821  50.243 -18.798  1.00  0.00     0.046 C 
HETATM    8  C8  UNL     1      -1.299  52.201 -19.087  1.00  0.00     0.043 C 
HETATM    9  C9  UNL     1       0.118  52.737 -18.945  1.00  0.00     0.044 C 
HETATM   10  C10 UNL     1       0.764  52.198 -17.704  1.00  0.00    -0.021 A 
HETATM   11  C11 UNL     1       1.930  52.805 -17.216  1.00  0.00     0.046 A 
HETATM   12  C16 UNL     1       0.241  51.077 -17.043  1.00  0.00     0.082 A 
HETATM   13  C12 UNL     1       2.538  52.308 -16.071  1.00  0.00     0.066 A 
HETATM   14  C13 UNL     1       2.009  51.216 -15.395  1.00  0.00     0.046 A 
HETATM   15  C14 UNL     1       0.847  50.591 -15.874  1.00  0.00    -0.025 A 
HETATM   16  C15 UNL     1       0.280  49.405 -15.148  1.00  0.00     0.051 C 
HETATM   17  O2  UNL     1      -0.876  50.407 -17.478  1.00  0.00    -0.340 OA
BRANCH  13  18
HETATM   18  O1  UNL     1       3.684  52.862 -15.575  1.00  0.00    -0.361 OA
HETATM   19  H17 UNL     1       3.961  53.588 -16.163  1.00  0.00     0.217 HD
ENDBRANCH  13  18
ENDBRANCH   5   6
ENDBRANCH   4   5
ENDBRANCH   3   4
BRANCH   2  20
HETATM   20  C17 UNL     1      -3.730  48.925 -23.134  1.00  0.00     0.060 C 
BRANCH  20  21
HETATM   21  C18 UNL     1      -3.463  48.520 -24.558  1.00  0.00    -0.026 C 
HETATM   22  C19 UNL     1      -3.083  49.293 -25.589  1.00  0.00    -0.019 C 
BRANCH  22  23
HETATM   23  C20 UNL     1      -2.834  50.782 -25.584  1.00  0.00     0.076 C 
HETATM   24  C21 UNL     1      -3.990  51.547 -24.949  1.00  0.00     0.022 C 
BRANCH  23  25
HETATM   25  C22 UNL     1      -2.531  51.282 -27.002  1.00  0.00     0.162 C 
HETATM   26  O3  UNL     1      -3.183  50.860 -27.965  1.00  0.00    -0.294 OA
BRANCH  25  27
HETATM   27  C23 UNL     1      -1.426  52.332 -27.195  1.00  0.00     0.188 C 
BRANCH  27  28
HETATM   28  O4  UNL     1      -1.906  53.466 -27.911  1.00  0.00    -0.388 OA
HETATM   29  H31 UNL     1      -1.955  53.223 -28.860  1.00  0.00     0.210 HD
ENDBRANCH  27  28
BRANCH  27  30
HETATM   30  C24 UNL     1      -0.138  51.781 -27.832  1.00  0.00     0.043 C 
BRANCH  30  31
HETATM   31  C25 UNL     1       1.011  51.319 -26.909  1.00  0.00    -0.020 C 
HETATM   32  C26 UNL     1       0.766  51.863 -25.497  1.00  0.00     0.009 C 
HETATM   33  C27 UNL     1       2.402  51.757 -27.371  1.00  0.00     0.009 C 
ENDBRANCH  30  31
ENDBRANCH  27  30
ENDBRANCH  25  27
ENDBRANCH  23  25
ENDBRANCH  22  23
ENDBRANCH  20  21
ENDBRANCH   2  20
TORSDOF 12
ENDMDL
MODEL 8
REMARK minimizedAffinity -7.45370197
REMARK CNNscore 0.453743666
REMARK CNNaffinity 6.18228006
REMARK  12 active torsions:
REMARK  status: ('A' for Active; 'I' for Inactive)
REMARK    1  A    between atoms: C2_2  and  C17_19 
REMARK    2  A    between atoms: C3_3  and  C4_4 
REMARK    3  A    between atoms: C4_4  and  C5_5 
REMARK    4  A    between atoms: C5_5  and  C6_6 
REMARK    5  A    between atoms: C12_12  and  O1_13 
REMARK    6  A    between atoms: C17_19  and  C18_20 
REMARK    7  A    between atoms: C19_21  and  C20_22 
REMARK    8  A    between atoms: C20_22  and  C22_24 
REMARK    9  A    between atoms: C22_24  and  C23_26 
REMARK   10  A    between atoms: C23_26  and  O4_27 
REMARK   11  A    between atoms: C23_26  and  C24_28 
REMARK   12  A    between atoms: C24_28  and  C25_29 
ROOT
HETATM    1  C1  UNL     1      -3.201  48.724 -25.669  1.00  0.00     0.043 C 
HETATM    2  C2  UNL     1      -4.080  48.590 -24.453  1.00  0.00    -0.084 C 
HETATM    3  C3  UNL     1      -3.609  48.358 -23.208  1.00  0.00    -0.024 C 
ENDROOT
BRANCH   3   4
HETATM    4  C4  UNL     1      -2.170  48.297 -22.788  1.00  0.00     0.030 C 
BRANCH   4   5
HETATM    5  C5  UNL     1      -1.813  49.025 -21.489  1.00  0.00     0.042 C 
BRANCH   5   6
HETATM    6  C6  UNL     1      -2.646  50.272 -21.082  1.00  0.00     0.065 C 
HETATM    7  C7  UNL     1      -3.957  49.853 -20.393  1.00  0.00     0.046 C 
HETATM    8  C8  UNL     1      -2.980  51.238 -22.226  1.00  0.00     0.043 C 
HETATM    9  C9  UNL     1      -1.714  51.826 -22.833  1.00  0.00     0.044 C 
HETATM   10  C10 UNL     1      -0.770  52.272 -21.758  1.00  0.00    -0.021 A 
HETATM   11  C11 UNL     1       0.295  53.123 -22.087  1.00  0.00     0.046 A 
HETATM   12  C16 UNL     1      -0.914  51.825 -20.436  1.00  0.00     0.082 A 
HETATM   13  C12 UNL     1       1.177  53.535 -21.097  1.00  0.00     0.066 A 
HETATM   14  C13 UNL     1       1.023  53.120 -19.781  1.00  0.00     0.046 A 
HETATM   15  C14 UNL     1      -0.031  52.261 -19.435  1.00  0.00    -0.025 A 
HETATM   16  C15 UNL     1      -0.192  51.805 -18.014  1.00  0.00     0.051 C 
HETATM   17  O2  UNL     1      -1.908  50.964 -20.042  1.00  0.00    -0.340 OA
BRANCH  13  18
HETATM   18  O1  UNL     1       2.237  54.350 -21.382  1.00  0.00    -0.361 OA
HETATM   19  H17 UNL     1       2.243  54.531 -22.339  1.00  0.00     0.217 HD
ENDBRANCH  13  18
ENDBRANCH   5   6
ENDBRANCH   4   5
ENDBRANCH   3   4
BRANCH   2  20
HETATM   20  C17 UNL     1      -5.571  48.715 -24.715  1.00  0.00     0.060 C 
BRANCH  20  21
HETATM   21  C18 UNL     1      -6.364  47.766 -23.858  1.00  0.00    -0.026 C 
HETATM   22  C19 UNL     1      -7.466  47.070 -24.182  1.00  0.00    -0.019 C 
BRANCH  22  23
HETATM   23  C20 UNL     1      -8.203  47.069 -25.499  1.00  0.00     0.076 C 
HETATM   24  C21 UNL     1      -7.246  47.044 -26.684  1.00  0.00     0.022 C 
BRANCH  23  25
HETATM   25  C22 UNL     1      -9.171  48.257 -25.573  1.00  0.00     0.162 C 
HETATM   26  O3  UNL     1      -9.046  49.215 -24.800  1.00  0.00    -0.294 OA
BRANCH  25  27
HETATM   27  C23 UNL     1     -10.275  48.244 -26.642  1.00  0.00     0.188 C 
BRANCH  27  28
HETATM   28  O4  UNL     1     -11.170  49.341 -26.478  1.00  0.00    -0.388 OA
HETATM   29  H31 UNL     1     -11.773  49.128 -25.734  1.00  0.00     0.210 HD
ENDBRANCH  27  28
BRANCH  27  30
HETATM   30  C24 UNL     1     -11.044  46.914 -26.737  1.00  0.00     0.043 C 
BRANCH  30  31
HETATM   31  C25 UNL     1     -10.773  45.981 -27.937  1.00  0.00    -0.020 C 
HETATM   32  C26 UNL     1     -12.072  45.798 -28.729  1.00  0.00     0.009 C 
HETATM   33  C27 UNL     1     -10.233  44.602 -27.551  1.00  0.00     0.009 C 
ENDBRANCH  30  31
ENDBRANCH  27  30
ENDBRANCH  25  27
ENDBRANCH  23  25
ENDBRANCH  22  23
ENDBRANCH  20  21
ENDBRANCH   2  20
TORSDOF 12
ENDMDL
MODEL 9
REMARK minimizedAffinity -7.53643179
REMARK CNNscore 0.429346383
REMARK CNNaffinity 6.64230394
REMARK  12 active torsions:
REMARK  status: ('A' for Active; 'I' for Inactive)
REMARK    1  A    between atoms: C2_2  and  C17_19 
REMARK    2  A    between atoms: C3_3  and  C4_4 
REMARK    3  A    between atoms: C4_4  and  C5_5 
REMARK    4  A    between atoms: C5_5  and  C6_6 
REMARK    5  A    between atoms: C12_12  and  O1_13 
REMARK    6  A    between atoms: C17_19  and  C18_20 
REMARK    7  A    between atoms: C19_21  and  C20_22 
REMARK    8  A    between atoms: C20_22  and  C22_24 
REMARK    9  A    between atoms: C22_24  and  C23_26 
REMARK   10  A    between atoms: C23_26  and  O4_27 
REMARK   11  A    between atoms: C23_26  and  C24_28 
REMARK   12  A    between atoms: C24_28  and  C25_29 
ROOT
HETATM    1  C1  UNL     1      -6.575  47.888 -25.405  1.00  0.00     0.043 C 
HETATM    2  C2  UNL     1      -5.450  48.073 -26.390  1.00  0.00    -0.084 C 
HETATM    3  C3  UNL     1      -4.216  48.505 -26.049  1.00  0.00    -0.024 C 
ENDROOT
BRANCH   3   4
HETATM    4  C4  UNL     1      -3.710  48.772 -24.661  1.00  0.00     0.030 C 
BRANCH   4   5
HETATM    5  C5  UNL     1      -2.244  49.201 -24.549  1.00  0.00     0.042 C 
BRANCH   5   6
HETATM    6  C6  UNL     1      -1.912  50.541 -23.835  1.00  0.00     0.065 C 
HETATM    7  C7  UNL     1      -1.634  50.310 -22.339  1.00  0.00     0.046 C 
HETATM    8  C8  UNL     1      -2.976  51.637 -23.973  1.00  0.00     0.043 C 
HETATM    9  C9  UNL     1      -3.167  52.035 -25.429  1.00  0.00     0.044 C 
HETATM   10  C10 UNL     1      -1.841  52.222 -26.103  1.00  0.00    -0.021 A 
HETATM   11  C11 UNL     1      -1.783  52.893 -27.334  1.00  0.00     0.046 A 
HETATM   12  C16 UNL     1      -0.664  51.706 -25.541  1.00  0.00     0.082 A 
HETATM   13  C12 UNL     1      -0.560  53.063 -27.967  1.00  0.00     0.066 A 
HETATM   14  C13 UNL     1       0.614  52.581 -27.402  1.00  0.00     0.046 A 
HETATM   15  C14 UNL     1       0.573  51.899 -26.177  1.00  0.00    -0.025 A 
HETATM   16  C15 UNL     1       1.840  51.370 -25.570  1.00  0.00     0.051 C 
HETATM   17  O2  UNL     1      -0.643  51.008 -24.360  1.00  0.00    -0.340 OA
BRANCH  13  18
HETATM   18  O1  UNL     1      -0.465  53.697 -29.175  1.00  0.00    -0.361 OA
HETATM   19  H17 UNL     1      -1.360  53.947 -29.467  1.00  0.00     0.217 HD
ENDBRANCH  13  18
ENDBRANCH   5   6
ENDBRANCH   4   5
ENDBRANCH   3   4
BRANCH   2  20
HETATM   20  C17 UNL     1      -5.796  47.756 -27.835  1.00  0.00     0.060 C 
BRANCH  20  21
HETATM   21  C18 UNL     1      -7.122  47.053 -27.943  1.00  0.00    -0.026 C 
HETATM   22  C19 UNL     1      -7.772  46.661 -29.052  1.00  0.00    -0.019 C 
BRANCH  22  23
HETATM   23  C20 UNL     1      -7.338  46.837 -30.487  1.00  0.00     0.076 C 
HETATM   24  C21 UNL     1      -8.528  46.860 -31.439  1.00  0.00     0.022 C 
BRANCH  23  25
HETATM   25  C22 UNL     1      -6.318  45.759 -30.875  1.00  0.00     0.162 C 
HETATM   26  O3  UNL     1      -6.558  44.565 -30.659  1.00  0.00    -0.294 OA
BRANCH  25  27
HETATM   27  C23 UNL     1      -5.013  46.191 -31.561  1.00  0.00     0.188 C 
BRANCH  27  28
HETATM   28  O4  UNL     1      -4.393  47.269 -30.865  1.00  0.00    -0.388 OA
HETATM   29  H31 UNL     1      -4.879  48.091 -31.088  1.00  0.00     0.210 HD
ENDBRANCH  27  28
BRANCH  27  30
HETATM   30  C24 UNL     1      -5.164  46.515 -33.057  1.00  0.00     0.043 C 
BRANCH  30  31
HETATM   31  C25 UNL     1      -4.576  47.838 -33.596  1.00  0.00    -0.020 C 
HETATM   32  C26 UNL     1      -5.317  48.225 -34.881  1.00  0.00     0.009 C 
HETATM   33  C27 UNL     1      -3.076  47.786 -33.889  1.00  0.00     0.009 C 
ENDBRANCH  30  31
ENDBRANCH  27  30
ENDBRANCH  25  27
ENDBRANCH  23  25
ENDBRANCH  22  23
ENDBRANCH  20  21
ENDBRANCH   2  20
TORSDOF 12
ENDMDL
