MODEL 1
REMARK minimizedAffinity -7.98722982
REMARK CNNscore 0.424576879
REMARK CNNaffinity 6.56809378
REMARK  12 active torsions:
REMARK  status: ('A' for Active; 'I' for Inactive)
REMARK    1  A    between atoms: O1_2  and  C2_3 
REMARK    2  A    between atoms: C2_3  and  C5_6 
REMARK    3  A    between atoms: C6_7  and  C7_8 
REMARK    4  A    between atoms: C7_8  and  C8_9 
REMARK    5  A    between atoms: C8_9  and  C10_11 
REMARK    6  A    between atoms: C28_31  and  O4_32 
REMARK    7  A    between atoms: O4_32  and  C29_33 
REMARK    8  A    between atoms: C30_35  and  C31_36 
REMARK    9  A    between atoms: C31_36  and  O6_37 
REMARK   10  A    between atoms: C32_38  and  O7_39 
REMARK   11  A    between atoms: C33_40  and  O8_41 
REMARK   12  A    between atoms: C34_42  and  O9_43 
ROOT
HETATM    1  C10 UNL     1      -3.368  14.113  19.666  1.00  0.00    -0.002 C 
HETATM    2  C11 UNL     1      -4.904  14.043  19.393  1.00  0.00     0.006 C 
HETATM    3  C12 UNL     1      -5.117  13.177  18.132  1.00  0.00     0.011 C 
HETATM    4  C13 UNL     1      -3.740  12.551  17.842  1.00  0.00    -0.028 C 
HETATM    5  C14 UNL     1      -3.639  11.298  18.777  1.00  0.00     0.016 C 
HETATM    6  C15 UNL     1      -3.491  12.156  16.355  1.00  0.00     0.035 C 
HETATM    7  C16 UNL     1      -4.432  11.084  15.842  1.00  0.00    -0.021 C 
HETATM    8  C17 UNL     1      -3.978   9.996  15.202  1.00  0.00     0.009 C 
HETATM    9  C18 UNL     1      -2.485   9.738  15.015  1.00  0.00     0.102 C 
HETATM   10  O2  UNL     1      -2.065  10.649  13.980  1.00  0.00    -0.304 OA
HETATM   11  C19 UNL     1      -1.830  11.885  14.535  1.00  0.00     0.270 C 
HETATM   12  O3  UNL     1      -1.583  12.883  13.881  1.00  0.00    -0.264 OA
HETATM   13  C20 UNL     1      -1.982  11.800  16.062  1.00  0.00     0.062 C 
HETATM   14  C21 UNL     1      -0.979  12.761  16.751  1.00  0.00     0.022 C 
HETATM   15  C22 UNL     1      -1.338  13.229  18.175  1.00  0.00     0.011 C 
HETATM   16  C23 UNL     1      -2.786  13.738  18.259  1.00  0.00    -0.032 C 
HETATM   17  C24 UNL     1      -2.901  14.994  17.331  1.00  0.00     0.016 C 
HETATM   18  C25 UNL     1      -1.710  10.282  16.233  1.00  0.00     0.045 C 
HETATM   19  C26 UNL     1      -0.212   9.917  16.231  1.00  0.00     0.012 C 
HETATM   20  C27 UNL     1       0.023   8.434  15.977  1.00  0.00     0.033 C 
HETATM   21  C28 UNL     1      -0.606   8.008  14.638  1.00  0.00     0.136 C 
HETATM   22  C35 UNL     1      -2.156   8.252  14.641  1.00  0.00     0.015 C 
HETATM   23  C36 UNL     1      -2.813   7.267  15.639  1.00  0.00     0.021 C 
HETATM   24  C37 UNL     1      -2.704   7.899  13.235  1.00  0.00     0.021 C 
ENDROOT
BRANCH  21  25
HETATM   25  O4  UNL     1      -0.024   8.746  13.554  1.00  0.00    -0.352 OA
BRANCH  25  26
HETATM   26  C29 UNL     1       0.989   8.044  12.816  1.00  0.00     0.292 C 
HETATM   27  O5  UNL     1       1.065   8.523  11.483  1.00  0.00    -0.348 OA
HETATM   28  C30 UNL     1       2.084   7.880  10.691  1.00  0.00     0.179 C 
HETATM   29  C32 UNL     1       2.596   6.533  11.249  1.00  0.00     0.180 C 
HETATM   30  C33 UNL     1       1.487   5.708  11.924  1.00  0.00     0.183 C 
HETATM   31  C34 UNL     1       0.544   6.569  12.782  1.00  0.00     0.204 C 
BRANCH  28  32
HETATM   32  C31 UNL     1       1.493   7.738   9.283  1.00  0.00     0.198 C 
BRANCH  32  33
HETATM   33  O6  UNL     1       2.334   8.416   8.348  1.00  0.00    -0.398 OA
HETATM   34  H46 UNL     1       2.466   9.299   8.736  1.00  0.00     0.209 HD
ENDBRANCH  32  33
ENDBRANCH  28  32
BRANCH  29  35
HETATM   35  O7  UNL     1       3.616   6.821  12.218  1.00  0.00    -0.390 OA
HETATM   36  H48 UNL     1       3.958   5.967  12.556  1.00  0.00     0.210 HD
ENDBRANCH  29  35
BRANCH  30  37
HETATM   37  O8  UNL     1       0.751   5.000  10.922  1.00  0.00    -0.390 OA
HETATM   38  H50 UNL     1       0.152   4.381  11.382  1.00  0.00     0.210 HD
ENDBRANCH  30  37
BRANCH  31  39
HETATM   39  O9  UNL     1       0.479   6.033  14.115  1.00  0.00    -0.388 OA
HETATM   40  H52 UNL     1      -0.125   6.632  14.591  1.00  0.00     0.210 HD
ENDBRANCH  31  39
ENDBRANCH  25  26
ENDBRANCH  21  25
BRANCH   1  41
HETATM   41  C8  UNL     1      -2.895  15.432  20.352  1.00  0.00    -0.010 C 
HETATM   42  C9  UNL     1      -1.363  15.574  20.319  1.00  0.00     0.010 C 
BRANCH  41  43
HETATM   43  C7  UNL     1      -3.377  15.601  21.817  1.00  0.00     0.031 C 
BRANCH  43  44
HETATM   44  C6  UNL     1      -4.704  14.993  22.177  1.00  0.00    -0.027 C 
HETATM   45  C5  UNL     1      -5.770  15.705  22.581  1.00  0.00     0.006 C 
BRANCH  45  46
HETATM   46  C2  UNL     1      -7.155  15.148  22.855  1.00  0.00     0.070 C 
HETATM   47  C3  UNL     1      -8.230  15.996  22.157  1.00  0.00     0.050 C 
HETATM   48  C4  UNL     1      -7.402  15.203  24.371  1.00  0.00     0.050 C 
BRANCH  46  49
HETATM   49  O1  UNL     1      -7.242  13.756  22.500  1.00  0.00    -0.382 OA
HETATM   50  C1  UNL     1      -8.005  12.933  23.377  1.00  0.00     0.202 C 
ENDBRANCH  46  49
ENDBRANCH  45  46
ENDBRANCH  43  44
ENDBRANCH  41  43
ENDBRANCH   1  41
TORSDOF 12
ENDMDL
MODEL 2
REMARK minimizedAffinity -9.35507202
REMARK CNNscore 0.403147459
REMARK CNNaffinity 7.0805192
REMARK  12 active torsions:
REMARK  status: ('A' for Active; 'I' for Inactive)
REMARK    1  A    between atoms: O1_2  and  C2_3 
REMARK    2  A    between atoms: C2_3  and  C5_6 
REMARK    3  A    between atoms: C6_7  and  C7_8 
REMARK    4  A    between atoms: C7_8  and  C8_9 
REMARK    5  A    between atoms: C8_9  and  C10_11 
REMARK    6  A    between atoms: C28_31  and  O4_32 
REMARK    7  A    between atoms: O4_32  and  C29_33 
REMARK    8  A    between atoms: C30_35  and  C31_36 
REMARK    9  A    between atoms: C31_36  and  O6_37 
REMARK   10  A    between atoms: C32_38  and  O7_39 
REMARK   11  A    between atoms: C33_40  and  O8_41 
REMARK   12  A    between atoms: C34_42  and  O9_43 
ROOT
HETATM    1  C10 UNL     1      -0.949  12.283  18.785  1.00  0.00    -0.002 C 
HETATM    2  C11 UNL     1      -2.306  13.051  18.873  1.00  0.00     0.006 C 
HETATM    3  C12 UNL     1      -3.251  12.456  17.805  1.00  0.00     0.011 C 
HETATM    4  C13 UNL     1      -2.529  11.197  17.292  1.00  0.00    -0.028 C 
HETATM    5  C14 UNL     1      -2.862  10.066  18.325  1.00  0.00     0.016 C 
HETATM    6  C15 UNL     1      -2.908  10.757  15.846  1.00  0.00     0.035 C 
HETATM    7  C16 UNL     1      -4.365  10.365  15.689  1.00  0.00    -0.021 C 
HETATM    8  C17 UNL     1      -4.724   9.215  15.099  1.00  0.00     0.009 C 
HETATM    9  C18 UNL     1      -3.689   8.202  14.616  1.00  0.00     0.102 C 
HETATM   10  O2  UNL     1      -3.135   8.766  13.411  1.00  0.00    -0.304 OA
HETATM   11  C19 UNL     1      -2.158   9.674  13.746  1.00  0.00     0.270 C 
HETATM   12  O3  UNL     1      -1.602  10.397  12.938  1.00  0.00    -0.264 OA
HETATM   13  C20 UNL     1      -1.939   9.655  15.267  1.00  0.00     0.062 C 
HETATM   14  C21 UNL     1      -0.446   9.917  15.593  1.00  0.00     0.022 C 
HETATM   15  C22 UNL     1      -0.133  10.478  16.994  1.00  0.00     0.011 C 
HETATM   16  C23 UNL     1      -1.027  11.681  17.339  1.00  0.00    -0.032 C 
HETATM   17  C24 UNL     1      -0.701  12.821  16.316  1.00  0.00     0.016 C 
HETATM   18  C25 UNL     1      -2.466   8.224  15.555  1.00  0.00     0.045 C 
HETATM   19  C26 UNL     1      -1.436   7.115  15.260  1.00  0.00     0.012 C 
HETATM   20  C27 UNL     1      -2.083   5.741  15.141  1.00  0.00     0.033 C 
HETATM   21  C28 UNL     1      -3.156   5.742  14.038  1.00  0.00     0.136 C 
HETATM   22  C35 UNL     1      -4.292   6.778  14.358  1.00  0.00     0.015 C 
HETATM   23  C36 UNL     1      -5.087   6.279  15.590  1.00  0.00     0.021 C 
HETATM   24  C37 UNL     1      -5.279   6.799  13.165  1.00  0.00     0.021 C 
ENDROOT
BRANCH  21  25
HETATM   25  O4  UNL     1      -2.573   6.075  12.771  1.00  0.00    -0.352 OA
BRANCH  25  26
HETATM   26  C29 UNL     1      -1.137   6.135  12.759  1.00  0.00     0.292 C 
HETATM   27  O5  UNL     1      -0.689   7.404  12.310  1.00  0.00    -0.348 OA
HETATM   28  C30 UNL     1       0.746   7.543  12.301  1.00  0.00     0.179 C 
HETATM   29  C32 UNL     1       1.535   6.215  12.342  1.00  0.00     0.180 C 
HETATM   30  C33 UNL     1       0.849   5.090  11.550  1.00  0.00     0.183 C 
HETATM   31  C34 UNL     1      -0.676   5.066  11.748  1.00  0.00     0.204 C 
BRANCH  28  32
HETATM   32  C31 UNL     1       1.078   8.376  11.056  1.00  0.00     0.198 C 
BRANCH  32  33
HETATM   33  O6  UNL     1      -0.136   8.822  10.449  1.00  0.00    -0.398 OA
HETATM   34  H46 UNL     1      -0.679   8.017  10.369  1.00  0.00     0.209 HD
ENDBRANCH  32  33
ENDBRANCH  28  32
BRANCH  29  35
HETATM   35  O7  UNL     1       1.643   5.815  13.717  1.00  0.00    -0.390 OA
HETATM   36  H48 UNL     1       2.164   4.985  13.748  1.00  0.00     0.210 HD
ENDBRANCH  29  35
BRANCH  30  37
HETATM   37  O8  UNL     1       1.174   5.226  10.162  1.00  0.00    -0.390 OA
HETATM   38  H50 UNL     1       0.846   4.427   9.707  1.00  0.00     0.210 HD
ENDBRANCH  30  37
BRANCH  31  39
HETATM   39  O9  UNL     1      -1.087   3.757  12.180  1.00  0.00    -0.388 OA
HETATM   40  H52 UNL     1      -2.054   3.827  12.289  1.00  0.00     0.210 HD
ENDBRANCH  31  39
ENDBRANCH  25  26
ENDBRANCH  21  25
BRANCH   1  41
HETATM   41  C8  UNL     1       0.299  13.131  19.184  1.00  0.00    -0.010 C 
HETATM   42  C9  UNL     1       1.431  13.000  18.151  1.00  0.00     0.010 C 
BRANCH  41  43
HETATM   43  C7  UNL     1       0.870  12.809  20.590  1.00  0.00     0.031 C 
BRANCH  43  44
HETATM   44  C6  UNL     1       1.905  11.722  20.677  1.00  0.00    -0.027 C 
HETATM   45  C5  UNL     1       2.397  11.246  21.834  1.00  0.00     0.006 C 
BRANCH  45  46
HETATM   46  C2  UNL     1       3.363  10.084  21.975  1.00  0.00     0.070 C 
HETATM   47  C3  UNL     1       2.603   8.770  22.211  1.00  0.00     0.050 C 
HETATM   48  C4  UNL     1       4.260  10.352  23.194  1.00  0.00     0.050 C 
BRANCH  46  49
HETATM   49  O1  UNL     1       4.256  10.003  20.849  1.00  0.00    -0.382 OA
HETATM   50  C1  UNL     1       5.154  11.097  20.684  1.00  0.00     0.202 C 
ENDBRANCH  46  49
ENDBRANCH  45  46
ENDBRANCH  43  44
ENDBRANCH  41  43
ENDBRANCH   1  41
TORSDOF 12
ENDMDL
MODEL 3
REMARK minimizedAffinity -8.90710068
REMARK CNNscore 0.30415222
REMARK CNNaffinity 6.97242022
REMARK  12 active torsions:
REMARK  status: ('A' for Active; 'I' for Inactive)
REMARK    1  A    between atoms: O1_2  and  C2_3 
REMARK    2  A    between atoms: C2_3  and  C5_6 
REMARK    3  A    between atoms: C6_7  and  C7_8 
REMARK    4  A    between atoms: C7_8  and  C8_9 
REMARK    5  A    between atoms: C8_9  and  C10_11 
REMARK    6  A    between atoms: C28_31  and  O4_32 
REMARK    7  A    between atoms: O4_32  and  C29_33 
REMARK    8  A    between atoms: C30_35  and  C31_36 
REMARK    9  A    between atoms: C31_36  and  O6_37 
REMARK   10  A    between atoms: C32_38  and  O7_39 
REMARK   11  A    between atoms: C33_40  and  O8_41 
REMARK   12  A    between atoms: C34_42  and  O9_43 
ROOT
HETATM    1  C10 UNL     1      -7.522   6.367  14.236  1.00  0.00    -0.002 C 
HETATM    2  C11 UNL     1      -7.609   6.435  15.794  1.00  0.00     0.006 C 
HETATM    3  C12 UNL     1      -6.173   6.604  16.337  1.00  0.00     0.011 C 
HETATM    4  C13 UNL     1      -5.309   6.887  15.094  1.00  0.00    -0.028 C 
HETATM    5  C14 UNL     1      -5.462   8.421  14.811  1.00  0.00     0.016 C 
HETATM    6  C15 UNL     1      -3.806   6.495  15.228  1.00  0.00     0.035 C 
HETATM    7  C16 UNL     1      -3.067   7.268  16.302  1.00  0.00    -0.021 C 
HETATM    8  C17 UNL     1      -1.893   7.869  16.055  1.00  0.00     0.009 C 
HETATM    9  C18 UNL     1      -1.269   7.870  14.662  1.00  0.00     0.102 C 
HETATM   10  O2  UNL     1      -0.744   6.540  14.476  1.00  0.00    -0.304 OA
HETATM   11  C19 UNL     1      -1.761   5.708  14.070  1.00  0.00     0.270 C 
HETATM   12  O3  UNL     1      -1.640   4.501  13.955  1.00  0.00    -0.264 OA
HETATM   13  C20 UNL     1      -3.041   6.529  13.849  1.00  0.00     0.062 C 
HETATM   14  C21 UNL     1      -3.860   5.932  12.676  1.00  0.00     0.022 C 
HETATM   15  C22 UNL     1      -5.370   6.240  12.661  1.00  0.00     0.011 C 
HETATM   16  C23 UNL     1      -6.021   5.967  14.027  1.00  0.00    -0.032 C 
HETATM   17  C24 UNL     1      -5.877   4.435  14.321  1.00  0.00     0.016 C 
HETATM   18  C25 UNL     1      -2.382   7.912  13.596  1.00  0.00     0.045 C 
HETATM   19  C26 UNL     1      -1.859   8.094  12.157  1.00  0.00     0.012 C 
HETATM   20  C27 UNL     1      -0.868   9.245  12.042  1.00  0.00     0.033 C 
HETATM   21  C28 UNL     1       0.323   9.030  12.992  1.00  0.00     0.136 C 
HETATM   22  C35 UNL     1      -0.153   8.957  14.486  1.00  0.00     0.015 C 
HETATM   23  C36 UNL     1      -0.664  10.355  14.914  1.00  0.00     0.021 C 
HETATM   24  C37 UNL     1       1.078   8.639  15.372  1.00  0.00     0.021 C 
ENDROOT
BRANCH  21  25
HETATM   25  O4  UNL     1       1.010   7.813  12.667  1.00  0.00    -0.352 OA
BRANCH  25  26
HETATM   26  C29 UNL     1       2.113   7.962  11.758  1.00  0.00     0.292 C 
HETATM   27  O5  UNL     1       1.721   7.640  10.433  1.00  0.00    -0.348 OA
HETATM   28  C30 UNL     1       2.775   7.795   9.462  1.00  0.00     0.179 C 
HETATM   29  C32 UNL     1       4.205   7.844  10.047  1.00  0.00     0.180 C 
HETATM   30  C33 UNL     1       4.384   6.917  11.260  1.00  0.00     0.183 C 
HETATM   31  C34 UNL     1       3.179   6.946  12.215  1.00  0.00     0.204 C 
BRANCH  28  32
HETATM   32  C31 UNL     1       2.597   6.645   8.463  1.00  0.00     0.198 C 
BRANCH  32  33
HETATM   33  O6  UNL     1       2.166   5.476   9.161  1.00  0.00    -0.398 OA
HETATM   34  H46 UNL     1       2.794   5.389   9.900  1.00  0.00     0.209 HD
ENDBRANCH  32  33
ENDBRANCH  28  32
BRANCH  29  35
HETATM   35  O7  UNL     1       4.463   9.197  10.454  1.00  0.00    -0.390 OA
HETATM   36  H48 UNL     1       5.379   9.235  10.804  1.00  0.00     0.210 HD
ENDBRANCH  29  35
BRANCH  30  37
HETATM   37  O8  UNL     1       4.630   5.583  10.801  1.00  0.00    -0.390 OA
HETATM   38  H50 UNL     1       4.878   5.048  11.579  1.00  0.00     0.210 HD
ENDBRANCH  30  37
BRANCH  31  39
HETATM   39  O9  UNL     1       3.625   7.252  13.548  1.00  0.00    -0.388 OA
HETATM   40  H52 UNL     1       2.810   7.259  14.084  1.00  0.00     0.210 HD
ENDBRANCH  31  39
ENDBRANCH  25  26
ENDBRANCH  21  25
BRANCH   1  41
HETATM   41  C8  UNL     1      -8.635   5.505  13.564  1.00  0.00    -0.010 C 
HETATM   42  C9  UNL     1      -8.045   4.304  12.804  1.00  0.00     0.010 C 
BRANCH  41  43
HETATM   43  C7  UNL     1      -9.565   6.291  12.604  1.00  0.00     0.031 C 
BRANCH  43  44
HETATM   44  C6  UNL     1     -10.831   6.858  13.187  1.00  0.00    -0.027 C 
HETATM   45  C5  UNL     1     -11.504   7.892  12.655  1.00  0.00     0.006 C 
BRANCH  45  46
HETATM   46  C2  UNL     1     -12.835   8.430  13.147  1.00  0.00     0.070 C 
HETATM   47  C3  UNL     1     -12.669   9.135  14.502  1.00  0.00     0.050 C 
HETATM   48  C4  UNL     1     -13.793   7.242  13.332  1.00  0.00     0.050 C 
BRANCH  46  49
HETATM   49  O1  UNL     1     -13.456   9.277  12.163  1.00  0.00    -0.382 OA
HETATM   50  C1  UNL     1     -13.626  10.643  12.532  1.00  0.00     0.202 C 
ENDBRANCH  46  49
ENDBRANCH  45  46
ENDBRANCH  43  44
ENDBRANCH  41  43
ENDBRANCH   1  41
TORSDOF 12
ENDMDL
MODEL 4
REMARK minimizedAffinity -9.28459263
REMARK CNNscore 0.234149277
REMARK CNNaffinity 6.92754555
REMARK  12 active torsions:
REMARK  status: ('A' for Active; 'I' for Inactive)
REMARK    1  A    between atoms: O1_2  and  C2_3 
REMARK    2  A    between atoms: C2_3  and  C5_6 
REMARK    3  A    between atoms: C6_7  and  C7_8 
REMARK    4  A    between atoms: C7_8  and  C8_9 
REMARK    5  A    between atoms: C8_9  and  C10_11 
REMARK    6  A    between atoms: C28_31  and  O4_32 
REMARK    7  A    between atoms: O4_32  and  C29_33 
REMARK    8  A    between atoms: C30_35  and  C31_36 
REMARK    9  A    between atoms: C31_36  and  O6_37 
REMARK   10  A    between atoms: C32_38  and  O7_39 
REMARK   11  A    between atoms: C33_40  and  O8_41 
REMARK   12  A    between atoms: C34_42  and  O9_43 
ROOT
HETATM    1  C10 UNL     1      -0.960  11.939  18.892  1.00  0.00    -0.002 C 
HETATM    2  C11 UNL     1      -2.139  12.963  18.905  1.00  0.00     0.006 C 
HETATM    3  C12 UNL     1      -3.158  12.518  17.833  1.00  0.00     0.011 C 
HETATM    4  C13 UNL     1      -2.689  11.118  17.395  1.00  0.00    -0.028 C 
HETATM    5  C14 UNL     1      -3.266  10.125  18.461  1.00  0.00     0.016 C 
HETATM    6  C15 UNL     1      -3.114  10.695  15.956  1.00  0.00     0.035 C 
HETATM    7  C16 UNL     1      -4.615  10.592  15.769  1.00  0.00    -0.021 C 
HETATM    8  C17 UNL     1      -5.182   9.509  15.215  1.00  0.00     0.009 C 
HETATM    9  C18 UNL     1      -4.359   8.291  14.807  1.00  0.00     0.102 C 
HETATM   10  O2  UNL     1      -3.675   8.678  13.599  1.00  0.00    -0.304 OA
HETATM   11  C19 UNL     1      -2.545   9.389  13.928  1.00  0.00     0.270 C 
HETATM   12  O3  UNL     1      -1.837   9.949  13.110  1.00  0.00    -0.264 OA
HETATM   13  C20 UNL     1      -2.370   9.398  15.455  1.00  0.00     0.062 C 
HETATM   14  C21 UNL     1      -0.863   9.374  15.818  1.00  0.00     0.022 C 
HETATM   15  C22 UNL     1      -0.478   9.927  17.205  1.00  0.00     0.011 C 
HETATM   16  C23 UNL     1      -1.122  11.297  17.471  1.00  0.00    -0.032 C 
HETATM   17  C24 UNL     1      -0.552  12.301  16.413  1.00  0.00     0.016 C 
HETATM   18  C25 UNL     1      -3.178   8.114  15.784  1.00  0.00     0.045 C 
HETATM   19  C26 UNL     1      -2.383   6.811  15.569  1.00  0.00     0.012 C 
HETATM   20  C27 UNL     1      -3.287   5.587  15.484  1.00  0.00     0.033 C 
HETATM   21  C28 UNL     1      -4.312   5.750  14.349  1.00  0.00     0.136 C 
HETATM   22  C35 UNL     1      -5.226   7.004  14.589  1.00  0.00     0.015 C 
HETATM   23  C36 UNL     1      -6.134   6.730  15.813  1.00  0.00     0.021 C 
HETATM   24  C37 UNL     1      -6.161   7.164  13.364  1.00  0.00     0.021 C 
ENDROOT
BRANCH  21  25
HETATM   25  O4  UNL     1      -3.645   5.901  13.088  1.00  0.00    -0.352 OA
BRANCH  25  26
HETATM   26  C29 UNL     1      -3.971   4.907  12.104  1.00  0.00     0.292 C 
HETATM   27  O5  UNL     1      -5.261   4.366  12.342  1.00  0.00    -0.348 OA
HETATM   28  C30 UNL     1      -5.664   3.379  11.372  1.00  0.00     0.179 C 
HETATM   29  C32 UNL     1      -4.515   2.767  10.539  1.00  0.00     0.180 C 
HETATM   30  C33 UNL     1      -3.221   2.589  11.351  1.00  0.00     0.183 C 
HETATM   31  C34 UNL     1      -2.929   3.783  12.275  1.00  0.00     0.204 C 
BRANCH  28  32
HETATM   32  C31 UNL     1      -6.441   2.314  12.156  1.00  0.00     0.198 C 
BRANCH  32  33
HETATM   33  O6  UNL     1      -6.381   1.072  11.453  1.00  0.00    -0.398 OA
HETATM   34  H46 UNL     1      -6.642   1.296  10.541  1.00  0.00     0.209 HD
ENDBRANCH  32  33
ENDBRANCH  28  32
BRANCH  29  35
HETATM   35  O7  UNL     1      -4.254   3.654   9.439  1.00  0.00    -0.390 OA
HETATM   36  H48 UNL     1      -3.541   3.256   8.896  1.00  0.00     0.210 HD
ENDBRANCH  29  35
BRANCH  30  37
HETATM   37  O8  UNL     1      -3.303   1.376  12.106  1.00  0.00    -0.390 OA
HETATM   38  H50 UNL     1      -2.423   1.216  12.497  1.00  0.00     0.210 HD
ENDBRANCH  30  37
BRANCH  31  39
HETATM   39  O9  UNL     1      -1.605   4.282  12.017  1.00  0.00    -0.388 OA
HETATM   40  H52 UNL     1      -1.502   5.034  12.630  1.00  0.00     0.210 HD
ENDBRANCH  31  39
ENDBRANCH  25  26
ENDBRANCH  21  25
BRANCH   1  41
HETATM   41  C8  UNL     1       0.421  12.540  19.297  1.00  0.00    -0.010 C 
HETATM   42  C9  UNL     1       0.870  13.643  18.322  1.00  0.00     0.010 C 
BRANCH  41  43
HETATM   43  C7  UNL     1       1.562  11.498  19.427  1.00  0.00     0.031 C 
BRANCH  43  44
HETATM   44  C6  UNL     1       2.042  11.175  20.815  1.00  0.00    -0.027 C 
HETATM   45  C5  UNL     1       2.592  10.000  21.164  1.00  0.00     0.006 C 
BRANCH  45  46
HETATM   46  C2  UNL     1       3.183   9.666  22.523  1.00  0.00     0.070 C 
HETATM   47  C3  UNL     1       2.618   8.337  23.049  1.00  0.00     0.050 C 
HETATM   48  C4  UNL     1       2.789  10.784  23.503  1.00  0.00     0.050 C 
BRANCH  46  49
HETATM   49  O1  UNL     1       4.621   9.673  22.486  1.00  0.00    -0.382 OA
HETATM   50  C1  UNL     1       5.251  10.891  22.872  1.00  0.00     0.202 C 
ENDBRANCH  46  49
ENDBRANCH  45  46
ENDBRANCH  43  44
ENDBRANCH  41  43
ENDBRANCH   1  41
TORSDOF 12
ENDMDL
MODEL 5
REMARK minimizedAffinity -7.78420734
REMARK CNNscore 0.215723604
REMARK CNNaffinity 6.22797155
REMARK  12 active torsions:
REMARK  status: ('A' for Active; 'I' for Inactive)
REMARK    1  A    between atoms: O1_2  and  C2_3 
REMARK    2  A    between atoms: C2_3  and  C5_6 
REMARK    3  A    between atoms: C6_7  and  C7_8 
REMARK    4  A    between atoms: C7_8  and  C8_9 
REMARK    5  A    between atoms: C8_9  and  C10_11 
REMARK    6  A    between atoms: C28_31  and  O4_32 
REMARK    7  A    between atoms: O4_32  and  C29_33 
REMARK    8  A    between atoms: C30_35  and  C31_36 
REMARK    9  A    between atoms: C31_36  and  O6_37 
REMARK   10  A    between atoms: C32_38  and  O7_39 
REMARK   11  A    between atoms: C33_40  and  O8_41 
REMARK   12  A    between atoms: C34_42  and  O9_43 
ROOT
HETATM    1  C10 UNL     1       2.473  12.556  21.131  1.00  0.00    -0.002 C 
HETATM    2  C11 UNL     1       2.826  14.052  20.852  1.00  0.00     0.006 C 
HETATM    3  C12 UNL     1       2.114  14.465  19.545  1.00  0.00     0.011 C 
HETATM    4  C13 UNL     1       1.163  13.297  19.224  1.00  0.00    -0.028 C 
HETATM    5  C14 UNL     1      -0.120  13.545  20.089  1.00  0.00     0.016 C 
HETATM    6  C15 UNL     1       0.795  13.137  17.718  1.00  0.00     0.035 C 
HETATM    7  C16 UNL     1       0.039  14.319  17.145  1.00  0.00    -0.021 C 
HETATM    8  C17 UNL     1      -1.096  14.157  16.446  1.00  0.00     0.009 C 
HETATM    9  C18 UNL     1      -1.728  12.783  16.249  1.00  0.00     0.102 C 
HETATM   10  O2  UNL     1      -0.908  12.121  15.266  1.00  0.00    -0.304 OA
HETATM   11  C19 UNL     1       0.191  11.576  15.889  1.00  0.00     0.270 C 
HETATM   12  O3  UNL     1       1.121  11.064  15.291  1.00  0.00    -0.264 OA
HETATM   13  C20 UNL     1       0.069  11.771  17.408  1.00  0.00     0.062 C 
HETATM   14  C21 UNL     1       0.693  10.561  18.151  1.00  0.00     0.022 C 
HETATM   15  C22 UNL     1       1.163  10.807  19.598  1.00  0.00     0.011 C 
HETATM   16  C23 UNL     1       2.032  12.071  19.708  1.00  0.00    -0.032 C 
HETATM   17  C24 UNL     1       3.320  11.836  18.850  1.00  0.00     0.016 C 
HETATM   18  C25 UNL     1      -1.474  11.912  17.496  1.00  0.00     0.045 C 
HETATM   19  C26 UNL     1      -2.221  10.563  17.476  1.00  0.00     0.012 C 
HETATM   20  C27 UNL     1      -3.698  10.723  17.141  1.00  0.00     0.033 C 
HETATM   21  C28 UNL     1      -3.872  11.420  15.780  1.00  0.00     0.136 C 
HETATM   22  C35 UNL     1      -3.227  12.852  15.793  1.00  0.00     0.015 C 
HETATM   23  C36 UNL     1      -4.054  13.761  16.734  1.00  0.00     0.021 C 
HETATM   24  C37 UNL     1      -3.348  13.450  14.369  1.00  0.00     0.021 C 
ENDROOT
BRANCH  21  25
HETATM   25  O4  UNL     1      -3.258  10.647  14.739  1.00  0.00    -0.352 OA
BRANCH  25  26
HETATM   26  C29 UNL     1      -3.177   9.236  14.997  1.00  0.00     0.292 C 
HETATM   27  O5  UNL     1      -1.899   8.731  14.643  1.00  0.00    -0.348 OA
HETATM   28  C30 UNL     1      -1.739   7.322  14.903  1.00  0.00     0.179 C 
HETATM   29  C32 UNL     1      -3.056   6.535  15.088  1.00  0.00     0.180 C 
HETATM   30  C33 UNL     1      -4.186   7.043  14.178  1.00  0.00     0.183 C 
HETATM   31  C34 UNL     1      -4.233   8.578  14.087  1.00  0.00     0.204 C 
BRANCH  28  32
HETATM   32  C31 UNL     1      -0.895   6.776  13.745  1.00  0.00     0.198 C 
BRANCH  32  33
HETATM   33  O6  UNL     1      -1.188   7.514  12.558  1.00  0.00    -0.398 OA
HETATM   34  H46 UNL     1      -2.161   7.507  12.501  1.00  0.00     0.209 HD
ENDBRANCH  32  33
ENDBRANCH  28  32
BRANCH  29  35
HETATM   35  O7  UNL     1      -3.462   6.680  16.458  1.00  0.00    -0.390 OA
HETATM   36  H48 UNL     1      -4.285   6.161  16.583  1.00  0.00     0.210 HD
ENDBRANCH  29  35
BRANCH  30  37
HETATM   37  O8  UNL     1      -4.038   6.466  12.876  1.00  0.00    -0.390 OA
HETATM   38  H50 UNL     1      -4.839   6.691  12.365  1.00  0.00     0.210 HD
ENDBRANCH  30  37
BRANCH  31  39
HETATM   39  O9  UNL     1      -5.551   9.043  14.430  1.00  0.00    -0.388 OA
HETATM   40  H52 UNL     1      -5.495  10.014  14.357  1.00  0.00     0.210 HD
ENDBRANCH  31  39
ENDBRANCH  25  26
ENDBRANCH  21  25
BRANCH   1  41
HETATM   41  C8  UNL     1       3.581  11.763  21.891  1.00  0.00    -0.010 C 
HETATM   42  C9  UNL     1       3.052  10.426  22.439  1.00  0.00     0.010 C 
BRANCH  41  43
HETATM   43  C7  UNL     1       4.249  12.545  23.052  1.00  0.00     0.031 C 
BRANCH  43  44
HETATM   44  C6  UNL     1       5.602  13.146  22.784  1.00  0.00    -0.027 C 
HETATM   45  C5  UNL     1       6.756  12.628  23.240  1.00  0.00     0.006 C 
BRANCH  45  46
HETATM   46  C2  UNL     1       8.147  13.138  22.912  1.00  0.00     0.070 C 
HETATM   47  C3  UNL     1       8.194  13.710  21.486  1.00  0.00     0.050 C 
HETATM   48  C4  UNL     1       9.123  11.953  22.993  1.00  0.00     0.050 C 
BRANCH  46  49
HETATM   49  O1  UNL     1       8.605  14.084  23.894  1.00  0.00    -0.382 OA
HETATM   50  C1  UNL     1       8.236  15.443  23.674  1.00  0.00     0.202 C 
ENDBRANCH  46  49
ENDBRANCH  45  46
ENDBRANCH  43  44
ENDBRANCH  41  43
ENDBRANCH   1  41
TORSDOF 12
ENDMDL
MODEL 6
REMARK minimizedAffinity -8.19569016
REMARK CNNscore 0.200713858
REMARK CNNaffinity 6.83156967
REMARK  12 active torsions:
REMARK  status: ('A' for Active; 'I' for Inactive)
REMARK    1  A    between atoms: O1_2  and  C2_3 
REMARK    2  A    between atoms: C2_3  and  C5_6 
REMARK    3  A    between atoms: C6_7  and  C7_8 
REMARK    4  A    between atoms: C7_8  and  C8_9 
REMARK    5  A    between atoms: C8_9  and  C10_11 
REMARK    6  A    between atoms: C28_31  and  O4_32 
REMARK    7  A    between atoms: O4_32  and  C29_33 
REMARK    8  A    between atoms: C30_35  and  C31_36 
REMARK    9  A    between atoms: C31_36  and  O6_37 
REMARK   10  A    between atoms: C32_38  and  O7_39 
REMARK   11  A    between atoms: C33_40  and  O8_41 
REMARK   12  A    between atoms: C34_42  and  O9_43 
ROOT
HETATM    1  C10 UNL     1      -0.334  11.883  19.056  1.00  0.00    -0.002 C 
HETATM    2  C11 UNL     1      -1.420  13.001  19.162  1.00  0.00     0.006 C 
HETATM    3  C12 UNL     1      -2.507  12.700  18.107  1.00  0.00     0.011 C 
HETATM    4  C13 UNL     1      -2.174  11.290  17.584  1.00  0.00    -0.028 C 
HETATM    5  C14 UNL     1      -2.800  10.296  18.620  1.00  0.00     0.016 C 
HETATM    6  C15 UNL     1      -2.680  10.981  16.142  1.00  0.00     0.035 C 
HETATM    7  C16 UNL     1      -4.190  11.015  16.005  1.00  0.00    -0.021 C 
HETATM    8  C17 UNL     1      -4.866  10.015  15.419  1.00  0.00     0.009 C 
HETATM    9  C18 UNL     1      -4.164   8.754  14.922  1.00  0.00     0.102 C 
HETATM   10  O2  UNL     1      -3.489   9.144  13.710  1.00  0.00    -0.304 OA
HETATM   11  C19 UNL     1      -2.291   9.739  14.033  1.00  0.00     0.270 C 
HETATM   12  O3  UNL     1      -1.565  10.280  13.218  1.00  0.00    -0.264 OA
HETATM   13  C20 UNL     1      -2.068   9.653  15.551  1.00  0.00     0.062 C 
HETATM   14  C21 UNL     1      -0.558   9.484  15.858  1.00  0.00     0.022 C 
HETATM   15  C22 UNL     1      -0.082   9.929  17.255  1.00  0.00     0.011 C 
HETATM   16  C23 UNL     1      -0.596  11.333  17.611  1.00  0.00    -0.032 C 
HETATM   17  C24 UNL     1       0.024  12.339  16.584  1.00  0.00     0.016 C 
HETATM   18  C25 UNL     1      -2.972   8.427  15.845  1.00  0.00     0.045 C 
HETATM   19  C26 UNL     1      -2.300   7.074  15.537  1.00  0.00     0.012 C 
HETATM   20  C27 UNL     1      -3.308   5.938  15.426  1.00  0.00     0.033 C 
HETATM   21  C28 UNL     1      -4.352   6.246  14.338  1.00  0.00     0.136 C 
HETATM   22  C35 UNL     1      -5.146   7.558  14.673  1.00  0.00     0.015 C 
HETATM   23  C36 UNL     1      -6.034   7.298  15.914  1.00  0.00     0.021 C 
HETATM   24  C37 UNL     1      -6.102   7.860  13.492  1.00  0.00     0.021 C 
ENDROOT
BRANCH  21  25
HETATM   25  O4  UNL     1      -3.714   6.405  13.063  1.00  0.00    -0.352 OA
BRANCH  25  26
HETATM   26  C29 UNL     1      -2.393   5.849  12.969  1.00  0.00     0.292 C 
HETATM   27  O5  UNL     1      -1.541   6.696  12.215  1.00  0.00    -0.348 OA
HETATM   28  C30 UNL     1      -0.188   6.209  12.106  1.00  0.00     0.179 C 
HETATM   29  C32 UNL     1      -0.002   4.707  12.419  1.00  0.00     0.180 C 
HETATM   30  C33 UNL     1      -1.187   3.849  11.945  1.00  0.00     0.183 C 
HETATM   31  C34 UNL     1      -2.548   4.512  12.216  1.00  0.00     0.204 C 
BRANCH  28  32
HETATM   32  C31 UNL     1       0.272   6.566  10.687  1.00  0.00     0.198 C 
BRANCH  32  33
HETATM   33  O6  UNL     1       1.183   5.569  10.221  1.00  0.00    -0.398 OA
HETATM   34  H46 UNL     1       1.835   5.481  10.939  1.00  0.00     0.209 HD
ENDBRANCH  32  33
ENDBRANCH  28  32
BRANCH  29  35
HETATM   35  O7  UNL     1       0.129   4.572  13.843  1.00  0.00    -0.390 OA
HETATM   36  H48 UNL     1       0.270   3.622  14.042  1.00  0.00     0.210 HD
ENDBRANCH  29  35
BRANCH  30  37
HETATM   37  O8  UNL     1      -1.034   3.565  10.551  1.00  0.00    -0.390 OA
HETATM   38  H50 UNL     1      -1.716   2.909  10.310  1.00  0.00     0.210 HD
ENDBRANCH  30  37
BRANCH  31  39
HETATM   39  O9  UNL     1      -3.386   3.611  12.960  1.00  0.00    -0.388 OA
HETATM   40  H52 UNL     1      -4.217   4.103  13.096  1.00  0.00     0.210 HD
ENDBRANCH  31  39
ENDBRANCH  25  26
ENDBRANCH  21  25
BRANCH   1  41
HETATM   41  C8  UNL     1       1.106  12.344  19.439  1.00  0.00    -0.010 C 
HETATM   42  C9  UNL     1       1.796  11.338  20.377  1.00  0.00     0.010 C 
BRANCH  41  43
HETATM   43  C7  UNL     1       1.179  13.754  20.082  1.00  0.00     0.031 C 
BRANCH  43  44
HETATM   44  C6  UNL     1       1.929  13.877  21.380  1.00  0.00    -0.027 C 
HETATM   45  C5  UNL     1       2.733  14.910  21.686  1.00  0.00     0.006 C 
BRANCH  45  46
HETATM   46  C2  UNL     1       3.427  15.128  23.018  1.00  0.00     0.070 C 
HETATM   47  C3  UNL     1       4.840  14.524  23.001  1.00  0.00     0.050 C 
HETATM   48  C4  UNL     1       2.608  14.415  24.107  1.00  0.00     0.050 C 
BRANCH  46  49
HETATM   49  O1  UNL     1       3.432  16.519  23.387  1.00  0.00    -0.382 OA
HETATM   50  C1  UNL     1       2.258  16.997  24.037  1.00  0.00     0.202 C 
ENDBRANCH  46  49
ENDBRANCH  45  46
ENDBRANCH  43  44
ENDBRANCH  41  43
ENDBRANCH   1  41
TORSDOF 12
ENDMDL
MODEL 7
REMARK minimizedAffinity -7.60370493
REMARK CNNscore 0.168361112
REMARK CNNaffinity 6.13887262
REMARK  12 active torsions:
REMARK  status: ('A' for Active; 'I' for Inactive)
REMARK    1  A    between atoms: O1_2  and  C2_3 
REMARK    2  A    between atoms: C2_3  and  C5_6 
REMARK    3  A    between atoms: C6_7  and  C7_8 
REMARK    4  A    between atoms: C7_8  and  C8_9 
REMARK    5  A    between atoms: C8_9  and  C10_11 
REMARK    6  A    between atoms: C28_31  and  O4_32 
REMARK    7  A    between atoms: O4_32  and  C29_33 
REMARK    8  A    between atoms: C30_35  and  C31_36 
REMARK    9  A    between atoms: C31_36  and  O6_37 
REMARK   10  A    between atoms: C32_38  and  O7_39 
REMARK   11  A    between atoms: C33_40  and  O8_41 
REMARK   12  A    between atoms: C34_42  and  O9_43 
ROOT
HETATM    1  C10 UNL     1      -7.428 -10.081  -0.687  1.00  0.00    -0.002 C 
HETATM    2  C11 UNL     1      -8.838 -10.669  -1.014  1.00  0.00     0.006 C 
HETATM    3  C12 UNL     1      -9.445 -11.192   0.306  1.00  0.00     0.011 C 
HETATM    4  C13 UNL     1      -8.502 -10.676   1.409  1.00  0.00    -0.028 C 
HETATM    5  C14 UNL     1      -8.953  -9.204   1.699  1.00  0.00     0.016 C 
HETATM    6  C15 UNL     1      -8.489 -11.521   2.719  1.00  0.00     0.035 C 
HETATM    7  C16 UNL     1      -9.823 -11.550   3.440  1.00  0.00    -0.021 C 
HETATM    8  C17 UNL     1      -9.920 -11.286   4.752  1.00  0.00     0.009 C 
HETATM    9  C18 UNL     1      -8.706 -10.874   5.580  1.00  0.00     0.102 C 
HETATM   10  O2  UNL     1      -7.945 -12.082   5.775  1.00  0.00    -0.304 OA
HETATM   11  C19 UNL     1      -7.168 -12.309   4.663  1.00  0.00     0.270 C 
HETATM   12  O3  UNL     1      -6.514 -13.323   4.492  1.00  0.00    -0.264 OA
HETATM   13  C20 UNL     1      -7.308 -11.129   3.688  1.00  0.00     0.062 C 
HETATM   14  C21 UNL     1      -5.965 -10.884   2.953  1.00  0.00     0.022 C 
HETATM   15  C22 UNL     1      -6.044 -10.160   1.595  1.00  0.00     0.011 C 
HETATM   16  C23 UNL     1      -7.107 -10.785   0.677  1.00  0.00    -0.032 C 
HETATM   17  C24 UNL     1      -6.667 -12.258   0.376  1.00  0.00     0.016 C 
HETATM   18  C25 UNL     1      -7.743 -10.043   4.708  1.00  0.00     0.045 C 
HETATM   19  C26 UNL     1      -6.568  -9.426   5.493  1.00  0.00     0.012 C 
HETATM   20  C27 UNL     1      -7.030  -8.696   6.748  1.00  0.00     0.033 C 
HETATM   21  C28 UNL     1      -7.812  -9.648   7.670  1.00  0.00     0.136 C 
HETATM   22  C35 UNL     1      -9.088 -10.210   6.948  1.00  0.00     0.015 C 
HETATM   23  C36 UNL     1     -10.094  -9.051   6.743  1.00  0.00     0.021 C 
HETATM   24  C37 UNL     1      -9.767 -11.233   7.892  1.00  0.00     0.021 C 
ENDROOT
BRANCH  21  25
HETATM   25  O4  UNL     1      -6.986 -10.750   8.071  1.00  0.00    -0.352 OA
BRANCH  25  26
HETATM   26  C29 UNL     1      -6.614 -10.757   9.458  1.00  0.00     0.292 C 
HETATM   27  O5  UNL     1      -7.489  -9.941  10.220  1.00  0.00    -0.348 OA
HETATM   28  C30 UNL     1      -7.189  -9.926  11.630  1.00  0.00     0.179 C 
HETATM   29  C32 UNL     1      -5.769 -10.407  12.005  1.00  0.00     0.180 C 
HETATM   30  C33 UNL     1      -4.708  -9.994  10.971  1.00  0.00     0.183 C 
HETATM   31  C34 UNL     1      -5.198 -10.150   9.521  1.00  0.00     0.204 C 
BRANCH  28  32
HETATM   32  C31 UNL     1      -7.457  -8.491  12.100  1.00  0.00     0.198 C 
BRANCH  32  33
HETATM   33  O6  UNL     1      -6.489  -8.128  13.085  1.00  0.00    -0.398 OA
HETATM   34  H46 UNL     1      -6.504  -8.863  13.724  1.00  0.00     0.209 HD
ENDBRANCH  32  33
ENDBRANCH  28  32
BRANCH  29  35
HETATM   35  O7  UNL     1      -5.802 -11.840  12.089  1.00  0.00    -0.390 OA
HETATM   36  H48 UNL     1      -4.908 -12.146  12.350  1.00  0.00     0.210 HD
ENDBRANCH  29  35
BRANCH  30  37
HETATM   37  O8  UNL     1      -4.305  -8.644  11.223  1.00  0.00    -0.390 OA
HETATM   38  H50 UNL     1      -3.538  -8.457  10.649  1.00  0.00     0.210 HD
ENDBRANCH  30  37
BRANCH  31  39
HETATM   39  O9  UNL     1      -4.270 -10.963   8.782  1.00  0.00    -0.388 OA
HETATM   40  H52 UNL     1      -4.652 -11.020   7.886  1.00  0.00     0.210 HD
ENDBRANCH  31  39
ENDBRANCH  25  26
ENDBRANCH  21  25
BRANCH   1  41
HETATM   41  C8  UNL     1      -6.398 -10.190  -1.854  1.00  0.00    -0.010 C 
HETATM   42  C9  UNL     1      -4.957 -10.331  -1.332  1.00  0.00     0.010 C 
BRANCH  41  43
HETATM   43  C7  UNL     1      -6.446  -9.014  -2.865  1.00  0.00     0.031 C 
BRANCH  43  44
HETATM   44  C6  UNL     1      -7.805  -8.560  -3.323  1.00  0.00    -0.027 C 
HETATM   45  C5  UNL     1      -8.174  -7.271  -3.409  1.00  0.00     0.006 C 
BRANCH  45  46
HETATM   46  C2  UNL     1      -9.494  -6.762  -3.962  1.00  0.00     0.070 C 
HETATM   47  C3  UNL     1     -10.647  -7.694  -3.559  1.00  0.00     0.050 C 
HETATM   48  C4  UNL     1      -9.395  -6.746  -5.496  1.00  0.00     0.050 C 
BRANCH  46  49
HETATM   49  O1  UNL     1      -9.734  -5.397  -3.575  1.00  0.00    -0.382 OA
HETATM   50  C1  UNL     1      -9.728  -4.439  -4.630  1.00  0.00     0.202 C 
ENDBRANCH  46  49
ENDBRANCH  45  46
ENDBRANCH  43  44
ENDBRANCH  41  43
ENDBRANCH   1  41
TORSDOF 12
ENDMDL
MODEL 8
REMARK minimizedAffinity -7.36069345
REMARK CNNscore 0.144907102
REMARK CNNaffinity 5.60331917
REMARK  12 active torsions:
REMARK  status: ('A' for Active; 'I' for Inactive)
REMARK    1  A    between atoms: O1_2  and  C2_3 
REMARK    2  A    between atoms: C2_3  and  C5_6 
REMARK    3  A    between atoms: C6_7  and  C7_8 
REMARK    4  A    between atoms: C7_8  and  C8_9 
REMARK    5  A    between atoms: C8_9  and  C10_11 
REMARK    6  A    between atoms: C28_31  and  O4_32 
REMARK    7  A    between atoms: O4_32  and  C29_33 
REMARK    8  A    between atoms: C30_35  and  C31_36 
REMARK    9  A    between atoms: C31_36  and  O6_37 
REMARK   10  A    between atoms: C32_38  and  O7_39 
REMARK   11  A    between atoms: C33_40  and  O8_41 
REMARK   12  A    between atoms: C34_42  and  O9_43 
ROOT
HETATM    1  C10 UNL     1     -11.281  -9.797   5.672  1.00  0.00    -0.002 C 
HETATM    2  C11 UNL     1     -12.779 -10.141   5.948  1.00  0.00     0.006 C 
HETATM    3  C12 UNL     1     -13.581  -9.801   4.672  1.00  0.00     0.011 C 
HETATM    4  C13 UNL     1     -12.515  -9.511   3.599  1.00  0.00    -0.028 C 
HETATM    5  C14 UNL     1     -12.081 -10.910   3.044  1.00  0.00     0.016 C 
HETATM    6  C15 UNL     1     -12.977  -8.574   2.442  1.00  0.00     0.035 C 
HETATM    7  C16 UNL     1     -14.109  -9.143   1.610  1.00  0.00    -0.021 C 
HETATM    8  C17 UNL     1     -14.051  -9.173   0.269  1.00  0.00     0.009 C 
HETATM    9  C18 UNL     1     -12.815  -8.702  -0.492  1.00  0.00     0.102 C 
HETATM   10  O2  UNL     1     -12.848  -7.262  -0.423  1.00  0.00    -0.304 OA
HETATM   11  C19 UNL     1     -12.318  -6.857   0.780  1.00  0.00     0.270 C 
HETATM   12  O3  UNL     1     -12.331  -5.702   1.168  1.00  0.00    -0.264 OA
HETATM   13  C20 UNL     1     -11.780  -8.077   1.543  1.00  0.00     0.062 C 
HETATM   14  C21 UNL     1     -10.521  -7.683   2.357  1.00  0.00     0.022 C 
HETATM   15  C22 UNL     1     -10.181  -8.566   3.574  1.00  0.00     0.011 C 
HETATM   16  C23 UNL     1     -11.408  -8.798   4.470  1.00  0.00    -0.032 C 
HETATM   17  C24 UNL     1     -11.852  -7.407   5.035  1.00  0.00     0.016 C 
HETATM   18  C25 UNL     1     -11.549  -9.018   0.331  1.00  0.00     0.045 C 
HETATM   19  C26 UNL     1     -10.232  -8.744  -0.424  1.00  0.00     0.012 C 
HETATM   20  C27 UNL     1     -10.221  -9.364  -1.815  1.00  0.00     0.033 C 
HETATM   21  C28 UNL     1     -11.403  -8.841  -2.650  1.00  0.00     0.136 C 
HETATM   22  C35 UNL     1     -12.774  -9.204  -1.976  1.00  0.00     0.015 C 
HETATM   23  C36 UNL     1     -12.973 -10.738  -2.050  1.00  0.00     0.021 C 
HETATM   24  C37 UNL     1     -13.909  -8.563  -2.812  1.00  0.00     0.021 C 
ENDROOT
BRANCH  21  25
HETATM   25  O4  UNL     1     -11.324  -7.416  -2.794  1.00  0.00    -0.352 OA
BRANCH  25  26
HETATM   26  C29 UNL     1     -10.517  -6.961  -3.892  1.00  0.00     0.292 C 
HETATM   27  O5  UNL     1     -10.161  -5.597  -3.725  1.00  0.00    -0.348 OA
HETATM   28  C30 UNL     1      -9.325  -5.082  -4.780  1.00  0.00     0.179 C 
HETATM   29  C32 UNL     1      -9.324  -5.913  -6.083  1.00  0.00     0.180 C 
HETATM   30  C33 UNL     1     -10.698  -6.528  -6.398  1.00  0.00     0.183 C 
HETATM   31  C34 UNL     1     -11.401  -7.086  -5.149  1.00  0.00     0.204 C 
BRANCH  28  32
HETATM   32  C31 UNL     1      -9.787  -3.639  -5.014  1.00  0.00     0.198 C 
BRANCH  32  33
HETATM   33  O6  UNL     1     -10.762  -3.290  -4.030  1.00  0.00    -0.398 OA
HETATM   34  H46 UNL     1     -11.406  -4.021  -4.056  1.00  0.00     0.209 HD
ENDBRANCH  32  33
ENDBRANCH  28  32
BRANCH  29  35
HETATM   35  O7  UNL     1      -8.367  -6.972  -5.925  1.00  0.00    -0.390 OA
HETATM   36  H48 UNL     1      -8.348  -7.486  -6.759  1.00  0.00     0.210 HD
ENDBRANCH  29  35
BRANCH  30  37
HETATM   37  O8  UNL     1     -11.518  -5.545  -7.039  1.00  0.00    -0.390 OA
HETATM   38  H50 UNL     1     -12.325  -5.997  -7.352  1.00  0.00     0.210 HD
ENDBRANCH  30  37
BRANCH  31  39
HETATM   39  O9  UNL     1     -11.764  -8.460  -5.372  1.00  0.00    -0.388 OA
HETATM   40  H52 UNL     1     -12.191  -8.739  -4.541  1.00  0.00     0.210 HD
ENDBRANCH  31  39
ENDBRANCH  25  26
ENDBRANCH  21  25
BRANCH   1  41
HETATM   41  C8  UNL     1     -10.476  -9.361   6.935  1.00  0.00    -0.010 C 
HETATM   42  C9  UNL     1     -10.993  -8.030   7.510  1.00  0.00     0.010 C 
BRANCH  41  43
HETATM   43  C7  UNL     1      -8.945  -9.244   6.712  1.00  0.00     0.031 C 
BRANCH  43  44
HETATM   44  C6  UNL     1      -8.052  -9.905   7.725  1.00  0.00    -0.027 C 
HETATM   45  C5  UNL     1      -7.283  -9.233   8.599  1.00  0.00     0.006 C 
BRANCH  45  46
HETATM   46  C2  UNL     1      -6.447  -9.854   9.704  1.00  0.00     0.070 C 
HETATM   47  C3  UNL     1      -6.212  -8.846  10.840  1.00  0.00     0.050 C 
HETATM   48  C4  UNL     1      -5.084 -10.244   9.110  1.00  0.00     0.050 C 
BRANCH  46  49
HETATM   49  O1  UNL     1      -7.029 -11.082  10.175  1.00  0.00    -0.382 OA
HETATM   50  C1  UNL     1      -6.553 -11.557  11.432  1.00  0.00     0.202 C 
ENDBRANCH  46  49
ENDBRANCH  45  46
ENDBRANCH  43  44
ENDBRANCH  41  43
ENDBRANCH   1  41
TORSDOF 12
ENDMDL
MODEL 9
REMARK minimizedAffinity -7.81721401
REMARK CNNscore 0.140343249
REMARK CNNaffinity 5.76179647
REMARK  12 active torsions:
REMARK  status: ('A' for Active; 'I' for Inactive)
REMARK    1  A    between atoms: O1_2  and  C2_3 
REMARK    2  A    between atoms: C2_3  and  C5_6 
REMARK    3  A    between atoms: C6_7  and  C7_8 
REMARK    4  A    between atoms: C7_8  and  C8_9 
REMARK    5  A    between atoms: C8_9  and  C10_11 
REMARK    6  A    between atoms: C28_31  and  O4_32 
REMARK    7  A    between atoms: O4_32  and  C29_33 
REMARK    8  A    between atoms: C30_35  and  C31_36 
REMARK    9  A    between atoms: C31_36  and  O6_37 
REMARK   10  A    between atoms: C32_38  and  O7_39 
REMARK   11  A    between atoms: C33_40  and  O8_41 
REMARK   12  A    between atoms: C34_42  and  O9_43 
ROOT
HETATM    1  C10 UNL     1       3.128  13.607  21.077  1.00  0.00    -0.002 C 
HETATM    2  C11 UNL     1       3.806  14.520  20.007  1.00  0.00     0.006 C 
HETATM    3  C12 UNL     1       3.161  14.199  18.641  1.00  0.00     0.011 C 
HETATM    4  C13 UNL     1       1.955  13.301  18.972  1.00  0.00    -0.028 C 
HETATM    5  C14 UNL     1       0.797  14.277  19.373  1.00  0.00     0.016 C 
HETATM    6  C15 UNL     1       1.504  12.346  17.826  1.00  0.00     0.035 C 
HETATM    7  C16 UNL     1       1.020  13.069  16.584  1.00  0.00    -0.021 C 
HETATM    8  C17 UNL     1      -0.146  12.757  15.998  1.00  0.00     0.009 C 
HETATM    9  C18 UNL     1      -1.086  11.708  16.585  1.00  0.00     0.102 C 
HETATM   10  O2  UNL     1      -0.477  10.437  16.284  1.00  0.00    -0.304 OA
HETATM   11  C19 UNL     1       0.489  10.165  17.226  1.00  0.00     0.270 C 
HETATM   12  O3  UNL     1       1.252   9.219  17.155  1.00  0.00    -0.264 OA
HETATM   13  C20 UNL     1       0.471  11.255  18.309  1.00  0.00     0.062 C 
HETATM   14  C21 UNL     1       0.826  10.641  19.687  1.00  0.00     0.022 C 
HETATM   15  C22 UNL     1       1.394  11.604  20.747  1.00  0.00     0.011 C 
HETATM   16  C23 UNL     1       2.534  12.467  20.181  1.00  0.00    -0.032 C 
HETATM   17  C24 UNL     1       3.701  11.503  19.778  1.00  0.00     0.016 C 
HETATM   18  C25 UNL     1      -0.993  11.735  18.125  1.00  0.00     0.045 C 
HETATM   19  C26 UNL     1      -2.031  10.837  18.826  1.00  0.00     0.012 C 
HETATM   20  C27 UNL     1      -3.443  11.063  18.301  1.00  0.00     0.033 C 
HETATM   21  C28 UNL     1      -3.502  10.817  16.783  1.00  0.00     0.136 C 
HETATM   22  C35 UNL     1      -2.544  11.796  16.016  1.00  0.00     0.015 C 
HETATM   23  C36 UNL     1      -3.103  13.235  16.136  1.00  0.00     0.021 C 
HETATM   24  C37 UNL     1      -2.576  11.426  14.512  1.00  0.00     0.021 C 
ENDROOT
BRANCH  21  25
HETATM   25  O4  UNL     1      -3.122   9.467  16.479  1.00  0.00    -0.352 OA
BRANCH  25  26
HETATM   26  C29 UNL     1      -3.799   8.884  15.355  1.00  0.00     0.292 C 
HETATM   27  O5  UNL     1      -5.065   8.370  15.740  1.00  0.00    -0.348 OA
HETATM   28  C30 UNL     1      -5.813   7.794  14.651  1.00  0.00     0.179 C 
HETATM   29  C32 UNL     1      -4.980   7.434  13.399  1.00  0.00     0.180 C 
HETATM   30  C33 UNL     1      -3.575   6.917  13.748  1.00  0.00     0.183 C 
HETATM   31  C34 UNL     1      -2.915   7.710  14.889  1.00  0.00     0.204 C 
BRANCH  28  32
HETATM   32  C31 UNL     1      -6.534   6.574  15.237  1.00  0.00     0.198 C 
BRANCH  32  33
HETATM   33  O6  UNL     1      -6.379   6.572  16.657  1.00  0.00    -0.398 OA
HETATM   34  H46 UNL     1      -5.423   6.690  16.798  1.00  0.00     0.209 HD
ENDBRANCH  32  33
ENDBRANCH  28  32
BRANCH  29  35
HETATM   35  O7  UNL     1      -4.854   8.623  12.603  1.00  0.00    -0.390 OA
HETATM   36  H48 UNL     1      -4.346   8.391  11.797  1.00  0.00     0.210 HD
ENDBRANCH  29  35
BRANCH  30  37
HETATM   37  O8  UNL     1      -3.653   5.527  14.080  1.00  0.00    -0.390 OA
HETATM   38  H50 UNL     1      -2.739   5.194  14.159  1.00  0.00     0.210 HD
ENDBRANCH  30  37
BRANCH  31  39
HETATM   39  O9  UNL     1      -1.627   8.190  14.463  1.00  0.00    -0.388 OA
HETATM   40  H52 UNL     1      -1.283   8.683  15.231  1.00  0.00     0.210 HD
ENDBRANCH  31  39
ENDBRANCH  25  26
ENDBRANCH  21  25
BRANCH   1  41
HETATM   41  C8  UNL     1       4.051  13.224  22.276  1.00  0.00    -0.010 C 
HETATM   42  C9  UNL     1       3.240  12.952  23.555  1.00  0.00     0.010 C 
BRANCH  41  43
HETATM   43  C7  UNL     1       5.151  14.269  22.598  1.00  0.00     0.031 C 
BRANCH  43  44
HETATM   44  C6  UNL     1       6.555  13.756  22.769  1.00  0.00    -0.027 C 
HETATM   45  C5  UNL     1       7.394  13.514  21.747  1.00  0.00     0.006 C 
BRANCH  45  46
HETATM   46  C2  UNL     1       8.848  13.096  21.875  1.00  0.00     0.070 C 
HETATM   47  C3  UNL     1       9.167  11.941  20.913  1.00  0.00     0.050 C 
HETATM   48  C4  UNL     1       9.081  12.609  23.314  1.00  0.00     0.050 C 
BRANCH  46  49
HETATM   49  O1  UNL     1       9.734  14.215  21.697  1.00  0.00    -0.382 OA
HETATM   50  C1  UNL     1       9.219  15.487  22.081  1.00  0.00     0.202 C 
ENDBRANCH  46  49
ENDBRANCH  45  46
ENDBRANCH  43  44
ENDBRANCH  41  43
ENDBRANCH   1  41
TORSDOF 12
ENDMDL
