MODEL 1
REMARK minimizedAffinity -9.08530331
REMARK  4 active torsions:
REMARK  status: ('A' for Active; 'I' for Inactive)
REMARK    1  A    between atoms: C4_4  and  C5_5 
REMARK    2  A    between atoms: C5_5  and  C6_7 
REMARK    3  A    between atoms: C6_7  and  C7_8 
REMARK    4  A    between atoms: C7_8  and  C9_10 
ROOT
HETATM    1  C9  UNL     1      -4.824   7.499  13.437  1.00  0.00    -0.002 C 
HETATM    2  C10 UNL     1      -4.688   8.710  14.409  1.00  0.00     0.006 C 
HETATM    3  C11 UNL     1      -3.206   8.817  14.818  1.00  0.00     0.011 C 
HETATM    4  C12 UNL     1      -2.465   7.883  13.848  1.00  0.00    -0.032 C 
HETATM    5  C13 UNL     1      -2.258   8.693  12.521  1.00  0.00     0.016 C 
HETATM    6  C14 UNL     1      -1.077   7.339  14.330  1.00  0.00     0.004 C 
HETATM    7  C15 UNL     1      -0.098   8.481  14.702  1.00  0.00     0.007 C 
HETATM    8  C16 UNL     1       1.283   8.498  14.048  1.00  0.00     0.007 C 
HETATM    9  C17 UNL     1       1.248   8.074  12.575  1.00  0.00     0.010 C 
HETATM   10  C18 UNL     1       2.632   8.156  11.852  1.00  0.00     0.018 C 
HETATM   11  C19 UNL     1       3.690   7.214  12.451  1.00  0.00     0.023 C 
HETATM   12  C20 UNL     1       3.176   9.599  11.876  1.00  0.00     0.023 C 
HETATM   13  C21 UNL     1       2.451   7.765  10.377  1.00  0.00     0.135 C 
HETATM   14  O2  UNL     1       3.346   7.923   9.544  1.00  0.00    -0.297 OA
HETATM   15  C22 UNL     1       1.114   7.209   9.957  1.00  0.00     0.080 C 
HETATM   16  C23 UNL     1       0.645   6.168  10.959  1.00  0.00     0.018 C 
HETATM   17  C24 UNL     1       0.609   6.687  12.393  1.00  0.00    -0.026 A 
HETATM   18  C25 UNL     1       0.797   5.670  13.503  1.00  0.00     0.021 A 
HETATM   19  C26 UNL     1      -0.567   6.292  13.308  1.00  0.00    -0.027 A 
HETATM   20  C27 UNL     1      -1.607   5.228  12.920  1.00  0.00     0.011 C 
HETATM   21  C28 UNL     1      -3.008   5.769  12.604  1.00  0.00     0.011 C 
HETATM   22  C29 UNL     1      -3.510   6.704  13.715  1.00  0.00    -0.032 C 
HETATM   23  C30 UNL     1      -3.704   5.870  15.019  1.00  0.00     0.016 C 
ENDROOT
BRANCH   1  24
HETATM   24  C7  UNL     1      -6.210   6.805  13.556  1.00  0.00    -0.007 C 
HETATM   25  C8  UNL     1      -7.030   7.309  14.748  1.00  0.00     0.011 C 
BRANCH  24  26
HETATM   26  C6  UNL     1      -6.107   5.261  13.615  1.00  0.00     0.087 C 
BRANCH  26  27
HETATM   27  C5  UNL     1      -7.072   4.529  12.696  1.00  0.00     0.149 C 
HETATM   28  O1  UNL     1      -7.974   5.108  12.093  1.00  0.00    -0.293 OA
BRANCH  27  29
HETATM   29  C4  UNL     1      -6.855   3.084  12.428  1.00  0.00     0.052 C 
HETATM   30  C2  UNL     1      -5.992   2.571  11.534  1.00  0.00    -0.084 C 
HETATM   31  C1  UNL     1      -5.875   1.080  11.368  1.00  0.00     0.043 C 
HETATM   32  C3  UNL     1      -5.058   3.370  10.670  1.00  0.00     0.043 C 
ENDBRANCH  27  29
ENDBRANCH  26  27
ENDBRANCH  24  26
ENDBRANCH   1  24
TORSDOF 4
ENDMDL
MODEL 2
REMARK minimizedAffinity -9.07167053
REMARK  4 active torsions:
REMARK  status: ('A' for Active; 'I' for Inactive)
REMARK    1  A    between atoms: C4_4  and  C5_5 
REMARK    2  A    between atoms: C5_5  and  C6_7 
REMARK    3  A    between atoms: C6_7  and  C7_8 
REMARK    4  A    between atoms: C7_8  and  C9_10 
ROOT
HETATM    1  C9  UNL     1      -3.401   7.725  14.440  1.00  0.00    -0.002 C 
HETATM    2  C10 UNL     1      -2.635   8.259  15.689  1.00  0.00     0.006 C 
HETATM    3  C11 UNL     1      -1.154   7.861  15.533  1.00  0.00     0.011 C 
HETATM    4  C12 UNL     1      -1.027   7.390  14.077  1.00  0.00    -0.032 C 
HETATM    5  C13 UNL     1      -0.871   8.684  13.202  1.00  0.00     0.016 C 
HETATM    6  C14 UNL     1       0.163   6.421  13.759  1.00  0.00     0.004 C 
HETATM    7  C15 UNL     1       1.532   7.022  14.167  1.00  0.00     0.007 C 
HETATM    8  C16 UNL     1       2.641   7.082  13.118  1.00  0.00     0.007 C 
HETATM    9  C17 UNL     1       2.119   7.442  11.722  1.00  0.00     0.010 C 
HETATM   10  C18 UNL     1       3.238   7.591  10.639  1.00  0.00     0.018 C 
HETATM   11  C19 UNL     1       4.017   6.291  10.385  1.00  0.00     0.023 C 
HETATM   12  C20 UNL     1       4.232   8.703  11.032  1.00  0.00     0.023 C 
HETATM   13  C21 UNL     1       2.594   8.009   9.308  1.00  0.00     0.135 C 
HETATM   14  O2  UNL     1       3.268   8.372   8.342  1.00  0.00    -0.297 OA
HETATM   15  C22 UNL     1       1.089   8.002   9.223  1.00  0.00     0.080 C 
HETATM   16  C23 UNL     1       0.539   6.720   9.826  1.00  0.00     0.018 C 
HETATM   17  C24 UNL     1       1.020   6.474  11.253  1.00  0.00    -0.026 A 
HETATM   18  C25 UNL     1       1.103   5.032  11.718  1.00  0.00     0.021 A 
HETATM   19  C26 UNL     1       0.029   5.924  12.298  1.00  0.00    -0.027 A 
HETATM   20  C27 UNL     1      -1.373   5.410  11.931  1.00  0.00     0.011 C 
HETATM   21  C28 UNL     1      -2.536   6.299  12.390  1.00  0.00     0.011 C 
HETATM   22  C29 UNL     1      -2.413   6.655  13.880  1.00  0.00    -0.032 C 
HETATM   23  C30 UNL     1      -2.570   5.350  14.720  1.00  0.00     0.016 C 
ENDROOT
BRANCH   1  24
HETATM   24  C7  UNL     1      -4.872   7.348  14.773  1.00  0.00    -0.007 C 
HETATM   25  C8  UNL     1      -4.982   6.266  15.851  1.00  0.00     0.011 C 
BRANCH  24  26
HETATM   26  C6  UNL     1      -5.680   6.918  13.523  1.00  0.00     0.087 C 
BRANCH  26  27
HETATM   27  C5  UNL     1      -6.243   5.507  13.591  1.00  0.00     0.149 C 
HETATM   28  O1  UNL     1      -7.253   5.232  14.238  1.00  0.00    -0.293 OA
BRANCH  27  29
HETATM   29  C4  UNL     1      -5.620   4.442  12.764  1.00  0.00     0.052 C 
HETATM   30  C2  UNL     1      -6.192   3.274  12.426  1.00  0.00    -0.084 C 
HETATM   31  C1  UNL     1      -5.441   2.284  11.577  1.00  0.00     0.043 C 
HETATM   32  C3  UNL     1      -7.586   2.849  12.793  1.00  0.00     0.043 C 
ENDBRANCH  27  29
ENDBRANCH  26  27
ENDBRANCH  24  26
ENDBRANCH   1  24
TORSDOF 4
ENDMDL
MODEL 3
REMARK minimizedAffinity -8.8102169
REMARK  4 active torsions:
REMARK  status: ('A' for Active; 'I' for Inactive)
REMARK    1  A    between atoms: C4_4  and  C5_5 
REMARK    2  A    between atoms: C5_5  and  C6_7 
REMARK    3  A    between atoms: C6_7  and  C7_8 
REMARK    4  A    between atoms: C7_8  and  C9_10 
ROOT
HETATM    1  C9  UNL     1       0.532   7.512  12.035  1.00  0.00    -0.002 C 
HETATM    2  C10 UNL     1       0.210   6.445  10.946  1.00  0.00     0.006 C 
HETATM    3  C11 UNL     1      -0.982   5.607  11.450  1.00  0.00     0.011 C 
HETATM    4  C12 UNL     1      -1.526   6.389  12.655  1.00  0.00    -0.032 C 
HETATM    5  C13 UNL     1      -2.443   7.522  12.075  1.00  0.00     0.016 C 
HETATM    6  C14 UNL     1      -2.346   5.565  13.707  1.00  0.00     0.004 C 
HETATM    7  C15 UNL     1      -3.545   4.825  13.063  1.00  0.00     0.007 C 
HETATM    8  C16 UNL     1      -4.936   5.035  13.660  1.00  0.00     0.007 C 
HETATM    9  C17 UNL     1      -5.178   6.484  14.103  1.00  0.00     0.010 C 
HETATM   10  C18 UNL     1      -6.620   6.754  14.646  1.00  0.00     0.018 C 
HETATM   11  C19 UNL     1      -6.956   5.950  15.913  1.00  0.00     0.023 C 
HETATM   12  C20 UNL     1      -7.676   6.448  13.564  1.00  0.00     0.023 C 
HETATM   13  C21 UNL     1      -6.752   8.243  14.998  1.00  0.00     0.135 C 
HETATM   14  O2  UNL     1      -7.838   8.757  15.272  1.00  0.00    -0.297 OA
HETATM   15  C22 UNL     1      -5.502   9.086  14.962  1.00  0.00     0.080 C 
HETATM   16  C23 UNL     1      -4.364   8.361  15.660  1.00  0.00     0.018 C 
HETATM   17  C24 UNL     1      -4.112   6.963  15.102  1.00  0.00    -0.026 A 
HETATM   18  C25 UNL     1      -3.515   5.937  16.047  1.00  0.00     0.021 A 
HETATM   19  C26 UNL     1      -2.661   6.475  14.921  1.00  0.00    -0.027 A 
HETATM   20  C27 UNL     1      -1.446   7.242  15.468  1.00  0.00     0.011 C 
HETATM   21  C28 UNL     1      -0.565   7.912  14.407  1.00  0.00     0.011 C 
HETATM   22  C29 UNL     1      -0.182   6.925  13.293  1.00  0.00    -0.032 C 
HETATM   23  C30 UNL     1       0.725   5.812  13.902  1.00  0.00     0.016 C 
ENDROOT
BRANCH   1  24
HETATM   24  C7  UNL     1       2.044   7.869  12.077  1.00  0.00    -0.007 C 
HETATM   25  C8  UNL     1       2.356   9.038  13.016  1.00  0.00     0.011 C 
BRANCH  24  26
HETATM   26  C6  UNL     1       2.632   8.160  10.674  1.00  0.00     0.087 C 
BRANCH  26  27
HETATM   27  C5  UNL     1       3.263   6.957   9.992  1.00  0.00     0.149 C 
HETATM   28  O1  UNL     1       3.922   6.121  10.609  1.00  0.00    -0.293 OA
BRANCH  27  29
HETATM   29  C4  UNL     1       2.987   6.719   8.552  1.00  0.00     0.052 C 
HETATM   30  C2  UNL     1       2.049   7.341   7.818  1.00  0.00    -0.084 C 
HETATM   31  C1  UNL     1       1.880   6.999   6.363  1.00  0.00     0.043 C 
HETATM   32  C3  UNL     1       1.134   8.425   8.314  1.00  0.00     0.043 C 
ENDBRANCH  27  29
ENDBRANCH  26  27
ENDBRANCH  24  26
ENDBRANCH   1  24
TORSDOF 4
ENDMDL
MODEL 4
REMARK minimizedAffinity -8.53364277
REMARK  4 active torsions:
REMARK  status: ('A' for Active; 'I' for Inactive)
REMARK    1  A    between atoms: C4_4  and  C5_5 
REMARK    2  A    between atoms: C5_5  and  C6_7 
REMARK    3  A    between atoms: C6_7  and  C7_8 
REMARK    4  A    between atoms: C7_8  and  C9_10 
ROOT
HETATM    1  C9  UNL     1      -5.399   6.065  14.548  1.00  0.00    -0.002 C 
HETATM    2  C10 UNL     1      -4.276   5.350  13.737  1.00  0.00     0.006 C 
HETATM    3  C11 UNL     1      -3.105   6.341  13.587  1.00  0.00     0.011 C 
HETATM    4  C12 UNL     1      -3.430   7.480  14.564  1.00  0.00    -0.032 C 
HETATM    5  C13 UNL     1      -2.965   6.997  15.983  1.00  0.00     0.016 C 
HETATM    6  C14 UNL     1      -2.767   8.868  14.261  1.00  0.00     0.004 C 
HETATM    7  C15 UNL     1      -1.223   8.771  14.169  1.00  0.00     0.007 C 
HETATM    8  C16 UNL     1      -0.382   9.706  15.036  1.00  0.00     0.007 C 
HETATM    9  C17 UNL     1      -0.978   9.916  16.434  1.00  0.00     0.010 C 
HETATM   10  C18 UNL     1      -0.101  10.805  17.376  1.00  0.00     0.018 C 
HETATM   11  C19 UNL     1       0.077  12.244  16.864  1.00  0.00     0.023 C 
HETATM   12  C20 UNL     1       1.290  10.172  17.585  1.00  0.00     0.023 C 
HETATM   13  C21 UNL     1      -0.773  10.888  18.755  1.00  0.00     0.135 C 
HETATM   14  O2  UNL     1      -0.201  11.373  19.733  1.00  0.00    -0.297 OA
HETATM   15  C22 UNL     1      -2.161  10.315  18.895  1.00  0.00     0.080 C 
HETATM   16  C23 UNL     1      -3.029  10.763  17.731  1.00  0.00     0.018 C 
HETATM   17  C24 UNL     1      -2.423  10.435  16.370  1.00  0.00    -0.026 A 
HETATM   18  C25 UNL     1      -2.801  11.334  15.208  1.00  0.00     0.021 A 
HETATM   19  C26 UNL     1      -3.340   9.922  15.241  1.00  0.00    -0.027 A 
HETATM   20  C27 UNL     1      -4.874   9.920  15.346  1.00  0.00     0.011 C 
HETATM   21  C28 UNL     1      -5.517   8.533  15.485  1.00  0.00     0.011 C 
HETATM   22  C29 UNL     1      -5.001   7.567  14.407  1.00  0.00    -0.032 C 
HETATM   23  C30 UNL     1      -5.477   8.076  13.012  1.00  0.00     0.016 C 
ENDROOT
BRANCH   1  24
HETATM   24  C7  UNL     1      -6.818   5.579  14.137  1.00  0.00    -0.007 C 
HETATM   25  C8  UNL     1      -7.938   6.290  14.903  1.00  0.00     0.011 C 
BRANCH  24  26
HETATM   26  C6  UNL     1      -6.991   4.046  14.272  1.00  0.00     0.087 C 
BRANCH  26  27
HETATM   27  C5  UNL     1      -7.299   3.329  12.967  1.00  0.00     0.149 C 
HETATM   28  O1  UNL     1      -8.229   2.530  12.859  1.00  0.00    -0.293 OA
BRANCH  27  29
HETATM   29  C4  UNL     1      -6.524   3.683  11.750  1.00  0.00     0.052 C 
HETATM   30  C2  UNL     1      -5.696   2.864  11.080  1.00  0.00    -0.084 C 
HETATM   31  C1  UNL     1      -4.973   3.359   9.857  1.00  0.00     0.043 C 
HETATM   32  C3  UNL     1      -5.435   1.424  11.419  1.00  0.00     0.043 C 
ENDBRANCH  27  29
ENDBRANCH  26  27
ENDBRANCH  24  26
ENDBRANCH   1  24
TORSDOF 4
ENDMDL
MODEL 5
REMARK minimizedAffinity -8.48254299
REMARK  4 active torsions:
REMARK  status: ('A' for Active; 'I' for Inactive)
REMARK    1  A    between atoms: C4_4  and  C5_5 
REMARK    2  A    between atoms: C5_5  and  C6_7 
REMARK    3  A    between atoms: C6_7  and  C7_8 
REMARK    4  A    between atoms: C7_8  and  C9_10 
ROOT
HETATM    1  C9  UNL     1      -1.719   6.588  13.610  1.00  0.00    -0.002 C 
HETATM    2  C10 UNL     1      -1.724   5.795  12.268  1.00  0.00     0.006 C 
HETATM    3  C11 UNL     1      -0.500   6.254  11.449  1.00  0.00     0.011 C 
HETATM    4  C12 UNL     1       0.355   7.056  12.442  1.00  0.00    -0.032 C 
HETATM    5  C13 UNL     1       1.179   6.009  13.269  1.00  0.00     0.016 C 
HETATM    6  C14 UNL     1       1.344   8.102  11.821  1.00  0.00     0.004 C 
HETATM    7  C15 UNL     1       2.314   7.455  10.801  1.00  0.00     0.007 C 
HETATM    8  C16 UNL     1       3.815   7.670  10.987  1.00  0.00     0.007 C 
HETATM    9  C17 UNL     1       4.241   7.635  12.460  1.00  0.00     0.010 C 
HETATM   10  C18 UNL     1       5.783   7.772  12.683  1.00  0.00     0.018 C 
HETATM   11  C19 UNL     1       6.354   9.114  12.196  1.00  0.00     0.023 C 
HETATM   12  C20 UNL     1       6.540   6.623  11.985  1.00  0.00     0.023 C 
HETATM   13  C21 UNL     1       6.084   7.664  14.186  1.00  0.00     0.135 C 
HETATM   14  O2  UNL     1       7.233   7.554  14.617  1.00  0.00    -0.297 OA
HETATM   15  C22 UNL     1       4.913   7.654  15.137  1.00  0.00     0.080 C 
HETATM   16  C23 UNL     1       3.926   8.744  14.758  1.00  0.00     0.018 C 
HETATM   17  C24 UNL     1       3.467   8.660  13.305  1.00  0.00    -0.026 A 
HETATM   18  C25 UNL     1       3.043   9.954  12.635  1.00  0.00     0.021 A 
HETATM   19  C26 UNL     1       1.986   8.925  12.966  1.00  0.00    -0.027 A 
HETATM   20  C27 UNL     1       0.980   9.477  13.989  1.00  0.00     0.011 C 
HETATM   21  C28 UNL     1      -0.081   8.477  14.468  1.00  0.00     0.011 C 
HETATM   22  C29 UNL     1      -0.771   7.783  13.282  1.00  0.00    -0.032 C 
HETATM   23  C30 UNL     1      -1.578   8.851  12.481  1.00  0.00     0.016 C 
ENDROOT
BRANCH   1  24
HETATM   24  C7  UNL     1      -3.156   6.841  14.146  1.00  0.00    -0.007 C 
HETATM   25  C8  UNL     1      -3.394   6.226  15.528  1.00  0.00     0.011 C 
BRANCH  24  26
HETATM   26  C6  UNL     1      -4.256   6.359  13.168  1.00  0.00     0.087 C 
BRANCH  26  27
HETATM   27  C5  UNL     1      -5.678   6.598  13.650  1.00  0.00     0.149 C 
HETATM   28  O1  UNL     1      -6.109   7.724  13.894  1.00  0.00    -0.293 OA
BRANCH  27  29
HETATM   29  C4  UNL     1      -6.615   5.449  13.726  1.00  0.00     0.052 C 
HETATM   30  C2  UNL     1      -6.393   4.219  13.230  1.00  0.00    -0.084 C 
HETATM   31  C1  UNL     1      -7.436   3.145  13.381  1.00  0.00     0.043 C 
HETATM   32  C3  UNL     1      -5.133   3.773  12.544  1.00  0.00     0.043 C 
ENDBRANCH  27  29
ENDBRANCH  26  27
ENDBRANCH  24  26
ENDBRANCH   1  24
TORSDOF 4
ENDMDL
MODEL 6
REMARK minimizedAffinity -8.43958282
REMARK  4 active torsions:
REMARK  status: ('A' for Active; 'I' for Inactive)
REMARK    1  A    between atoms: C4_4  and  C5_5 
REMARK    2  A    between atoms: C5_5  and  C6_7 
REMARK    3  A    between atoms: C6_7  and  C7_8 
REMARK    4  A    between atoms: C7_8  and  C9_10 
ROOT
HETATM    1  C9  UNL     1      -4.800   7.738  13.701  1.00  0.00    -0.002 C 
HETATM    2  C10 UNL     1      -4.549   8.985  14.602  1.00  0.00     0.006 C 
HETATM    3  C11 UNL     1      -3.040   9.044  14.908  1.00  0.00     0.011 C 
HETATM    4  C12 UNL     1      -2.405   8.035  13.940  1.00  0.00    -0.032 C 
HETATM    5  C13 UNL     1      -2.253   8.772  12.563  1.00  0.00     0.016 C 
HETATM    6  C14 UNL     1      -1.011   7.451  14.356  1.00  0.00     0.004 C 
HETATM    7  C15 UNL     1       0.037   8.564  14.608  1.00  0.00     0.007 C 
HETATM    8  C16 UNL     1       1.371   8.489  13.867  1.00  0.00     0.007 C 
HETATM    9  C17 UNL     1       1.219   7.999  12.421  1.00  0.00     0.010 C 
HETATM   10  C18 UNL     1       2.555   7.986  11.607  1.00  0.00     0.018 C 
HETATM   11  C19 UNL     1       3.610   7.026  12.182  1.00  0.00     0.023 C 
HETATM   12  C20 UNL     1       3.159   9.402  11.525  1.00  0.00     0.023 C 
HETATM   13  C21 UNL     1       2.260   7.535  10.168  1.00  0.00     0.135 C 
HETATM   14  O2  UNL     1       3.103   7.614   9.272  1.00  0.00    -0.297 OA
HETATM   15  C22 UNL     1       0.875   7.021   9.863  1.00  0.00     0.080 C 
HETATM   16  C23 UNL     1       0.431   6.049  10.943  1.00  0.00     0.018 C 
HETATM   17  C24 UNL     1       0.513   6.636  12.349  1.00  0.00    -0.026 A 
HETATM   18  C25 UNL     1       0.732   5.664  13.493  1.00  0.00     0.021 A 
HETATM   19  C26 UNL     1      -0.615   6.336  13.356  1.00  0.00    -0.027 A 
HETATM   20  C27 UNL     1      -1.722   5.304  13.089  1.00  0.00     0.011 C 
HETATM   21  C28 UNL     1      -3.117   5.892  12.838  1.00  0.00     0.011 C 
HETATM   22  C29 UNL     1      -3.505   6.899  13.932  1.00  0.00    -0.032 C 
HETATM   23  C30 UNL     1      -3.646   6.136  15.285  1.00  0.00     0.016 C 
ENDROOT
BRANCH   1  24
HETATM   24  C7  UNL     1      -6.203   7.113  13.943  1.00  0.00    -0.007 C 
HETATM   25  C8  UNL     1      -6.786   7.468  15.314  1.00  0.00     0.011 C 
BRANCH  24  26
HETATM   26  C6  UNL     1      -6.217   5.576  13.757  1.00  0.00     0.087 C 
BRANCH  26  27
HETATM   27  C5  UNL     1      -7.548   5.009  13.291  1.00  0.00     0.149 C 
HETATM   28  O1  UNL     1      -7.653   3.877  12.821  1.00  0.00    -0.293 OA
BRANCH  27  29
HETATM   29  C4  UNL     1      -8.785   5.802  13.510  1.00  0.00     0.052 C 
HETATM   30  C2  UNL     1      -9.550   6.346  12.548  1.00  0.00    -0.084 C 
HETATM   31  C1  UNL     1     -10.782   7.128  12.916  1.00  0.00     0.043 C 
HETATM   32  C3  UNL     1      -9.315   6.214  11.070  1.00  0.00     0.043 C 
ENDBRANCH  27  29
ENDBRANCH  26  27
ENDBRANCH  24  26
ENDBRANCH   1  24
TORSDOF 4
ENDMDL
MODEL 7
REMARK minimizedAffinity -8.38883495
REMARK  4 active torsions:
REMARK  status: ('A' for Active; 'I' for Inactive)
REMARK    1  A    between atoms: C4_4  and  C5_5 
REMARK    2  A    between atoms: C5_5  and  C6_7 
REMARK    3  A    between atoms: C6_7  and  C7_8 
REMARK    4  A    between atoms: C7_8  and  C9_10 
ROOT
HETATM    1  C9  UNL     1      -5.346   6.514  14.658  1.00  0.00    -0.002 C 
HETATM    2  C10 UNL     1      -5.948   7.548  13.659  1.00  0.00     0.006 C 
HETATM    3  C11 UNL     1      -4.775   8.316  13.018  1.00  0.00     0.011 C 
HETATM    4  C12 UNL     1      -3.524   7.515  13.410  1.00  0.00    -0.032 C 
HETATM    5  C13 UNL     1      -3.422   6.321  12.397  1.00  0.00     0.016 C 
HETATM    6  C14 UNL     1      -2.166   8.298  13.406  1.00  0.00     0.004 C 
HETATM    7  C15 UNL     1      -1.875   8.957  12.033  1.00  0.00     0.007 C 
HETATM    8  C16 UNL     1      -0.537   8.667  11.356  1.00  0.00     0.007 C 
HETATM    9  C17 UNL     1      -0.086   7.212  11.531  1.00  0.00     0.010 C 
HETATM   10  C18 UNL     1       1.242   6.859  10.783  1.00  0.00     0.018 C 
HETATM   11  C19 UNL     1       2.457   7.654  11.289  1.00  0.00     0.023 C 
HETATM   12  C20 UNL     1       1.091   7.088   9.266  1.00  0.00     0.023 C 
HETATM   13  C21 UNL     1       1.551   5.369  10.988  1.00  0.00     0.135 C 
HETATM   14  O2  UNL     1       2.438   4.792  10.355  1.00  0.00    -0.297 OA
HETATM   15  C22 UNL     1       0.702   4.604  11.971  1.00  0.00     0.080 C 
HETATM   16  C23 UNL     1       0.537   5.405  13.251  1.00  0.00     0.018 C 
HETATM   17  C24 UNL     1      -0.010   6.809  13.013  1.00  0.00    -0.026 A 
HETATM   18  C25 UNL     1       0.369   7.881  14.019  1.00  0.00     0.021 A 
HETATM   19  C26 UNL     1      -1.058   7.384  13.987  1.00  0.00    -0.027 A 
HETATM   20  C27 UNL     1      -1.434   6.700  15.311  1.00  0.00     0.011 C 
HETATM   21  C28 UNL     1      -2.834   6.073  15.349  1.00  0.00     0.011 C 
HETATM   22  C29 UNL     1      -3.905   7.070  14.879  1.00  0.00    -0.032 C 
HETATM   23  C30 UNL     1      -3.979   8.243  15.904  1.00  0.00     0.016 C 
ENDROOT
BRANCH   1  24
HETATM   24  C7  UNL     1      -6.288   6.252  15.867  1.00  0.00    -0.007 C 
HETATM   25  C8  UNL     1      -7.228   5.063  15.644  1.00  0.00     0.011 C 
BRANCH  24  26
HETATM   26  C6  UNL     1      -7.116   7.499  16.266  1.00  0.00     0.087 C 
BRANCH  26  27
HETATM   27  C5  UNL     1      -8.607   7.380  15.992  1.00  0.00     0.149 C 
HETATM   28  O1  UNL     1      -9.255   6.381  16.301  1.00  0.00    -0.293 OA
BRANCH  27  29
HETATM   29  C4  UNL     1      -9.332   8.550  15.433  1.00  0.00     0.052 C 
HETATM   30  C2  UNL     1     -10.302   8.503  14.504  1.00  0.00    -0.084 C 
HETATM   31  C1  UNL     1     -10.953   9.773  14.028  1.00  0.00     0.043 C 
HETATM   32  C3  UNL     1     -10.859   7.249  13.891  1.00  0.00     0.043 C 
ENDBRANCH  27  29
ENDBRANCH  26  27
ENDBRANCH  24  26
ENDBRANCH   1  24
TORSDOF 4
ENDMDL
MODEL 8
REMARK minimizedAffinity -8.37513733
REMARK  4 active torsions:
REMARK  status: ('A' for Active; 'I' for Inactive)
REMARK    1  A    between atoms: C4_4  and  C5_5 
REMARK    2  A    between atoms: C5_5  and  C6_7 
REMARK    3  A    between atoms: C6_7  and  C7_8 
REMARK    4  A    between atoms: C7_8  and  C9_10 
ROOT
HETATM    1  C9  UNL     1      -4.846   6.925  13.247  1.00  0.00    -0.002 C 
HETATM    2  C10 UNL     1      -5.203   8.426  13.472  1.00  0.00     0.006 C 
HETATM    3  C11 UNL     1      -3.999   9.094  14.165  1.00  0.00     0.011 C 
HETATM    4  C12 UNL     1      -2.862   8.068  14.047  1.00  0.00    -0.032 C 
HETATM    5  C13 UNL     1      -2.254   8.240  12.610  1.00  0.00     0.016 C 
HETATM    6  C14 UNL     1      -1.708   8.184  15.100  1.00  0.00     0.004 C 
HETATM    7  C15 UNL     1      -1.057   9.590  15.103  1.00  0.00     0.007 C 
HETATM    8  C16 UNL     1       0.459   9.690  14.944  1.00  0.00     0.007 C 
HETATM    9  C17 UNL     1       1.019   8.674  13.941  1.00  0.00     0.010 C 
HETATM   10  C18 UNL     1       2.558   8.801  13.694  1.00  0.00     0.018 C 
HETATM   11  C19 UNL     1       3.403   8.538  14.951  1.00  0.00     0.023 C 
HETATM   12  C20 UNL     1       2.909  10.196  13.139  1.00  0.00     0.023 C 
HETATM   13  C21 UNL     1       2.982   7.773  12.633  1.00  0.00     0.135 C 
HETATM   14  O2  UNL     1       4.103   7.785  12.121  1.00  0.00    -0.297 OA
HETATM   15  C22 UNL     1       1.960   6.753  12.197  1.00  0.00     0.080 C 
HETATM   16  C23 UNL     1       1.256   6.170  13.410  1.00  0.00     0.018 C 
HETATM   17  C24 UNL     1       0.635   7.232  14.312  1.00  0.00    -0.026 A 
HETATM   18  C25 UNL     1       0.494   6.894  15.785  1.00  0.00     0.021 A 
HETATM   19  C26 UNL     1      -0.753   6.976  14.933  1.00  0.00    -0.027 A 
HETATM   20  C27 UNL     1      -1.462   5.614  14.861  1.00  0.00     0.011 C 
HETATM   21  C28 UNL     1      -2.689   5.564  13.940  1.00  0.00     0.011 C 
HETATM   22  C29 UNL     1      -3.660   6.717  14.240  1.00  0.00    -0.032 C 
HETATM   23  C30 UNL     1      -4.244   6.518  15.673  1.00  0.00     0.016 C 
ENDROOT
BRANCH   1  24
HETATM   24  C7  UNL     1      -6.100   6.009  13.308  1.00  0.00    -0.007 C 
HETATM   25  C8  UNL     1      -7.112   6.452  14.369  1.00  0.00     0.011 C 
BRANCH  24  26
HETATM   26  C6  UNL     1      -5.745   4.516  13.522  1.00  0.00     0.087 C 
BRANCH  26  27
HETATM   27  C5  UNL     1      -5.606   3.711  12.239  1.00  0.00     0.149 C 
HETATM   28  O1  UNL     1      -6.506   2.987  11.816  1.00  0.00    -0.293 OA
BRANCH  27  29
HETATM   29  C4  UNL     1      -4.386   3.885  11.409  1.00  0.00     0.052 C 
HETATM   30  C2  UNL     1      -3.408   2.978  11.249  1.00  0.00    -0.084 C 
HETATM   31  C1  UNL     1      -2.225   3.290  10.373  1.00  0.00     0.043 C 
HETATM   32  C3  UNL     1      -3.392   1.601  11.852  1.00  0.00     0.043 C 
ENDBRANCH  27  29
ENDBRANCH  26  27
ENDBRANCH  24  26
ENDBRANCH   1  24
TORSDOF 4
ENDMDL
MODEL 9
REMARK minimizedAffinity -8.33865643
REMARK  4 active torsions:
REMARK  status: ('A' for Active; 'I' for Inactive)
REMARK    1  A    between atoms: C4_4  and  C5_5 
REMARK    2  A    between atoms: C5_5  and  C6_7 
REMARK    3  A    between atoms: C6_7  and  C7_8 
REMARK    4  A    between atoms: C7_8  and  C9_10 
ROOT
HETATM    1  C9  UNL     1       1.234   6.942  13.965  1.00  0.00    -0.002 C 
HETATM    2  C10 UNL     1       1.360   7.424  15.442  1.00  0.00     0.006 C 
HETATM    3  C11 UNL     1      -0.018   7.963  15.876  1.00  0.00     0.011 C 
HETATM    4  C12 UNL     1      -0.983   7.502  14.773  1.00  0.00    -0.032 C 
HETATM    5  C13 UNL     1      -1.354   6.013  15.099  1.00  0.00     0.016 C 
HETATM    6  C14 UNL     1      -2.304   8.329  14.614  1.00  0.00     0.004 C 
HETATM    7  C15 UNL     1      -3.115   8.395  15.933  1.00  0.00     0.007 C 
HETATM    8  C16 UNL     1      -4.583   7.971  15.906  1.00  0.00     0.007 C 
HETATM    9  C17 UNL     1      -4.834   6.757  15.002  1.00  0.00     0.010 C 
HETATM   10  C18 UNL     1      -6.312   6.247  15.013  1.00  0.00     0.018 C 
HETATM   11  C19 UNL     1      -7.319   7.280  14.481  1.00  0.00     0.023 C 
HETATM   12  C20 UNL     1      -6.734   5.824  16.435  1.00  0.00     0.023 C 
HETATM   13  C21 UNL     1      -6.419   5.001  14.121  1.00  0.00     0.135 C 
HETATM   14  O2  UNL     1      -7.429   4.295  14.100  1.00  0.00    -0.297 OA
HETATM   15  C22 UNL     1      -5.219   4.632  13.285  1.00  0.00     0.080 C 
HETATM   16  C23 UNL     1      -4.664   5.867  12.596  1.00  0.00     0.018 C 
HETATM   17  C24 UNL     1      -4.343   7.001  13.566  1.00  0.00    -0.026 A 
HETATM   18  C25 UNL     1      -4.413   8.417  13.024  1.00  0.00     0.021 A 
HETATM   19  C26 UNL     1      -3.060   7.830  13.357  1.00  0.00    -0.027 A 
HETATM   20  C27 UNL     1      -2.185   7.713  12.098  1.00  0.00     0.011 C 
HETATM   21  C28 UNL     1      -0.823   7.038  12.309  1.00  0.00     0.011 C 
HETATM   22  C29 UNL     1      -0.067   7.662  13.493  1.00  0.00    -0.032 C 
HETATM   23  C30 UNL     1       0.284   9.139  13.139  1.00  0.00     0.016 C 
ENDROOT
BRANCH   1  24
HETATM   24  C7  UNL     1       2.564   7.114  13.178  1.00  0.00    -0.007 C 
HETATM   25  C8  UNL     1       3.460   8.216  13.753  1.00  0.00     0.011 C 
BRANCH  24  26
HETATM   26  C6  UNL     1       2.340   7.366  11.666  1.00  0.00     0.087 C 
BRANCH  26  27
HETATM   27  C5  UNL     1       3.312   6.635  10.754  1.00  0.00     0.149 C 
HETATM   28  O1  UNL     1       4.438   6.304  11.123  1.00  0.00    -0.293 OA
BRANCH  27  29
HETATM   29  C4  UNL     1       2.853   6.206   9.408  1.00  0.00     0.052 C 
HETATM   30  C2  UNL     1       2.755   6.994   8.324  1.00  0.00    -0.084 C 
HETATM   31  C1  UNL     1       2.274   6.423   7.018  1.00  0.00     0.043 C 
HETATM   32  C3  UNL     1       3.134   8.447   8.267  1.00  0.00     0.043 C 
ENDBRANCH  27  29
ENDBRANCH  26  27
ENDBRANCH  24  26
ENDBRANCH   1  24
TORSDOF 4
ENDMDL
