MODEL 1
REMARK minimizedAffinity -8.61606979
REMARK  13 active torsions:
REMARK  status: ('A' for Active; 'I' for Inactive)
REMARK    1  A    between atoms: C4_4  and  C5_5 
REMARK    2  A    between atoms: C5_5  and  C6_6 
REMARK    3  A    between atoms: C6_6  and  C7_7 
REMARK    4  A    between atoms: C9_9  and  C10_10 
REMARK    5  A    between atoms: C11_11  and  C12_12 
REMARK    6  A    between atoms: C14_14  and  C15_15 
REMARK    7  A    between atoms: C18_18  and  C19_19 
REMARK    8  A    between atoms: C19_19  and  C20_20 
REMARK    9  A    between atoms: C20_20  and  C21_21 
REMARK   10  A    between atoms: C21_21  and  O1_22 
REMARK   11  A    between atoms: C23_24  and  C25_26 
REMARK   12  A    between atoms: C28_30  and  O3_32 
REMARK   13  A    between atoms: C30_33  and  O4_34 
ROOT
HETATM    1  C15 UNL     1      -2.693  48.371 -22.866  1.00  0.00     0.149 C 
HETATM    2  C16 UNL     1      -4.138  48.255 -22.382  1.00  0.00     0.054 C 
HETATM    3  C17 UNL     1      -5.035  48.841 -23.514  1.00  0.00     0.050 C 
HETATM    4  C18 UNL     1      -6.244  47.861 -23.791  1.00  0.00     0.032 C 
HETATM    5  C22 UNL     1      -7.038  47.643 -22.491  1.00  0.00    -0.066 C 
HETATM    6  C23 UNL     1      -7.508  46.447 -22.045  1.00  0.00    -0.021 C 
HETATM    7  C24 UNL     1      -8.212  46.224 -20.727  1.00  0.00     0.052 C 
HETATM    8  C26 UNL     1      -7.171  48.881 -21.614  1.00  0.00     0.038 C 
HETATM    9  C27 UNL     1      -6.867  50.222 -22.278  1.00  0.00     0.042 C 
HETATM   10  C28 UNL     1      -5.601  50.275 -23.170  1.00  0.00     0.067 C 
HETATM   11  C29 UNL     1      -4.580  51.247 -22.563  1.00  0.00     0.047 C 
HETATM   12  C30 UNL     1      -4.018  48.812 -24.680  1.00  0.00     0.270 C 
HETATM   13  O5  UNL     1      -2.741  49.070 -24.112  1.00  0.00    -0.351 OA
ENDROOT
BRANCH   4  14
HETATM   14  C19 UNL     1      -7.157  48.293 -24.970  1.00  0.00     0.012 C 
BRANCH  14  15
HETATM   15  C20 UNL     1      -8.655  48.268 -24.655  1.00  0.00     0.027 C 
BRANCH  15  16
HETATM   16  C21 UNL     1      -9.486  48.679 -25.864  1.00  0.00     0.164 C 
BRANCH  16  17
HETATM   17  O1  UNL     1      -9.670  50.088 -25.853  1.00  0.00    -0.401 OA
HETATM   18  H32 UNL     1      -8.798  50.498 -25.985  1.00  0.00     0.209 HD
ENDBRANCH  16  17
ENDBRANCH  15  16
ENDBRANCH  14  15
ENDBRANCH   4  14
BRANCH  10  19
HETATM   19  O3  UNL     1      -6.056  50.945 -24.364  1.00  0.00    -0.389 OA
HETATM   20  H44 UNL     1      -5.344  50.855 -25.035  1.00  0.00     0.210 HD
ENDBRANCH  10  19
BRANCH  12  21
HETATM   21  O4  UNL     1      -4.251  49.777 -25.683  1.00  0.00    -0.370 OA
HETATM   22  H46 UNL     1      -3.563  49.603 -26.353  1.00  0.00     0.212 HD
ENDBRANCH  12  21
BRANCH   1  23
HETATM   23  C14 UNL     1      -1.792  49.125 -21.935  1.00  0.00     0.011 C 
HETATM   24  C12 UNL     1      -1.091  50.253 -22.181  1.00  0.00    -0.063 C 
HETATM   25  C13 UNL     1      -1.054  50.947 -23.519  1.00  0.00     0.048 C 
BRANCH  24  26
HETATM   26  C11 UNL     1      -0.287  50.820 -21.095  1.00  0.00     0.006 C 
HETATM   27  C10 UNL     1      -0.600  51.895 -20.349  1.00  0.00     0.001 C 
BRANCH  27  28
HETATM   28  C9  UNL     1       0.262  52.383 -19.293  1.00  0.00     0.002 C 
HETATM   29  C7  UNL     1       0.475  51.812 -18.089  1.00  0.00    -0.084 C 
HETATM   30  C8  UNL     1      -0.187  50.552 -17.594  1.00  0.00     0.043 C 
BRANCH  29  31
HETATM   31  C6  UNL     1       1.425  52.475 -17.103  1.00  0.00     0.037 C 
BRANCH  31  32
HETATM   32  C5  UNL     1       1.081  52.230 -15.626  1.00  0.00     0.031 C 
BRANCH  32  33
HETATM   33  C4  UNL     1       2.058  51.331 -14.914  1.00  0.00    -0.024 C 
HETATM   34  C2  UNL     1       3.404  51.367 -14.959  1.00  0.00    -0.091 C 
HETATM   35  C1  UNL     1       4.226  50.404 -14.139  1.00  0.00     0.042 C 
HETATM   36  C3  UNL     1       4.224  52.314 -15.793  1.00  0.00     0.042 C 
ENDBRANCH  32  33
ENDBRANCH  31  32
ENDBRANCH  29  31
ENDBRANCH  27  28
ENDBRANCH  24  26
ENDBRANCH   1  23
BRANCH   6  37
HETATM   37  C25 UNL     1      -7.358  45.170 -22.817  1.00  0.00     0.265 C 
HETATM   38  O2  UNL     1      -8.257  44.706 -23.511  1.00  0.00    -0.302 OA
ENDBRANCH   6  37
TORSDOF 13
ENDMDL
MODEL 2
REMARK minimizedAffinity -8.50818539
REMARK  13 active torsions:
REMARK  status: ('A' for Active; 'I' for Inactive)
REMARK    1  A    between atoms: C4_4  and  C5_5 
REMARK    2  A    between atoms: C5_5  and  C6_6 
REMARK    3  A    between atoms: C6_6  and  C7_7 
REMARK    4  A    between atoms: C9_9  and  C10_10 
REMARK    5  A    between atoms: C11_11  and  C12_12 
REMARK    6  A    between atoms: C14_14  and  C15_15 
REMARK    7  A    between atoms: C18_18  and  C19_19 
REMARK    8  A    between atoms: C19_19  and  C20_20 
REMARK    9  A    between atoms: C20_20  and  C21_21 
REMARK   10  A    between atoms: C21_21  and  O1_22 
REMARK   11  A    between atoms: C23_24  and  C25_26 
REMARK   12  A    between atoms: C28_30  and  O3_32 
REMARK   13  A    between atoms: C30_33  and  O4_34 
ROOT
HETATM    1  C15 UNL     1      -3.260  48.464 -25.008  1.00  0.00     0.149 C 
HETATM    2  C16 UNL     1      -2.734  49.893 -25.144  1.00  0.00     0.054 C 
HETATM    3  C17 UNL     1      -2.361  50.369 -23.707  1.00  0.00     0.050 C 
HETATM    4  C18 UNL     1      -0.936  51.050 -23.730  1.00  0.00     0.032 C 
HETATM    5  C22 UNL     1      -0.939  52.218 -24.732  1.00  0.00    -0.066 C 
HETATM    6  C23 UNL     1       0.049  52.493 -25.627  1.00  0.00    -0.021 C 
HETATM    7  C24 UNL     1       0.003  53.587 -26.666  1.00  0.00     0.052 C 
HETATM    8  C26 UNL     1      -2.233  53.021 -24.766  1.00  0.00     0.038 C 
HETATM    9  C27 UNL     1      -3.177  52.840 -23.580  1.00  0.00     0.042 C 
HETATM   10  C28 UNL     1      -3.410  51.384 -23.104  1.00  0.00     0.067 C 
HETATM   11  C29 UNL     1      -4.881  50.999 -23.313  1.00  0.00     0.047 C 
HETATM   12  C30 UNL     1      -2.310  48.996 -22.994  1.00  0.00     0.270 C 
HETATM   13  O5  UNL     1      -3.301  48.182 -23.607  1.00  0.00    -0.351 OA
ENDROOT
BRANCH   4  14
HETATM   14  C19 UNL     1      -0.413  51.479 -22.333  1.00  0.00     0.012 C 
BRANCH  14  15
HETATM   15  C20 UNL     1       0.422  52.763 -22.334  1.00  0.00     0.027 C 
BRANCH  15  16
HETATM   16  C21 UNL     1       0.712  53.241 -20.916  1.00  0.00     0.164 C 
BRANCH  16  17
HETATM   17  O1  UNL     1       1.507  54.419 -20.969  1.00  0.00    -0.401 OA
HETATM   18  H32 UNL     1       0.966  55.118 -21.375  1.00  0.00     0.209 HD
ENDBRANCH  16  17
ENDBRANCH  15  16
ENDBRANCH  14  15
ENDBRANCH   4  14
BRANCH  10  19
HETATM   19  O3  UNL     1      -3.272  51.471 -21.670  1.00  0.00    -0.389 OA
HETATM   20  H44 UNL     1      -3.238  50.550 -21.327  1.00  0.00     0.210 HD
ENDBRANCH  10  19
BRANCH  12  21
HETATM   21  O4  UNL     1      -2.582  49.045 -21.611  1.00  0.00    -0.370 OA
HETATM   22  H46 UNL     1      -2.471  48.124 -21.308  1.00  0.00     0.212 HD
ENDBRANCH  12  21
BRANCH   1  23
HETATM   23  C14 UNL     1      -4.633  48.259 -25.572  1.00  0.00     0.011 C 
HETATM   24  C12 UNL     1      -4.997  48.148 -26.868  1.00  0.00    -0.063 C 
HETATM   25  C13 UNL     1      -4.038  48.271 -28.026  1.00  0.00     0.048 C 
BRANCH  24  26
HETATM   26  C11 UNL     1      -6.414  47.929 -27.175  1.00  0.00     0.006 C 
HETATM   27  C10 UNL     1      -6.949  47.769 -28.398  1.00  0.00     0.001 C 
BRANCH  27  28
HETATM   28  C9  UNL     1      -8.367  47.556 -28.602  1.00  0.00     0.002 C 
HETATM   29  C7  UNL     1      -9.161  48.178 -29.499  1.00  0.00    -0.084 C 
HETATM   30  C8  UNL     1      -8.720  49.259 -30.450  1.00  0.00     0.043 C 
BRANCH  29  31
HETATM   31  C6  UNL     1     -10.638  47.817 -29.568  1.00  0.00     0.037 C 
BRANCH  31  32
HETATM   32  C5  UNL     1     -11.337  47.739 -28.202  1.00  0.00     0.031 C 
BRANCH  32  33
HETATM   33  C4  UNL     1     -12.732  47.173 -28.264  1.00  0.00    -0.024 C 
HETATM   34  C2  UNL     1     -13.118  45.963 -28.713  1.00  0.00    -0.091 C 
HETATM   35  C1  UNL     1     -14.568  45.550 -28.659  1.00  0.00     0.042 C 
HETATM   36  C3  UNL     1     -12.208  44.921 -29.306  1.00  0.00     0.042 C 
ENDBRANCH  32  33
ENDBRANCH  31  32
ENDBRANCH  29  31
ENDBRANCH  27  28
ENDBRANCH  24  26
ENDBRANCH   1  23
BRANCH   6  37
HETATM   37  C25 UNL     1       1.324  51.707 -25.703  1.00  0.00     0.265 C 
HETATM   38  O2  UNL     1       2.340  52.142 -26.237  1.00  0.00    -0.302 OA
ENDBRANCH   6  37
TORSDOF 13
ENDMDL
MODEL 3
REMARK minimizedAffinity -8.44749641
REMARK  13 active torsions:
REMARK  status: ('A' for Active; 'I' for Inactive)
REMARK    1  A    between atoms: C4_4  and  C5_5 
REMARK    2  A    between atoms: C5_5  and  C6_6 
REMARK    3  A    between atoms: C6_6  and  C7_7 
REMARK    4  A    between atoms: C9_9  and  C10_10 
REMARK    5  A    between atoms: C11_11  and  C12_12 
REMARK    6  A    between atoms: C14_14  and  C15_15 
REMARK    7  A    between atoms: C18_18  and  C19_19 
REMARK    8  A    between atoms: C19_19  and  C20_20 
REMARK    9  A    between atoms: C20_20  and  C21_21 
REMARK   10  A    between atoms: C21_21  and  O1_22 
REMARK   11  A    between atoms: C23_24  and  C25_26 
REMARK   12  A    between atoms: C28_30  and  O3_32 
REMARK   13  A    between atoms: C30_33  and  O4_34 
ROOT
HETATM    1  C15 UNL     1      -3.021  48.490 -24.751  1.00  0.00     0.149 C 
HETATM    2  C16 UNL     1      -2.543  49.934 -24.907  1.00  0.00     0.054 C 
HETATM    3  C17 UNL     1      -2.223  50.454 -23.473  1.00  0.00     0.050 C 
HETATM    4  C18 UNL     1      -0.822  51.186 -23.477  1.00  0.00     0.032 C 
HETATM    5  C22 UNL     1      -0.843  52.330 -24.506  1.00  0.00    -0.066 C 
HETATM    6  C23 UNL     1       0.156  52.621 -25.383  1.00  0.00    -0.021 C 
HETATM    7  C24 UNL     1       0.097  53.691 -26.448  1.00  0.00     0.052 C 
HETATM    8  C26 UNL     1      -2.163  53.086 -24.588  1.00  0.00     0.038 C 
HETATM    9  C27 UNL     1      -3.129  52.896 -23.421  1.00  0.00     0.042 C 
HETATM   10  C28 UNL     1      -3.321  51.444 -22.917  1.00  0.00     0.067 C 
HETATM   11  C29 UNL     1      -4.772  51.001 -23.153  1.00  0.00     0.047 C 
HETATM   12  C30 UNL     1      -2.140  49.100 -22.728  1.00  0.00     0.270 C 
HETATM   13  O5  UNL     1      -3.086  48.237 -23.346  1.00  0.00    -0.351 OA
ENDROOT
BRANCH   4  14
HETATM   14  C19 UNL     1      -0.348  51.664 -22.079  1.00  0.00     0.012 C 
BRANCH  14  15
HETATM   15  C20 UNL     1       0.908  52.539 -22.098  1.00  0.00     0.027 C 
BRANCH  15  16
HETATM   16  C21 UNL     1       1.104  53.263 -20.772  1.00  0.00     0.164 C 
BRANCH  16  17
HETATM   17  O1  UNL     1       1.681  54.540 -21.013  1.00  0.00    -0.401 OA
HETATM   18  H32 UNL     1       1.029  55.068 -21.504  1.00  0.00     0.209 HD
ENDBRANCH  16  17
ENDBRANCH  15  16
ENDBRANCH  14  15
ENDBRANCH   4  14
BRANCH  10  19
HETATM   19  O3  UNL     1      -3.221  51.567 -21.483  1.00  0.00    -0.389 OA
HETATM   20  H44 UNL     1      -3.162  50.655 -21.119  1.00  0.00     0.210 HD
ENDBRANCH  10  19
BRANCH  12  21
HETATM   21  O4  UNL     1      -2.447  49.169 -21.354  1.00  0.00    -0.370 OA
HETATM   22  H46 UNL     1      -2.310  48.259 -21.027  1.00  0.00     0.212 HD
ENDBRANCH  12  21
BRANCH   1  23
HETATM   23  C14 UNL     1      -4.372  48.224 -25.342  1.00  0.00     0.011 C 
HETATM   24  C12 UNL     1      -4.715  48.152 -26.647  1.00  0.00    -0.063 C 
HETATM   25  C13 UNL     1      -3.755  48.394 -27.785  1.00  0.00     0.048 C 
BRANCH  24  26
HETATM   26  C11 UNL     1      -6.111  47.856 -26.982  1.00  0.00     0.006 C 
HETATM   27  C10 UNL     1      -6.596  47.581 -28.207  1.00  0.00     0.001 C 
BRANCH  27  28
HETATM   28  C9  UNL     1      -7.997  47.300 -28.440  1.00  0.00     0.002 C 
HETATM   29  C7  UNL     1      -8.530  46.144 -28.888  1.00  0.00    -0.084 C 
HETATM   30  C8  UNL     1      -7.747  44.916 -29.274  1.00  0.00     0.043 C 
BRANCH  29  31
HETATM   31  C6  UNL     1     -10.037  46.035 -29.069  1.00  0.00     0.037 C 
BRANCH  31  32
HETATM   32  C5  UNL     1     -10.622  46.994 -30.117  1.00  0.00     0.031 C 
BRANCH  32  33
HETATM   33  C4  UNL     1      -9.948  46.911 -31.462  1.00  0.00    -0.024 C 
HETATM   34  C2  UNL     1      -9.066  47.773 -32.004  1.00  0.00    -0.091 C 
HETATM   35  C1  UNL     1      -8.459  47.502 -33.358  1.00  0.00     0.042 C 
HETATM   36  C3  UNL     1      -8.600  49.056 -31.371  1.00  0.00     0.042 C 
ENDBRANCH  32  33
ENDBRANCH  31  32
ENDBRANCH  29  31
ENDBRANCH  27  28
ENDBRANCH  24  26
ENDBRANCH   1  23
BRANCH   6  37
HETATM   37  C25 UNL     1       1.460  51.881 -25.412  1.00  0.00     0.265 C 
HETATM   38  O2  UNL     1       2.323  52.092 -26.258  1.00  0.00    -0.302 OA
ENDBRANCH   6  37
TORSDOF 13
ENDMDL
MODEL 4
REMARK minimizedAffinity -8.06166363
REMARK  13 active torsions:
REMARK  status: ('A' for Active; 'I' for Inactive)
REMARK    1  A    between atoms: C4_4  and  C5_5 
REMARK    2  A    between atoms: C5_5  and  C6_6 
REMARK    3  A    between atoms: C6_6  and  C7_7 
REMARK    4  A    between atoms: C9_9  and  C10_10 
REMARK    5  A    between atoms: C11_11  and  C12_12 
REMARK    6  A    between atoms: C14_14  and  C15_15 
REMARK    7  A    between atoms: C18_18  and  C19_19 
REMARK    8  A    between atoms: C19_19  and  C20_20 
REMARK    9  A    between atoms: C20_20  and  C21_21 
REMARK   10  A    between atoms: C21_21  and  O1_22 
REMARK   11  A    between atoms: C23_24  and  C25_26 
REMARK   12  A    between atoms: C28_30  and  O3_32 
REMARK   13  A    between atoms: C30_33  and  O4_34 
ROOT
HETATM    1  C15 UNL     1      -8.934  46.865 -29.401  1.00  0.00     0.149 C 
HETATM    2  C16 UNL     1      -9.741  46.142 -28.322  1.00  0.00     0.054 C 
HETATM    3  C17 UNL     1     -11.125  46.856 -28.248  1.00  0.00     0.050 C 
HETATM    4  C18 UNL     1     -12.277  45.775 -28.234  1.00  0.00     0.032 C 
HETATM    5  C22 UNL     1     -12.068  44.815 -27.049  1.00  0.00    -0.066 C 
HETATM    6  C23 UNL     1     -12.200  43.462 -27.096  1.00  0.00    -0.021 C 
HETATM    7  C24 UNL     1     -11.911  42.517 -25.954  1.00  0.00     0.052 C 
HETATM    8  C26 UNL     1     -11.550  45.479 -25.779  1.00  0.00     0.038 C 
HETATM    9  C27 UNL     1     -11.676  46.998 -25.705  1.00  0.00     0.042 C 
HETATM   10  C28 UNL     1     -11.271  47.784 -26.977  1.00  0.00     0.067 C 
HETATM   11  C29 UNL     1     -10.053  48.667 -26.676  1.00  0.00     0.047 C 
HETATM   12  C30 UNL     1     -11.089  47.612 -29.597  1.00  0.00     0.270 C 
HETATM   13  O5  UNL     1      -9.733  47.971 -29.828  1.00  0.00    -0.351 OA
ENDROOT
BRANCH   4  14
HETATM   14  C19 UNL     1     -13.710  46.370 -28.259  1.00  0.00     0.012 C 
BRANCH  14  15
HETATM   15  C20 UNL     1     -14.734  45.598 -27.421  1.00  0.00     0.027 C 
BRANCH  15  16
HETATM   16  C21 UNL     1     -15.722  44.844 -28.303  1.00  0.00     0.164 C 
BRANCH  16  17
HETATM   17  O1  UNL     1     -17.037  45.020 -27.794  1.00  0.00    -0.401 OA
HETATM   18  H32 UNL     1     -17.265  45.960 -27.890  1.00  0.00     0.209 HD
ENDBRANCH  16  17
ENDBRANCH  15  16
ENDBRANCH  14  15
ENDBRANCH   4  14
BRANCH  10  19
HETATM   19  O3  UNL     1     -12.351  48.725 -27.153  1.00  0.00    -0.389 OA
HETATM   20  H44 UNL     1     -12.237  49.133 -28.040  1.00  0.00     0.210 HD
ENDBRANCH  10  19
BRANCH  12  21
HETATM   21  O4  UNL     1     -11.862  48.792 -29.627  1.00  0.00    -0.370 OA
HETATM   22  H46 UNL     1     -11.770  49.121 -30.541  1.00  0.00     0.212 HD
ENDBRANCH  12  21
BRANCH   1  23
HETATM   23  C14 UNL     1      -7.612  47.390 -28.930  1.00  0.00     0.011 C 
HETATM   24  C12 UNL     1      -6.443  47.435 -29.604  1.00  0.00    -0.063 C 
HETATM   25  C13 UNL     1      -6.251  46.887 -30.996  1.00  0.00     0.048 C 
BRANCH  24  26
HETATM   26  C11 UNL     1      -5.277  48.020 -28.933  1.00  0.00     0.006 C 
HETATM   27  C10 UNL     1      -5.062  48.068 -27.607  1.00  0.00     0.001 C 
BRANCH  27  28
HETATM   28  C9  UNL     1      -3.875  48.668 -27.036  1.00  0.00     0.002 C 
HETATM   29  C7  UNL     1      -3.628  48.898 -25.729  1.00  0.00    -0.084 C 
HETATM   30  C8  UNL     1      -4.579  48.602 -24.598  1.00  0.00     0.043 C 
BRANCH  29  31
HETATM   31  C6  UNL     1      -2.313  49.541 -25.317  1.00  0.00     0.037 C 
BRANCH  31  32
HETATM   32  C5  UNL     1      -1.578  50.269 -26.452  1.00  0.00     0.031 C 
BRANCH  32  33
HETATM   33  C4  UNL     1      -0.114  50.499 -26.181  1.00  0.00    -0.024 C 
HETATM   34  C2  UNL     1       0.761  51.225 -26.904  1.00  0.00    -0.091 C 
HETATM   35  C1  UNL     1       2.192  51.378 -26.452  1.00  0.00     0.042 C 
HETATM   36  C3  UNL     1       0.449  51.934 -28.194  1.00  0.00     0.042 C 
ENDBRANCH  32  33
ENDBRANCH  31  32
ENDBRANCH  29  31
ENDBRANCH  27  28
ENDBRANCH  24  26
ENDBRANCH   1  23
BRANCH   6  37
HETATM   37  C25 UNL     1     -12.640  42.726 -28.327  1.00  0.00     0.265 C 
HETATM   38  O2  UNL     1     -11.886  42.500 -29.269  1.00  0.00    -0.302 OA
ENDBRANCH   6  37
TORSDOF 13
ENDMDL
MODEL 5
REMARK minimizedAffinity -7.94854879
REMARK  13 active torsions:
REMARK  status: ('A' for Active; 'I' for Inactive)
REMARK    1  A    between atoms: C4_4  and  C5_5 
REMARK    2  A    between atoms: C5_5  and  C6_6 
REMARK    3  A    between atoms: C6_6  and  C7_7 
REMARK    4  A    between atoms: C9_9  and  C10_10 
REMARK    5  A    between atoms: C11_11  and  C12_12 
REMARK    6  A    between atoms: C14_14  and  C15_15 
REMARK    7  A    between atoms: C18_18  and  C19_19 
REMARK    8  A    between atoms: C19_19  and  C20_20 
REMARK    9  A    between atoms: C20_20  and  C21_21 
REMARK   10  A    between atoms: C21_21  and  O1_22 
REMARK   11  A    between atoms: C23_24  and  C25_26 
REMARK   12  A    between atoms: C28_30  and  O3_32 
REMARK   13  A    between atoms: C30_33  and  O4_34 
ROOT
HETATM    1  C15 UNL     1      -4.913  51.169 -20.577  1.00  0.00     0.149 C 
HETATM    2  C16 UNL     1      -3.684  50.436 -20.039  1.00  0.00     0.054 C 
HETATM    3  C17 UNL     1      -2.575  50.570 -21.126  1.00  0.00     0.050 C 
HETATM    4  C18 UNL     1      -1.215  50.996 -20.443  1.00  0.00     0.032 C 
HETATM    5  C22 UNL     1      -0.834  49.965 -19.366  1.00  0.00    -0.066 C 
HETATM    6  C23 UNL     1      -0.361  50.259 -18.124  1.00  0.00    -0.021 C 
HETATM    7  C24 UNL     1      -0.071  49.248 -17.041  1.00  0.00     0.052 C 
HETATM    8  C26 UNL     1      -1.151  48.520 -19.731  1.00  0.00     0.038 C 
HETATM    9  C27 UNL     1      -1.422  48.234 -21.205  1.00  0.00     0.042 C 
HETATM   10  C28 UNL     1      -2.348  49.235 -21.941  1.00  0.00     0.067 C 
HETATM   11  C29 UNL     1      -3.631  48.523 -22.388  1.00  0.00     0.047 C 
HETATM   12  C30 UNL     1      -3.171  51.735 -21.951  1.00  0.00     0.270 C 
HETATM   13  O5  UNL     1      -4.584  51.585 -21.905  1.00  0.00    -0.351 OA
ENDROOT
BRANCH   4  14
HETATM   14  C19 UNL     1      -0.055  51.255 -21.441  1.00  0.00     0.012 C 
BRANCH  14  15
HETATM   15  C20 UNL     1       0.293  52.733 -21.643  1.00  0.00     0.027 C 
BRANCH  15  16
HETATM   16  C21 UNL     1       1.592  53.102 -20.937  1.00  0.00     0.164 C 
BRANCH  16  17
HETATM   17  O1  UNL     1       1.357  54.196 -20.060  1.00  0.00    -0.401 OA
HETATM   18  H32 UNL     1       0.759  53.885 -19.359  1.00  0.00     0.209 HD
ENDBRANCH  16  17
ENDBRANCH  15  16
ENDBRANCH  14  15
ENDBRANCH   4  14
BRANCH  10  19
HETATM   19  O3  UNL     1      -1.647  49.502 -23.174  1.00  0.00    -0.389 OA
HETATM   20  H44 UNL     1      -2.100  50.261 -23.605  1.00  0.00     0.210 HD
ENDBRANCH  10  19
BRANCH  12  21
HETATM   21  O4  UNL     1      -2.780  51.752 -23.306  1.00  0.00    -0.370 OA
HETATM   22  H46 UNL     1      -3.198  52.555 -23.671  1.00  0.00     0.212 HD
ENDBRANCH  12  21
BRANCH   1  23
HETATM   23  C14 UNL     1      -6.151  50.327 -20.639  1.00  0.00     0.011 C 
HETATM   24  C12 UNL     1      -6.514  49.313 -19.824  1.00  0.00    -0.063 C 
HETATM   25  C13 UNL     1      -5.663  48.797 -18.691  1.00  0.00     0.048 C 
BRANCH  24  26
HETATM   26  C11 UNL     1      -7.796  48.647 -20.074  1.00  0.00     0.006 C 
HETATM   27  C10 UNL     1      -8.830  48.561 -19.218  1.00  0.00     0.001 C 
BRANCH  27  28
HETATM   28  C9  UNL     1     -10.061  47.879 -19.557  1.00  0.00     0.002 C 
HETATM   29  C7  UNL     1     -10.956  47.343 -18.701  1.00  0.00    -0.084 C 
HETATM   30  C8  UNL     1     -10.819  47.320 -17.201  1.00  0.00     0.043 C 
BRANCH  29  31
HETATM   31  C6  UNL     1     -12.203  46.664 -19.248  1.00  0.00     0.037 C 
BRANCH  31  32
HETATM   32  C5  UNL     1     -13.390  46.634 -18.274  1.00  0.00     0.031 C 
BRANCH  32  33
HETATM   33  C4  UNL     1     -14.002  47.986 -18.017  1.00  0.00    -0.024 C 
HETATM   34  C2  UNL     1     -15.265  48.385 -18.260  1.00  0.00    -0.091 C 
HETATM   35  C1  UNL     1     -15.714  49.779 -17.896  1.00  0.00     0.042 C 
HETATM   36  C3  UNL     1     -16.337  47.546 -18.900  1.00  0.00     0.042 C 
ENDBRANCH  32  33
ENDBRANCH  31  32
ENDBRANCH  29  31
ENDBRANCH  27  28
ENDBRANCH  24  26
ENDBRANCH   1  23
BRANCH   6  37
HETATM   37  C25 UNL     1      -0.087  51.660 -17.664  1.00  0.00     0.265 C 
HETATM   38  O2  UNL     1       1.018  52.185 -17.762  1.00  0.00    -0.302 OA
ENDBRANCH   6  37
TORSDOF 13
ENDMDL
MODEL 6
REMARK minimizedAffinity -7.92342186
REMARK  13 active torsions:
REMARK  status: ('A' for Active; 'I' for Inactive)
REMARK    1  A    between atoms: C4_4  and  C5_5 
REMARK    2  A    between atoms: C5_5  and  C6_6 
REMARK    3  A    between atoms: C6_6  and  C7_7 
REMARK    4  A    between atoms: C9_9  and  C10_10 
REMARK    5  A    between atoms: C11_11  and  C12_12 
REMARK    6  A    between atoms: C14_14  and  C15_15 
REMARK    7  A    between atoms: C18_18  and  C19_19 
REMARK    8  A    between atoms: C19_19  and  C20_20 
REMARK    9  A    between atoms: C20_20  and  C21_21 
REMARK   10  A    between atoms: C21_21  and  O1_22 
REMARK   11  A    between atoms: C23_24  and  C25_26 
REMARK   12  A    between atoms: C28_30  and  O3_32 
REMARK   13  A    between atoms: C30_33  and  O4_34 
ROOT
HETATM    1  C15 UNL     1      -3.224  48.436 -24.960  1.00  0.00     0.149 C 
HETATM    2  C16 UNL     1      -2.495  49.608 -25.617  1.00  0.00     0.054 C 
HETATM    3  C17 UNL     1      -2.189  50.633 -24.484  1.00  0.00     0.050 C 
HETATM    4  C18 UNL     1      -0.686  51.109 -24.594  1.00  0.00     0.032 C 
HETATM    5  C22 UNL     1      -0.438  51.711 -25.988  1.00  0.00    -0.066 C 
HETATM    6  C23 UNL     1       0.654  51.478 -26.766  1.00  0.00    -0.021 C 
HETATM    7  C24 UNL     1       0.854  52.003 -28.168  1.00  0.00     0.052 C 
HETATM    8  C26 UNL     1      -1.599  52.526 -26.543  1.00  0.00     0.038 C 
HETATM    9  C27 UNL     1      -2.661  52.968 -25.540  1.00  0.00     0.042 C 
HETATM   10  C28 UNL     1      -3.136  51.897 -24.526  1.00  0.00     0.067 C 
HETATM   11  C29 UNL     1      -4.621  51.587 -24.756  1.00  0.00     0.047 C 
HETATM   12  C30 UNL     1      -2.393  49.716 -23.254  1.00  0.00     0.270 C 
HETATM   13  O5  UNL     1      -3.428  48.803 -23.594  1.00  0.00    -0.351 OA
ENDROOT
BRANCH   4  14
HETATM   14  C19 UNL     1      -0.235  52.063 -23.456  1.00  0.00     0.012 C 
BRANCH  14  15
HETATM   15  C20 UNL     1       1.027  52.873 -23.768  1.00  0.00     0.027 C 
BRANCH  15  16
HETATM   16  C21 UNL     1       0.687  54.302 -24.171  1.00  0.00     0.164 C 
BRANCH  16  17
HETATM   17  O1  UNL     1       1.657  55.188 -23.629  1.00  0.00    -0.401 OA
HETATM   18  H32 UNL     1       2.506  54.991 -24.059  1.00  0.00     0.209 HD
ENDBRANCH  16  17
ENDBRANCH  15  16
ENDBRANCH  14  15
ENDBRANCH   4  14
BRANCH  10  19
HETATM   19  O3  UNL     1      -3.115  52.594 -23.262  1.00  0.00    -0.389 OA
HETATM   20  H44 UNL     1      -3.240  51.919 -22.558  1.00  0.00     0.210 HD
ENDBRANCH  10  19
BRANCH  12  21
HETATM   21  O4  UNL     1      -2.777  50.392 -22.078  1.00  0.00    -0.370 OA
HETATM   22  H46 UNL     1      -2.822  49.693 -21.398  1.00  0.00     0.212 HD
ENDBRANCH  12  21
BRANCH   1  23
HETATM   23  C14 UNL     1      -4.557  48.122 -25.570  1.00  0.00     0.011 C 
HETATM   24  C12 UNL     1      -4.896  48.108 -26.877  1.00  0.00    -0.063 C 
HETATM   25  C13 UNL     1      -3.953  48.475 -27.996  1.00  0.00     0.048 C 
BRANCH  24  26
HETATM   26  C11 UNL     1      -6.271  47.748 -27.234  1.00  0.00     0.006 C 
HETATM   27  C10 UNL     1      -7.153  47.099 -26.453  1.00  0.00     0.001 C 
BRANCH  27  28
HETATM   28  C9  UNL     1      -8.496  46.786 -26.894  1.00  0.00     0.002 C 
HETATM   29  C7  UNL     1      -9.585  47.580 -26.811  1.00  0.00    -0.084 C 
HETATM   30  C8  UNL     1      -9.615  48.954 -26.195  1.00  0.00     0.043 C 
BRANCH  29  31
HETATM   31  C6  UNL     1     -10.921  47.076 -27.335  1.00  0.00     0.037 C 
BRANCH  31  32
HETATM   32  C5  UNL     1     -12.095  48.040 -27.114  1.00  0.00     0.031 C 
BRANCH  32  33
HETATM   33  C4  UNL     1     -13.421  47.352 -26.921  1.00  0.00    -0.024 C 
HETATM   34  C2  UNL     1     -13.920  46.810 -25.792  1.00  0.00    -0.091 C 
HETATM   35  C1  UNL     1     -15.296  46.194 -25.778  1.00  0.00     0.042 C 
HETATM   36  C3  UNL     1     -13.206  46.742 -24.469  1.00  0.00     0.042 C 
ENDBRANCH  32  33
ENDBRANCH  31  32
ENDBRANCH  29  31
ENDBRANCH  27  28
ENDBRANCH  24  26
ENDBRANCH   1  23
BRANCH   6  37
HETATM   37  C25 UNL     1       1.810  50.632 -26.320  1.00  0.00     0.265 C 
HETATM   38  O2  UNL     1       2.973  51.019 -26.371  1.00  0.00    -0.302 OA
ENDBRANCH   6  37
TORSDOF 13
ENDMDL
MODEL 7
REMARK minimizedAffinity -7.85385323
REMARK  13 active torsions:
REMARK  status: ('A' for Active; 'I' for Inactive)
REMARK    1  A    between atoms: C4_4  and  C5_5 
REMARK    2  A    between atoms: C5_5  and  C6_6 
REMARK    3  A    between atoms: C6_6  and  C7_7 
REMARK    4  A    between atoms: C9_9  and  C10_10 
REMARK    5  A    between atoms: C11_11  and  C12_12 
REMARK    6  A    between atoms: C14_14  and  C15_15 
REMARK    7  A    between atoms: C18_18  and  C19_19 
REMARK    8  A    between atoms: C19_19  and  C20_20 
REMARK    9  A    between atoms: C20_20  and  C21_21 
REMARK   10  A    between atoms: C21_21  and  O1_22 
REMARK   11  A    between atoms: C23_24  and  C25_26 
REMARK   12  A    between atoms: C28_30  and  O3_32 
REMARK   13  A    between atoms: C30_33  and  O4_34 
ROOT
HETATM    1  C15 UNL     1      -4.769  51.329 -20.922  1.00  0.00     0.149 C 
HETATM    2  C16 UNL     1      -3.344  51.165 -20.393  1.00  0.00     0.054 C 
HETATM    3  C17 UNL     1      -2.452  50.814 -21.622  1.00  0.00     0.050 C 
HETATM    4  C18 UNL     1      -1.147  51.705 -21.599  1.00  0.00     0.032 C 
HETATM    5  C22 UNL     1      -0.399  51.487 -20.272  1.00  0.00    -0.066 C 
HETATM    6  C23 UNL     1       0.157  52.467 -19.509  1.00  0.00    -0.021 C 
HETATM    7  C24 UNL     1       0.815  52.258 -18.166  1.00  0.00     0.052 C 
HETATM    8  C26 UNL     1      -0.422  50.053 -19.758  1.00  0.00     0.038 C 
HETATM    9  C27 UNL     1      -0.816  48.976 -20.765  1.00  0.00     0.042 C 
HETATM   10  C28 UNL     1      -2.037  49.291 -21.666  1.00  0.00     0.067 C 
HETATM   11  C29 UNL     1      -3.171  48.301 -21.366  1.00  0.00     0.047 C 
HETATM   12  C30 UNL     1      -3.405  51.255 -22.758  1.00  0.00     0.270 C 
HETATM   13  O5  UNL     1      -4.727  50.986 -22.309  1.00  0.00    -0.351 OA
ENDROOT
BRANCH   4  14
HETATM   14  C19 UNL     1      -0.222  51.513 -22.830  1.00  0.00     0.012 C 
BRANCH  14  15
HETATM   15  C20 UNL     1       0.313  52.814 -23.433  1.00  0.00     0.027 C 
BRANCH  15  16
HETATM   16  C21 UNL     1      -0.105  52.969 -24.890  1.00  0.00     0.164 C 
BRANCH  16  17
HETATM   17  O1  UNL     1       0.458  54.162 -25.418  1.00  0.00    -0.401 OA
HETATM   18  H32 UNL     1       1.423  54.048 -25.435  1.00  0.00     0.209 HD
ENDBRANCH  16  17
ENDBRANCH  15  16
ENDBRANCH  14  15
ENDBRANCH   4  14
BRANCH  10  19
HETATM   19  O3  UNL     1      -1.589  48.920 -22.987  1.00  0.00    -0.389 OA
HETATM   20  H44 UNL     1      -2.257  49.258 -23.624  1.00  0.00     0.210 HD
ENDBRANCH  10  19
BRANCH  12  21
HETATM   21  O4  UNL     1      -3.214  50.574 -23.979  1.00  0.00    -0.370 OA
HETATM   22  H46 UNL     1      -3.851  50.989 -24.592  1.00  0.00     0.212 HD
ENDBRANCH  12  21
BRANCH   1  23
HETATM   23  C14 UNL     1      -5.779  50.450 -20.248  1.00  0.00     0.011 C 
HETATM   24  C12 UNL     1      -6.815  49.787 -20.806  1.00  0.00    -0.063 C 
HETATM   25  C13 UNL     1      -7.179  49.868 -22.267  1.00  0.00     0.048 C 
BRANCH  24  26
HETATM   26  C11 UNL     1      -7.662  48.965 -19.936  1.00  0.00     0.006 C 
HETATM   27  C10 UNL     1      -8.457  49.409 -18.947  1.00  0.00     0.001 C 
BRANCH  27  28
HETATM   28  C9  UNL     1      -9.260  48.516 -18.138  1.00  0.00     0.002 C 
HETATM   29  C7  UNL     1     -10.455  47.978 -18.463  1.00  0.00    -0.084 C 
HETATM   30  C8  UNL     1     -11.210  48.243 -19.739  1.00  0.00     0.043 C 
BRANCH  29  31
HETATM   31  C6  UNL     1     -11.152  47.052 -17.478  1.00  0.00     0.037 C 
BRANCH  31  32
HETATM   32  C5  UNL     1     -12.566  46.625 -17.898  1.00  0.00     0.031 C 
BRANCH  32  33
HETATM   33  C4  UNL     1     -13.628  47.649 -17.590  1.00  0.00    -0.024 C 
HETATM   34  C2  UNL     1     -14.635  48.066 -18.383  1.00  0.00    -0.091 C 
HETATM   35  C1  UNL     1     -15.636  49.078 -17.885  1.00  0.00     0.042 C 
HETATM   36  C3  UNL     1     -14.877  47.611 -19.797  1.00  0.00     0.042 C 
ENDBRANCH  32  33
ENDBRANCH  31  32
ENDBRANCH  29  31
ENDBRANCH  27  28
ENDBRANCH  24  26
ENDBRANCH   1  23
BRANCH   6  37
HETATM   37  C25 UNL     1       0.162  53.912 -19.911  1.00  0.00     0.265 C 
HETATM   38  O2  UNL     1       1.126  54.446 -20.452  1.00  0.00    -0.302 OA
ENDBRANCH   6  37
TORSDOF 13
ENDMDL
MODEL 8
REMARK minimizedAffinity -7.82726383
REMARK  13 active torsions:
REMARK  status: ('A' for Active; 'I' for Inactive)
REMARK    1  A    between atoms: C4_4  and  C5_5 
REMARK    2  A    between atoms: C5_5  and  C6_6 
REMARK    3  A    between atoms: C6_6  and  C7_7 
REMARK    4  A    between atoms: C9_9  and  C10_10 
REMARK    5  A    between atoms: C11_11  and  C12_12 
REMARK    6  A    between atoms: C14_14  and  C15_15 
REMARK    7  A    between atoms: C18_18  and  C19_19 
REMARK    8  A    between atoms: C19_19  and  C20_20 
REMARK    9  A    between atoms: C20_20  and  C21_21 
REMARK   10  A    between atoms: C21_21  and  O1_22 
REMARK   11  A    between atoms: C23_24  and  C25_26 
REMARK   12  A    between atoms: C28_30  and  O3_32 
REMARK   13  A    between atoms: C30_33  and  O4_34 
ROOT
HETATM    1  C15 UNL     1      -8.122  46.767 -28.301  1.00  0.00     0.149 C 
HETATM    2  C16 UNL     1      -9.179  46.147 -27.387  1.00  0.00     0.054 C 
HETATM    3  C17 UNL     1     -10.537  46.816 -27.759  1.00  0.00     0.050 C 
HETATM    4  C18 UNL     1     -11.650  45.704 -27.911  1.00  0.00     0.032 C 
HETATM    5  C22 UNL     1     -11.752  44.897 -26.605  1.00  0.00    -0.066 C 
HETATM    6  C23 UNL     1     -11.864  43.544 -26.520  1.00  0.00    -0.021 C 
HETATM    7  C24 UNL     1     -11.878  42.749 -25.236  1.00  0.00     0.052 C 
HETATM    8  C26 UNL     1     -11.585  45.722 -25.335  1.00  0.00     0.038 C 
HETATM    9  C27 UNL     1     -11.730  47.234 -25.481  1.00  0.00     0.042 C 
HETATM   10  C28 UNL     1     -11.011  47.880 -26.691  1.00  0.00     0.067 C 
HETATM   11  C29 UNL     1      -9.916  48.833 -26.196  1.00  0.00     0.047 C 
HETATM   12  C30 UNL     1     -10.154  47.411 -29.135  1.00  0.00     0.270 C 
HETATM   13  O5  UNL     1      -8.786  47.787 -29.051  1.00  0.00    -0.351 OA
ENDROOT
BRANCH   4  14
HETATM   14  C19 UNL     1     -13.029  46.243 -28.376  1.00  0.00     0.012 C 
BRANCH  14  15
HETATM   15  C20 UNL     1     -13.995  45.167 -28.879  1.00  0.00     0.027 C 
BRANCH  15  16
HETATM   16  C21 UNL     1     -15.318  45.207 -28.125  1.00  0.00     0.164 C 
BRANCH  16  17
HETATM   17  O1  UNL     1     -16.341  44.648 -28.938  1.00  0.00    -0.401 OA
HETATM   18  H32 UNL     1     -16.138  43.705 -29.058  1.00  0.00     0.209 HD
ENDBRANCH  16  17
ENDBRANCH  15  16
ENDBRANCH  14  15
ENDBRANCH   4  14
BRANCH  10  19
HETATM   19  O3  UNL     1     -12.011  48.756 -27.252  1.00  0.00    -0.389 OA
HETATM   20  H44 UNL     1     -11.672  49.062 -28.122  1.00  0.00     0.210 HD
ENDBRANCH  10  19
BRANCH  12  21
HETATM   21  O4  UNL     1     -10.897  48.552 -29.506  1.00  0.00    -0.370 OA
HETATM   22  H46 UNL     1     -10.571  48.775 -30.399  1.00  0.00     0.212 HD
ENDBRANCH  12  21
BRANCH   1  23
HETATM   23  C14 UNL     1      -6.969  47.388 -27.574  1.00  0.00     0.011 C 
HETATM   24  C12 UNL     1      -5.790  47.808 -28.080  1.00  0.00    -0.063 C 
HETATM   25  C13 UNL     1      -5.396  47.665 -29.529  1.00  0.00     0.048 C 
BRANCH  24  26
HETATM   26  C11 UNL     1      -4.816  48.409 -27.163  1.00  0.00     0.006 C 
HETATM   27  C10 UNL     1      -3.482  48.451 -27.333  1.00  0.00     0.001 C 
BRANCH  27  28
HETATM   28  C9  UNL     1      -2.598  49.069 -26.367  1.00  0.00     0.002 C 
HETATM   29  C7  UNL     1      -2.252  50.372 -26.298  1.00  0.00    -0.084 C 
HETATM   30  C8  UNL     1      -2.703  51.443 -27.257  1.00  0.00     0.043 C 
BRANCH  29  31
HETATM   31  C6  UNL     1      -1.305  50.839 -25.203  1.00  0.00     0.037 C 
BRANCH  31  32
HETATM   32  C5  UNL     1      -1.608  50.262 -23.813  1.00  0.00     0.031 C 
BRANCH  32  33
HETATM   33  C4  UNL     1      -1.055  51.085 -22.678  1.00  0.00    -0.024 C 
HETATM   34  C2  UNL     1      -0.103  52.037 -22.729  1.00  0.00    -0.091 C 
HETATM   35  C1  UNL     1       0.297  52.791 -21.486  1.00  0.00     0.042 C 
HETATM   36  C3  UNL     1       0.656  52.446 -23.963  1.00  0.00     0.042 C 
ENDBRANCH  32  33
ENDBRANCH  31  32
ENDBRANCH  29  31
ENDBRANCH  27  28
ENDBRANCH  24  26
ENDBRANCH   1  23
BRANCH   6  37
HETATM   37  C25 UNL     1     -11.966  42.655 -27.724  1.00  0.00     0.265 C 
HETATM   38  O2  UNL     1     -10.987  42.133 -28.247  1.00  0.00    -0.302 OA
ENDBRANCH   6  37
TORSDOF 13
ENDMDL
MODEL 9
REMARK minimizedAffinity -7.81719112
REMARK  13 active torsions:
REMARK  status: ('A' for Active; 'I' for Inactive)
REMARK    1  A    between atoms: C4_4  and  C5_5 
REMARK    2  A    between atoms: C5_5  and  C6_6 
REMARK    3  A    between atoms: C6_6  and  C7_7 
REMARK    4  A    between atoms: C9_9  and  C10_10 
REMARK    5  A    between atoms: C11_11  and  C12_12 
REMARK    6  A    between atoms: C14_14  and  C15_15 
REMARK    7  A    between atoms: C18_18  and  C19_19 
REMARK    8  A    between atoms: C19_19  and  C20_20 
REMARK    9  A    between atoms: C20_20  and  C21_21 
REMARK   10  A    between atoms: C21_21  and  O1_22 
REMARK   11  A    between atoms: C23_24  and  C25_26 
REMARK   12  A    between atoms: C28_30  and  O3_32 
REMARK   13  A    between atoms: C30_33  and  O4_34 
ROOT
HETATM    1  C15 UNL     1      -5.610  48.286 -24.479  1.00  0.00     0.149 C 
HETATM    2  C16 UNL     1      -4.300  48.626 -23.768  1.00  0.00     0.054 C 
HETATM    3  C17 UNL     1      -4.587  49.872 -22.878  1.00  0.00     0.050 C 
HETATM    4  C18 UNL     1      -3.993  49.638 -21.432  1.00  0.00     0.032 C 
HETATM    5  C22 UNL     1      -2.485  49.349 -21.537  1.00  0.00    -0.066 C 
HETATM    6  C23 UNL     1      -1.817  48.382 -20.850  1.00  0.00    -0.021 C 
HETATM    7  C24 UNL     1      -0.355  48.046 -21.019  1.00  0.00     0.052 C 
HETATM    8  C26 UNL     1      -1.756  50.158 -22.602  1.00  0.00     0.038 C 
HETATM    9  C27 UNL     1      -2.484  51.388 -23.138  1.00  0.00     0.042 C 
HETATM   10  C28 UNL     1      -3.985  51.206 -23.474  1.00  0.00     0.067 C 
HETATM   11  C29 UNL     1      -4.208  51.401 -24.980  1.00  0.00     0.047 C 
HETATM   12  C30 UNL     1      -6.134  49.815 -22.858  1.00  0.00     0.270 C 
HETATM   13  O5  UNL     1      -6.539  49.313 -24.125  1.00  0.00    -0.351 OA
ENDROOT
BRANCH   4  14
HETATM   14  C19 UNL     1      -4.302  50.776 -20.424  1.00  0.00     0.012 C 
BRANCH  14  15
HETATM   15  C20 UNL     1      -3.936  50.456 -18.972  1.00  0.00     0.027 C 
BRANCH  15  16
HETATM   16  C21 UNL     1      -2.773  51.314 -18.487  1.00  0.00     0.164 C 
BRANCH  16  17
HETATM   17  O1  UNL     1      -2.743  51.307 -17.066  1.00  0.00    -0.401 OA
HETATM   18  H32 UNL     1      -2.534  50.401 -16.782  1.00  0.00     0.209 HD
ENDBRANCH  16  17
ENDBRANCH  15  16
ENDBRANCH  14  15
ENDBRANCH   4  14
BRANCH  10  19
HETATM   19  O3  UNL     1      -4.609  52.361 -22.875  1.00  0.00    -0.389 OA
HETATM   20  H44 UNL     1      -5.581  52.213 -22.905  1.00  0.00     0.210 HD
ENDBRANCH  10  19
BRANCH  12  21
HETATM   21  O4  UNL     1      -6.762  51.063 -22.664  1.00  0.00    -0.370 OA
HETATM   22  H46 UNL     1      -7.715  50.855 -22.635  1.00  0.00     0.212 HD
ENDBRANCH  12  21
BRANCH   1  23
HETATM   23  C14 UNL     1      -5.503  48.238 -25.973  1.00  0.00     0.011 C 
HETATM   24  C12 UNL     1      -4.387  48.274 -26.733  1.00  0.00    -0.063 C 
HETATM   25  C13 UNL     1      -2.994  48.428 -26.177  1.00  0.00     0.048 C 
BRANCH  24  26
HETATM   26  C11 UNL     1      -4.537  48.192 -28.189  1.00  0.00     0.006 C 
HETATM   27  C10 UNL     1      -5.668  47.911 -28.860  1.00  0.00     0.001 C 
BRANCH  27  28
HETATM   28  C9  UNL     1      -5.718  47.854 -30.306  1.00  0.00     0.002 C 
HETATM   29  C7  UNL     1      -6.092  46.803 -31.065  1.00  0.00    -0.084 C 
HETATM   30  C8  UNL     1      -6.501  45.451 -30.540  1.00  0.00     0.043 C 
BRANCH  29  31
HETATM   31  C6  UNL     1      -6.082  46.932 -32.581  1.00  0.00     0.037 C 
BRANCH  31  32
HETATM   32  C5  UNL     1      -7.173  47.853 -33.147  1.00  0.00     0.031 C 
BRANCH  32  33
HETATM   33  C4  UNL     1      -8.537  47.620 -32.552  1.00  0.00    -0.024 C 
HETATM   34  C2  UNL     1      -9.419  46.647 -32.853  1.00  0.00    -0.091 C 
HETATM   35  C1  UNL     1     -10.732  46.545 -32.117  1.00  0.00     0.042 C 
HETATM   36  C3  UNL     1      -9.230  45.596 -33.913  1.00  0.00     0.042 C 
ENDBRANCH  32  33
ENDBRANCH  31  32
ENDBRANCH  29  31
ENDBRANCH  27  28
ENDBRANCH  24  26
ENDBRANCH   1  23
BRANCH   6  37
HETATM   37  C25 UNL     1      -2.476  47.498 -19.834  1.00  0.00     0.265 C 
HETATM   38  O2  UNL     1      -2.200  47.540 -18.639  1.00  0.00    -0.302 OA
ENDBRANCH   6  37
TORSDOF 13
ENDMDL
