MODEL 1
REMARK minimizedAffinity -9.63037205
REMARK  6 active torsions:
REMARK  status: ('A' for Active; 'I' for Inactive)
REMARK    1  A    between atoms: C2_2  and  C30_31 
REMARK    2  A    between atoms: C3_3  and  C4_4 
REMARK    3  A    between atoms: C4_4  and  C5_5 
REMARK    4  A    between atoms: C5_5  and  C6_6 
REMARK    5  A    between atoms: C6_6  and  C8_8 
REMARK    6  A    between atoms: C30_31  and  O3_33 
ROOT
HETATM    1  C8  UNL     1      -1.875  51.136 -23.778  1.00  0.00    -0.002 C 
HETATM    2  C9  UNL     1      -2.777  52.306 -24.254  1.00  0.00     0.007 C 
HETATM    3  C10 UNL     1      -4.244  51.818 -24.148  1.00  0.00     0.015 C 
HETATM    4  C11 UNL     1      -4.139  50.294 -23.916  1.00  0.00    -0.013 C 
HETATM    5  C12 UNL     1      -3.970  49.664 -25.334  1.00  0.00     0.021 C 
HETATM    6  C13 UNL     1      -5.251  49.529 -23.205  1.00  0.00    -0.070 C 
HETATM    7  C14 UNL     1      -6.386  50.103 -22.763  1.00  0.00    -0.022 C 
HETATM    8  C15 UNL     1      -7.392  49.415 -21.887  1.00  0.00     0.034 C 
HETATM    9  C16 UNL     1      -6.835  48.129 -21.237  1.00  0.00     0.013 C 
HETATM   10  C17 UNL     1      -7.829  47.368 -20.275  1.00  0.00     0.018 C 
HETATM   11  C18 UNL     1      -7.245  47.352 -18.843  1.00  0.00     0.023 C 
HETATM   12  C19 UNL     1      -9.222  48.030 -20.187  1.00  0.00     0.023 C 
HETATM   13  C20 UNL     1      -8.026  45.892 -20.663  1.00  0.00     0.135 C 
HETATM   14  O1  UNL     1      -9.115  45.324 -20.533  1.00  0.00    -0.297 OA
HETATM   15  C21 UNL     1      -6.833  45.086 -21.127  1.00  0.00     0.080 C 
HETATM   16  C22 UNL     1      -5.685  45.935 -21.647  1.00  0.00     0.017 C 
HETATM   17  C23 UNL     1      -6.142  47.245 -22.321  1.00  0.00    -0.031 C 
HETATM   18  C24 UNL     1      -7.113  46.902 -23.490  1.00  0.00     0.016 C 
HETATM   19  C25 UNL     1      -4.926  48.044 -22.945  1.00  0.00     0.024 C 
HETATM   20  C26 UNL     1      -3.577  47.914 -22.186  1.00  0.00     0.010 C 
HETATM   21  C27 UNL     1      -2.436  48.775 -22.776  1.00  0.00     0.011 C 
HETATM   22  C28 UNL     1      -2.871  50.240 -22.982  1.00  0.00    -0.029 C 
HETATM   23  C29 UNL     1      -3.129  50.854 -21.568  1.00  0.00     0.016 C 
ENDROOT
BRANCH   1  24
HETATM   24  C6  UNL     1      -0.531  51.497 -23.079  1.00  0.00    -0.014 C 
HETATM   25  C7  UNL     1      -0.480  51.286 -21.563  1.00  0.00     0.010 C 
BRANCH  24  26
HETATM   26  C5  UNL     1      -0.063  52.933 -23.435  1.00  0.00     0.008 C 
BRANCH  26  27
HETATM   27  C4  UNL     1       1.037  53.026 -24.503  1.00  0.00     0.028 C 
BRANCH  27  28
HETATM   28  C3  UNL     1       0.495  52.705 -25.872  1.00  0.00    -0.013 C 
HETATM   29  C2  UNL     1       1.138  52.081 -26.881  1.00  0.00     0.008 C 
HETATM   30  C1  UNL     1       0.473  51.851 -28.209  1.00  0.00     0.055 C 
BRANCH  29  31
HETATM   31  C30 UNL     1       2.503  51.527 -26.714  1.00  0.00     0.171 C 
HETATM   32  O2  UNL     1       2.843  50.604 -25.997  1.00  0.00    -0.646 OA
BRANCH  31  33
HETATM   33  O3  UNL     1       3.399  52.162 -27.490  1.00  0.00    -0.773 OA
HETATM   34  H46 UNL     1       4.237  51.695 -27.300  1.00  0.00     0.167 HD
ENDBRANCH  31  33
ENDBRANCH  29  31
ENDBRANCH  27  28
ENDBRANCH  26  27
ENDBRANCH  24  26
ENDBRANCH   1  24
TORSDOF 6
ENDMDL
MODEL 2
REMARK minimizedAffinity -9.61543369
REMARK  6 active torsions:
REMARK  status: ('A' for Active; 'I' for Inactive)
REMARK    1  A    between atoms: C2_2  and  C30_31 
REMARK    2  A    between atoms: C3_3  and  C4_4 
REMARK    3  A    between atoms: C4_4  and  C5_5 
REMARK    4  A    between atoms: C5_5  and  C6_6 
REMARK    5  A    between atoms: C6_6  and  C8_8 
REMARK    6  A    between atoms: C30_31  and  O3_33 
ROOT
HETATM    1  C8  UNL     1      -0.483  51.791 -20.921  1.00  0.00    -0.002 C 
HETATM    2  C9  UNL     1      -0.007  50.742 -19.881  1.00  0.00     0.007 C 
HETATM    3  C10 UNL     1      -1.200  49.787 -19.623  1.00  0.00     0.015 C 
HETATM    4  C11 UNL     1      -2.415  50.485 -20.275  1.00  0.00    -0.013 C 
HETATM    5  C12 UNL     1      -2.929  51.508 -19.215  1.00  0.00     0.021 C 
HETATM    6  C13 UNL     1      -3.618  49.680 -20.757  1.00  0.00    -0.070 C 
HETATM    7  C14 UNL     1      -3.721  48.345 -20.630  1.00  0.00    -0.022 C 
HETATM    8  C15 UNL     1      -4.794  47.516 -21.276  1.00  0.00     0.034 C 
HETATM    9  C16 UNL     1      -5.543  48.279 -22.391  1.00  0.00     0.013 C 
HETATM   10  C17 UNL     1      -6.667  47.459 -23.138  1.00  0.00     0.018 C 
HETATM   11  C18 UNL     1      -6.291  47.318 -24.631  1.00  0.00     0.023 C 
HETATM   12  C19 UNL     1      -6.853  46.030 -22.582  1.00  0.00     0.023 C 
HETATM   13  C20 UNL     1      -8.036  48.161 -23.115  1.00  0.00     0.135 C 
HETATM   14  O1  UNL     1      -9.092  47.527 -23.026  1.00  0.00    -0.297 OA
HETATM   15  C21 UNL     1      -8.099  49.660 -23.303  1.00  0.00     0.080 C 
HETATM   16  C22 UNL     1      -6.796  50.374 -22.984  1.00  0.00     0.017 C 
HETATM   17  C23 UNL     1      -5.974  49.688 -21.873  1.00  0.00    -0.031 C 
HETATM   18  C24 UNL     1      -6.846  49.586 -20.586  1.00  0.00     0.016 C 
HETATM   19  C25 UNL     1      -4.681  50.520 -21.496  1.00  0.00     0.024 C 
HETATM   20  C26 UNL     1      -4.026  51.310 -22.662  1.00  0.00     0.010 C 
HETATM   21  C27 UNL     1      -2.720  52.040 -22.273  1.00  0.00     0.011 C 
HETATM   22  C28 UNL     1      -1.731  51.103 -21.553  1.00  0.00    -0.029 C 
HETATM   23  C29 UNL     1      -1.277  50.020 -22.585  1.00  0.00     0.016 C 
ENDROOT
BRANCH   1  24
HETATM   24  C6  UNL     1       0.579  52.372 -21.900  1.00  0.00    -0.014 C 
HETATM   25  C7  UNL     1       1.425  53.533 -21.368  1.00  0.00     0.010 C 
BRANCH  24  26
HETATM   26  C5  UNL     1      -0.043  52.747 -23.271  1.00  0.00     0.008 C 
BRANCH  26  27
HETATM   27  C4  UNL     1       0.960  53.004 -24.406  1.00  0.00     0.028 C 
BRANCH  27  28
HETATM   28  C3  UNL     1       0.393  52.585 -25.738  1.00  0.00    -0.013 C 
HETATM   29  C2  UNL     1       1.039  51.954 -26.740  1.00  0.00     0.008 C 
HETATM   30  C1  UNL     1       0.345  51.620 -28.031  1.00  0.00     0.055 C 
BRANCH  29  31
HETATM   31  C30 UNL     1       2.441  51.493 -26.598  1.00  0.00     0.171 C 
HETATM   32  O2  UNL     1       2.852  50.585 -25.900  1.00  0.00    -0.646 OA
BRANCH  31  33
HETATM   33  O3  UNL     1       3.281  52.198 -27.376  1.00  0.00    -0.773 OA
HETATM   34  H46 UNL     1       4.152  51.787 -27.204  1.00  0.00     0.167 HD
ENDBRANCH  31  33
ENDBRANCH  29  31
ENDBRANCH  27  28
ENDBRANCH  26  27
ENDBRANCH  24  26
ENDBRANCH   1  24
TORSDOF 6
ENDMDL
MODEL 3
REMARK minimizedAffinity -9.38774109
REMARK  6 active torsions:
REMARK  status: ('A' for Active; 'I' for Inactive)
REMARK    1  A    between atoms: C2_2  and  C30_31 
REMARK    2  A    between atoms: C3_3  and  C4_4 
REMARK    3  A    between atoms: C4_4  and  C5_5 
REMARK    4  A    between atoms: C5_5  and  C6_6 
REMARK    5  A    between atoms: C6_6  and  C8_8 
REMARK    6  A    between atoms: C30_31  and  O3_33 
ROOT
HETATM    1  C8  UNL     1      -2.107  49.580 -18.779  1.00  0.00    -0.002 C 
HETATM    2  C9  UNL     1      -3.188  48.569 -19.250  1.00  0.00     0.007 C 
HETATM    3  C10 UNL     1      -3.480  48.879 -20.739  1.00  0.00     0.015 C 
HETATM    4  C11 UNL     1      -2.802  50.243 -21.001  1.00  0.00    -0.013 C 
HETATM    5  C12 UNL     1      -3.822  51.319 -20.515  1.00  0.00     0.021 C 
HETATM    6  C13 UNL     1      -2.350  50.640 -22.403  1.00  0.00    -0.070 C 
HETATM    7  C14 UNL     1      -2.528  49.867 -23.490  1.00  0.00    -0.022 C 
HETATM    8  C15 UNL     1      -1.913  50.144 -24.831  1.00  0.00     0.034 C 
HETATM    9  C16 UNL     1      -0.769  51.179 -24.759  1.00  0.00     0.013 C 
HETATM   10  C17 UNL     1      -0.053  51.499 -26.129  1.00  0.00     0.018 C 
HETATM   11  C18 UNL     1       1.433  51.082 -26.040  1.00  0.00     0.023 C 
HETATM   12  C19 UNL     1      -0.663  50.740 -27.329  1.00  0.00     0.023 C 
HETATM   13  C20 UNL     1      -0.048  53.000 -26.467  1.00  0.00     0.135 C 
HETATM   14  O1  UNL     1      -0.161  53.406 -27.628  1.00  0.00    -0.297 OA
HETATM   15  C21 UNL     1       0.197  54.003 -25.363  1.00  0.00     0.080 C 
HETATM   16  C22 UNL     1      -0.096  53.467 -23.971  1.00  0.00     0.017 C 
HETATM   17  C23 UNL     1      -1.233  52.425 -23.939  1.00  0.00    -0.031 C 
HETATM   18  C24 UNL     1      -2.522  53.061 -24.538  1.00  0.00     0.016 C 
HETATM   19  C25 UNL     1      -1.579  51.975 -22.460  1.00  0.00     0.024 C 
HETATM   20  C26 UNL     1      -0.384  51.948 -21.469  1.00  0.00     0.010 C 
HETATM   21  C27 UNL     1      -0.746  51.422 -20.060  1.00  0.00     0.011 C 
HETATM   22  C28 UNL     1      -1.502  50.081 -20.125  1.00  0.00    -0.029 C 
HETATM   23  C29 UNL     1      -0.512  49.014 -20.695  1.00  0.00     0.016 C 
ENDROOT
BRANCH   1  24
HETATM   24  C6  UNL     1      -1.108  49.111 -17.681  1.00  0.00    -0.014 C 
HETATM   25  C7  UNL     1      -1.662  49.025 -16.256  1.00  0.00     0.010 C 
BRANCH  24  26
HETATM   26  C5  UNL     1       0.200  49.945 -17.698  1.00  0.00     0.008 C 
BRANCH  26  27
HETATM   27  C4  UNL     1       0.333  50.991 -16.581  1.00  0.00     0.028 C 
BRANCH  27  28
HETATM   28  C3  UNL     1       1.606  51.785 -16.726  1.00  0.00    -0.013 C 
HETATM   29  C2  UNL     1       2.538  52.018 -15.780  1.00  0.00     0.008 C 
HETATM   30  C1  UNL     1       3.753  52.855 -16.067  1.00  0.00     0.055 C 
BRANCH  29  31
HETATM   31  C30 UNL     1       2.454  51.404 -14.433  1.00  0.00     0.171 C 
HETATM   32  O2  UNL     1       2.417  50.218 -14.163  1.00  0.00    -0.646 OA
BRANCH  31  33
HETATM   33  O3  UNL     1       2.442  52.331 -13.460  1.00  0.00    -0.773 OA
HETATM   34  H46 UNL     1       2.404  51.802 -12.639  1.00  0.00     0.167 HD
ENDBRANCH  31  33
ENDBRANCH  29  31
ENDBRANCH  27  28
ENDBRANCH  26  27
ENDBRANCH  24  26
ENDBRANCH   1  24
TORSDOF 6
ENDMDL
MODEL 4
REMARK minimizedAffinity -9.25277805
REMARK  6 active torsions:
REMARK  status: ('A' for Active; 'I' for Inactive)
REMARK    1  A    between atoms: C2_2  and  C30_31 
REMARK    2  A    between atoms: C3_3  and  C4_4 
REMARK    3  A    between atoms: C4_4  and  C5_5 
REMARK    4  A    between atoms: C5_5  and  C6_6 
REMARK    5  A    between atoms: C6_6  and  C8_8 
REMARK    6  A    between atoms: C30_31  and  O3_33 
ROOT
HETATM    1  C8  UNL     1      -1.739  49.286 -18.257  1.00  0.00    -0.002 C 
HETATM    2  C9  UNL     1      -2.320  47.846 -18.270  1.00  0.00     0.007 C 
HETATM    3  C10 UNL     1      -3.014  47.651 -19.642  1.00  0.00     0.015 C 
HETATM    4  C11 UNL     1      -3.089  49.069 -20.254  1.00  0.00    -0.013 C 
HETATM    5  C12 UNL     1      -4.362  49.725 -19.636  1.00  0.00     0.021 C 
HETATM    6  C13 UNL     1      -3.156  49.269 -21.765  1.00  0.00    -0.070 C 
HETATM    7  C14 UNL     1      -3.182  48.257 -22.651  1.00  0.00    -0.022 C 
HETATM    8  C15 UNL     1      -3.041  48.432 -24.135  1.00  0.00     0.034 C 
HETATM    9  C16 UNL     1      -2.496  49.825 -24.521  1.00  0.00     0.013 C 
HETATM   10  C17 UNL     1      -2.293  50.072 -26.067  1.00  0.00     0.018 C 
HETATM   11  C18 UNL     1      -0.794  50.322 -26.353  1.00  0.00     0.023 C 
HETATM   12  C19 UNL     1      -2.724  48.872 -26.939  1.00  0.00     0.023 C 
HETATM   13  C20 UNL     1      -3.031  51.321 -26.577  1.00  0.00     0.135 C 
HETATM   14  O1  UNL     1      -3.546  51.361 -27.699  1.00  0.00    -0.297 OA
HETATM   15  C21 UNL     1      -3.047  52.569 -25.722  1.00  0.00     0.080 C 
HETATM   16  C22 UNL     1      -2.780  52.306 -24.249  1.00  0.00     0.017 C 
HETATM   17  C23 UNL     1      -3.295  50.934 -23.765  1.00  0.00    -0.031 C 
HETATM   18  C24 UNL     1      -4.824  50.837 -24.048  1.00  0.00     0.016 C 
HETATM   19  C25 UNL     1      -3.096  50.747 -22.205  1.00  0.00     0.024 C 
HETATM   20  C26 UNL     1      -1.845  51.438 -21.599  1.00  0.00     0.010 C 
HETATM   21  C27 UNL     1      -1.640  51.161 -20.092  1.00  0.00     0.011 C 
HETATM   22  C28 UNL     1      -1.708  49.655 -19.771  1.00  0.00    -0.029 C 
HETATM   23  C29 UNL     1      -0.481  48.974 -20.461  1.00  0.00     0.016 C 
ENDROOT
BRANCH   1  24
HETATM   24  C6  UNL     1      -0.437  49.534 -17.439  1.00  0.00    -0.014 C 
HETATM   25  C7  UNL     1      -0.416  48.966 -16.017  1.00  0.00     0.010 C 
BRANCH  24  26
HETATM   26  C5  UNL     1      -0.042  51.034 -17.422  1.00  0.00     0.008 C 
BRANCH  26  27
HETATM   27  C4  UNL     1       0.719  51.504 -16.174  1.00  0.00     0.028 C 
BRANCH  27  28
HETATM   28  C3  UNL     1       2.124  51.925 -16.519  1.00  0.00    -0.013 C 
HETATM   29  C2  UNL     1       3.209  51.890 -15.719  1.00  0.00     0.008 C 
HETATM   30  C1  UNL     1       4.551  52.369 -16.197  1.00  0.00     0.055 C 
BRANCH  29  31
HETATM   31  C30 UNL     1       3.154  51.314 -14.353  1.00  0.00     0.171 C 
HETATM   32  O2  UNL     1       3.368  50.161 -14.029  1.00  0.00    -0.646 OA
BRANCH  31  33
HETATM   33  O3  UNL     1       2.846  52.242 -13.430  1.00  0.00    -0.773 OA
HETATM   34  H46 UNL     1       2.862  51.743 -12.590  1.00  0.00     0.167 HD
ENDBRANCH  31  33
ENDBRANCH  29  31
ENDBRANCH  27  28
ENDBRANCH  26  27
ENDBRANCH  24  26
ENDBRANCH   1  24
TORSDOF 6
ENDMDL
MODEL 5
REMARK minimizedAffinity -9.23807526
REMARK  6 active torsions:
REMARK  status: ('A' for Active; 'I' for Inactive)
REMARK    1  A    between atoms: C2_2  and  C30_31 
REMARK    2  A    between atoms: C3_3  and  C4_4 
REMARK    3  A    between atoms: C4_4  and  C5_5 
REMARK    4  A    between atoms: C5_5  and  C6_6 
REMARK    5  A    between atoms: C6_6  and  C8_8 
REMARK    6  A    between atoms: C30_31  and  O3_33 
ROOT
HETATM    1  C8  UNL     1      -1.362  51.531 -21.803  1.00  0.00    -0.002 C 
HETATM    2  C9  UNL     1      -0.250  50.541 -21.362  1.00  0.00     0.007 C 
HETATM    3  C10 UNL     1      -0.960  49.284 -20.800  1.00  0.00     0.015 C 
HETATM    4  C11 UNL     1      -2.440  49.701 -20.641  1.00  0.00    -0.013 C 
HETATM    5  C12 UNL     1      -2.523  50.436 -19.267  1.00  0.00     0.021 C 
HETATM    6  C13 UNL     1      -3.557  48.663 -20.675  1.00  0.00    -0.070 C 
HETATM    7  C14 UNL     1      -3.342  47.342 -20.814  1.00  0.00    -0.022 C 
HETATM    8  C15 UNL     1      -4.427  46.332 -21.054  1.00  0.00     0.034 C 
HETATM    9  C16 UNL     1      -5.757  46.983 -21.495  1.00  0.00     0.013 C 
HETATM   10  C17 UNL     1      -6.938  45.978 -21.796  1.00  0.00     0.018 C 
HETATM   11  C18 UNL     1      -7.345  46.098 -23.283  1.00  0.00     0.023 C 
HETATM   12  C19 UNL     1      -6.562  44.501 -21.549  1.00  0.00     0.023 C 
HETATM   13  C20 UNL     1      -8.209  46.288 -20.987  1.00  0.00     0.135 C 
HETATM   14  O1  UNL     1      -8.945  45.392 -20.561  1.00  0.00    -0.297 OA
HETATM   15  C21 UNL     1      -8.624  47.729 -20.788  1.00  0.00     0.080 C 
HETATM   16  C22 UNL     1      -7.487  48.723 -20.961  1.00  0.00     0.017 C 
HETATM   17  C23 UNL     1      -6.112  48.166 -20.540  1.00  0.00    -0.031 C 
HETATM   18  C24 UNL     1      -6.184  47.704 -19.054  1.00  0.00     0.016 C 
HETATM   19  C25 UNL     1      -4.976  49.266 -20.631  1.00  0.00     0.024 C 
HETATM   20  C26 UNL     1      -5.148  50.317 -21.761  1.00  0.00     0.010 C 
HETATM   21  C27 UNL     1      -3.978  51.321 -21.871  1.00  0.00     0.011 C 
HETATM   22  C28 UNL     1      -2.612  50.608 -21.919  1.00  0.00    -0.029 C 
HETATM   23  C29 UNL     1      -2.555  49.797 -23.254  1.00  0.00     0.016 C 
ENDROOT
BRANCH   1  24
HETATM   24  C6  UNL     1      -1.058  52.470 -23.007  1.00  0.00    -0.014 C 
HETATM   25  C7  UNL     1      -2.200  52.678 -24.006  1.00  0.00     0.010 C 
BRANCH  24  26
HETATM   26  C5  UNL     1       0.235  52.050 -23.754  1.00  0.00     0.008 C 
BRANCH  26  27
HETATM   27  C4  UNL     1       0.785  53.078 -24.755  1.00  0.00     0.028 C 
BRANCH  27  28
HETATM   28  C3  UNL     1       0.412  52.714 -26.169  1.00  0.00    -0.013 C 
HETATM   29  C2  UNL     1       1.182  52.093 -27.085  1.00  0.00     0.008 C 
HETATM   30  C1  UNL     1       0.678  51.817 -28.474  1.00  0.00     0.055 C 
BRANCH  29  31
HETATM   31  C30 UNL     1       2.535  51.585 -26.753  1.00  0.00     0.171 C 
HETATM   32  O2  UNL     1       2.815  50.643 -26.036  1.00  0.00    -0.646 OA
BRANCH  31  33
HETATM   33  O3  UNL     1       3.499  52.289 -27.371  1.00  0.00    -0.773 OA
HETATM   34  H46 UNL     1       4.324  51.847 -27.087  1.00  0.00     0.167 HD
ENDBRANCH  31  33
ENDBRANCH  29  31
ENDBRANCH  27  28
ENDBRANCH  26  27
ENDBRANCH  24  26
ENDBRANCH   1  24
TORSDOF 6
ENDMDL
MODEL 6
REMARK minimizedAffinity -9.14776611
REMARK  6 active torsions:
REMARK  status: ('A' for Active; 'I' for Inactive)
REMARK    1  A    between atoms: C2_2  and  C30_31 
REMARK    2  A    between atoms: C3_3  and  C4_4 
REMARK    3  A    between atoms: C4_4  and  C5_5 
REMARK    4  A    between atoms: C5_5  and  C6_6 
REMARK    5  A    between atoms: C6_6  and  C8_8 
REMARK    6  A    between atoms: C30_31  and  O3_33 
ROOT
HETATM    1  C8  UNL     1      -1.902  51.248 -23.144  1.00  0.00    -0.002 C 
HETATM    2  C9  UNL     1      -2.801  52.478 -23.442  1.00  0.00     0.007 C 
HETATM    3  C10 UNL     1      -4.269  51.983 -23.414  1.00  0.00     0.015 C 
HETATM    4  C11 UNL     1      -4.168  50.441 -23.412  1.00  0.00    -0.013 C 
HETATM    5  C12 UNL     1      -3.996  50.030 -24.908  1.00  0.00     0.021 C 
HETATM    6  C13 UNL     1      -5.283  49.581 -22.826  1.00  0.00    -0.070 C 
HETATM    7  C14 UNL     1      -6.418  50.084 -22.306  1.00  0.00    -0.022 C 
HETATM    8  C15 UNL     1      -7.427  49.275 -21.544  1.00  0.00     0.034 C 
HETATM    9  C16 UNL     1      -6.874  47.905 -21.093  1.00  0.00     0.013 C 
HETATM   10  C17 UNL     1      -7.872  47.011 -20.258  1.00  0.00     0.018 C 
HETATM   11  C18 UNL     1      -7.291  46.780 -18.843  1.00  0.00     0.023 C 
HETATM   12  C19 UNL     1      -9.263  47.655 -20.075  1.00  0.00     0.023 C 
HETATM   13  C20 UNL     1      -8.070  45.610 -20.863  1.00  0.00     0.135 C 
HETATM   14  O1  UNL     1      -9.161  45.032 -20.822  1.00  0.00    -0.297 OA
HETATM   15  C21 UNL     1      -6.878  44.880 -21.439  1.00  0.00     0.080 C 
HETATM   16  C22 UNL     1      -5.727  45.795 -21.824  1.00  0.00     0.017 C 
HETATM   17  C23 UNL     1      -6.180  47.191 -22.296  1.00  0.00    -0.031 C 
HETATM   18  C24 UNL     1      -7.149  47.029 -23.505  1.00  0.00     0.016 C 
HETATM   19  C25 UNL     1      -4.960  48.072 -22.790  1.00  0.00     0.024 C 
HETATM   20  C26 UNL     1      -3.614  47.828 -22.056  1.00  0.00     0.010 C 
HETATM   21  C27 UNL     1      -2.470  48.765 -22.509  1.00  0.00     0.011 C 
HETATM   22  C28 UNL     1      -2.902  50.245 -22.494  1.00  0.00    -0.029 C 
HETATM   23  C29 UNL     1      -3.162  50.641 -21.004  1.00  0.00     0.016 C 
ENDROOT
BRANCH   1  24
HETATM   24  C6  UNL     1      -0.559  51.498 -22.396  1.00  0.00    -0.014 C 
HETATM   25  C7  UNL     1      -0.650  52.302 -21.096  1.00  0.00     0.010 C 
BRANCH  24  26
HETATM   26  C5  UNL     1       0.516  52.112 -23.331  1.00  0.00     0.008 C 
BRANCH  26  27
HETATM   27  C4  UNL     1       0.021  52.537 -24.721  1.00  0.00     0.028 C 
BRANCH  27  28
HETATM   28  C3  UNL     1       0.950  52.049 -25.803  1.00  0.00    -0.013 C 
HETATM   29  C2  UNL     1       0.965  52.421 -27.099  1.00  0.00     0.008 C 
HETATM   30  C1  UNL     1       1.941  51.826 -28.074  1.00  0.00     0.055 C 
BRANCH  29  31
HETATM   31  C30 UNL     1       0.071  53.485 -27.616  1.00  0.00     0.171 C 
HETATM   32  O2  UNL     1      -0.092  54.600 -27.157  1.00  0.00    -0.646 OA
BRANCH  31  33
HETATM   33  O3  UNL     1      -0.578  53.098 -28.728  1.00  0.00    -0.773 OA
HETATM   34  H46 UNL     1      -1.108  53.883 -28.970  1.00  0.00     0.167 HD
ENDBRANCH  31  33
ENDBRANCH  29  31
ENDBRANCH  27  28
ENDBRANCH  26  27
ENDBRANCH  24  26
ENDBRANCH   1  24
TORSDOF 6
ENDMDL
MODEL 7
REMARK minimizedAffinity -9.00301361
REMARK  6 active torsions:
REMARK  status: ('A' for Active; 'I' for Inactive)
REMARK    1  A    between atoms: C2_2  and  C30_31 
REMARK    2  A    between atoms: C3_3  and  C4_4 
REMARK    3  A    between atoms: C4_4  and  C5_5 
REMARK    4  A    between atoms: C5_5  and  C6_6 
REMARK    5  A    between atoms: C6_6  and  C8_8 
REMARK    6  A    between atoms: C30_31  and  O3_33 
ROOT
HETATM    1  C8  UNL     1      -2.648  51.019 -22.786  1.00  0.00    -0.002 C 
HETATM    2  C9  UNL     1      -3.228  51.632 -21.482  1.00  0.00     0.007 C 
HETATM    3  C10 UNL     1      -4.706  51.179 -21.389  1.00  0.00     0.015 C 
HETATM    4  C11 UNL     1      -5.028  50.585 -22.779  1.00  0.00    -0.013 C 
HETATM    5  C12 UNL     1      -5.397  51.804 -23.680  1.00  0.00     0.021 C 
HETATM    6  C13 UNL     1      -6.125  49.539 -22.951  1.00  0.00    -0.070 C 
HETATM    7  C14 UNL     1      -6.891  49.087 -21.941  1.00  0.00    -0.022 C 
HETATM    8  C15 UNL     1      -7.827  47.920 -22.049  1.00  0.00     0.034 C 
HETATM    9  C16 UNL     1      -7.561  47.058 -23.304  1.00  0.00     0.013 C 
HETATM   10  C17 UNL     1      -8.490  45.792 -23.469  1.00  0.00     0.018 C 
HETATM   11  C18 UNL     1      -7.623  44.512 -23.423  1.00  0.00     0.023 C 
HETATM   12  C19 UNL     1      -9.548  45.661 -22.351  1.00  0.00     0.023 C 
HETATM   13  C20 UNL     1      -9.220  45.756 -24.823  1.00  0.00     0.135 C 
HETATM   14  O1  UNL     1     -10.369  45.318 -24.932  1.00  0.00    -0.297 OA
HETATM   15  C21 UNL     1      -8.478  46.178 -26.071  1.00  0.00     0.080 C 
HETATM   16  C22 UNL     1      -7.277  47.069 -25.799  1.00  0.00     0.017 C 
HETATM   17  C23 UNL     1      -7.449  47.975 -24.563  1.00  0.00    -0.031 C 
HETATM   18  C24 UNL     1      -8.723  48.853 -24.750  1.00  0.00     0.016 C 
HETATM   19  C25 UNL     1      -6.225  48.963 -24.379  1.00  0.00     0.024 C 
HETATM   20  C26 UNL     1      -4.846  48.415 -24.835  1.00  0.00     0.010 C 
HETATM   21  C27 UNL     1      -3.664  49.375 -24.562  1.00  0.00     0.011 C 
HETATM   22  C28 UNL     1      -3.659  49.877 -23.105  1.00  0.00    -0.029 C 
HETATM   23  C29 UNL     1      -3.377  48.643 -22.187  1.00  0.00     0.016 C 
ENDROOT
BRANCH   1  24
HETATM   24  C6  UNL     1      -1.134  50.653 -22.802  1.00  0.00    -0.014 C 
HETATM   25  C7  UNL     1      -0.407  50.728 -21.456  1.00  0.00     0.010 C 
BRANCH  24  26
HETATM   26  C5  UNL     1      -0.357  51.459 -23.875  1.00  0.00     0.008 C 
BRANCH  26  27
HETATM   27  C4  UNL     1      -0.613  51.042 -25.331  1.00  0.00     0.028 C 
BRANCH  27  28
HETATM   28  C3  UNL     1       0.669  51.019 -26.125  1.00  0.00    -0.013 C 
HETATM   29  C2  UNL     1       1.091  51.931 -27.024  1.00  0.00     0.008 C 
HETATM   30  C1  UNL     1       2.389  51.762 -27.761  1.00  0.00     0.055 C 
BRANCH  29  31
HETATM   31  C30 UNL     1       0.337  53.182 -27.281  1.00  0.00     0.171 C 
HETATM   32  O2  UNL     1       0.328  54.192 -26.602  1.00  0.00    -0.646 OA
BRANCH  31  33
HETATM   33  O3  UNL     1      -0.374  53.113 -28.420  1.00  0.00    -0.773 OA
HETATM   34  H46 UNL     1      -0.799  53.991 -28.478  1.00  0.00     0.167 HD
ENDBRANCH  31  33
ENDBRANCH  29  31
ENDBRANCH  27  28
ENDBRANCH  26  27
ENDBRANCH  24  26
ENDBRANCH   1  24
TORSDOF 6
ENDMDL
MODEL 8
REMARK minimizedAffinity -8.99734306
REMARK  6 active torsions:
REMARK  status: ('A' for Active; 'I' for Inactive)
REMARK    1  A    between atoms: C2_2  and  C30_31 
REMARK    2  A    between atoms: C3_3  and  C4_4 
REMARK    3  A    between atoms: C4_4  and  C5_5 
REMARK    4  A    between atoms: C5_5  and  C6_6 
REMARK    5  A    between atoms: C6_6  and  C8_8 
REMARK    6  A    between atoms: C30_31  and  O3_33 
ROOT
HETATM    1  C8  UNL     1      -2.185  50.775 -22.127  1.00  0.00    -0.002 C 
HETATM    2  C9  UNL     1      -2.987  49.454 -22.281  1.00  0.00     0.007 C 
HETATM    3  C10 UNL     1      -2.855  48.686 -20.942  1.00  0.00     0.015 C 
HETATM    4  C11 UNL     1      -1.738  49.424 -20.170  1.00  0.00    -0.013 C 
HETATM    5  C12 UNL     1      -0.397  48.834 -20.708  1.00  0.00     0.021 C 
HETATM    6  C13 UNL     1      -1.678  49.384 -18.646  1.00  0.00    -0.070 C 
HETATM    7  C14 UNL     1      -2.551  48.701 -17.883  1.00  0.00    -0.022 C 
HETATM    8  C15 UNL     1      -2.632  48.814 -16.388  1.00  0.00     0.034 C 
HETATM    9  C16 UNL     1      -1.883  50.051 -15.844  1.00  0.00     0.013 C 
HETATM   10  C17 UNL     1      -1.952  50.252 -14.279  1.00  0.00     0.018 C 
HETATM   11  C18 UNL     1      -2.674  51.584 -13.966  1.00  0.00     0.023 C 
HETATM   12  C19 UNL     1      -2.731  49.134 -13.552  1.00  0.00     0.023 C 
HETATM   13  C20 UNL     1      -0.563  50.366 -13.628  1.00  0.00     0.135 C 
HETATM   14  O1  UNL     1      -0.327  49.899 -12.509  1.00  0.00    -0.297 OA
HETATM   15  C21 UNL     1       0.520  51.153 -14.333  1.00  0.00     0.080 C 
HETATM   16  C22 UNL     1       0.288  51.313 -15.826  1.00  0.00     0.017 C 
HETATM   17  C23 UNL     1      -0.453  50.121 -16.466  1.00  0.00    -0.031 C 
HETATM   18  C24 UNL     1       0.356  48.817 -16.197  1.00  0.00     0.016 C 
HETATM   19  C25 UNL     1      -0.577  50.277 -18.037  1.00  0.00     0.024 C 
HETATM   20  C26 UNL     1      -0.717  51.733 -18.558  1.00  0.00     0.010 C 
HETATM   21  C27 UNL     1      -0.921  51.838 -20.088  1.00  0.00     0.011 C 
HETATM   22  C28 UNL     1      -2.050  50.913 -20.581  1.00  0.00    -0.029 C 
HETATM   23  C29 UNL     1      -3.389  51.445 -19.974  1.00  0.00     0.016 C 
ENDROOT
BRANCH   1  24
HETATM   24  C6  UNL     1      -2.690  52.022 -22.911  1.00  0.00    -0.014 C 
HETATM   25  C7  UNL     1      -4.181  52.042 -23.261  1.00  0.00     0.010 C 
BRANCH  24  26
HETATM   26  C5  UNL     1      -1.839  52.290 -24.180  1.00  0.00     0.008 C 
BRANCH  26  27
HETATM   27  C4  UNL     1      -0.347  52.557 -23.932  1.00  0.00     0.028 C 
BRANCH  27  28
HETATM   28  C3  UNL     1       0.496  52.034 -25.068  1.00  0.00    -0.013 C 
HETATM   29  C2  UNL     1       0.628  52.565 -26.301  1.00  0.00     0.008 C 
HETATM   30  C1  UNL     1       1.491  51.915 -27.345  1.00  0.00     0.055 C 
BRANCH  29  31
HETATM   31  C30 UNL     1      -0.009  53.853 -26.669  1.00  0.00     0.171 C 
HETATM   32  O2  UNL     1       0.291  54.964 -26.275  1.00  0.00    -0.646 OA
BRANCH  31  33
HETATM   33  O3  UNL     1      -1.006  53.682 -27.555  1.00  0.00    -0.773 OA
HETATM   34  H46 UNL     1      -1.321  54.593 -27.723  1.00  0.00     0.167 HD
ENDBRANCH  31  33
ENDBRANCH  29  31
ENDBRANCH  27  28
ENDBRANCH  26  27
ENDBRANCH  24  26
ENDBRANCH   1  24
TORSDOF 6
ENDMDL
MODEL 9
REMARK minimizedAffinity -8.85204983
REMARK  6 active torsions:
REMARK  status: ('A' for Active; 'I' for Inactive)
REMARK    1  A    between atoms: C2_2  and  C30_31 
REMARK    2  A    between atoms: C3_3  and  C4_4 
REMARK    3  A    between atoms: C4_4  and  C5_5 
REMARK    4  A    between atoms: C5_5  and  C6_6 
REMARK    5  A    between atoms: C6_6  and  C8_8 
REMARK    6  A    between atoms: C30_31  and  O3_33 
ROOT
HETATM    1  C8  UNL     1      -3.978  47.474 -20.624  1.00  0.00    -0.002 C 
HETATM    2  C9  UNL     1      -5.102  47.068 -21.614  1.00  0.00     0.007 C 
HETATM    3  C10 UNL     1      -4.991  48.013 -22.837  1.00  0.00     0.015 C 
HETATM    4  C11 UNL     1      -4.020  49.128 -22.390  1.00  0.00    -0.013 C 
HETATM    5  C12 UNL     1      -4.893  50.154 -21.602  1.00  0.00     0.021 C 
HETATM    6  C13 UNL     1      -3.200  49.912 -23.410  1.00  0.00    -0.070 C 
HETATM    7  C14 UNL     1      -3.279  49.716 -24.739  1.00  0.00    -0.022 C 
HETATM    8  C15 UNL     1      -2.340  50.327 -25.738  1.00  0.00     0.034 C 
HETATM    9  C16 UNL     1      -1.062  50.896 -25.083  1.00  0.00     0.013 C 
HETATM   10  C17 UNL     1      -0.012  51.529 -26.079  1.00  0.00     0.018 C 
HETATM   11  C18 UNL     1       1.308  50.726 -26.009  1.00  0.00     0.023 C 
HETATM   12  C19 UNL     1      -0.476  51.507 -27.552  1.00  0.00     0.023 C 
HETATM   13  C20 UNL     1       0.359  52.977 -25.717  1.00  0.00     0.135 C 
HETATM   14  O1  UNL     1       0.588  53.827 -26.584  1.00  0.00    -0.297 OA
HETATM   15  C21 UNL     1       0.543  53.350 -24.263  1.00  0.00     0.080 C 
HETATM   16  C22 UNL     1      -0.149  52.405 -23.295  1.00  0.00     0.017 C 
HETATM   17  C23 UNL     1      -1.445  51.786 -23.859  1.00  0.00    -0.031 C 
HETATM   18  C24 UNL     1      -2.421  52.932 -24.263  1.00  0.00     0.016 C 
HETATM   19  C25 UNL     1      -2.191  50.896 -22.782  1.00  0.00     0.024 C 
HETATM   20  C26 UNL     1      -1.274  50.155 -21.772  1.00  0.00     0.010 C 
HETATM   21  C27 UNL     1      -2.034  49.231 -20.792  1.00  0.00     0.011 C 
HETATM   22  C28 UNL     1      -3.003  48.286 -21.530  1.00  0.00    -0.029 C 
HETATM   23  C29 UNL     1      -2.138  47.309 -22.391  1.00  0.00     0.016 C 
ENDROOT
BRANCH   1  24
HETATM   24  C6  UNL     1      -3.357  46.355 -19.736  1.00  0.00    -0.014 C 
HETATM   25  C7  UNL     1      -3.778  44.920 -20.066  1.00  0.00     0.010 C 
BRANCH  24  26
HETATM   26  C5  UNL     1      -3.560  46.638 -18.225  1.00  0.00     0.008 C 
BRANCH  26  27
HETATM   27  C4  UNL     1      -3.498  48.117 -17.814  1.00  0.00     0.028 C 
BRANCH  27  28
HETATM   28  C3  UNL     1      -2.089  48.528 -17.470  1.00  0.00    -0.013 C 
HETATM   29  C2  UNL     1      -1.652  49.762 -17.144  1.00  0.00     0.008 C 
HETATM   30  C1  UNL     1      -0.203  50.027 -16.849  1.00  0.00     0.055 C 
BRANCH  29  31
HETATM   31  C30 UNL     1      -2.585  50.904 -16.989  1.00  0.00     0.171 C 
HETATM   32  O2  UNL     1      -3.145  51.267 -15.972  1.00  0.00    -0.646 OA
BRANCH  31  33
HETATM   33  O3  UNL     1      -2.758  51.570 -18.144  1.00  0.00    -0.773 OA
HETATM   34  H46 UNL     1      -3.367  52.295 -17.902  1.00  0.00     0.167 HD
ENDBRANCH  31  33
ENDBRANCH  29  31
ENDBRANCH  27  28
ENDBRANCH  26  27
ENDBRANCH  24  26
ENDBRANCH   1  24
TORSDOF 6
ENDMDL
