MODEL 1
REMARK minimizedAffinity -5.86646271
REMARK CNNscore 0.279316783
REMARK CNNaffinity 5.65893793
REMARK  6 active torsions:
REMARK  status: ('A' for Active; 'I' for Inactive)
REMARK    1  A    between atoms: C9_10  and  C10_11 
REMARK    2  A    between atoms: C11_13  and  O3_14 
REMARK    3  A    between atoms: C12_15  and  C13_16 
REMARK    4  A    between atoms: C14_18  and  O5_19 
REMARK    5  A    between atoms: C16_21  and  C17_22 
REMARK    6  A    between atoms: C17_22  and  C18_23 
ROOT
HETATM    1  C1  UNL     1     -17.079  -9.820  35.199  1.00  0.00     0.043 C 
HETATM    2  C2  UNL     1     -15.876  -9.033  34.740  1.00  0.00    -0.087 C 
HETATM    3  C3  UNL     1     -14.678  -9.642  34.638  1.00  0.00    -0.024 C 
HETATM    4  C4  UNL     1     -13.382  -9.034  34.206  1.00  0.00     0.030 C 
HETATM    5  C5  UNL     1     -12.890  -9.514  32.840  1.00  0.00     0.042 C 
HETATM    6  C6  UNL     1     -13.807  -9.367  31.582  1.00  0.00     0.069 C 
HETATM    7  C7  UNL     1     -14.901 -10.463  31.609  1.00  0.00     0.047 C 
HETATM    8  O1  UNL     1     -12.906  -9.811  30.509  1.00  0.00    -0.338 OA
HETATM    9  C8  UNL     1     -13.195  -9.359  29.254  1.00  0.00     0.095 A 
HETATM   10  C9  UNL     1     -13.106 -10.237  28.169  1.00  0.00     0.070 A 
HETATM   11  C11 UNL     1     -13.438  -9.791  26.880  1.00  0.00     0.097 A 
HETATM   12  C12 UNL     1     -13.824  -8.461  26.685  1.00  0.00     0.069 A 
HETATM   13  C14 UNL     1     -13.863  -7.578  27.778  1.00  0.00     0.091 A 
HETATM   14  C15 UNL     1     -13.534  -8.020  29.067  1.00  0.00     0.015 A 
HETATM   15  C16 UNL     1     -13.561  -7.128  30.281  1.00  0.00     0.032 C 
HETATM   16  C21 UNL     1     -14.360  -7.883  31.395  1.00  0.00     0.034 C 
HETATM   17  C22 UNL     1     -15.850  -7.842  31.054  1.00  0.00     0.006 A 
HETATM   18  C23 UNL     1     -17.039  -7.665  32.014  1.00  0.00    -0.001 A 
HETATM   19  C24 UNL     1     -17.200  -7.231  33.449  1.00  0.00     0.010 C 
HETATM   20  C25 UNL     1     -16.112  -7.565  34.460  1.00  0.00     0.034 C 
HETATM   21  C26 UNL     1     -16.692  -6.576  30.990  1.00  0.00    -0.039 A 
HETATM   22  C27 UNL     1     -17.624  -6.423  29.809  1.00  0.00     0.015 C 
HETATM   23  C28 UNL     1     -16.124  -5.250  31.451  1.00  0.00     0.015 C 
ENDROOT
BRANCH  15  24
HETATM   24  C17 UNL     1     -12.169  -6.672  30.784  1.00  0.00     0.014 C 
BRANCH  24  25
HETATM   25  C18 UNL     1     -11.940  -5.141  30.805  1.00  0.00    -0.022 C 
HETATM   26  C19 UNL     1     -12.709  -4.468  31.948  1.00  0.00     0.009 C 
HETATM   27  C20 UNL     1     -12.396  -4.526  29.476  1.00  0.00     0.009 C 
ENDBRANCH  24  25
ENDBRANCH  15  24
BRANCH  13  28
HETATM   28  O5  UNL     1     -14.224  -6.263  27.628  1.00  0.00    -0.359 OA
HETATM   29  H15 UNL     1     -14.506  -6.122  26.695  1.00  0.00     0.217 HD
ENDBRANCH  13  28
BRANCH  10  30
HETATM   30  C10 UNL     1     -12.685 -11.633  28.399  1.00  0.00     0.275 C 
HETATM   31  O2  UNL     1     -11.790 -12.125  27.721  1.00  0.00    -0.301 OA
ENDBRANCH  10  30
BRANCH  12  32
HETATM   32  C13 UNL     1     -14.195  -8.001  25.329  1.00  0.00     0.275 C 
HETATM   33  O4  UNL     1     -13.406  -8.117  24.395  1.00  0.00    -0.301 OA
ENDBRANCH  12  32
BRANCH  11  34
HETATM   34  O3  UNL     1     -13.399 -10.629  25.793  1.00  0.00    -0.359 OA
HETATM   35  H13 UNL     1     -13.106 -11.527  26.091  1.00  0.00     0.217 HD
ENDBRANCH  11  34
TORSDOF 6
ENDMDL
MODEL 2
REMARK minimizedAffinity -6.17278528
REMARK CNNscore 0.215174899
REMARK CNNaffinity 5.218853
REMARK  6 active torsions:
REMARK  status: ('A' for Active; 'I' for Inactive)
REMARK    1  A    between atoms: C9_10  and  C10_11 
REMARK    2  A    between atoms: C11_13  and  O3_14 
REMARK    3  A    between atoms: C12_15  and  C13_16 
REMARK    4  A    between atoms: C14_18  and  O5_19 
REMARK    5  A    between atoms: C16_21  and  C17_22 
REMARK    6  A    between atoms: C17_22  and  C18_23 
ROOT
HETATM    1  C1  UNL     1     -17.172  -5.772   8.338  1.00  0.00     0.043 C 
HETATM    2  C2  UNL     1     -15.958  -5.663   9.228  1.00  0.00    -0.087 C 
HETATM    3  C3  UNL     1     -15.155  -4.586   9.132  1.00  0.00    -0.024 C 
HETATM    4  C4  UNL     1     -13.916  -4.302   9.922  1.00  0.00     0.030 C 
HETATM    5  C5  UNL     1     -14.063  -3.157  10.925  1.00  0.00     0.042 C 
HETATM    6  C6  UNL     1     -15.190  -3.204  12.007  1.00  0.00     0.069 C 
HETATM    7  C7  UNL     1     -16.548  -2.848  11.354  1.00  0.00     0.047 C 
HETATM    8  O1  UNL     1     -14.875  -2.014  12.810  1.00  0.00    -0.338 OA
HETATM    9  C8  UNL     1     -15.336  -2.014  14.094  1.00  0.00     0.095 A 
HETATM   10  C9  UNL     1     -15.900  -0.849  14.624  1.00  0.00     0.070 A 
HETATM   11  C11 UNL     1     -16.411  -0.851  15.931  1.00  0.00     0.097 A 
HETATM   12  C12 UNL     1     -16.323  -2.010  16.708  1.00  0.00     0.069 A 
HETATM   13  C14 UNL     1     -15.711  -3.160  16.179  1.00  0.00     0.091 A 
HETATM   14  C15 UNL     1     -15.201  -3.162  14.873  1.00  0.00     0.015 A 
HETATM   15  C16 UNL     1     -14.539  -4.361  14.244  1.00  0.00     0.032 C 
HETATM   16  C21 UNL     1     -15.190  -4.566  12.835  1.00  0.00     0.034 C 
HETATM   17  C22 UNL     1     -16.591  -5.153  13.015  1.00  0.00     0.006 A 
HETATM   18  C23 UNL     1     -17.291  -6.219  12.156  1.00  0.00    -0.001 A 
HETATM   19  C24 UNL     1     -16.850  -7.202  11.101  1.00  0.00     0.010 C 
HETATM   20  C25 UNL     1     -15.713  -6.831  10.159  1.00  0.00     0.034 C 
HETATM   21  C26 UNL     1     -16.889  -6.524  13.605  1.00  0.00    -0.039 A 
HETATM   22  C27 UNL     1     -18.005  -6.612  14.622  1.00  0.00     0.015 C 
HETATM   23  C28 UNL     1     -15.767  -7.497  13.896  1.00  0.00     0.015 C 
ENDROOT
BRANCH  15  24
HETATM   24  C17 UNL     1     -12.994  -4.278  14.154  1.00  0.00     0.014 C 
BRANCH  24  25
HETATM   25  C18 UNL     1     -12.238  -5.580  14.515  1.00  0.00    -0.022 C 
HETATM   26  C19 UNL     1     -12.284  -6.600  13.370  1.00  0.00     0.009 C 
HETATM   27  C20 UNL     1     -12.860  -6.216  15.765  1.00  0.00     0.009 C 
ENDBRANCH  24  25
ENDBRANCH  15  24
BRANCH  13  28
HETATM   28  O5  UNL     1     -15.592  -4.315  16.911  1.00  0.00    -0.359 OA
HETATM   29  H15 UNL     1     -16.066  -4.190  17.765  1.00  0.00     0.217 HD
ENDBRANCH  13  28
BRANCH  10  30
HETATM   30  C10 UNL     1     -15.972   0.366  13.789  1.00  0.00     0.275 C 
HETATM   31  O2  UNL     1     -15.372   1.381  14.125  1.00  0.00    -0.301 OA
ENDBRANCH  10  30
BRANCH  12  32
HETATM   32  C13 UNL     1     -16.883  -2.016  18.077  1.00  0.00     0.275 C 
HETATM   33  O4  UNL     1     -16.191  -2.366  19.030  1.00  0.00    -0.301 OA
ENDBRANCH  12  32
BRANCH  11  34
HETATM   34  O3  UNL     1     -17.005   0.261  16.477  1.00  0.00    -0.359 OA
HETATM   35  H13 UNL     1     -16.988   0.993  15.811  1.00  0.00     0.217 HD
ENDBRANCH  11  34
TORSDOF 6
ENDMDL
MODEL 3
REMARK minimizedAffinity -5.29005337
REMARK CNNscore 0.186420038
REMARK CNNaffinity 5.09541368
REMARK  6 active torsions:
REMARK  status: ('A' for Active; 'I' for Inactive)
REMARK    1  A    between atoms: C9_10  and  C10_11 
REMARK    2  A    between atoms: C11_13  and  O3_14 
REMARK    3  A    between atoms: C12_15  and  C13_16 
REMARK    4  A    between atoms: C14_18  and  O5_19 
REMARK    5  A    between atoms: C16_21  and  C17_22 
REMARK    6  A    between atoms: C17_22  and  C18_23 
ROOT
HETATM    1  C1  UNL     1     -19.831   4.080  16.364  1.00  0.00     0.043 C 
HETATM    2  C2  UNL     1     -18.504   4.204  15.655  1.00  0.00    -0.087 C 
HETATM    3  C3  UNL     1     -18.438   4.010  14.323  1.00  0.00    -0.024 C 
HETATM    4  C4  UNL     1     -17.225   4.088  13.452  1.00  0.00     0.030 C 
HETATM    5  C5  UNL     1     -17.206   5.294  12.512  1.00  0.00     0.042 C 
HETATM    6  C6  UNL     1     -17.341   6.740  13.091  1.00  0.00     0.069 C 
HETATM    7  C7  UNL     1     -18.819   7.012  13.462  1.00  0.00     0.047 C 
HETATM    8  O1  UNL     1     -17.135   7.558  11.887  1.00  0.00    -0.338 OA
HETATM    9  C8  UNL     1     -16.704   8.836  12.093  1.00  0.00     0.095 A 
HETATM   10  C9  UNL     1     -17.263   9.880  11.349  1.00  0.00     0.070 A 
HETATM   11  C11 UNL     1     -16.853  11.201  11.582  1.00  0.00     0.097 A 
HETATM   12  C12 UNL     1     -15.862  11.463  12.533  1.00  0.00     0.069 A 
HETATM   13  C14 UNL     1     -15.275  10.399  13.239  1.00  0.00     0.091 A 
HETATM   14  C15 UNL     1     -15.684   9.077  13.012  1.00  0.00     0.015 A 
HETATM   15  C16 UNL     1     -15.100   7.892  13.738  1.00  0.00     0.032 C 
HETATM   16  C21 UNL     1     -16.298   7.032  14.261  1.00  0.00     0.034 C 
HETATM   17  C22 UNL     1     -16.933   7.739  15.460  1.00  0.00     0.006 A 
HETATM   18  C23 UNL     1     -17.491   7.108  16.747  1.00  0.00    -0.001 A 
HETATM   19  C24 UNL     1     -17.401   5.754  17.401  1.00  0.00     0.010 C 
HETATM   20  C25 UNL     1     -17.310   4.506  16.533  1.00  0.00     0.034 C 
HETATM   21  C26 UNL     1     -16.236   7.989  16.789  1.00  0.00    -0.039 A 
HETATM   22  C27 UNL     1     -16.383   9.365  17.400  1.00  0.00     0.015 C 
HETATM   23  C28 UNL     1     -14.883   7.375  17.077  1.00  0.00     0.015 C 
ENDROOT
BRANCH  15  24
HETATM   24  C17 UNL     1     -14.107   7.044  12.905  1.00  0.00     0.014 C 
BRANCH  24  25
HETATM   25  C18 UNL     1     -12.612   7.234  13.262  1.00  0.00    -0.022 C 
HETATM   26  C19 UNL     1     -12.410   7.437  14.769  1.00  0.00     0.009 C 
HETATM   27  C20 UNL     1     -12.048   8.453  12.521  1.00  0.00     0.009 C 
ENDBRANCH  24  25
ENDBRANCH  15  24
BRANCH  13  28
HETATM   28  O5  UNL     1     -14.291  10.609  14.173  1.00  0.00    -0.359 OA
HETATM   29  H15 UNL     1     -14.171  11.580  14.284  1.00  0.00     0.217 HD
ENDBRANCH  13  28
BRANCH  10  30
HETATM   30  C10 UNL     1     -18.299   9.578  10.343  1.00  0.00     0.275 C 
HETATM   31  O2  UNL     1     -18.168   9.970   9.188  1.00  0.00    -0.301 OA
ENDBRANCH  10  30
BRANCH  12  32
HETATM   32  C13 UNL     1     -15.448  12.859  12.792  1.00  0.00     0.275 C 
HETATM   33  O4  UNL     1     -14.899  13.518  11.912  1.00  0.00    -0.301 OA
ENDBRANCH  12  32
BRANCH  11  34
HETATM   34  O3  UNL     1     -17.402  12.260  10.899  1.00  0.00    -0.359 OA
HETATM   35  H13 UNL     1     -18.079  11.915  10.265  1.00  0.00     0.217 HD
ENDBRANCH  11  34
TORSDOF 6
ENDMDL
MODEL 4
REMARK minimizedAffinity -5.42754889
REMARK CNNscore 0.182905421
REMARK CNNaffinity 5.16174316
REMARK  6 active torsions:
REMARK  status: ('A' for Active; 'I' for Inactive)
REMARK    1  A    between atoms: C9_10  and  C10_11 
REMARK    2  A    between atoms: C11_13  and  O3_14 
REMARK    3  A    between atoms: C12_15  and  C13_16 
REMARK    4  A    between atoms: C14_18  and  O5_19 
REMARK    5  A    between atoms: C16_21  and  C17_22 
REMARK    6  A    between atoms: C17_22  and  C18_23 
ROOT
HETATM    1  C1  UNL     1     -13.259 -11.254  -1.457  1.00  0.00     0.043 C 
HETATM    2  C2  UNL     1     -12.529 -10.955  -2.743  1.00  0.00    -0.087 C 
HETATM    3  C3  UNL     1     -13.230 -10.742  -3.874  1.00  0.00    -0.024 C 
HETATM    4  C4  UNL     1     -12.689 -10.435  -5.235  1.00  0.00     0.030 C 
HETATM    5  C5  UNL     1     -12.950  -9.003  -5.704  1.00  0.00     0.042 C 
HETATM    6  C6  UNL     1     -12.473  -7.795  -4.834  1.00  0.00     0.069 C 
HETATM    7  C7  UNL     1     -13.433  -7.611  -3.634  1.00  0.00     0.047 C 
HETATM    8  O1  UNL     1     -12.797  -6.659  -5.708  1.00  0.00    -0.338 OA
HETATM    9  C8  UNL     1     -12.088  -5.513  -5.495  1.00  0.00     0.095 A 
HETATM   10  C9  UNL     1     -12.749  -4.280  -5.517  1.00  0.00     0.070 A 
HETATM   11  C11 UNL     1     -12.035  -3.100  -5.260  1.00  0.00     0.097 A 
HETATM   12  C12 UNL     1     -10.659  -3.161  -5.017  1.00  0.00     0.069 A 
HETATM   13  C14 UNL     1     -10.000  -4.401  -5.044  1.00  0.00     0.091 A 
HETATM   14  C15 UNL     1     -10.710  -5.583  -5.298  1.00  0.00     0.015 A 
HETATM   15  C16 UNL     1     -10.066  -6.946  -5.336  1.00  0.00     0.032 C 
HETATM   16  C21 UNL     1     -10.931  -7.894  -4.441  1.00  0.00     0.034 C 
HETATM   17  C22 UNL     1     -10.670  -7.565  -2.970  1.00  0.00     0.006 A 
HETATM   18  C23 UNL     1     -10.555  -8.539  -1.786  1.00  0.00    -0.001 A 
HETATM   19  C24 UNL     1     -10.387 -10.029  -1.638  1.00  0.00     0.010 C 
HETATM   20  C25 UNL     1     -11.018 -10.960  -2.664  1.00  0.00     0.034 C 
HETATM   21  C26 UNL     1      -9.334  -7.742  -2.264  1.00  0.00    -0.039 A 
HETATM   22  C27 UNL     1      -8.864  -6.610  -1.379  1.00  0.00     0.015 C 
HETATM   23  C28 UNL     1      -8.186  -8.447  -2.954  1.00  0.00     0.015 C 
ENDROOT
BRANCH  15  24
HETATM   24  C17 UNL     1      -9.862  -7.528  -6.757  1.00  0.00     0.014 C 
BRANCH  24  25
HETATM   25  C18 UNL     1      -9.459  -9.023  -6.809  1.00  0.00    -0.022 C 
HETATM   26  C19 UNL     1      -7.942  -9.206  -6.682  1.00  0.00     0.009 C 
HETATM   27  C20 UNL     1      -9.921  -9.642  -8.134  1.00  0.00     0.009 C 
ENDBRANCH  24  25
ENDBRANCH  15  24
BRANCH  13  28
HETATM   28  O5  UNL     1      -8.650  -4.505  -4.823  1.00  0.00    -0.359 OA
HETATM   29  H15 UNL     1      -8.306  -3.616  -4.577  1.00  0.00     0.217 HD
ENDBRANCH  13  28
BRANCH  10  30
HETATM   30  C10 UNL     1     -14.199  -4.240  -5.787  1.00  0.00     0.275 C 
HETATM   31  O2  UNL     1     -14.949  -3.629  -5.034  1.00  0.00    -0.301 OA
ENDBRANCH  10  30
BRANCH  12  32
HETATM   32  C13 UNL     1      -9.914  -1.917  -4.724  1.00  0.00     0.275 C 
HETATM   33  O4  UNL     1      -9.874  -1.007  -5.549  1.00  0.00    -0.301 OA
ENDBRANCH  12  32
BRANCH  11  34
HETATM   34  O3  UNL     1     -12.651  -1.872  -5.236  1.00  0.00    -0.359 OA
HETATM   35  H13 UNL     1     -13.615  -1.994  -5.429  1.00  0.00     0.217 HD
ENDBRANCH  11  34
TORSDOF 6
ENDMDL
MODEL 5
REMARK minimizedAffinity -5.05222654
REMARK CNNscore 0.173539624
REMARK CNNaffinity 4.85856581
REMARK  6 active torsions:
REMARK  status: ('A' for Active; 'I' for Inactive)
REMARK    1  A    between atoms: C9_10  and  C10_11 
REMARK    2  A    between atoms: C11_13  and  O3_14 
REMARK    3  A    between atoms: C12_15  and  C13_16 
REMARK    4  A    between atoms: C14_18  and  O5_19 
REMARK    5  A    between atoms: C16_21  and  C17_22 
REMARK    6  A    between atoms: C17_22  and  C18_23 
ROOT
HETATM    1  C1  UNL     1     -19.371  15.743  -0.999  1.00  0.00     0.043 C 
HETATM    2  C2  UNL     1     -18.145  15.272  -0.256  1.00  0.00    -0.087 C 
HETATM    3  C3  UNL     1     -18.064  13.992   0.156  1.00  0.00    -0.024 C 
HETATM    4  C4  UNL     1     -16.939  13.345   0.901  1.00  0.00     0.030 C 
HETATM    5  C5  UNL     1     -16.142  12.334   0.076  1.00  0.00     0.042 C 
HETATM    6  C6  UNL     1     -15.490  12.768  -1.277  1.00  0.00     0.069 C 
HETATM    7  C7  UNL     1     -16.581  12.850  -2.373  1.00  0.00     0.047 C 
HETATM    8  O1  UNL     1     -14.734  11.560  -1.639  1.00  0.00    -0.338 OA
HETATM    9  C8  UNL     1     -13.677  11.741  -2.482  1.00  0.00     0.095 A 
HETATM   10  C9  UNL     1     -13.464  10.833  -3.524  1.00  0.00     0.070 A 
HETATM   11  C11 UNL     1     -12.402  11.032  -4.419  1.00  0.00     0.097 A 
HETATM   12  C12 UNL     1     -11.542  12.122  -4.243  1.00  0.00     0.069 A 
HETATM   13  C14 UNL     1     -11.740  12.999  -3.164  1.00  0.00     0.091 A 
HETATM   14  C15 UNL     1     -12.801  12.805  -2.269  1.00  0.00     0.015 A 
HETATM   15  C16 UNL     1     -13.073  13.711  -1.095  1.00  0.00     0.032 C 
HETATM   16  C21 UNL     1     -14.593  14.078  -1.134  1.00  0.00     0.034 C 
HETATM   17  C22 UNL     1     -14.833  15.089  -2.257  1.00  0.00     0.006 A 
HETATM   18  C23 UNL     1     -15.780  16.301  -2.257  1.00  0.00    -0.001 A 
HETATM   19  C24 UNL     1     -16.543  17.062  -1.204  1.00  0.00     0.010 C 
HETATM   20  C25 UNL     1     -17.088  16.322   0.010  1.00  0.00     0.034 C 
HETATM   21  C26 UNL     1     -14.258  16.497  -2.295  1.00  0.00    -0.039 A 
HETATM   22  C27 UNL     1     -13.660  16.965  -3.603  1.00  0.00     0.015 C 
HETATM   23  C28 UNL     1     -13.533  17.065  -1.095  1.00  0.00     0.015 C 
ENDROOT
BRANCH  15  24
HETATM   24  C17 UNL     1     -12.658  13.134   0.281  1.00  0.00     0.014 C 
BRANCH  24  25
HETATM   25  C18 UNL     1     -12.405  14.184   1.391  1.00  0.00    -0.022 C 
HETATM   26  C19 UNL     1     -11.171  13.835   2.232  1.00  0.00     0.009 C 
HETATM   27  C20 UNL     1     -13.624  14.268   2.318  1.00  0.00     0.009 C 
ENDBRANCH  24  25
ENDBRANCH  15  24
BRANCH  13  28
HETATM   28  O5  UNL     1     -10.913  14.073  -2.948  1.00  0.00    -0.359 OA
HETATM   29  H15 UNL     1     -10.275  14.130  -3.696  1.00  0.00     0.217 HD
ENDBRANCH  13  28
BRANCH  10  30
HETATM   30  C10 UNL     1     -14.377   9.685  -3.683  1.00  0.00     0.275 C 
HETATM   31  O2  UNL     1     -15.500   9.720  -3.191  1.00  0.00    -0.301 OA
ENDBRANCH  10  30
BRANCH  12  32
HETATM   32  C13 UNL     1     -10.438  12.342  -5.202  1.00  0.00     0.275 C 
HETATM   33  O4  UNL     1      -9.273  12.380  -4.812  1.00  0.00    -0.301 OA
ENDBRANCH  12  32
BRANCH  11  34
HETATM   34  O3  UNL     1     -12.179  10.185  -5.477  1.00  0.00    -0.359 OA
HETATM   35  H13 UNL     1     -12.862   9.469  -5.464  1.00  0.00     0.217 HD
ENDBRANCH  11  34
TORSDOF 6
ENDMDL
MODEL 6
REMARK minimizedAffinity -6.37257862
REMARK CNNscore 0.166110277
REMARK CNNaffinity 5.37029028
REMARK  6 active torsions:
REMARK  status: ('A' for Active; 'I' for Inactive)
REMARK    1  A    between atoms: C9_10  and  C10_11 
REMARK    2  A    between atoms: C11_13  and  O3_14 
REMARK    3  A    between atoms: C12_15  and  C13_16 
REMARK    4  A    between atoms: C14_18  and  O5_19 
REMARK    5  A    between atoms: C16_21  and  C17_22 
REMARK    6  A    between atoms: C17_22  and  C18_23 
ROOT
HETATM    1  C1  UNL     1      16.253  -3.548  -0.794  1.00  0.00     0.043 C 
HETATM    2  C2  UNL     1      15.129  -3.536   0.213  1.00  0.00    -0.087 C 
HETATM    3  C3  UNL     1      14.315  -4.605   0.318  1.00  0.00    -0.024 C 
HETATM    4  C4  UNL     1      13.156  -4.778   1.248  1.00  0.00     0.030 C 
HETATM    5  C5  UNL     1      13.392  -5.803   2.358  1.00  0.00     0.042 C 
HETATM    6  C6  UNL     1      14.618  -5.651   3.316  1.00  0.00     0.069 C 
HETATM    7  C7  UNL     1      15.906  -6.100   2.583  1.00  0.00     0.047 C 
HETATM    8  O1  UNL     1      14.375  -6.737   4.277  1.00  0.00    -0.338 OA
HETATM    9  C8  UNL     1      14.956  -6.598   5.503  1.00  0.00     0.095 A 
HETATM   10  C9  UNL     1      15.563  -7.704   6.107  1.00  0.00     0.070 A 
HETATM   11  C11 UNL     1      16.197  -7.561   7.351  1.00  0.00     0.097 A 
HETATM   12  C12 UNL     1      16.188  -6.319   7.995  1.00  0.00     0.069 A 
HETATM   13  C14 UNL     1      15.534  -5.228   7.398  1.00  0.00     0.091 A 
HETATM   14  C15 UNL     1      14.902  -5.366   6.154  1.00  0.00     0.015 A 
HETATM   15  C16 UNL     1      14.189  -4.236   5.457  1.00  0.00     0.032 C 
HETATM   16  C21 UNL     1      14.703  -4.204   3.979  1.00  0.00     0.034 C 
HETATM   17  C22 UNL     1      16.118  -3.622   3.957  1.00  0.00     0.006 A 
HETATM   18  C23 UNL     1      16.737  -2.672   2.919  1.00  0.00    -0.001 A 
HETATM   19  C24 UNL     1      16.203  -1.809   1.805  1.00  0.00     0.010 C 
HETATM   20  C25 UNL     1      14.979  -2.267   1.023  1.00  0.00     0.034 C 
HETATM   21  C26 UNL     1      16.477  -2.198   4.355  1.00  0.00    -0.039 A 
HETATM   22  C27 UNL     1      17.686  -2.012   5.245  1.00  0.00     0.015 C 
HETATM   23  C28 UNL     1      15.393  -1.180   4.637  1.00  0.00     0.015 C 
ENDROOT
BRANCH  15  24
HETATM   24  C17 UNL     1      12.642  -4.305   5.523  1.00  0.00     0.014 C 
BRANCH  24  25
HETATM   25  C18 UNL     1      12.067  -5.389   6.467  1.00  0.00    -0.022 C 
HETATM   26  C19 UNL     1      10.639  -5.787   6.071  1.00  0.00     0.009 C 
HETATM   27  C20 UNL     1      12.051  -4.871   7.910  1.00  0.00     0.009 C 
ENDBRANCH  24  25
ENDBRANCH  15  24
BRANCH  13  28
HETATM   28  O5  UNL     1      15.492  -3.996   8.000  1.00  0.00    -0.359 OA
HETATM   29  H15 UNL     1      16.044  -4.029   8.815  1.00  0.00     0.217 HD
ENDBRANCH  13  28
BRANCH  10  30
HETATM   30  C10 UNL     1      15.549  -9.007   5.414  1.00  0.00     0.275 C 
HETATM   31  O2  UNL     1      14.916  -9.947   5.883  1.00  0.00    -0.301 OA
ENDBRANCH  10  30
BRANCH  12  32
HETATM   32  C13 UNL     1      16.877  -6.166   9.295  1.00  0.00     0.275 C 
HETATM   33  O4  UNL     1      16.264  -5.761  10.280  1.00  0.00    -0.301 OA
ENDBRANCH  12  32
BRANCH  11  34
HETATM   34  O3  UNL     1      16.835  -8.612   7.963  1.00  0.00    -0.359 OA
HETATM   35  H13 UNL     1      16.750  -9.415   7.390  1.00  0.00     0.217 HD
ENDBRANCH  11  34
TORSDOF 6
ENDMDL
MODEL 7
REMARK minimizedAffinity -5.84143543
REMARK CNNscore 0.161604077
REMARK CNNaffinity 4.96657133
REMARK  6 active torsions:
REMARK  status: ('A' for Active; 'I' for Inactive)
REMARK    1  A    between atoms: C9_10  and  C10_11 
REMARK    2  A    between atoms: C11_13  and  O3_14 
REMARK    3  A    between atoms: C12_15  and  C13_16 
REMARK    4  A    between atoms: C14_18  and  O5_19 
REMARK    5  A    between atoms: C16_21  and  C17_22 
REMARK    6  A    between atoms: C17_22  and  C18_23 
ROOT
HETATM    1  C1  UNL     1      16.383   0.252   2.404  1.00  0.00     0.043 C 
HETATM    2  C2  UNL     1      15.418  -0.337   3.404  1.00  0.00    -0.087 C 
HETATM    3  C3  UNL     1      14.209  -0.765   2.994  1.00  0.00    -0.024 C 
HETATM    4  C4  UNL     1      13.126  -1.371   3.829  1.00  0.00     0.030 C 
HETATM    5  C5  UNL     1      12.898  -2.861   3.573  1.00  0.00     0.042 C 
HETATM    6  C6  UNL     1      14.084  -3.870   3.711  1.00  0.00     0.069 C 
HETATM    7  C7  UNL     1      15.001  -3.764   2.469  1.00  0.00     0.047 C 
HETATM    8  O1  UNL     1      13.398  -5.156   3.520  1.00  0.00    -0.338 OA
HETATM    9  C8  UNL     1      14.013  -6.252   4.052  1.00  0.00     0.095 A 
HETATM   10  C9  UNL     1      14.062  -7.439   3.315  1.00  0.00     0.070 A 
HETATM   11  C11 UNL     1      14.726  -8.560   3.838  1.00  0.00     0.097 A 
HETATM   12  C12 UNL     1      15.305  -8.492   5.109  1.00  0.00     0.069 A 
HETATM   13  C14 UNL     1      15.207  -7.307   5.858  1.00  0.00     0.091 A 
HETATM   14  C15 UNL     1      14.547  -6.185   5.338  1.00  0.00     0.015 A 
HETATM   15  C16 UNL     1      14.411  -4.883   6.086  1.00  0.00     0.032 C 
HETATM   16  C21 UNL     1      14.841  -3.739   5.108  1.00  0.00     0.034 C 
HETATM   17  C22 UNL     1      16.364  -3.754   4.963  1.00  0.00     0.006 A 
HETATM   18  C23 UNL     1      17.320  -2.554   4.861  1.00  0.00    -0.001 A 
HETATM   19  C24 UNL     1      17.209  -1.073   5.114  1.00  0.00     0.010 C 
HETATM   20  C25 UNL     1      15.890  -0.363   4.842  1.00  0.00     0.034 C 
HETATM   21  C26 UNL     1      17.347  -3.473   6.090  1.00  0.00    -0.039 A 
HETATM   22  C27 UNL     1      18.531  -4.404   6.224  1.00  0.00     0.015 C 
HETATM   23  C28 UNL     1      16.857  -2.967   7.430  1.00  0.00     0.015 C 
ENDROOT
BRANCH  15  24
HETATM   24  C17 UNL     1      13.007  -4.623   6.688  1.00  0.00     0.014 C 
BRANCH  24  25
HETATM   25  C18 UNL     1      12.211  -5.890   7.084  1.00  0.00    -0.022 C 
HETATM   26  C19 UNL     1      10.743  -5.797   6.648  1.00  0.00     0.009 C 
HETATM   27  C20 UNL     1      12.262  -6.086   8.604  1.00  0.00     0.009 C 
ENDBRANCH  24  25
ENDBRANCH  15  24
BRANCH  13  28
HETATM   28  O5  UNL     1      15.751  -7.201   7.113  1.00  0.00    -0.359 OA
HETATM   29  H15 UNL     1      16.249  -8.028   7.307  1.00  0.00     0.217 HD
ENDBRANCH  13  28
BRANCH  10  30
HETATM   30  C10 UNL     1      13.433  -7.491   1.981  1.00  0.00     0.275 C 
HETATM   31  O2  UNL     1      14.101  -7.790   0.997  1.00  0.00    -0.301 OA
ENDBRANCH  10  30
BRANCH  12  32
HETATM   32  C13 UNL     1      16.024  -9.667   5.648  1.00  0.00     0.275 C 
HETATM   33  O4  UNL     1      17.181  -9.560   6.046  1.00  0.00    -0.301 OA
ENDBRANCH  12  32
BRANCH  11  34
HETATM   34  O3  UNL     1      14.829  -9.734   3.133  1.00  0.00    -0.359 OA
HETATM   35  H13 UNL     1      14.369  -9.626   2.262  1.00  0.00     0.217 HD
ENDBRANCH  11  34
TORSDOF 6
ENDMDL
MODEL 8
REMARK minimizedAffinity -5.3443017
REMARK CNNscore 0.161333472
REMARK CNNaffinity 4.92941999
REMARK  6 active torsions:
REMARK  status: ('A' for Active; 'I' for Inactive)
REMARK    1  A    between atoms: C9_10  and  C10_11 
REMARK    2  A    between atoms: C11_13  and  O3_14 
REMARK    3  A    between atoms: C12_15  and  C13_16 
REMARK    4  A    between atoms: C14_18  and  O5_19 
REMARK    5  A    between atoms: C16_21  and  C17_22 
REMARK    6  A    between atoms: C17_22  and  C18_23 
ROOT
HETATM    1  C1  UNL     1     -15.128  14.501  -6.363  1.00  0.00     0.043 C 
HETATM    2  C2  UNL     1     -14.694  13.412  -5.412  1.00  0.00    -0.087 C 
HETATM    3  C3  UNL     1     -13.388  13.097  -5.309  1.00  0.00    -0.024 C 
HETATM    4  C4  UNL     1     -12.769  12.056  -4.431  1.00  0.00     0.030 C 
HETATM    5  C5  UNL     1     -11.944  12.622  -3.274  1.00  0.00     0.042 C 
HETATM    6  C6  UNL     1     -12.595  13.622  -2.264  1.00  0.00     0.069 C 
HETATM    7  C7  UNL     1     -12.700  15.022  -2.917  1.00  0.00     0.047 C 
HETATM    8  O1  UNL     1     -11.517  13.785  -1.278  1.00  0.00    -0.338 OA
HETATM    9  C8  UNL     1     -11.897  14.186  -0.031  1.00  0.00     0.095 A 
HETATM   10  C9  UNL     1     -11.142  15.153   0.642  1.00  0.00     0.070 A 
HETATM   11  C11 UNL     1     -11.547  15.599   1.909  1.00  0.00     0.097 A 
HETATM   12  C12 UNL     1     -12.686  15.049   2.507  1.00  0.00     0.069 A 
HETATM   13  C14 UNL     1     -13.408  14.044   1.839  1.00  0.00     0.091 A 
HETATM   14  C15 UNL     1     -13.008  13.598   0.572  1.00  0.00     0.015 A 
HETATM   15  C16 UNL     1     -13.739  12.529  -0.199  1.00  0.00     0.032 C 
HETATM   16  C21 UNL     1     -13.960  13.072  -1.650  1.00  0.00     0.034 C 
HETATM   17  C22 UNL     1     -15.068  14.127  -1.624  1.00  0.00     0.006 A 
HETATM   18  C23 UNL     1     -16.174  14.367  -2.665  1.00  0.00    -0.001 A 
HETATM   19  C24 UNL     1     -16.729  13.595  -3.834  1.00  0.00     0.010 C 
HETATM   20  C25 UNL     1     -15.802  12.711  -4.657  1.00  0.00     0.034 C 
HETATM   21  C26 UNL     1     -16.519  13.853  -1.261  1.00  0.00    -0.039 A 
HETATM   22  C27 UNL     1     -17.193  14.826  -0.320  1.00  0.00     0.015 C 
HETATM   23  C28 UNL     1     -17.010  12.434  -1.068  1.00  0.00     0.015 C 
ENDROOT
BRANCH  15  24
HETATM   24  C17 UNL     1     -13.047  11.143  -0.206  1.00  0.00     0.014 C 
BRANCH  24  25
HETATM   25  C18 UNL     1     -14.003   9.925  -0.224  1.00  0.00    -0.022 C 
HETATM   26  C19 UNL     1     -13.434   8.746   0.575  1.00  0.00     0.009 C 
HETATM   27  C20 UNL     1     -14.243   9.470  -1.669  1.00  0.00     0.009 C 
ENDBRANCH  24  25
ENDBRANCH  15  24
BRANCH  13  28
HETATM   28  O5  UNL     1     -14.524  13.469   2.394  1.00  0.00    -0.359 OA
HETATM   29  H15 UNL     1     -14.729  13.938   3.236  1.00  0.00     0.217 HD
ENDBRANCH  13  28
BRANCH  10  30
HETATM   30  C10 UNL     1      -9.938  15.710  -0.004  1.00  0.00     0.275 C 
HETATM   31  O2  UNL     1      -8.836  15.552   0.509  1.00  0.00    -0.301 OA
ENDBRANCH  10  30
BRANCH  12  32
HETATM   32  C13 UNL     1     -13.123  15.537   3.832  1.00  0.00     0.275 C 
HETATM   33  O4  UNL     1     -13.458  16.710   3.984  1.00  0.00    -0.301 OA
ENDBRANCH  12  32
BRANCH  11  34
HETATM   34  O3  UNL     1     -10.856  16.572   2.589  1.00  0.00    -0.359 OA
HETATM   35  H13 UNL     1     -10.081  16.855   2.041  1.00  0.00     0.217 HD
ENDBRANCH  11  34
TORSDOF 6
ENDMDL
MODEL 9
REMARK minimizedAffinity -4.75192595
REMARK CNNscore 0.160248846
REMARK CNNaffinity 4.55302286
REMARK  6 active torsions:
REMARK  status: ('A' for Active; 'I' for Inactive)
REMARK    1  A    between atoms: C9_10  and  C10_11 
REMARK    2  A    between atoms: C11_13  and  O3_14 
REMARK    3  A    between atoms: C12_15  and  C13_16 
REMARK    4  A    between atoms: C14_18  and  O5_19 
REMARK    5  A    between atoms: C16_21  and  C17_22 
REMARK    6  A    between atoms: C17_22  and  C18_23 
ROOT
HETATM    1  C1  UNL     1     -20.847   7.449  19.959  1.00  0.00     0.043 C 
HETATM    2  C2  UNL     1     -19.819   6.377  20.228  1.00  0.00    -0.087 C 
HETATM    3  C3  UNL     1     -18.867   6.121  19.310  1.00  0.00    -0.024 C 
HETATM    4  C4  UNL     1     -17.771   5.105  19.395  1.00  0.00     0.030 C 
HETATM    5  C5  UNL     1     -16.375   5.704  19.566  1.00  0.00     0.042 C 
HETATM    6  C6  UNL     1     -16.078   6.670  20.759  1.00  0.00     0.069 C 
HETATM    7  C7  UNL     1     -16.674   8.066  20.454  1.00  0.00     0.047 C 
HETATM    8  O1  UNL     1     -14.630   6.878  20.615  1.00  0.00    -0.338 OA
HETATM    9  C8  UNL     1     -13.961   7.257  21.741  1.00  0.00     0.095 A 
HETATM   10  C9  UNL     1     -12.983   8.254  21.659  1.00  0.00     0.070 A 
HETATM   11  C11 UNL     1     -12.317   8.677  22.819  1.00  0.00     0.097 A 
HETATM   12  C12 UNL     1     -12.611   8.075  24.047  1.00  0.00     0.069 A 
HETATM   13  C14 UNL     1     -13.562   7.042  24.106  1.00  0.00     0.091 A 
HETATM   14  C15 UNL     1     -14.231   6.617  22.950  1.00  0.00     0.015 A 
HETATM   15  C16 UNL     1     -15.265   5.520  22.946  1.00  0.00     0.032 C 
HETATM   16  C21 UNL     1     -16.510   6.058  22.166  1.00  0.00     0.034 C 
HETATM   17  C22 UNL     1     -17.254   7.062  23.049  1.00  0.00     0.006 A 
HETATM   18  C23 UNL     1     -18.773   7.256  23.192  1.00  0.00    -0.001 A 
HETATM   19  C24 UNL     1     -19.995   6.464  22.803  1.00  0.00     0.010 C 
HETATM   20  C25 UNL     1     -19.971   5.625  21.532  1.00  0.00     0.034 C 
HETATM   21  C26 UNL     1     -17.939   6.722  24.364  1.00  0.00    -0.039 A 
HETATM   22  C27 UNL     1     -17.709   7.661  25.527  1.00  0.00     0.015 C 
HETATM   23  C28 UNL     1     -18.082   5.282  24.808  1.00  0.00     0.015 C 
ENDROOT
BRANCH  15  24
HETATM   24  C17 UNL     1     -14.773   4.166  22.376  1.00  0.00     0.014 C 
BRANCH  24  25
HETATM   25  C18 UNL     1     -14.401   3.097  23.432  1.00  0.00    -0.022 C 
HETATM   26  C19 UNL     1     -15.293   3.195  24.676  1.00  0.00     0.009 C 
HETATM   27  C20 UNL     1     -12.939   3.272  23.860  1.00  0.00     0.009 C 
ENDBRANCH  24  25
ENDBRANCH  15  24
BRANCH  13  28
HETATM   28  O5  UNL     1     -13.872   6.416  25.288  1.00  0.00    -0.359 OA
HETATM   29  H15 UNL     1     -13.391   6.872  26.017  1.00  0.00     0.217 HD
ENDBRANCH  13  28
BRANCH  10  30
HETATM   30  C10 UNL     1     -12.682   8.867  20.351  1.00  0.00     0.275 C 
HETATM   31  O2  UNL     1     -11.524   8.930  19.953  1.00  0.00    -0.301 OA
ENDBRANCH  10  30
BRANCH  12  32
HETATM   32  C13 UNL     1     -11.923   8.539  25.271  1.00  0.00     0.275 C 
HETATM   33  O4  UNL     1     -12.164   9.650  25.737  1.00  0.00    -0.301 OA
ENDBRANCH  12  32
BRANCH  11  34
HETATM   34  O3  UNL     1     -11.376   9.678  22.789  1.00  0.00    -0.359 OA
HETATM   35  H13 UNL     1     -11.278   9.997  21.856  1.00  0.00     0.217 HD
ENDBRANCH  11  34
TORSDOF 6
ENDMDL
