MODEL 1
REMARK minimizedAffinity -8.46123695
REMARK CNNscore 0.36953488
REMARK CNNaffinity 6.89557457
REMARK  11 active torsions:
REMARK  status: ('A' for Active; 'I' for Inactive)
REMARK    1  A    between atoms: C2_2  and  C3_3 
REMARK    2  A    between atoms: C2_2  and  C4_5 
REMARK    3  A    between atoms: C3_3  and  O1_4 
REMARK    4  A    between atoms: C13_14  and  C14_15 
REMARK    5  A    between atoms: C14_15  and  C16_17 
REMARK    6  A    between atoms: C16_17  and  C17_18 
REMARK    7  A    between atoms: C17_18  and  C18_19 
REMARK    8  A    between atoms: C27_28  and  C28_29 
REMARK    9  A    between atoms: C28_29  and  C29_30 
REMARK   10  A    between atoms: C29_30  and  C30_31 
REMARK   11  A    between atoms: C30_31  and  O3_33 
ROOT
HETATM    1  C4  UNL     1      -6.116   7.335  15.503  1.00  0.00     0.025 C 
HETATM    2  C5  UNL     1      -5.303   8.644  15.703  1.00  0.00     0.010 C 
HETATM    3  C6  UNL     1      -3.805   8.572  15.393  1.00  0.00     0.007 C 
HETATM    4  C7  UNL     1      -3.336   7.184  14.969  1.00  0.00     0.004 C 
HETATM    5  C8  UNL     1      -4.208   6.589  13.840  1.00  0.00    -0.027 A 
HETATM    6  C9  UNL     1      -3.521   5.466  13.066  1.00  0.00     0.011 C 
HETATM    7  C10 UNL     1      -2.145   5.845  12.481  1.00  0.00     0.011 C 
HETATM    8  C11 UNL     1      -1.476   7.067  13.143  1.00  0.00    -0.032 C 
HETATM    9  C12 UNL     1      -1.961   8.354  12.412  1.00  0.00     0.016 C 
HETATM   10  C13 UNL     1       0.092   7.072  13.155  1.00  0.00    -0.002 C 
HETATM   11  C22 UNL     1       0.417   8.016  14.353  1.00  0.00     0.006 C 
HETATM   12  C23 UNL     1      -0.868   8.166  15.191  1.00  0.00     0.011 C 
HETATM   13  C24 UNL     1      -1.801   7.053  14.680  1.00  0.00    -0.032 C 
HETATM   14  C25 UNL     1      -1.321   5.748  15.415  1.00  0.00     0.016 C 
HETATM   15  C26 UNL     1      -5.253   7.345  13.030  1.00  0.00     0.022 A 
HETATM   16  C27 UNL     1      -5.722   6.544  14.218  1.00  0.00    -0.024 A 
ENDROOT
BRANCH  10  17
HETATM   17  C14 UNL     1       0.891   7.458  11.871  1.00  0.00    -0.014 C 
HETATM   18  C15 UNL     1       1.454   8.881  11.950  1.00  0.00     0.010 C 
BRANCH  17  19
HETATM   19  C16 UNL     1      -0.017   7.314  10.617  1.00  0.00     0.008 C 
BRANCH  19  20
HETATM   20  C17 UNL     1       0.116   8.460   9.609  1.00  0.00     0.028 C 
BRANCH  20  21
HETATM   21  C18 UNL     1       0.476   7.943   8.242  1.00  0.00    -0.025 C 
HETATM   22  C19 UNL     1       1.712   7.730   7.747  1.00  0.00    -0.091 C 
HETATM   23  C20 UNL     1       1.899   7.188   6.355  1.00  0.00     0.042 C 
HETATM   24  C21 UNL     1       2.993   8.015   8.481  1.00  0.00     0.042 C 
ENDBRANCH  20  21
ENDBRANCH  19  20
ENDBRANCH  17  19
ENDBRANCH  10  17
BRANCH  16  25
HETATM   25  C28 UNL     1      -6.378   5.160  14.063  1.00  0.00     0.021 C 
BRANCH  25  26
HETATM   26  C29 UNL     1      -7.271   4.884  12.857  1.00  0.00     0.111 C 
BRANCH  26  27
HETATM   27  C30 UNL     1      -7.471   3.427  12.538  1.00  0.00     0.139 C 
HETATM   28  O2  UNL     1      -8.400   2.703  12.847  1.00  0.00    -0.650 OA
BRANCH  27  29
HETATM   29  O3  UNL     1      -6.432   2.924  11.839  1.00  0.00    -0.776 OA
HETATM   30  H48 UNL     1      -6.662   1.979  11.718  1.00  0.00     0.167 HD
ENDBRANCH  27  29
ENDBRANCH  26  27
ENDBRANCH  25  26
ENDBRANCH  16  25
BRANCH   1  31
HETATM   31  C2  UNL     1      -7.598   7.686  15.658  1.00  0.00    -0.061 C 
HETATM   32  C1  UNL     1      -8.064   8.867  15.207  1.00  0.00     0.017 C 
BRANCH  31  33
HETATM   33  C3  UNL     1      -8.478   6.654  16.328  1.00  0.00     0.198 C 
BRANCH  33  34
HETATM   34  O1  UNL     1      -9.751   6.570  15.695  1.00  0.00    -0.397 OA
HETATM   35  H5  UNL     1     -10.277   5.961  16.235  1.00  0.00     0.209 HD
ENDBRANCH  33  34
ENDBRANCH  31  33
ENDBRANCH   1  31
TORSDOF 11
ENDMDL
MODEL 2
REMARK minimizedAffinity -8.65425587
REMARK CNNscore 0.31647867
REMARK CNNaffinity 6.67107248
REMARK  11 active torsions:
REMARK  status: ('A' for Active; 'I' for Inactive)
REMARK    1  A    between atoms: C2_2  and  C3_3 
REMARK    2  A    between atoms: C2_2  and  C4_5 
REMARK    3  A    between atoms: C3_3  and  O1_4 
REMARK    4  A    between atoms: C13_14  and  C14_15 
REMARK    5  A    between atoms: C14_15  and  C16_17 
REMARK    6  A    between atoms: C16_17  and  C17_18 
REMARK    7  A    between atoms: C17_18  and  C18_19 
REMARK    8  A    between atoms: C27_28  and  C28_29 
REMARK    9  A    between atoms: C28_29  and  C29_30 
REMARK   10  A    between atoms: C29_30  and  C30_31 
REMARK   11  A    between atoms: C30_31  and  O3_33 
ROOT
HETATM    1  C4  UNL     1       3.781   8.433  10.894  1.00  0.00     0.025 C 
HETATM    2  C5  UNL     1       3.419   9.090  12.254  1.00  0.00     0.010 C 
HETATM    3  C6  UNL     1       1.947   9.032  12.672  1.00  0.00     0.007 C 
HETATM    4  C7  UNL     1       1.047   8.358  11.640  1.00  0.00     0.004 C 
HETATM    5  C8  UNL     1       1.595   6.986  11.189  1.00  0.00    -0.027 A 
HETATM    6  C9  UNL     1       0.536   6.082  10.560  1.00  0.00     0.011 C 
HETATM    7  C10 UNL     1      -0.710   5.854  11.441  1.00  0.00     0.011 C 
HETATM    8  C11 UNL     1      -0.920   6.905  12.549  1.00  0.00    -0.032 C 
HETATM    9  C12 UNL     1      -0.140   6.450  13.818  1.00  0.00     0.016 C 
HETATM   10  C13 UNL     1      -2.406   7.184  12.962  1.00  0.00    -0.002 C 
HETATM   11  C22 UNL     1      -2.324   8.618  13.570  1.00  0.00     0.006 C 
HETATM   12  C23 UNL     1      -0.982   9.236  13.128  1.00  0.00     0.011 C 
HETATM   13  C24 UNL     1      -0.476   8.311  12.006  1.00  0.00    -0.032 C 
HETATM   14  C25 UNL     1      -1.257   8.765  10.718  1.00  0.00     0.016 C 
HETATM   15  C26 UNL     1       2.741   6.226  11.846  1.00  0.00     0.022 A 
HETATM   16  C27 UNL     1       3.054   7.077  10.641  1.00  0.00    -0.024 A 
ENDROOT
BRANCH  10  17
HETATM   17  C14 UNL     1      -3.165   6.193  13.899  1.00  0.00    -0.014 C 
HETATM   18  C15 UNL     1      -3.474   4.864  13.201  1.00  0.00     0.010 C 
BRANCH  17  19
HETATM   19  C16 UNL     1      -4.481   6.845  14.409  1.00  0.00     0.008 C 
BRANCH  19  20
HETATM   20  C17 UNL     1      -5.691   6.615  13.497  1.00  0.00     0.028 C 
BRANCH  20  21
HETATM   21  C18 UNL     1      -6.256   5.232  13.681  1.00  0.00    -0.025 C 
HETATM   22  C19 UNL     1      -7.375   4.725  13.124  1.00  0.00    -0.091 C 
HETATM   23  C20 UNL     1      -7.794   3.306  13.400  1.00  0.00     0.042 C 
HETATM   24  C21 UNL     1      -8.308   5.486  12.224  1.00  0.00     0.042 C 
ENDBRANCH  20  21
ENDBRANCH  19  20
ENDBRANCH  17  19
ENDBRANCH  10  17
BRANCH  16  25
HETATM   25  C28 UNL     1       3.248   6.470   9.240  1.00  0.00     0.021 C 
BRANCH  25  26
HETATM   26  C29 UNL     1       2.383   6.963   8.083  1.00  0.00     0.111 C 
BRANCH  26  27
HETATM   27  C30 UNL     1       2.362   8.456   7.899  1.00  0.00     0.139 C 
HETATM   28  O2  UNL     1       3.268   9.190   7.547  1.00  0.00    -0.650 OA
BRANCH  27  29
HETATM   29  O3  UNL     1       1.157   8.978   8.208  1.00  0.00    -0.776 OA
HETATM   30  H48 UNL     1       1.276   9.942   8.077  1.00  0.00     0.167 HD
ENDBRANCH  27  29
ENDBRANCH  26  27
ENDBRANCH  25  26
ENDBRANCH  16  25
BRANCH   1  31
HETATM   31  C2  UNL     1       5.307   8.418  10.782  1.00  0.00    -0.061 C 
HETATM   32  C1  UNL     1       5.960   9.489  10.287  1.00  0.00     0.017 C 
BRANCH  31  33
HETATM   33  C3  UNL     1       6.016   7.166  11.249  1.00  0.00     0.198 C 
BRANCH  33  34
HETATM   34  O1  UNL     1       7.189   6.916  10.481  1.00  0.00    -0.397 OA
HETATM   35  H5  UNL     1       7.526   6.059  10.782  1.00  0.00     0.209 HD
ENDBRANCH  33  34
ENDBRANCH  31  33
ENDBRANCH   1  31
TORSDOF 11
ENDMDL
MODEL 3
REMARK minimizedAffinity -6.57505178
REMARK CNNscore 0.295290947
REMARK CNNaffinity 6.41533279
REMARK  11 active torsions:
REMARK  status: ('A' for Active; 'I' for Inactive)
REMARK    1  A    between atoms: C2_2  and  C3_3 
REMARK    2  A    between atoms: C2_2  and  C4_5 
REMARK    3  A    between atoms: C3_3  and  O1_4 
REMARK    4  A    between atoms: C13_14  and  C14_15 
REMARK    5  A    between atoms: C14_15  and  C16_17 
REMARK    6  A    between atoms: C16_17  and  C17_18 
REMARK    7  A    between atoms: C17_18  and  C18_19 
REMARK    8  A    between atoms: C27_28  and  C28_29 
REMARK    9  A    between atoms: C28_29  and  C29_30 
REMARK   10  A    between atoms: C29_30  and  C30_31 
REMARK   11  A    between atoms: C30_31  and  O3_33 
ROOT
HETATM    1  C4  UNL     1      -2.667  11.383  17.320  1.00  0.00     0.025 C 
HETATM    2  C5  UNL     1      -2.455   9.996  17.987  1.00  0.00     0.010 C 
HETATM    3  C6  UNL     1      -2.428   8.784  17.051  1.00  0.00     0.007 C 
HETATM    4  C7  UNL     1      -2.661   9.140  15.586  1.00  0.00     0.004 C 
HETATM    5  C8  UNL     1      -1.741  10.285  15.106  1.00  0.00    -0.027 A 
HETATM    6  C9  UNL     1      -1.584  10.348  13.588  1.00  0.00     0.011 C 
HETATM    7  C10 UNL     1      -1.112   9.029  12.942  1.00  0.00     0.011 C 
HETATM    8  C11 UNL     1      -1.331   7.771  13.807  1.00  0.00    -0.032 C 
HETATM    9  C12 UNL     1      -0.089   7.577  14.726  1.00  0.00     0.016 C 
HETATM   10  C13 UNL     1      -1.577   6.433  13.026  1.00  0.00    -0.002 C 
HETATM   11  C22 UNL     1      -2.340   5.566  14.075  1.00  0.00     0.006 C 
HETATM   12  C23 UNL     1      -2.847   6.512  15.182  1.00  0.00     0.011 C 
HETATM   13  C24 UNL     1      -2.682   7.926  14.595  1.00  0.00    -0.032 C 
HETATM   14  C25 UNL     1      -3.935   8.132  13.666  1.00  0.00     0.016 C 
HETATM   15  C26 UNL     1      -0.551  10.850  15.872  1.00  0.00     0.022 A 
HETATM   16  C27 UNL     1      -1.872  11.565  15.991  1.00  0.00    -0.024 A 
ENDROOT
BRANCH  10  17
HETATM   17  C14 UNL     1      -0.380   5.661  12.387  1.00  0.00    -0.014 C 
HETATM   18  C15 UNL     1       0.923   5.872  13.166  1.00  0.00     0.010 C 
BRANCH  17  19
HETATM   19  C16 UNL     1      -0.194   6.101  10.908  1.00  0.00     0.008 C 
BRANCH  19  20
HETATM   20  C17 UNL     1       0.897   7.156  10.698  1.00  0.00     0.028 C 
BRANCH  20  21
HETATM   21  C18 UNL     1       1.063   7.486   9.239  1.00  0.00    -0.025 C 
HETATM   22  C19 UNL     1       1.940   6.941   8.372  1.00  0.00    -0.091 C 
HETATM   23  C20 UNL     1       1.964   7.373   6.931  1.00  0.00     0.042 C 
HETATM   24  C21 UNL     1       2.968   5.903   8.727  1.00  0.00     0.042 C 
ENDBRANCH  20  21
ENDBRANCH  19  20
ENDBRANCH  17  19
ENDBRANCH  10  17
BRANCH  16  25
HETATM   25  C28 UNL     1      -2.178  12.854  15.206  1.00  0.00     0.021 C 
BRANCH  25  26
HETATM   26  C29 UNL     1      -1.034  13.785  14.817  1.00  0.00     0.111 C 
BRANCH  26  27
HETATM   27  C30 UNL     1      -1.420  14.916  13.903  1.00  0.00     0.139 C 
HETATM   28  O2  UNL     1      -1.157  16.100  14.008  1.00  0.00    -0.650 OA
BRANCH  27  29
HETATM   29  O3  UNL     1      -2.178  14.485  12.873  1.00  0.00    -0.776 OA
HETATM   30  H48 UNL     1      -2.385  15.302  12.373  1.00  0.00     0.167 HD
ENDBRANCH  27  29
ENDBRANCH  26  27
ENDBRANCH  25  26
ENDBRANCH  16  25
BRANCH   1  31
HETATM   31  C2  UNL     1      -2.447  12.449  18.396  1.00  0.00    -0.061 C 
HETATM   32  C1  UNL     1      -1.216  12.648  18.909  1.00  0.00     0.017 C 
BRANCH  31  33
HETATM   33  C3  UNL     1      -3.659  13.241  18.831  1.00  0.00     0.198 C 
BRANCH  33  34
HETATM   34  O1  UNL     1      -4.573  12.431  19.564  1.00  0.00    -0.397 OA
HETATM   35  H5  UNL     1      -5.352  12.984  19.722  1.00  0.00     0.209 HD
ENDBRANCH  33  34
ENDBRANCH  31  33
ENDBRANCH   1  31
TORSDOF 11
ENDMDL
MODEL 4
REMARK minimizedAffinity -6.84284115
REMARK CNNscore 0.289472103
REMARK CNNaffinity 6.47625923
REMARK  11 active torsions:
REMARK  status: ('A' for Active; 'I' for Inactive)
REMARK    1  A    between atoms: C2_2  and  C3_3 
REMARK    2  A    between atoms: C2_2  and  C4_5 
REMARK    3  A    between atoms: C3_3  and  O1_4 
REMARK    4  A    between atoms: C13_14  and  C14_15 
REMARK    5  A    between atoms: C14_15  and  C16_17 
REMARK    6  A    between atoms: C16_17  and  C17_18 
REMARK    7  A    between atoms: C17_18  and  C18_19 
REMARK    8  A    between atoms: C27_28  and  C28_29 
REMARK    9  A    between atoms: C28_29  and  C29_30 
REMARK   10  A    between atoms: C29_30  and  C30_31 
REMARK   11  A    between atoms: C30_31  and  O3_33 
ROOT
HETATM    1  C4  UNL     1      -1.596   6.671  13.685  1.00  0.00     0.025 C 
HETATM    2  C5  UNL     1      -2.577   6.330  14.840  1.00  0.00     0.010 C 
HETATM    3  C6  UNL     1      -2.760   7.399  15.920  1.00  0.00     0.007 C 
HETATM    4  C7  UNL     1      -1.897   8.639  15.703  1.00  0.00     0.004 C 
HETATM    5  C8  UNL     1      -2.033   9.206  14.272  1.00  0.00    -0.027 A 
HETATM    6  C9  UNL     1      -1.598  10.665  14.150  1.00  0.00     0.011 C 
HETATM    7  C10 UNL     1      -2.303  11.624  15.132  1.00  0.00     0.011 C 
HETATM    8  C11 UNL     1      -2.939  10.940  16.358  1.00  0.00    -0.032 C 
HETATM    9  C12 UNL     1      -4.390  10.510  15.990  1.00  0.00     0.016 C 
HETATM   10  C13 UNL     1      -3.000  11.796  17.671  1.00  0.00    -0.002 C 
HETATM   11  C22 UNL     1      -3.085  10.704  18.782  1.00  0.00     0.006 C 
HETATM   12  C23 UNL     1      -2.668   9.362  18.150  1.00  0.00     0.011 C 
HETATM   13  C24 UNL     1      -2.021   9.745  16.807  1.00  0.00    -0.032 C 
HETATM   14  C25 UNL     1      -0.553  10.178  17.168  1.00  0.00     0.016 C 
HETATM   15  C26 UNL     1      -3.076   8.786  13.244  1.00  0.00     0.022 A 
HETATM   16  C27 UNL     1      -1.716   8.140  13.176  1.00  0.00    -0.024 A 
ENDROOT
BRANCH  10  17
HETATM   17  C14 UNL     1      -4.093  12.897  17.845  1.00  0.00    -0.014 C 
HETATM   18  C15 UNL     1      -3.562  14.293  17.504  1.00  0.00     0.010 C 
BRANCH  17  19
HETATM   19  C16 UNL     1      -4.640  12.876  19.301  1.00  0.00     0.008 C 
BRANCH  19  20
HETATM   20  C17 UNL     1      -5.762  13.885  19.565  1.00  0.00     0.028 C 
BRANCH  20  21
HETATM   21  C18 UNL     1      -6.632  13.444  20.711  1.00  0.00    -0.025 C 
HETATM   22  C19 UNL     1      -6.430  13.668  22.025  1.00  0.00    -0.091 C 
HETATM   23  C20 UNL     1      -7.414  13.170  23.049  1.00  0.00     0.042 C 
HETATM   24  C21 UNL     1      -5.243  14.388  22.602  1.00  0.00     0.042 C 
ENDBRANCH  20  21
ENDBRANCH  19  20
ENDBRANCH  17  19
ENDBRANCH  10  17
BRANCH  16  25
HETATM   25  C28 UNL     1      -0.654   8.577  12.151  1.00  0.00     0.021 C 
BRANCH  25  26
HETATM   26  C29 UNL     1      -1.066   8.827  10.703  1.00  0.00     0.111 C 
BRANCH  26  27
HETATM   27  C30 UNL     1      -0.035   8.446   9.676  1.00  0.00     0.139 C 
HETATM   28  O2  UNL     1       0.880   7.649   9.778  1.00  0.00    -0.650 OA
BRANCH  27  29
HETATM   29  O3  UNL     1      -0.195   9.141   8.530  1.00  0.00    -0.776 OA
HETATM   30  H48 UNL     1       0.540   8.830   7.960  1.00  0.00     0.167 HD
ENDBRANCH  27  29
ENDBRANCH  26  27
ENDBRANCH  25  26
ENDBRANCH  16  25
BRANCH   1  31
HETATM   31  C2  UNL     1      -1.729   5.572  12.628  1.00  0.00    -0.061 C 
HETATM   32  C1  UNL     1      -0.657   5.199  11.901  1.00  0.00     0.017 C 
BRANCH  31  33
HETATM   33  C3  UNL     1      -3.097   4.949  12.457  1.00  0.00     0.198 C 
BRANCH  33  34
HETATM   34  O1  UNL     1      -3.012   3.531  12.357  1.00  0.00    -0.397 OA
HETATM   35  H5  UNL     1      -3.909   3.224  12.160  1.00  0.00     0.209 HD
ENDBRANCH  33  34
ENDBRANCH  31  33
ENDBRANCH   1  31
TORSDOF 11
ENDMDL
MODEL 5
REMARK minimizedAffinity -8.23454762
REMARK CNNscore 0.2776784
REMARK CNNaffinity 6.68105745
REMARK  11 active torsions:
REMARK  status: ('A' for Active; 'I' for Inactive)
REMARK    1  A    between atoms: C2_2  and  C3_3 
REMARK    2  A    between atoms: C2_2  and  C4_5 
REMARK    3  A    between atoms: C3_3  and  O1_4 
REMARK    4  A    between atoms: C13_14  and  C14_15 
REMARK    5  A    between atoms: C14_15  and  C16_17 
REMARK    6  A    between atoms: C16_17  and  C17_18 
REMARK    7  A    between atoms: C17_18  and  C18_19 
REMARK    8  A    between atoms: C27_28  and  C28_29 
REMARK    9  A    between atoms: C28_29  and  C29_30 
REMARK   10  A    between atoms: C29_30  and  C30_31 
REMARK   11  A    between atoms: C30_31  and  O3_33 
ROOT
HETATM    1  C4  UNL     1       1.099   7.284   9.323  1.00  0.00     0.025 C 
HETATM    2  C5  UNL     1       0.245   8.579   9.397  1.00  0.00     0.010 C 
HETATM    3  C6  UNL     1      -0.701   8.708  10.595  1.00  0.00     0.007 C 
HETATM    4  C7  UNL     1      -0.680   7.495  11.521  1.00  0.00     0.004 C 
HETATM    5  C8  UNL     1       0.755   7.095  11.933  1.00  0.00    -0.027 A 
HETATM    6  C9  UNL     1       0.811   6.238  13.195  1.00  0.00     0.011 C 
HETATM    7  C10 UNL     1       0.099   6.855  14.417  1.00  0.00     0.011 C 
HETATM    8  C11 UNL     1      -0.932   7.951  14.078  1.00  0.00    -0.032 C 
HETATM    9  C12 UNL     1      -0.198   9.322  14.016  1.00  0.00     0.016 C 
HETATM   10  C13 UNL     1      -2.143   8.087  15.066  1.00  0.00    -0.002 C 
HETATM   11  C22 UNL     1      -3.230   8.763  14.175  1.00  0.00     0.006 C 
HETATM   12  C23 UNL     1      -2.791   8.611  12.705  1.00  0.00     0.011 C 
HETATM   13  C24 UNL     1      -1.662   7.564  12.740  1.00  0.00    -0.032 C 
HETATM   14  C25 UNL     1      -2.395   6.174  12.800  1.00  0.00     0.016 C 
HETATM   15  C26 UNL     1       2.012   7.922  11.693  1.00  0.00     0.022 A 
HETATM   16  C27 UNL     1       1.679   6.838  10.701  1.00  0.00    -0.024 A 
ENDROOT
BRANCH  10  17
HETATM   17  C14 UNL     1      -1.967   8.818  16.433  1.00  0.00    -0.014 C 
HETATM   18  C15 UNL     1      -2.984   9.951  16.615  1.00  0.00     0.010 C 
BRANCH  17  19
HETATM   19  C16 UNL     1      -0.521   9.377  16.555  1.00  0.00     0.008 C 
BRANCH  19  20
HETATM   20  C17 UNL     1      -0.444  10.813  17.082  1.00  0.00     0.028 C 
BRANCH  20  21
HETATM   21  C18 UNL     1      -0.096  10.838  18.547  1.00  0.00    -0.025 C 
HETATM   22  C19 UNL     1       1.135  10.789  19.096  1.00  0.00    -0.091 C 
HETATM   23  C20 UNL     1       1.312  10.842  20.590  1.00  0.00     0.042 C 
HETATM   24  C21 UNL     1       2.417  10.657  18.322  1.00  0.00     0.042 C 
ENDBRANCH  20  21
ENDBRANCH  19  20
ENDBRANCH  17  19
ENDBRANCH  10  17
BRANCH  16  25
HETATM   25  C28 UNL     1       2.389   5.473  10.711  1.00  0.00     0.021 C 
BRANCH  25  26
HETATM   26  C29 UNL     1       3.743   5.326  10.022  1.00  0.00     0.111 C 
BRANCH  26  27
HETATM   27  C30 UNL     1       3.849   4.162   9.074  1.00  0.00     0.139 C 
HETATM   28  O2  UNL     1       3.793   4.166   7.858  1.00  0.00    -0.650 OA
BRANCH  27  29
HETATM   29  O3  UNL     1       3.996   2.995   9.736  1.00  0.00    -0.776 OA
HETATM   30  H48 UNL     1       4.025   2.321   9.024  1.00  0.00     0.167 HD
ENDBRANCH  27  29
ENDBRANCH  26  27
ENDBRANCH  25  26
ENDBRANCH  16  25
BRANCH   1  31
HETATM   31  C2  UNL     1       2.107   7.462   8.186  1.00  0.00    -0.061 C 
HETATM   32  C1  UNL     1       1.896   6.864   6.996  1.00  0.00     0.017 C 
BRANCH  31  33
HETATM   33  C3  UNL     1       3.315   8.325   8.472  1.00  0.00     0.198 C 
BRANCH  33  34
HETATM   34  O1  UNL     1       3.370   9.446   7.595  1.00  0.00    -0.397 OA
HETATM   35  H5  UNL     1       4.212   9.890   7.782  1.00  0.00     0.209 HD
ENDBRANCH  33  34
ENDBRANCH  31  33
ENDBRANCH   1  31
TORSDOF 11
ENDMDL
MODEL 6
REMARK minimizedAffinity -6.97333574
REMARK CNNscore 0.264167994
REMARK CNNaffinity 6.38033533
REMARK  11 active torsions:
REMARK  status: ('A' for Active; 'I' for Inactive)
REMARK    1  A    between atoms: C2_2  and  C3_3 
REMARK    2  A    between atoms: C2_2  and  C4_5 
REMARK    3  A    between atoms: C3_3  and  O1_4 
REMARK    4  A    between atoms: C13_14  and  C14_15 
REMARK    5  A    between atoms: C14_15  and  C16_17 
REMARK    6  A    between atoms: C16_17  and  C17_18 
REMARK    7  A    between atoms: C17_18  and  C18_19 
REMARK    8  A    between atoms: C27_28  and  C28_29 
REMARK    9  A    between atoms: C28_29  and  C29_30 
REMARK   10  A    between atoms: C29_30  and  C30_31 
REMARK   11  A    between atoms: C30_31  and  O3_33 
ROOT
HETATM    1  C4  UNL     1       1.587   6.290  10.861  1.00  0.00     0.025 C 
HETATM    2  C5  UNL     1       0.264   5.481  10.776  1.00  0.00     0.010 C 
HETATM    3  C6  UNL     1      -0.719   5.653  11.938  1.00  0.00     0.007 C 
HETATM    4  C7  UNL     1      -0.208   6.582  13.036  1.00  0.00     0.004 C 
HETATM    5  C8  UNL     1       0.298   7.930  12.477  1.00  0.00    -0.027 A 
HETATM    6  C9  UNL     1       0.357   9.042  13.522  1.00  0.00     0.011 C 
HETATM    7  C10 UNL     1      -0.970   9.283  14.271  1.00  0.00     0.011 C 
HETATM    8  C11 UNL     1      -1.967   8.108  14.214  1.00  0.00    -0.032 C 
HETATM    9  C12 UNL     1      -2.846   8.264  12.938  1.00  0.00     0.016 C 
HETATM   10  C13 UNL     1      -2.920   7.951  15.449  1.00  0.00    -0.002 C 
HETATM   11  C22 UNL     1      -3.308   6.442  15.387  1.00  0.00     0.006 C 
HETATM   12  C23 UNL     1      -2.304   5.740  14.450  1.00  0.00     0.011 C 
HETATM   13  C24 UNL     1      -1.164   6.757  14.266  1.00  0.00    -0.032 C 
HETATM   14  C25 UNL     1      -0.268   6.605  15.550  1.00  0.00     0.016 C 
HETATM   15  C26 UNL     1       0.097   8.435  11.053  1.00  0.00     0.022 A 
HETATM   16  C27 UNL     1       1.397   7.747  11.382  1.00  0.00    -0.024 A 
ENDROOT
BRANCH  10  17
HETATM   17  C14 UNL     1      -4.171   8.872  15.602  1.00  0.00    -0.014 C 
HETATM   18  C15 UNL     1      -5.034   8.885  14.336  1.00  0.00     0.010 C 
BRANCH  17  19
HETATM   19  C16 UNL     1      -3.726  10.318  15.959  1.00  0.00     0.008 C 
BRANCH  19  20
HETATM   20  C17 UNL     1      -2.897  10.422  17.243  1.00  0.00     0.028 C 
BRANCH  20  21
HETATM   21  C18 UNL     1      -3.696  11.040  18.359  1.00  0.00    -0.025 C 
HETATM   22  C19 UNL     1      -3.836  12.352  18.636  1.00  0.00    -0.091 C 
HETATM   23  C20 UNL     1      -4.693  12.807  19.786  1.00  0.00     0.042 C 
HETATM   24  C21 UNL     1      -3.167  13.466  17.880  1.00  0.00     0.042 C 
ENDBRANCH  20  21
ENDBRANCH  19  20
ENDBRANCH  17  19
ENDBRANCH  10  17
BRANCH  16  25
HETATM   25  C28 UNL     1       2.694   8.533  11.644  1.00  0.00     0.021 C 
BRANCH  25  26
HETATM   26  C29 UNL     1       3.885   7.825  12.284  1.00  0.00     0.111 C 
BRANCH  26  27
HETATM   27  C30 UNL     1       5.195   8.018  11.570  1.00  0.00     0.139 C 
HETATM   28  O2  UNL     1       6.321   8.000  12.033  1.00  0.00    -0.650 OA
BRANCH  27  29
HETATM   29  O3  UNL     1       5.013   8.266  10.256  1.00  0.00    -0.776 OA
HETATM   30  H48 UNL     1       5.922   8.399   9.912  1.00  0.00     0.167 HD
ENDBRANCH  27  29
ENDBRANCH  26  27
ENDBRANCH  25  26
ENDBRANCH  16  25
BRANCH   1  31
HETATM   31  C2  UNL     1       2.307   6.136   9.520  1.00  0.00    -0.061 C 
HETATM   32  C1  UNL     1       1.907   6.855   8.451  1.00  0.00     0.017 C 
BRANCH  31  33
HETATM   33  C3  UNL     1       3.461   5.160   9.470  1.00  0.00     0.198 C 
BRANCH  33  34
HETATM   34  O1  UNL     1       3.100   3.902  10.033  1.00  0.00    -0.397 OA
HETATM   35  H5  UNL     1       3.913   3.373  10.045  1.00  0.00     0.209 HD
ENDBRANCH  33  34
ENDBRANCH  31  33
ENDBRANCH   1  31
TORSDOF 11
ENDMDL
MODEL 7
REMARK minimizedAffinity -8.18452263
REMARK CNNscore 0.224102288
REMARK CNNaffinity 6.50985193
REMARK  11 active torsions:
REMARK  status: ('A' for Active; 'I' for Inactive)
REMARK    1  A    between atoms: C2_2  and  C3_3 
REMARK    2  A    between atoms: C2_2  and  C4_5 
REMARK    3  A    between atoms: C3_3  and  O1_4 
REMARK    4  A    between atoms: C13_14  and  C14_15 
REMARK    5  A    between atoms: C14_15  and  C16_17 
REMARK    6  A    between atoms: C16_17  and  C17_18 
REMARK    7  A    between atoms: C17_18  and  C18_19 
REMARK    8  A    between atoms: C27_28  and  C28_29 
REMARK    9  A    between atoms: C28_29  and  C29_30 
REMARK   10  A    between atoms: C29_30  and  C30_31 
REMARK   11  A    between atoms: C30_31  and  O3_33 
ROOT
HETATM    1  C4  UNL     1      -0.211   6.597  12.197  1.00  0.00     0.025 C 
HETATM    2  C5  UNL     1      -0.180   7.449  13.495  1.00  0.00     0.010 C 
HETATM    3  C6  UNL     1      -1.536   7.827  14.097  1.00  0.00     0.007 C 
HETATM    4  C7  UNL     1      -2.726   7.330  13.281  1.00  0.00     0.004 C 
HETATM    5  C8  UNL     1      -2.620   5.825  12.946  1.00  0.00    -0.027 A 
HETATM    6  C9  UNL     1      -3.957   5.187  12.576  1.00  0.00     0.011 C 
HETATM    7  C10 UNL     1      -5.070   5.384  13.627  1.00  0.00     0.011 C 
HETATM    8  C11 UNL     1      -4.832   6.549  14.608  1.00  0.00    -0.032 C 
HETATM    9  C12 UNL     1      -4.007   6.018  15.818  1.00  0.00     0.016 C 
HETATM   10  C13 UNL     1      -6.117   7.255  15.164  1.00  0.00    -0.002 C 
HETATM   11  C22 UNL     1      -5.581   8.663  15.567  1.00  0.00     0.006 C 
HETATM   12  C23 UNL     1      -4.211   8.853  14.886  1.00  0.00     0.011 C 
HETATM   13  C24 UNL     1      -4.136   7.729  13.838  1.00  0.00    -0.032 C 
HETATM   14  C25 UNL     1      -4.965   8.257  12.610  1.00  0.00     0.016 C 
HETATM   15  C26 UNL     1      -1.617   4.848  13.547  1.00  0.00     0.022 A 
HETATM   16  C27 UNL     1      -1.288   5.470  12.213  1.00  0.00    -0.024 A 
ENDROOT
BRANCH  10  17
HETATM   17  C14 UNL     1      -6.949   6.595  16.308  1.00  0.00    -0.014 C 
HETATM   18  C15 UNL     1      -7.414   5.182  15.939  1.00  0.00     0.010 C 
BRANCH  17  19
HETATM   19  C16 UNL     1      -8.174   7.485  16.656  1.00  0.00     0.008 C 
BRANCH  19  20
HETATM   20  C17 UNL     1      -8.674   8.349  15.494  1.00  0.00     0.028 C 
BRANCH  20  21
HETATM   21  C18 UNL     1     -10.074   7.966  15.093  1.00  0.00    -0.025 C 
HETATM   22  C19 UNL     1     -10.441   7.064  14.161  1.00  0.00    -0.091 C 
HETATM   23  C20 UNL     1     -11.895   6.784  13.894  1.00  0.00     0.042 C 
HETATM   24  C21 UNL     1      -9.488   6.282  13.300  1.00  0.00     0.042 C 
ENDBRANCH  20  21
ENDBRANCH  19  20
ENDBRANCH  17  19
ENDBRANCH  10  17
BRANCH  16  25
HETATM   25  C28 UNL     1      -1.473   4.708  10.889  1.00  0.00     0.021 C 
BRANCH  25  26
HETATM   26  C29 UNL     1      -2.160   3.346  10.896  1.00  0.00     0.111 C 
BRANCH  26  27
HETATM   27  C30 UNL     1      -1.229   2.166  10.971  1.00  0.00     0.139 C 
HETATM   28  O2  UNL     1      -0.048   2.150  11.266  1.00  0.00    -0.650 OA
BRANCH  27  29
HETATM   29  O3  UNL     1      -1.851   1.020  10.626  1.00  0.00    -0.776 OA
HETATM   30  H48 UNL     1      -1.146   0.341  10.687  1.00  0.00     0.167 HD
ENDBRANCH  27  29
ENDBRANCH  26  27
ENDBRANCH  25  26
ENDBRANCH  16  25
BRANCH   1  31
HETATM   31  C2  UNL     1       1.225   6.161  11.898  1.00  0.00    -0.061 C 
HETATM   32  C1  UNL     1       1.461   4.984  11.285  1.00  0.00     0.017 C 
BRANCH  31  33
HETATM   33  C3  UNL     1       2.329   7.107  12.317  1.00  0.00     0.198 C 
BRANCH  33  34
HETATM   34  O1  UNL     1       2.460   8.189  11.401  1.00  0.00    -0.397 OA
HETATM   35  H5  UNL     1       3.239   8.690  11.689  1.00  0.00     0.209 HD
ENDBRANCH  33  34
ENDBRANCH  31  33
ENDBRANCH   1  31
TORSDOF 11
ENDMDL
MODEL 8
REMARK minimizedAffinity -6.0947361
REMARK CNNscore 0.193332985
REMARK CNNaffinity 5.62559128
REMARK  11 active torsions:
REMARK  status: ('A' for Active; 'I' for Inactive)
REMARK    1  A    between atoms: C2_2  and  C3_3 
REMARK    2  A    between atoms: C2_2  and  C4_5 
REMARK    3  A    between atoms: C3_3  and  O1_4 
REMARK    4  A    between atoms: C13_14  and  C14_15 
REMARK    5  A    between atoms: C14_15  and  C16_17 
REMARK    6  A    between atoms: C16_17  and  C17_18 
REMARK    7  A    between atoms: C17_18  and  C18_19 
REMARK    8  A    between atoms: C27_28  and  C28_29 
REMARK    9  A    between atoms: C28_29  and  C29_30 
REMARK   10  A    between atoms: C29_30  and  C30_31 
REMARK   11  A    between atoms: C30_31  and  O3_33 
ROOT
HETATM    1  C4  UNL     1       4.102  10.725  22.261  1.00  0.00     0.025 C 
HETATM    2  C5  UNL     1       5.268  10.805  23.284  1.00  0.00     0.010 C 
HETATM    3  C6  UNL     1       6.320  11.890  23.038  1.00  0.00     0.007 C 
HETATM    4  C7  UNL     1       6.069  12.709  21.776  1.00  0.00     0.004 C 
HETATM    5  C8  UNL     1       4.624  13.251  21.705  1.00  0.00    -0.027 A 
HETATM    6  C9  UNL     1       4.462  14.436  20.755  1.00  0.00     0.011 C 
HETATM    7  C10 UNL     1       5.420  15.612  21.036  1.00  0.00     0.011 C 
HETATM    8  C11 UNL     1       6.666  15.247  21.868  1.00  0.00    -0.032 C 
HETATM    9  C12 UNL     1       6.313  15.386  23.378  1.00  0.00     0.016 C 
HETATM   10  C13 UNL     1       7.956  16.094  21.586  1.00  0.00    -0.002 C 
HETATM   11  C22 UNL     1       9.095  15.141  22.062  1.00  0.00     0.006 C 
HETATM   12  C23 UNL     1       8.498  13.725  22.188  1.00  0.00     0.011 C 
HETATM   13  C24 UNL     1       7.143  13.805  21.461  1.00  0.00    -0.032 C 
HETATM   14  C25 UNL     1       7.489  13.663  19.933  1.00  0.00     0.016 C 
HETATM   15  C26 UNL     1       3.610  13.230  22.842  1.00  0.00     0.022 A 
HETATM   16  C27 UNL     1       3.555  12.119  21.826  1.00  0.00    -0.024 A 
ENDROOT
BRANCH  10  17
HETATM   17  C14 UNL     1       8.104  17.528  22.183  1.00  0.00    -0.014 C 
HETATM   18  C15 UNL     1       7.783  18.616  21.152  1.00  0.00     0.010 C 
BRANCH  17  19
HETATM   19  C16 UNL     1       9.543  17.727  22.737  1.00  0.00     0.008 C 
BRANCH  19  20
HETATM   20  C17 UNL     1       9.615  18.581  24.007  1.00  0.00     0.028 C 
BRANCH  20  21
HETATM   21  C18 UNL     1       8.350  18.464  24.815  1.00  0.00    -0.025 C 
HETATM   22  C19 UNL     1       8.062  17.542  25.755  1.00  0.00    -0.091 C 
HETATM   23  C20 UNL     1       6.748  17.577  26.488  1.00  0.00     0.042 C 
HETATM   24  C21 UNL     1       8.965  16.407  26.151  1.00  0.00     0.042 C 
ENDBRANCH  20  21
ENDBRANCH  19  20
ENDBRANCH  17  19
ENDBRANCH  10  17
BRANCH  16  25
HETATM   25  C28 UNL     1       2.517  12.100  20.690  1.00  0.00     0.021 C 
BRANCH  25  26
HETATM   26  C29 UNL     1       2.926  11.602  19.306  1.00  0.00     0.111 C 
BRANCH  26  27
HETATM   27  C30 UNL     1       2.075  10.491  18.755  1.00  0.00     0.139 C 
HETATM   28  O2  UNL     1       2.385   9.620  17.963  1.00  0.00    -0.650 OA
BRANCH  27  29
HETATM   29  O3  UNL     1       0.812  10.552  19.226  1.00  0.00    -0.776 OA
HETATM   30  H48 UNL     1       0.357   9.806  18.781  1.00  0.00     0.167 HD
ENDBRANCH  27  29
ENDBRANCH  26  27
ENDBRANCH  25  26
ENDBRANCH  16  25
BRANCH   1  31
HETATM   31  C2  UNL     1       3.075   9.733  22.811  1.00  0.00    -0.061 C 
HETATM   32  C1  UNL     1       2.804   9.702  24.131  1.00  0.00     0.017 C 
BRANCH  31  33
HETATM   33  C3  UNL     1       2.402   8.820  21.810  1.00  0.00     0.198 C 
BRANCH  33  34
HETATM   34  O1  UNL     1       1.747   7.734  22.458  1.00  0.00    -0.397 OA
HETATM   35  H5  UNL     1       1.426   7.156  21.749  1.00  0.00     0.209 HD
ENDBRANCH  33  34
ENDBRANCH  31  33
ENDBRANCH   1  31
TORSDOF 11
ENDMDL
MODEL 9
REMARK minimizedAffinity -5.75973511
REMARK CNNscore 0.192481071
REMARK CNNaffinity 6.17590904
REMARK  11 active torsions:
REMARK  status: ('A' for Active; 'I' for Inactive)
REMARK    1  A    between atoms: C2_2  and  C3_3 
REMARK    2  A    between atoms: C2_2  and  C4_5 
REMARK    3  A    between atoms: C3_3  and  O1_4 
REMARK    4  A    between atoms: C13_14  and  C14_15 
REMARK    5  A    between atoms: C14_15  and  C16_17 
REMARK    6  A    between atoms: C16_17  and  C17_18 
REMARK    7  A    between atoms: C17_18  and  C18_19 
REMARK    8  A    between atoms: C27_28  and  C28_29 
REMARK    9  A    between atoms: C28_29  and  C29_30 
REMARK   10  A    between atoms: C29_30  and  C30_31 
REMARK   11  A    between atoms: C30_31  and  O3_33 
ROOT
HETATM    1  C4  UNL     1      -3.709  12.285  17.603  1.00  0.00     0.025 C 
HETATM    2  C5  UNL     1      -3.464  10.979  18.407  1.00  0.00     0.010 C 
HETATM    3  C6  UNL     1      -3.113   9.730  17.593  1.00  0.00     0.007 C 
HETATM    4  C7  UNL     1      -3.102   9.968  16.086  1.00  0.00     0.004 C 
HETATM    5  C8  UNL     1      -2.252  11.196  15.692  1.00  0.00    -0.027 A 
HETATM    6  C9  UNL     1      -1.816  11.193  14.228  1.00  0.00     0.011 C 
HETATM    7  C10 UNL     1      -1.074   9.914  13.787  1.00  0.00     0.011 C 
HETATM    8  C11 UNL     1      -1.302   8.689  14.696  1.00  0.00    -0.032 C 
HETATM    9  C12 UNL     1      -0.245   8.715  15.839  1.00  0.00     0.016 C 
HETATM   10  C13 UNL     1      -1.232   7.288  13.995  1.00  0.00    -0.002 C 
HETATM   11  C22 UNL     1      -2.072   6.389  14.953  1.00  0.00     0.006 C 
HETATM   12  C23 UNL     1      -2.891   7.320  15.868  1.00  0.00     0.011 C 
HETATM   13  C24 UNL     1      -2.788   8.708  15.209  1.00  0.00    -0.032 C 
HETATM   14  C25 UNL     1      -3.855   8.693  14.054  1.00  0.00     0.016 C 
HETATM   15  C26 UNL     1      -1.307  11.957  16.613  1.00  0.00     0.022 A 
HETATM   16  C27 UNL     1      -2.702  12.496  16.431  1.00  0.00    -0.024 A 
ENDROOT
BRANCH  10  17
HETATM   17  C14 UNL     1       0.148   6.647  13.649  1.00  0.00    -0.014 C 
HETATM   18  C15 UNL     1       0.895   7.436  12.568  1.00  0.00     0.010 C 
BRANCH  17  19
HETATM   19  C16 UNL     1      -0.050   5.175  13.191  1.00  0.00     0.008 C 
BRANCH  19  20
HETATM   20  C17 UNL     1      -0.773   5.025  11.849  1.00  0.00     0.028 C 
BRANCH  20  21
HETATM   21  C18 UNL     1      -1.513   3.717  11.771  1.00  0.00    -0.025 C 
HETATM   22  C19 UNL     1      -2.836   3.514  11.934  1.00  0.00    -0.091 C 
HETATM   23  C20 UNL     1      -3.423   2.134  11.805  1.00  0.00     0.042 C 
HETATM   24  C21 UNL     1      -3.835   4.586  12.271  1.00  0.00     0.042 C 
ENDBRANCH  20  21
ENDBRANCH  19  20
ENDBRANCH  17  19
ENDBRANCH  10  17
BRANCH  16  25
HETATM   25  C28 UNL     1      -3.005  13.685  15.502  1.00  0.00     0.021 C 
BRANCH  25  26
HETATM   26  C29 UNL     1      -1.988  14.816  15.375  1.00  0.00     0.111 C 
BRANCH  26  27
HETATM   27  C30 UNL     1      -1.837  15.379  13.988  1.00  0.00     0.139 C 
HETATM   28  O2  UNL     1      -1.328  16.432  13.648  1.00  0.00    -0.650 OA
BRANCH  27  29
HETATM   29  O3  UNL     1      -2.387  14.568  13.060  1.00  0.00    -0.776 OA
HETATM   30  H48 UNL     1      -2.252  15.048  12.216  1.00  0.00     0.167 HD
ENDBRANCH  27  29
ENDBRANCH  26  27
ENDBRANCH  25  26
ENDBRANCH  16  25
BRANCH   1  31
HETATM   31  C2  UNL     1      -3.828  13.430  18.611  1.00  0.00    -0.061 C 
HETATM   32  C1  UNL     1      -2.730  13.893  19.243  1.00  0.00     0.017 C 
BRANCH  31  33
HETATM   33  C3  UNL     1      -5.212  13.995  18.844  1.00  0.00     0.198 C 
BRANCH  33  34
HETATM   34  O1  UNL     1      -5.469  15.106  17.992  1.00  0.00    -0.397 OA
HETATM   35  H5  UNL     1      -6.328  15.460  18.268  1.00  0.00     0.209 HD
ENDBRANCH  33  34
ENDBRANCH  31  33
ENDBRANCH   1  31
TORSDOF 11
ENDMDL
