MODEL 1
REMARK minimizedAffinity -7.70849323
REMARK CNNscore 0.410587013
REMARK CNNaffinity 6.33323717
REMARK  12 active torsions:
REMARK  status: ('A' for Active; 'I' for Inactive)
REMARK    1  A    between atoms: O1_2  and  C2_3 
REMARK    2  A    between atoms: C3_5  and  C4_6 
REMARK    3  A    between atoms: C4_6  and  O3_7 
REMARK    4  A    between atoms: C4_6  and  C5_8 
REMARK    5  A    between atoms: C5_8  and  O4_10 
REMARK    6  A    between atoms: C5_8  and  C7_11 
REMARK    7  A    between atoms: C7_11  and  O5_12 
REMARK    8  A    between atoms: C9_14  and  C10_15 
REMARK    9  A    between atoms: C23_28  and  O6_29 
REMARK   10  A    between atoms: O6_29  and  C24_30 
REMARK   11  A    between atoms: C24_30  and  C25_32 
REMARK   12  A    between atoms: C34_41  and  O8_42 
ROOT
HETATM    1  C10 UNL     1      -9.613  -7.754  -3.987  1.00  0.00     0.004 C 
HETATM    2  C11 UNL     1     -10.974  -7.721  -3.253  1.00  0.00     0.007 C 
HETATM    3  C12 UNL     1     -10.806  -8.663  -2.048  1.00  0.00     0.011 C 
HETATM    4  C13 UNL     1      -9.318  -8.636  -1.714  1.00  0.00    -0.021 A 
HETATM    5  C14 UNL     1      -8.715  -7.251  -1.561  1.00  0.00     0.022 A 
HETATM    6  C15 UNL     1      -8.590  -8.002  -2.875  1.00  0.00    -0.027 A 
HETATM    7  C16 UNL     1      -7.200  -8.437  -3.276  1.00  0.00     0.011 C 
HETATM    8  C17 UNL     1      -6.707  -9.725  -2.608  1.00  0.00     0.007 C 
HETATM    9  C18 UNL     1      -7.114  -9.814  -1.121  1.00  0.00     0.005 C 
HETATM   10  C19 UNL     1      -6.282 -10.861  -0.257  1.00  0.00    -0.035 C 
HETATM   11  C20 UNL     1      -6.312 -12.282  -0.869  1.00  0.00     0.016 C 
HETATM   12  C21 UNL     1      -4.782 -10.392  -0.241  1.00  0.00     0.012 C 
HETATM   13  C22 UNL     1      -4.030 -10.638   1.071  1.00  0.00     0.034 C 
HETATM   14  C23 UNL     1      -4.529 -11.863   1.829  1.00  0.00     0.140 C 
HETATM   15  C29 UNL     1      -6.025 -11.713   2.257  1.00  0.00    -0.016 C 
HETATM   16  C30 UNL     1      -6.617 -13.127   2.444  1.00  0.00     0.018 C 
HETATM   17  C31 UNL     1      -6.121 -11.018   3.645  1.00  0.00     0.018 C 
HETATM   18  C32 UNL     1      -6.820 -10.826   1.217  1.00  0.00     0.007 C 
HETATM   19  C33 UNL     1      -8.357 -10.997   1.283  1.00  0.00     0.038 C 
HETATM   20  C34 UNL     1      -9.095  -9.904   0.496  1.00  0.00     0.128 C 
HETATM   21  C35 UNL     1      -8.688  -9.880  -1.005  1.00  0.00    -0.005 C 
HETATM   22  C36 UNL     1      -9.262 -11.153  -1.691  1.00  0.00     0.019 C 
ENDROOT
BRANCH   1  23
HETATM   23  C9  UNL     1      -9.252  -6.549  -4.868  1.00  0.00     0.048 C 
HETATM   24  C2  UNL     1      -9.736  -6.583  -6.318  1.00  0.00     0.264 C 
HETATM   25  O2  UNL     1      -9.556  -5.246  -6.807  1.00  0.00    -0.353 OA
HETATM   26  C3  UNL     1      -9.481  -4.344  -5.683  1.00  0.00     0.157 C 
HETATM   27  C8  UNL     1      -9.762  -5.186  -4.437  1.00  0.00     0.044 C 
BRANCH  24  28
HETATM   28  O1  UNL     1     -11.102  -6.969  -6.396  1.00  0.00    -0.366 OA
HETATM   29  C1  UNL     1     -11.749  -6.419  -7.533  1.00  0.00     0.204 C 
ENDBRANCH  24  28
BRANCH  26  30
HETATM   30  C4  UNL     1     -10.439  -3.139  -5.822  1.00  0.00     0.183 C 
BRANCH  30  31
HETATM   31  O3  UNL     1     -10.678  -2.859  -7.209  1.00  0.00    -0.390 OA
HETATM   32  H7  UNL     1     -11.599  -2.560  -7.293  1.00  0.00     0.210 HD
ENDBRANCH  30  31
BRANCH  30  33
HETATM   33  C5  UNL     1      -9.977  -1.855  -5.079  1.00  0.00     0.103 C 
HETATM   34  C6  UNL     1     -10.316  -0.613  -5.923  1.00  0.00     0.051 C 
BRANCH  33  35
HETATM   35  O4  UNL     1     -10.726  -1.725  -3.855  1.00  0.00    -0.385 OA
HETATM   36  H11 UNL     1     -10.247  -1.039  -3.344  1.00  0.00     0.210 HD
ENDBRANCH  33  35
BRANCH  33  37
HETATM   37  C7  UNL     1      -8.477  -1.857  -4.724  1.00  0.00     0.204 C 
BRANCH  37  38
HETATM   38  O5  UNL     1      -7.778  -0.977  -5.620  1.00  0.00    -0.398 OA
HETATM   39  H14 UNL     1      -6.835  -1.049  -5.386  1.00  0.00     0.209 HD
ENDBRANCH  37  38
ENDBRANCH  33  37
ENDBRANCH  30  33
ENDBRANCH  26  30
ENDBRANCH   1  23
BRANCH  20  40
HETATM   40  O8  UNL     1      -8.805  -8.651   1.124  1.00  0.00    -0.395 OA
HETATM   41  H55 UNL     1      -9.206  -8.668   2.010  1.00  0.00     0.210 HD
ENDBRANCH  20  40
BRANCH  14  42
HETATM   42  O6  UNL     1      -3.688 -12.035   2.990  1.00  0.00    -0.312 OA
BRANCH  42  43
HETATM   43  C24 UNL     1      -2.515 -11.364   3.020  1.00  0.00     0.283 C 
HETATM   44  O7  UNL     1      -1.471 -11.693   2.480  1.00  0.00    -0.260 OA
BRANCH  43  45
HETATM   45  C25 UNL     1      -2.600 -10.179   3.902  1.00  0.00     0.084 C 
HETATM   46  C26 UNL     1      -2.710 -10.139   5.245  1.00  0.00    -0.082 C 
HETATM   47  C27 UNL     1      -2.842 -11.338   6.144  1.00  0.00     0.043 C 
HETATM   48  C28 UNL     1      -2.738  -8.816   5.962  1.00  0.00     0.043 C 
ENDBRANCH  43  45
ENDBRANCH  42  43
ENDBRANCH  14  42
TORSDOF 12
ENDMDL
MODEL 2
REMARK minimizedAffinity -7.33776808
REMARK CNNscore 0.385179907
REMARK CNNaffinity 6.51426744
REMARK  12 active torsions:
REMARK  status: ('A' for Active; 'I' for Inactive)
REMARK    1  A    between atoms: O1_2  and  C2_3 
REMARK    2  A    between atoms: C3_5  and  C4_6 
REMARK    3  A    between atoms: C4_6  and  O3_7 
REMARK    4  A    between atoms: C4_6  and  C5_8 
REMARK    5  A    between atoms: C5_8  and  O4_10 
REMARK    6  A    between atoms: C5_8  and  C7_11 
REMARK    7  A    between atoms: C7_11  and  O5_12 
REMARK    8  A    between atoms: C9_14  and  C10_15 
REMARK    9  A    between atoms: C23_28  and  O6_29 
REMARK   10  A    between atoms: O6_29  and  C24_30 
REMARK   11  A    between atoms: C24_30  and  C25_32 
REMARK   12  A    between atoms: C34_41  and  O8_42 
ROOT
HETATM    1  C10 UNL     1      -1.570   7.618  13.956  1.00  0.00     0.004 C 
HETATM    2  C11 UNL     1      -2.471   8.055  12.777  1.00  0.00     0.007 C 
HETATM    3  C12 UNL     1      -3.281   9.251  13.310  1.00  0.00     0.011 C 
HETATM    4  C13 UNL     1      -2.409   9.885  14.388  1.00  0.00    -0.021 A 
HETATM    5  C14 UNL     1      -0.981  10.186  13.970  1.00  0.00     0.022 A 
HETATM    6  C15 UNL     1      -1.306   8.912  14.730  1.00  0.00    -0.027 A 
HETATM    7  C16 UNL     1      -0.750   8.800  16.130  1.00  0.00     0.011 C 
HETATM    8  C17 UNL     1      -1.558   9.530  17.208  1.00  0.00     0.007 C 
HETATM    9  C18 UNL     1      -2.086  10.899  16.725  1.00  0.00     0.005 C 
HETATM   10  C19 UNL     1      -2.528  11.896  17.885  1.00  0.00    -0.035 C 
HETATM   11  C20 UNL     1      -3.573  11.265  18.835  1.00  0.00     0.016 C 
HETATM   12  C21 UNL     1      -1.257  12.232  18.746  1.00  0.00     0.012 C 
HETATM   13  C22 UNL     1      -1.184  13.666  19.280  1.00  0.00     0.034 C 
HETATM   14  C23 UNL     1      -2.554  14.281  19.542  1.00  0.00     0.140 C 
HETATM   15  C29 UNL     1      -3.400  14.392  18.232  1.00  0.00    -0.016 C 
HETATM   16  C30 UNL     1      -4.894  14.426  18.625  1.00  0.00     0.018 C 
HETATM   17  C31 UNL     1      -3.113  15.744  17.519  1.00  0.00     0.018 C 
HETATM   18  C32 UNL     1      -3.037  13.228  17.227  1.00  0.00     0.007 C 
HETATM   19  C33 UNL     1      -4.109  12.971  16.140  1.00  0.00     0.038 C 
HETATM   20  C34 UNL     1      -3.585  12.069  15.013  1.00  0.00     0.128 C 
HETATM   21  C35 UNL     1      -3.105  10.685  15.538  1.00  0.00    -0.005 C 
HETATM   22  C36 UNL     1      -4.352   9.872  15.988  1.00  0.00     0.019 C 
ENDROOT
BRANCH   1  23
HETATM   23  C9  UNL     1      -0.281   6.854  13.619  1.00  0.00     0.048 C 
HETATM   24  C2  UNL     1      -0.384   5.332  13.527  1.00  0.00     0.264 C 
HETATM   25  O2  UNL     1       0.836   4.908  12.902  1.00  0.00    -0.353 OA
HETATM   26  C3  UNL     1       1.410   6.027  12.192  1.00  0.00     0.157 C 
HETATM   27  C8  UNL     1       0.395   7.167  12.297  1.00  0.00     0.044 C 
BRANCH  24  28
HETATM   28  O1  UNL     1      -1.510   4.937  12.754  1.00  0.00    -0.366 OA
HETATM   29  C1  UNL     1      -1.231   3.810  11.938  1.00  0.00     0.204 C 
ENDBRANCH  24  28
BRANCH  26  30
HETATM   30  C4  UNL     1       1.776   5.680  10.732  1.00  0.00     0.183 C 
BRANCH  30  31
HETATM   31  O3  UNL     1       2.102   4.286  10.624  1.00  0.00    -0.390 OA
HETATM   32  H7  UNL     1       1.784   3.977   9.759  1.00  0.00     0.210 HD
ENDBRANCH  30  31
BRANCH  30  33
HETATM   33  C5  UNL     1       2.907   6.552  10.123  1.00  0.00     0.103 C 
HETATM   34  C6  UNL     1       2.936   6.378   8.594  1.00  0.00     0.051 C 
BRANCH  33  35
HETATM   35  O4  UNL     1       2.612   7.942  10.363  1.00  0.00    -0.385 OA
HETATM   36  H11 UNL     1       3.447   8.411  10.156  1.00  0.00     0.210 HD
ENDBRANCH  33  35
BRANCH  33  37
HETATM   37  C7  UNL     1       4.300   6.251  10.713  1.00  0.00     0.204 C 
BRANCH  37  38
HETATM   38  O5  UNL     1       4.839   5.080  10.077  1.00  0.00    -0.398 OA
HETATM   39  H14 UNL     1       5.692   4.906  10.515  1.00  0.00     0.209 HD
ENDBRANCH  37  38
ENDBRANCH  33  37
ENDBRANCH  30  33
ENDBRANCH  26  30
ENDBRANCH   1  23
BRANCH  20  40
HETATM   40  O8  UNL     1      -2.517  12.767  14.364  1.00  0.00    -0.395 OA
HETATM   41  H55 UNL     1      -2.899  13.551  13.932  1.00  0.00     0.210 HD
ENDBRANCH  20  40
BRANCH  14  42
HETATM   42  O6  UNL     1      -2.347  15.587  20.120  1.00  0.00    -0.312 OA
BRANCH  42  43
HETATM   43  C24 UNL     1      -2.837  15.809  21.360  1.00  0.00     0.283 C 
HETATM   44  O7  UNL     1      -3.804  15.266  21.872  1.00  0.00    -0.260 OA
BRANCH  43  45
HETATM   45  C25 UNL     1      -2.108  16.905  22.036  1.00  0.00     0.084 C 
HETATM   46  C26 UNL     1      -0.814  17.259  21.901  1.00  0.00    -0.082 C 
HETATM   47  C27 UNL     1       0.202  16.540  21.057  1.00  0.00     0.043 C 
HETATM   48  C28 UNL     1      -0.272  18.445  22.654  1.00  0.00     0.043 C 
ENDBRANCH  43  45
ENDBRANCH  42  43
ENDBRANCH  14  42
TORSDOF 12
ENDMDL
MODEL 3
REMARK minimizedAffinity -7.41299009
REMARK CNNscore 0.36027658
REMARK CNNaffinity 6.31624603
REMARK  12 active torsions:
REMARK  status: ('A' for Active; 'I' for Inactive)
REMARK    1  A    between atoms: O1_2  and  C2_3 
REMARK    2  A    between atoms: C3_5  and  C4_6 
REMARK    3  A    between atoms: C4_6  and  O3_7 
REMARK    4  A    between atoms: C4_6  and  C5_8 
REMARK    5  A    between atoms: C5_8  and  O4_10 
REMARK    6  A    between atoms: C5_8  and  C7_11 
REMARK    7  A    between atoms: C7_11  and  O5_12 
REMARK    8  A    between atoms: C9_14  and  C10_15 
REMARK    9  A    between atoms: C23_28  and  O6_29 
REMARK   10  A    between atoms: O6_29  and  C24_30 
REMARK   11  A    between atoms: C24_30  and  C25_32 
REMARK   12  A    between atoms: C34_41  and  O8_42 
ROOT
HETATM    1  C10 UNL     1      -9.996  -7.801  -3.541  1.00  0.00     0.004 C 
HETATM    2  C11 UNL     1     -11.496  -7.667  -3.185  1.00  0.00     0.007 C 
HETATM    3  C12 UNL     1     -11.643  -8.327  -1.802  1.00  0.00     0.011 C 
HETATM    4  C13 UNL     1     -10.283  -8.173  -1.130  1.00  0.00    -0.021 A 
HETATM    5  C14 UNL     1      -9.717  -6.764  -1.134  1.00  0.00     0.022 A 
HETATM    6  C15 UNL     1      -9.283  -7.770  -2.187  1.00  0.00    -0.027 A 
HETATM    7  C16 UNL     1      -7.843  -8.224  -2.134  1.00  0.00     0.011 C 
HETATM    8  C17 UNL     1      -7.549  -9.323  -1.108  1.00  0.00     0.007 C 
HETATM    9  C18 UNL     1      -8.310  -9.113   0.219  1.00  0.00     0.005 C 
HETATM   10  C19 UNL     1      -7.732  -9.921   1.463  1.00  0.00    -0.035 C 
HETATM   11  C20 UNL     1      -7.631 -11.439   1.181  1.00  0.00     0.016 C 
HETATM   12  C21 UNL     1      -6.276  -9.401   1.744  1.00  0.00     0.012 C 
HETATM   13  C22 UNL     1      -5.873  -9.336   3.221  1.00  0.00     0.034 C 
HETATM   14  C23 UNL     1      -6.561 -10.393   4.078  1.00  0.00     0.140 C 
HETATM   15  C29 UNL     1      -8.114 -10.214   4.086  1.00  0.00    -0.016 C 
HETATM   16  C30 UNL     1      -8.754 -11.579   4.420  1.00  0.00     0.018 C 
HETATM   17  C31 UNL     1      -8.539  -9.247   5.228  1.00  0.00     0.018 C 
HETATM   18  C32 UNL     1      -8.616  -9.597   2.719  1.00  0.00     0.007 C 
HETATM   19  C33 UNL     1     -10.124  -9.811   2.443  1.00  0.00     0.038 C 
HETATM   20  C34 UNL     1     -10.630  -8.938   1.286  1.00  0.00     0.128 C 
HETATM   21  C35 UNL     1      -9.865  -9.214  -0.040  1.00  0.00    -0.005 C 
HETATM   22  C36 UNL     1     -10.271 -10.624  -0.557  1.00  0.00     0.019 C 
ENDROOT
BRANCH   1  23
HETATM   23  C9  UNL     1      -9.413  -6.795  -4.544  1.00  0.00     0.048 C 
HETATM   24  C2  UNL     1      -9.741  -7.021  -6.019  1.00  0.00     0.264 C 
HETATM   25  O2  UNL     1      -9.363  -5.805  -6.680  1.00  0.00    -0.353 OA
HETATM   26  C3  UNL     1      -9.308  -4.742  -5.706  1.00  0.00     0.157 C 
HETATM   27  C8  UNL     1      -9.811  -5.339  -4.391  1.00  0.00     0.044 C 
BRANCH  24  28
HETATM   28  O1  UNL     1     -11.125  -7.286  -6.205  1.00  0.00    -0.366 OA
HETATM   29  C1  UNL     1     -11.358  -8.192  -7.271  1.00  0.00     0.204 C 
ENDBRANCH  24  28
BRANCH  26  30
HETATM   30  C4  UNL     1     -10.105  -3.492  -6.142  1.00  0.00     0.183 C 
BRANCH  30  31
HETATM   31  O3  UNL     1     -10.377  -3.550  -7.551  1.00  0.00    -0.390 OA
HETATM   32  H7  UNL     1     -11.254  -3.157  -7.696  1.00  0.00     0.210 HD
ENDBRANCH  30  31
BRANCH  30  33
HETATM   33  C5  UNL     1      -9.442  -2.138  -5.771  1.00  0.00     0.103 C 
HETATM   34  C6  UNL     1     -10.032  -1.012  -6.640  1.00  0.00     0.051 C 
BRANCH  33  35
HETATM   35  O4  UNL     1      -9.774  -1.809  -4.409  1.00  0.00    -0.385 OA
HETATM   36  H11 UNL     1      -9.164  -1.079  -4.175  1.00  0.00     0.210 HD
ENDBRANCH  33  35
BRANCH  33  37
HETATM   37  C7  UNL     1      -7.906  -2.151  -5.899  1.00  0.00     0.204 C 
BRANCH  37  38
HETATM   38  O5  UNL     1      -7.324  -2.300  -4.594  1.00  0.00    -0.398 OA
HETATM   39  H14 UNL     1      -6.359  -2.255  -4.723  1.00  0.00     0.209 HD
ENDBRANCH  37  38
ENDBRANCH  33  37
ENDBRANCH  30  33
ENDBRANCH  26  30
ENDBRANCH   1  23
BRANCH  20  40
HETATM   40  O8  UNL     1     -10.485  -7.570   1.683  1.00  0.00    -0.395 OA
HETATM   41  H55 UNL     1     -11.093  -7.416   2.427  1.00  0.00     0.210 HD
ENDBRANCH  20  40
BRANCH  14  42
HETATM   42  O6  UNL     1      -6.035 -10.283   5.418  1.00  0.00    -0.312 OA
BRANCH  42  43
HETATM   43  C24 UNL     1      -5.313 -11.322   5.895  1.00  0.00     0.283 C 
HETATM   44  O7  UNL     1      -4.979 -12.323   5.281  1.00  0.00    -0.260 OA
BRANCH  43  45
HETATM   45  C25 UNL     1      -5.038 -11.163   7.340  1.00  0.00     0.084 C 
HETATM   46  C26 UNL     1      -4.247 -10.257   7.949  1.00  0.00    -0.082 C 
HETATM   47  C27 UNL     1      -3.400  -9.230   7.248  1.00  0.00     0.043 C 
HETATM   48  C28 UNL     1      -4.136 -10.237   9.450  1.00  0.00     0.043 C 
ENDBRANCH  43  45
ENDBRANCH  42  43
ENDBRANCH  14  42
TORSDOF 12
ENDMDL
MODEL 4
REMARK minimizedAffinity -8.96541882
REMARK CNNscore 0.331731707
REMARK CNNaffinity 7.04239607
REMARK  12 active torsions:
REMARK  status: ('A' for Active; 'I' for Inactive)
REMARK    1  A    between atoms: O1_2  and  C2_3 
REMARK    2  A    between atoms: C3_5  and  C4_6 
REMARK    3  A    between atoms: C4_6  and  O3_7 
REMARK    4  A    between atoms: C4_6  and  C5_8 
REMARK    5  A    between atoms: C5_8  and  O4_10 
REMARK    6  A    between atoms: C5_8  and  C7_11 
REMARK    7  A    between atoms: C7_11  and  O5_12 
REMARK    8  A    between atoms: C9_14  and  C10_15 
REMARK    9  A    between atoms: C23_28  and  O6_29 
REMARK   10  A    between atoms: O6_29  and  C24_30 
REMARK   11  A    between atoms: C24_30  and  C25_32 
REMARK   12  A    between atoms: C34_41  and  O8_42 
ROOT
HETATM    1  C10 UNL     1      -3.804   8.853  14.844  1.00  0.00     0.004 C 
HETATM    2  C11 UNL     1      -3.149   9.075  13.460  1.00  0.00     0.007 C 
HETATM    3  C12 UNL     1      -1.945   9.997  13.728  1.00  0.00     0.011 C 
HETATM    4  C13 UNL     1      -1.527   9.714  15.166  1.00  0.00    -0.021 A 
HETATM    5  C14 UNL     1      -1.326   8.248  15.505  1.00  0.00     0.022 A 
HETATM    6  C15 UNL     1      -2.639   8.939  15.832  1.00  0.00    -0.027 A 
HETATM    7  C16 UNL     1      -2.963   9.113  17.298  1.00  0.00     0.011 C 
HETATM    8  C17 UNL     1      -2.282  10.307  17.974  1.00  0.00     0.007 C 
HETATM    9  C18 UNL     1      -0.821  10.496  17.509  1.00  0.00     0.005 C 
HETATM   10  C19 UNL     1       0.078  11.396  18.465  1.00  0.00    -0.035 C 
HETATM   11  C20 UNL     1      -0.548  12.787  18.721  1.00  0.00     0.016 C 
HETATM   12  C21 UNL     1       0.185  10.670  19.855  1.00  0.00     0.012 C 
HETATM   13  C22 UNL     1       1.535  10.805  20.566  1.00  0.00     0.034 C 
HETATM   14  C23 UNL     1       2.251  12.114  20.253  1.00  0.00     0.140 C 
HETATM   15  C29 UNL     1       2.594  12.238  18.733  1.00  0.00    -0.016 C 
HETATM   16  C30 UNL     1       2.733  13.738  18.391  1.00  0.00     0.018 C 
HETATM   17  C31 UNL     1       3.982  11.600  18.440  1.00  0.00     0.018 C 
HETATM   18  C32 UNL     1       1.520  11.486  17.850  1.00  0.00     0.007 C 
HETATM   19  C33 UNL     1       1.496  11.928  16.367  1.00  0.00     0.038 C 
HETATM   20  C34 UNL     1       0.679  10.967  15.490  1.00  0.00     0.128 C 
HETATM   21  C35 UNL     1      -0.796  10.841  15.968  1.00  0.00    -0.005 C 
HETATM   22  C36 UNL     1      -1.526  12.181  15.667  1.00  0.00     0.019 C 
ENDROOT
BRANCH   1  23
HETATM   23  C9  UNL     1      -4.651   7.586  15.032  1.00  0.00     0.048 C 
HETATM   24  C2  UNL     1      -6.074   7.777  15.556  1.00  0.00     0.264 C 
HETATM   25  O2  UNL     1      -6.730   6.520  15.336  1.00  0.00    -0.353 OA
HETATM   26  C3  UNL     1      -6.010   5.790  14.320  1.00  0.00     0.157 C 
HETATM   27  C8  UNL     1      -4.919   6.731  13.807  1.00  0.00     0.044 C 
BRANCH  24  28
HETATM   28  O1  UNL     1      -6.743   8.822  14.862  1.00  0.00    -0.366 OA
HETATM   29  C1  UNL     1      -8.124   8.880  15.183  1.00  0.00     0.204 C 
ENDBRANCH  24  28
BRANCH  26  30
HETATM   30  C4  UNL     1      -6.932   5.269  13.195  1.00  0.00     0.183 C 
BRANCH  30  31
HETATM   31  O3  UNL     1      -7.941   6.246  12.895  1.00  0.00    -0.390 OA
HETATM   32  H7  UNL     1      -8.112   6.206  11.939  1.00  0.00     0.210 HD
ENDBRANCH  30  31
BRANCH  30  33
HETATM   33  C5  UNL     1      -7.580   3.886  13.476  1.00  0.00     0.103 C 
HETATM   34  C6  UNL     1      -7.456   3.545  14.972  1.00  0.00     0.051 C 
BRANCH  33  35
HETATM   35  O4  UNL     1      -8.991   3.962  13.197  1.00  0.00    -0.385 OA
HETATM   36  H11 UNL     1      -9.291   3.029  13.182  1.00  0.00     0.210 HD
ENDBRANCH  33  35
BRANCH  33  37
HETATM   37  C7  UNL     1      -6.985   2.745  12.625  1.00  0.00     0.204 C 
BRANCH  37  38
HETATM   38  O5  UNL     1      -7.928   1.663  12.561  1.00  0.00    -0.398 OA
HETATM   39  H14 UNL     1      -7.489   0.954  12.056  1.00  0.00     0.209 HD
ENDBRANCH  37  38
ENDBRANCH  33  37
ENDBRANCH  30  33
ENDBRANCH  26  30
ENDBRANCH   1  23
BRANCH  20  40
HETATM   40  O8  UNL     1       1.335   9.694  15.519  1.00  0.00    -0.395 OA
HETATM   41  H55 UNL     1       2.197   9.799  15.079  1.00  0.00     0.210 HD
ENDBRANCH  20  40
BRANCH  14  42
HETATM   42  O6  UNL     1       3.457  12.158  21.046  1.00  0.00    -0.312 OA
BRANCH  42  43
HETATM   43  C24 UNL     1       3.859  11.012  21.639  1.00  0.00     0.283 C 
HETATM   44  O7  UNL     1       4.483  10.099  21.119  1.00  0.00    -0.260 OA
BRANCH  43  45
HETATM   45  C25 UNL     1       3.354  10.922  23.027  1.00  0.00     0.084 C 
HETATM   46  C26 UNL     1       2.878   9.842  23.678  1.00  0.00    -0.082 C 
HETATM   47  C27 UNL     1       2.694   8.475  23.079  1.00  0.00     0.043 C 
HETATM   48  C28 UNL     1       2.450   9.954  25.117  1.00  0.00     0.043 C 
ENDBRANCH  43  45
ENDBRANCH  42  43
ENDBRANCH  14  42
TORSDOF 12
ENDMDL
MODEL 5
REMARK minimizedAffinity -7.50998116
REMARK CNNscore 0.258369029
REMARK CNNaffinity 6.63665533
REMARK  12 active torsions:
REMARK  status: ('A' for Active; 'I' for Inactive)
REMARK    1  A    between atoms: O1_2  and  C2_3 
REMARK    2  A    between atoms: C3_5  and  C4_6 
REMARK    3  A    between atoms: C4_6  and  O3_7 
REMARK    4  A    between atoms: C4_6  and  C5_8 
REMARK    5  A    between atoms: C5_8  and  O4_10 
REMARK    6  A    between atoms: C5_8  and  C7_11 
REMARK    7  A    between atoms: C7_11  and  O5_12 
REMARK    8  A    between atoms: C9_14  and  C10_15 
REMARK    9  A    between atoms: C23_28  and  O6_29 
REMARK   10  A    between atoms: O6_29  and  C24_30 
REMARK   11  A    between atoms: C24_30  and  C25_32 
REMARK   12  A    between atoms: C34_41  and  O8_42 
ROOT
HETATM    1  C10 UNL     1      -7.597   8.066  14.536  1.00  0.00     0.004 C 
HETATM    2  C11 UNL     1      -7.470   9.415  15.282  1.00  0.00     0.007 C 
HETATM    3  C12 UNL     1      -8.912   9.938  15.418  1.00  0.00     0.011 C 
HETATM    4  C13 UNL     1      -9.796   8.696  15.429  1.00  0.00    -0.021 A 
HETATM    5  C14 UNL     1      -9.386   7.620  16.418  1.00  0.00     0.022 A 
HETATM    6  C15 UNL     1      -8.964   7.526  14.962  1.00  0.00    -0.027 A 
HETATM    7  C16 UNL     1      -9.561   6.395  14.157  1.00  0.00     0.011 C 
HETATM    8  C17 UNL     1     -10.975   6.656  13.626  1.00  0.00     0.007 C 
HETATM    9  C18 UNL     1     -11.866   7.390  14.651  1.00  0.00     0.005 C 
HETATM   10  C19 UNL     1     -13.431   7.296  14.372  1.00  0.00    -0.035 C 
HETATM   11  C20 UNL     1     -13.803   7.779  12.950  1.00  0.00     0.016 C 
HETATM   12  C21 UNL     1     -13.851   5.785  14.476  1.00  0.00     0.012 C 
HETATM   13  C22 UNL     1     -15.234   5.527  15.084  1.00  0.00     0.034 C 
HETATM   14  C23 UNL     1     -16.227   6.653  14.818  1.00  0.00     0.140 C 
HETATM   15  C29 UNL     1     -15.762   8.001  15.458  1.00  0.00    -0.016 C 
HETATM   16  C30 UNL     1     -16.427   9.158  14.680  1.00  0.00     0.018 C 
HETATM   17  C31 UNL     1     -16.281   8.111  16.920  1.00  0.00     0.018 C 
HETATM   18  C32 UNL     1     -14.184   8.090  15.497  1.00  0.00     0.007 C 
HETATM   19  C33 UNL     1     -13.634   9.528  15.666  1.00  0.00     0.038 C 
HETATM   20  C34 UNL     1     -12.139   9.537  16.016  1.00  0.00     0.128 C 
HETATM   21  C35 UNL     1     -11.275   8.827  14.935  1.00  0.00    -0.005 C 
HETATM   22  C36 UNL     1     -11.267   9.709  13.654  1.00  0.00     0.019 C 
ENDROOT
BRANCH   1  23
HETATM   23  C9  UNL     1      -6.467   7.042  14.726  1.00  0.00     0.048 C 
HETATM   24  C2  UNL     1      -6.698   5.645  14.150  1.00  0.00     0.264 C 
HETATM   25  O2  UNL     1      -5.411   5.010  14.174  1.00  0.00    -0.353 OA
HETATM   26  C3  UNL     1      -4.390   6.028  14.243  1.00  0.00     0.157 C 
HETATM   27  C8  UNL     1      -5.113   7.371  14.124  1.00  0.00     0.044 C 
BRANCH  24  28
HETATM   28  O1  UNL     1      -7.202   5.711  12.823  1.00  0.00    -0.366 OA
HETATM   29  C1  UNL     1      -7.280   4.432  12.215  1.00  0.00     0.204 C 
ENDBRANCH  24  28
BRANCH  26  30
HETATM   30  C4  UNL     1      -3.291   5.842  13.173  1.00  0.00     0.183 C 
BRANCH  30  31
HETATM   31  O3  UNL     1      -2.998   4.446  13.006  1.00  0.00    -0.390 OA
HETATM   32  H7  UNL     1      -2.797   4.299  12.067  1.00  0.00     0.210 HD
ENDBRANCH  30  31
BRANCH  30  33
HETATM   33  C5  UNL     1      -1.987   6.643  13.436  1.00  0.00     0.103 C 
HETATM   34  C6  UNL     1      -0.826   6.031  12.631  1.00  0.00     0.051 C 
BRANCH  33  35
HETATM   35  O4  UNL     1      -2.152   7.987  12.943  1.00  0.00    -0.385 OA
HETATM   36  H11 UNL     1      -1.401   8.485  13.326  1.00  0.00     0.210 HD
ENDBRANCH  33  35
BRANCH  33  37
HETATM   37  C7  UNL     1      -1.607   6.725  14.928  1.00  0.00     0.204 C 
BRANCH  37  38
HETATM   38  O5  UNL     1      -1.011   5.482  15.333  1.00  0.00    -0.398 OA
HETATM   39  H14 UNL     1      -0.833   5.568  16.287  1.00  0.00     0.209 HD
ENDBRANCH  37  38
ENDBRANCH  33  37
ENDBRANCH  30  33
ENDBRANCH  26  30
ENDBRANCH   1  23
BRANCH  20  40
HETATM   40  O8  UNL     1     -11.990   8.899  17.289  1.00  0.00    -0.395 OA
HETATM   41  H55 UNL     1     -12.429   9.461  17.951  1.00  0.00     0.210 HD
ENDBRANCH  20  40
BRANCH  14  42
HETATM   42  O6  UNL     1     -17.503   6.251  15.361  1.00  0.00    -0.312 OA
BRANCH  42  43
HETATM   43  C24 UNL     1     -17.623   4.981  15.806  1.00  0.00     0.283 C 
HETATM   44  O7  UNL     1     -17.853   3.989  15.132  1.00  0.00    -0.260 OA
BRANCH  43  45
HETATM   45  C25 UNL     1     -17.545   4.921  17.282  1.00  0.00     0.084 C 
HETATM   46  C26 UNL     1     -18.509   5.196  18.185  1.00  0.00    -0.082 C 
HETATM   47  C27 UNL     1     -19.887   5.702  17.860  1.00  0.00     0.043 C 
HETATM   48  C28 UNL     1     -18.236   5.030  19.656  1.00  0.00     0.043 C 
ENDBRANCH  43  45
ENDBRANCH  42  43
ENDBRANCH  14  42
TORSDOF 12
ENDMDL
MODEL 6
REMARK minimizedAffinity -7.57637501
REMARK CNNscore 0.233091503
REMARK CNNaffinity 6.44529486
REMARK  12 active torsions:
REMARK  status: ('A' for Active; 'I' for Inactive)
REMARK    1  A    between atoms: O1_2  and  C2_3 
REMARK    2  A    between atoms: C3_5  and  C4_6 
REMARK    3  A    between atoms: C4_6  and  O3_7 
REMARK    4  A    between atoms: C4_6  and  C5_8 
REMARK    5  A    between atoms: C5_8  and  O4_10 
REMARK    6  A    between atoms: C5_8  and  C7_11 
REMARK    7  A    between atoms: C7_11  and  O5_12 
REMARK    8  A    between atoms: C9_14  and  C10_15 
REMARK    9  A    between atoms: C23_28  and  O6_29 
REMARK   10  A    between atoms: O6_29  and  C24_30 
REMARK   11  A    between atoms: C24_30  and  C25_32 
REMARK   12  A    between atoms: C34_41  and  O8_42 
ROOT
HETATM    1  C10 UNL     1      -1.413   8.018  13.948  1.00  0.00     0.004 C 
HETATM    2  C11 UNL     1      -2.473   8.295  12.855  1.00  0.00     0.007 C 
HETATM    3  C12 UNL     1      -3.439   9.318  13.479  1.00  0.00     0.011 C 
HETATM    4  C13 UNL     1      -2.610  10.091  14.500  1.00  0.00    -0.021 A 
HETATM    5  C14 UNL     1      -1.299  10.651  13.977  1.00  0.00     0.022 A 
HETATM    6  C15 UNL     1      -1.325   9.332  14.729  1.00  0.00    -0.027 A 
HETATM    7  C16 UNL     1      -0.644   9.309  16.078  1.00  0.00     0.011 C 
HETATM    8  C17 UNL     1      -1.479   9.870  17.234  1.00  0.00     0.007 C 
HETATM    9  C18 UNL     1      -2.284  11.124  16.829  1.00  0.00     0.005 C 
HETATM   10  C19 UNL     1      -2.802  12.012  18.044  1.00  0.00    -0.035 C 
HETATM   11  C20 UNL     1      -3.633  11.192  19.058  1.00  0.00     0.016 C 
HETATM   12  C21 UNL     1      -1.545  12.566  18.809  1.00  0.00     0.012 C 
HETATM   13  C22 UNL     1      -1.689  13.984  19.370  1.00  0.00     0.034 C 
HETATM   14  C23 UNL     1      -3.121  14.336  19.755  1.00  0.00     0.140 C 
HETATM   15  C29 UNL     1      -4.079  14.304  18.520  1.00  0.00    -0.016 C 
HETATM   16  C30 UNL     1      -5.516  14.061  19.031  1.00  0.00     0.018 C 
HETATM   17  C31 UNL     1      -4.101  15.693  17.819  1.00  0.00     0.018 C 
HETATM   18  C32 UNL     1      -3.595  13.235  17.461  1.00  0.00     0.007 C 
HETATM   19  C33 UNL     1      -4.689  12.797  16.457  1.00  0.00     0.038 C 
HETATM   20  C34 UNL     1      -4.106  12.017  15.270  1.00  0.00     0.128 C 
HETATM   21  C35 UNL     1      -3.342  10.739  15.721  1.00  0.00    -0.005 C 
HETATM   22  C36 UNL     1      -4.379   9.707  16.249  1.00  0.00     0.019 C 
ENDROOT
BRANCH   1  23
HETATM   23  C9  UNL     1      -0.040   7.505  13.491  1.00  0.00     0.048 C 
HETATM   24  C2  UNL     1       0.387   6.128  13.997  1.00  0.00     0.264 C 
HETATM   25  O2  UNL     1       1.516   5.763  13.191  1.00  0.00    -0.353 OA
HETATM   26  C3  UNL     1       1.492   6.540  11.974  1.00  0.00     0.157 C 
HETATM   27  C8  UNL     1       0.186   7.335  12.000  1.00  0.00     0.044 C 
BRANCH  24  28
HETATM   28  O1  UNL     1      -0.662   5.179  13.855  1.00  0.00    -0.366 OA
HETATM   29  C1  UNL     1      -1.033   4.990  12.499  1.00  0.00     0.204 C 
ENDBRANCH  24  28
BRANCH  26  30
HETATM   30  C4  UNL     1       1.639   5.667  10.708  1.00  0.00     0.183 C 
BRANCH  30  31
HETATM   31  O3  UNL     1       1.443   4.284  11.038  1.00  0.00    -0.390 OA
HETATM   32  H7  UNL     1       0.994   3.863  10.286  1.00  0.00     0.210 HD
ENDBRANCH  30  31
BRANCH  30  33
HETATM   33  C5  UNL     1       2.975   5.858   9.940  1.00  0.00     0.103 C 
HETATM   34  C6  UNL     1       3.791   6.993  10.585  1.00  0.00     0.051 C 
BRANCH  33  35
HETATM   35  O4  UNL     1       3.771   4.665  10.075  1.00  0.00    -0.385 OA
HETATM   36  H11 UNL     1       4.481   4.764   9.406  1.00  0.00     0.210 HD
ENDBRANCH  33  35
BRANCH  33  37
HETATM   37  C7  UNL     1       2.785   6.138   8.435  1.00  0.00     0.204 C 
BRANCH  37  38
HETATM   38  O5  UNL     1       3.202   4.986   7.684  1.00  0.00    -0.398 OA
HETATM   39  H14 UNL     1       3.107   5.230   6.745  1.00  0.00     0.209 HD
ENDBRANCH  37  38
ENDBRANCH  33  37
ENDBRANCH  30  33
ENDBRANCH  26  30
ENDBRANCH   1  23
BRANCH  20  40
HETATM   40  O8  UNL     1      -3.239  12.905  14.556  1.00  0.00    -0.395 OA
HETATM   41  H55 UNL     1      -3.791  13.609  14.174  1.00  0.00     0.210 HD
ENDBRANCH  20  40
BRANCH  14  42
HETATM   42  O6  UNL     1      -3.107  15.653  20.347  1.00  0.00    -0.312 OA
BRANCH  42  43
HETATM   43  C24 UNL     1      -3.102  15.734  21.696  1.00  0.00     0.283 C 
HETATM   44  O7  UNL     1      -2.227  16.220  22.396  1.00  0.00    -0.260 OA
BRANCH  43  45
HETATM   45  C25 UNL     1      -4.277  15.048  22.278  1.00  0.00     0.084 C 
HETATM   46  C26 UNL     1      -5.534  15.515  22.421  1.00  0.00    -0.082 C 
HETATM   47  C27 UNL     1      -5.993  16.903  22.068  1.00  0.00     0.043 C 
HETATM   48  C28 UNL     1      -6.606  14.634  23.005  1.00  0.00     0.043 C 
ENDBRANCH  43  45
ENDBRANCH  42  43
ENDBRANCH  14  42
TORSDOF 12
ENDMDL
MODEL 7
REMARK minimizedAffinity -7.18327284
REMARK CNNscore 0.224493042
REMARK CNNaffinity 5.26845026
REMARK  12 active torsions:
REMARK  status: ('A' for Active; 'I' for Inactive)
REMARK    1  A    between atoms: O1_2  and  C2_3 
REMARK    2  A    between atoms: C3_5  and  C4_6 
REMARK    3  A    between atoms: C4_6  and  O3_7 
REMARK    4  A    between atoms: C4_6  and  C5_8 
REMARK    5  A    between atoms: C5_8  and  O4_10 
REMARK    6  A    between atoms: C5_8  and  C7_11 
REMARK    7  A    between atoms: C7_11  and  O5_12 
REMARK    8  A    between atoms: C9_14  and  C10_15 
REMARK    9  A    between atoms: C23_28  and  O6_29 
REMARK   10  A    between atoms: O6_29  and  C24_30 
REMARK   11  A    between atoms: C24_30  and  C25_32 
REMARK   12  A    between atoms: C34_41  and  O8_42 
ROOT
HETATM    1  C10 UNL     1     -16.976   2.510  15.000  1.00  0.00     0.004 C 
HETATM    2  C11 UNL     1     -16.863   2.184  16.508  1.00  0.00     0.007 C 
HETATM    3  C12 UNL     1     -16.647   0.661  16.577  1.00  0.00     0.011 C 
HETATM    4  C13 UNL     1     -15.967   0.286  15.265  1.00  0.00    -0.021 A 
HETATM    5  C14 UNL     1     -14.744   1.113  14.912  1.00  0.00     0.022 A 
HETATM    6  C15 UNL     1     -16.099   1.456  14.319  1.00  0.00    -0.027 A 
HETATM    7  C16 UNL     1     -16.254   1.261  12.829  1.00  0.00     0.011 C 
HETATM    8  C17 UNL     1     -16.540  -0.179  12.391  1.00  0.00     0.007 C 
HETATM    9  C18 UNL     1     -15.724  -1.215  13.195  1.00  0.00     0.005 C 
HETATM   10  C19 UNL     1     -15.614  -2.653  12.522  1.00  0.00    -0.035 C 
HETATM   11  C20 UNL     1     -17.000  -3.256  12.195  1.00  0.00     0.016 C 
HETATM   12  C21 UNL     1     -14.841  -2.494  11.163  1.00  0.00     0.012 C 
HETATM   13  C22 UNL     1     -13.909  -3.653  10.796  1.00  0.00     0.034 C 
HETATM   14  C23 UNL     1     -14.382  -4.999  11.333  1.00  0.00     0.140 C 
HETATM   15  C29 UNL     1     -14.434  -5.016  12.896  1.00  0.00    -0.016 C 
HETATM   16  C30 UNL     1     -15.446  -6.097  13.333  1.00  0.00     0.018 C 
HETATM   17  C31 UNL     1     -13.058  -5.454  13.475  1.00  0.00     0.018 C 
HETATM   18  C32 UNL     1     -14.760  -3.576  13.462  1.00  0.00     0.007 C 
HETATM   19  C33 UNL     1     -15.286  -3.573  14.919  1.00  0.00     0.038 C 
HETATM   20  C34 UNL     1     -15.286  -2.164  15.530  1.00  0.00     0.128 C 
HETATM   21  C35 UNL     1     -16.155  -1.166  14.714  1.00  0.00    -0.005 C 
HETATM   22  C36 UNL     1     -17.651  -1.550  14.900  1.00  0.00     0.019 C 
ENDROOT
BRANCH   1  23
HETATM   23  C9  UNL     1     -16.639   3.941  14.556  1.00  0.00     0.048 C 
HETATM   24  C2  UNL     1     -17.348   5.078  15.292  1.00  0.00     0.264 C 
HETATM   25  O2  UNL     1     -16.637   6.268  14.922  1.00  0.00    -0.353 OA
HETATM   26  C3  UNL     1     -15.323   5.899  14.452  1.00  0.00     0.157 C 
HETATM   27  C8  UNL     1     -15.195   4.391  14.675  1.00  0.00     0.044 C 
BRANCH  24  28
HETATM   28  O1  UNL     1     -17.309   4.885  16.700  1.00  0.00    -0.366 OA
HETATM   29  C1  UNL     1     -17.859   5.984  17.407  1.00  0.00     0.204 C 
ENDBRANCH  24  28
BRANCH  26  30
HETATM   30  C4  UNL     1     -14.197   6.706  15.138  1.00  0.00     0.183 C 
BRANCH  30  31
HETATM   31  O3  UNL     1     -14.538   6.957  16.509  1.00  0.00    -0.390 OA
HETATM   32  H7  UNL     1     -13.716   6.924  17.026  1.00  0.00     0.210 HD
ENDBRANCH  30  31
BRANCH  30  33
HETATM   33  C5  UNL     1     -13.819   8.030  14.420  1.00  0.00     0.103 C 
HETATM   34  C6  UNL     1     -12.980   7.723  13.166  1.00  0.00     0.051 C 
BRANCH  33  35
HETATM   35  O4  UNL     1     -15.020   8.672  13.952  1.00  0.00    -0.385 OA
HETATM   36  H11 UNL     1     -14.739   9.579  13.712  1.00  0.00     0.210 HD
ENDBRANCH  33  35
BRANCH  33  37
HETATM   37  C7  UNL     1     -13.066   9.026  15.325  1.00  0.00     0.204 C 
BRANCH  37  38
HETATM   38  O5  UNL     1     -11.978   8.347  15.972  1.00  0.00    -0.398 OA
HETATM   39  H14 UNL     1     -11.566   9.003  16.565  1.00  0.00     0.209 HD
ENDBRANCH  37  38
ENDBRANCH  33  37
ENDBRANCH  30  33
ENDBRANCH  26  30
ENDBRANCH   1  23
BRANCH  20  40
HETATM   40  O8  UNL     1     -13.925  -1.723  15.594  1.00  0.00    -0.395 OA
HETATM   41  H55 UNL     1     -13.461  -2.296  16.229  1.00  0.00     0.210 HD
ENDBRANCH  20  40
BRANCH  14  42
HETATM   42  O6  UNL     1     -13.474  -6.011  10.849  1.00  0.00    -0.312 OA
BRANCH  42  43
HETATM   43  C24 UNL     1     -13.975  -6.966  10.034  1.00  0.00     0.283 C 
HETATM   44  O7  UNL     1     -13.621  -8.133   9.971  1.00  0.00    -0.260 OA
BRANCH  43  45
HETATM   45  C25 UNL     1     -14.982  -6.403   9.107  1.00  0.00     0.084 C 
HETATM   46  C26 UNL     1     -14.796  -5.913   7.865  1.00  0.00    -0.082 C 
HETATM   47  C27 UNL     1     -13.468  -5.773   7.173  1.00  0.00     0.043 C 
HETATM   48  C28 UNL     1     -15.971  -5.422   7.062  1.00  0.00     0.043 C 
ENDBRANCH  43  45
ENDBRANCH  42  43
ENDBRANCH  14  42
TORSDOF 12
ENDMDL
MODEL 8
REMARK minimizedAffinity -8.30682659
REMARK CNNscore 0.212343514
REMARK CNNaffinity 6.50657892
REMARK  12 active torsions:
REMARK  status: ('A' for Active; 'I' for Inactive)
REMARK    1  A    between atoms: O1_2  and  C2_3 
REMARK    2  A    between atoms: C3_5  and  C4_6 
REMARK    3  A    between atoms: C4_6  and  O3_7 
REMARK    4  A    between atoms: C4_6  and  C5_8 
REMARK    5  A    between atoms: C5_8  and  O4_10 
REMARK    6  A    between atoms: C5_8  and  C7_11 
REMARK    7  A    between atoms: C7_11  and  O5_12 
REMARK    8  A    between atoms: C9_14  and  C10_15 
REMARK    9  A    between atoms: C23_28  and  O6_29 
REMARK   10  A    between atoms: O6_29  and  C24_30 
REMARK   11  A    between atoms: C24_30  and  C25_32 
REMARK   12  A    between atoms: C34_41  and  O8_42 
ROOT
HETATM    1  C10 UNL     1      -7.176   7.160  14.022  1.00  0.00     0.004 C 
HETATM    2  C11 UNL     1      -6.796   5.881  13.240  1.00  0.00     0.007 C 
HETATM    3  C12 UNL     1      -5.268   5.955  13.063  1.00  0.00     0.011 C 
HETATM    4  C13 UNL     1      -4.761   6.775  14.244  1.00  0.00    -0.021 A 
HETATM    5  C14 UNL     1      -5.248   6.315  15.607  1.00  0.00     0.022 A 
HETATM    6  C15 UNL     1      -5.947   7.454  14.885  1.00  0.00    -0.027 A 
HETATM    7  C16 UNL     1      -5.836   8.823  15.516  1.00  0.00     0.011 C 
HETATM    8  C17 UNL     1      -4.531   9.568  15.217  1.00  0.00     0.007 C 
HETATM    9  C18 UNL     1      -3.299   8.636  15.240  1.00  0.00     0.005 C 
HETATM   10  C19 UNL     1      -1.898   9.377  15.393  1.00  0.00    -0.035 C 
HETATM   11  C20 UNL     1      -1.685  10.459  14.308  1.00  0.00     0.016 C 
HETATM   12  C21 UNL     1      -1.883  10.104  16.786  1.00  0.00     0.012 C 
HETATM   13  C22 UNL     1      -0.530  10.121  17.505  1.00  0.00     0.034 C 
HETATM   14  C23 UNL     1       0.658  10.125  16.550  1.00  0.00     0.140 C 
HETATM   15  C29 UNL     1       0.698   8.835  15.668  1.00  0.00    -0.016 C 
HETATM   16  C30 UNL     1       1.489   9.156  14.381  1.00  0.00     0.018 C 
HETATM   17  C31 UNL     1       1.494   7.712  16.393  1.00  0.00     0.018 C 
HETATM   18  C32 UNL     1      -0.762   8.294  15.396  1.00  0.00     0.007 C 
HETATM   19  C33 UNL     1      -0.867   7.333  14.187  1.00  0.00     0.038 C 
HETATM   20  C34 UNL     1      -2.211   6.592  14.152  1.00  0.00     0.128 C 
HETATM   21  C35 UNL     1      -3.422   7.567  14.085  1.00  0.00    -0.005 C 
HETATM   22  C36 UNL     1      -3.436   8.236  12.681  1.00  0.00     0.019 C 
ENDROOT
BRANCH   1  23
HETATM   23  C9  UNL     1      -8.480   7.134  14.832  1.00  0.00     0.048 C 
HETATM   24  C2  UNL     1      -8.797   8.371  15.672  1.00  0.00     0.264 C 
HETATM   25  O2  UNL     1     -10.173   8.227  16.053  1.00  0.00    -0.353 OA
HETATM   26  C3  UNL     1     -10.815   7.308  15.143  1.00  0.00     0.157 C 
HETATM   27  C8  UNL     1      -9.781   6.978  14.066  1.00  0.00     0.044 C 
BRANCH  24  28
HETATM   28  O1  UNL     1      -8.604   9.565  14.924  1.00  0.00    -0.366 OA
HETATM   29  C1  UNL     1      -9.347  10.653  15.450  1.00  0.00     0.204 C 
ENDBRANCH  24  28
BRANCH  26  30
HETATM   30  C4  UNL     1     -12.131   7.871  14.561  1.00  0.00     0.183 C 
BRANCH  30  31
HETATM   31  O3  UNL     1     -12.581   8.984  15.347  1.00  0.00    -0.390 OA
HETATM   32  H7  UNL     1     -12.992   9.624  14.742  1.00  0.00     0.210 HD
ENDBRANCH  30  31
BRANCH  30  33
HETATM   33  C5  UNL     1     -13.267   6.825  14.398  1.00  0.00     0.103 C 
HETATM   34  C6  UNL     1     -13.895   6.948  12.998  1.00  0.00     0.051 C 
BRANCH  33  35
HETATM   35  O4  UNL     1     -12.703   5.502  14.470  1.00  0.00    -0.385 OA
HETATM   36  H11 UNL     1     -13.476   4.909  14.580  1.00  0.00     0.210 HD
ENDBRANCH  33  35
BRANCH  33  37
HETATM   37  C7  UNL     1     -14.364   6.937  15.477  1.00  0.00     0.204 C 
BRANCH  37  38
HETATM   38  O5  UNL     1     -15.654   6.864  14.849  1.00  0.00    -0.398 OA
HETATM   39  H14 UNL     1     -16.307   6.986  15.562  1.00  0.00     0.209 HD
ENDBRANCH  37  38
ENDBRANCH  33  37
ENDBRANCH  30  33
ENDBRANCH  26  30
ENDBRANCH   1  23
BRANCH  20  40
HETATM   40  O8  UNL     1      -2.282   5.771  15.323  1.00  0.00    -0.395 OA
HETATM   41  H55 UNL     1      -1.592   5.090  15.244  1.00  0.00     0.210 HD
ENDBRANCH  20  40
BRANCH  14  42
HETATM   42  O6  UNL     1       1.860  10.230  17.344  1.00  0.00    -0.312 OA
BRANCH  42  43
HETATM   43  C24 UNL     1       1.861  11.116  18.364  1.00  0.00     0.283 C 
HETATM   44  O7  UNL     1       1.691  12.323  18.285  1.00  0.00    -0.260 OA
BRANCH  43  45
HETATM   45  C25 UNL     1       2.208  10.458  19.643  1.00  0.00     0.084 C 
HETATM   46  C26 UNL     1       2.255  10.997  20.878  1.00  0.00    -0.082 C 
HETATM   47  C27 UNL     1       2.023  12.447  21.205  1.00  0.00     0.043 C 
HETATM   48  C28 UNL     1       2.592  10.136  22.066  1.00  0.00     0.043 C 
ENDBRANCH  43  45
ENDBRANCH  42  43
ENDBRANCH  14  42
TORSDOF 12
ENDMDL
MODEL 9
REMARK minimizedAffinity -8.23208809
REMARK CNNscore 0.199546307
REMARK CNNaffinity 6.74304914
REMARK  12 active torsions:
REMARK  status: ('A' for Active; 'I' for Inactive)
REMARK    1  A    between atoms: O1_2  and  C2_3 
REMARK    2  A    between atoms: C3_5  and  C4_6 
REMARK    3  A    between atoms: C4_6  and  O3_7 
REMARK    4  A    between atoms: C4_6  and  C5_8 
REMARK    5  A    between atoms: C5_8  and  O4_10 
REMARK    6  A    between atoms: C5_8  and  C7_11 
REMARK    7  A    between atoms: C7_11  and  O5_12 
REMARK    8  A    between atoms: C9_14  and  C10_15 
REMARK    9  A    between atoms: C23_28  and  O6_29 
REMARK   10  A    between atoms: O6_29  and  C24_30 
REMARK   11  A    between atoms: C24_30  and  C25_32 
REMARK   12  A    between atoms: C34_41  and  O8_42 
ROOT
HETATM    1  C10 UNL     1       2.063   9.067  14.528  1.00  0.00     0.004 C 
HETATM    2  C11 UNL     1       1.995  10.067  15.706  1.00  0.00     0.007 C 
HETATM    3  C12 UNL     1       0.494  10.254  15.991  1.00  0.00     0.011 C 
HETATM    4  C13 UNL     1      -0.170   8.957  15.544  1.00  0.00    -0.021 A 
HETATM    5  C14 UNL     1       0.454   7.688  16.094  1.00  0.00     0.022 A 
HETATM    6  C15 UNL     1       0.824   8.186  14.708  1.00  0.00    -0.027 A 
HETATM    7  C16 UNL     1       0.388   7.329  13.543  1.00  0.00     0.011 C 
HETATM    8  C17 UNL     1      -1.070   7.515  13.112  1.00  0.00     0.007 C 
HETATM    9  C18 UNL     1      -2.026   7.677  14.314  1.00  0.00     0.005 C 
HETATM   10  C19 UNL     1      -3.564   7.422  13.989  1.00  0.00    -0.035 C 
HETATM   11  C20 UNL     1      -4.072   8.305  12.825  1.00  0.00     0.016 C 
HETATM   12  C21 UNL     1      -3.723   5.924  13.542  1.00  0.00     0.012 C 
HETATM   13  C22 UNL     1      -5.016   5.236  13.992  1.00  0.00     0.034 C 
HETATM   14  C23 UNL     1      -6.193   6.197  14.124  1.00  0.00     0.140 C 
HETATM   15  C29 UNL     1      -5.931   7.291  15.210  1.00  0.00    -0.016 C 
HETATM   16  C30 UNL     1      -6.812   8.516  14.881  1.00  0.00     0.018 C 
HETATM   17  C31 UNL     1      -6.398   6.787  16.605  1.00  0.00     0.018 C 
HETATM   18  C32 UNL     1      -4.390   7.627  15.308  1.00  0.00     0.007 C 
HETATM   19  C33 UNL     1      -4.080   8.984  15.987  1.00  0.00     0.038 C 
HETATM   20  C34 UNL     1      -2.593   9.124  16.346  1.00  0.00     0.128 C 
HETATM   21  C35 UNL     1      -1.670   8.999  15.100  1.00  0.00    -0.005 C 
HETATM   22  C36 UNL     1      -1.863  10.264  14.217  1.00  0.00     0.019 C 
ENDROOT
BRANCH   1  23
HETATM   23  C9  UNL     1       3.353   8.251  14.363  1.00  0.00     0.048 C 
HETATM   24  C2  UNL     1       3.848   8.022  12.936  1.00  0.00     0.264 C 
HETATM   25  O2  UNL     1       5.191   7.534  13.076  1.00  0.00    -0.353 OA
HETATM   26  C3  UNL     1       5.690   7.909  14.377  1.00  0.00     0.157 C 
HETATM   27  C8  UNL     1       4.614   8.792  15.011  1.00  0.00     0.044 C 
BRANCH  24  28
HETATM   28  O1  UNL     1       3.827   9.227  12.183  1.00  0.00    -0.366 OA
HETATM   29  C1  UNL     1       4.881   9.286  11.235  1.00  0.00     0.204 C 
ENDBRANCH  24  28
BRANCH  26  30
HETATM   30  C4  UNL     1       7.071   8.599  14.309  1.00  0.00     0.183 C 
BRANCH  30  31
HETATM   31  O3  UNL     1       7.856   8.024  13.254  1.00  0.00    -0.390 OA
HETATM   32  H7  UNL     1       8.388   8.737  12.863  1.00  0.00     0.210 HD
ENDBRANCH  30  31
BRANCH  30  33
HETATM   33  C5  UNL     1       7.865   8.594  15.643  1.00  0.00     0.103 C 
HETATM   34  C6  UNL     1       8.115  10.040  16.108  1.00  0.00     0.051 C 
BRANCH  33  35
HETATM   35  O4  UNL     1       7.062   7.976  16.667  1.00  0.00    -0.385 OA
HETATM   36  H11 UNL     1       7.686   7.810  17.404  1.00  0.00     0.210 HD
ENDBRANCH  33  35
BRANCH  33  37
HETATM   37  C7  UNL     1       9.202   7.830  15.559  1.00  0.00     0.204 C 
BRANCH  37  38
HETATM   38  O5  UNL     1      10.259   8.759  15.268  1.00  0.00    -0.398 OA
HETATM   39  H14 UNL     1      11.069   8.225  15.179  1.00  0.00     0.209 HD
ENDBRANCH  37  38
ENDBRANCH  33  37
ENDBRANCH  30  33
ENDBRANCH  26  30
ENDBRANCH   1  23
BRANCH  20  40
HETATM   40  O8  UNL     1      -2.286   8.113  17.312  1.00  0.00    -0.395 OA
HETATM   41  H55 UNL     1      -2.784   8.322  18.122  1.00  0.00     0.210 HD
ENDBRANCH  20  40
BRANCH  14  42
HETATM   42  O6  UNL     1      -7.360   5.418  14.465  1.00  0.00    -0.312 OA
BRANCH  42  43
HETATM   43  C24 UNL     1      -8.565   6.024  14.379  1.00  0.00     0.283 C 
HETATM   44  O7  UNL     1      -9.245   6.435  15.307  1.00  0.00    -0.260 OA
BRANCH  43  45
HETATM   45  C25 UNL     1      -9.051   6.053  12.982  1.00  0.00     0.084 C 
HETATM   46  C26 UNL     1     -10.095   6.736  12.471  1.00  0.00    -0.082 C 
HETATM   47  C27 UNL     1     -11.052   7.584  13.263  1.00  0.00     0.043 C 
HETATM   48  C28 UNL     1     -10.399   6.662  10.999  1.00  0.00     0.043 C 
ENDBRANCH  43  45
ENDBRANCH  42  43
ENDBRANCH  14  42
TORSDOF 12
ENDMDL
