MODEL 1
REMARK minimizedAffinity -9.92698479
REMARK  6 active torsions:
REMARK  status: ('A' for Active; 'I' for Inactive)
REMARK    1  A    between atoms: C2_2  and  C30_31 
REMARK    2  A    between atoms: C3_3  and  C4_4 
REMARK    3  A    between atoms: C4_4  and  C5_5 
REMARK    4  A    between atoms: C5_5  and  C6_6 
REMARK    5  A    between atoms: C6_6  and  C8_8 
REMARK    6  A    between atoms: C30_31  and  O3_33 
ROOT
HETATM    1  C8  UNL     1      -2.769  48.655 -19.294  1.00  0.00    -0.002 C 
HETATM    2  C9  UNL     1      -3.420  47.463 -20.046  1.00  0.00     0.007 C 
HETATM    3  C10 UNL     1      -3.381  47.807 -21.554  1.00  0.00     0.015 C 
HETATM    4  C11 UNL     1      -2.954  49.290 -21.618  1.00  0.00    -0.013 C 
HETATM    5  C12 UNL     1      -4.264  50.126 -21.435  1.00  0.00     0.021 C 
HETATM    6  C13 UNL     1      -2.306  49.815 -22.894  1.00  0.00    -0.070 C 
HETATM    7  C14 UNL     1      -2.656  49.362 -24.112  1.00  0.00    -0.022 C 
HETATM    8  C15 UNL     1      -2.157  49.934 -25.406  1.00  0.00     0.034 C 
HETATM    9  C16 UNL     1      -0.993  50.939 -25.250  1.00  0.00     0.013 C 
HETATM   10  C17 UNL     1      -0.538  51.653 -26.581  1.00  0.00     0.018 C 
HETATM   11  C18 UNL     1       0.848  51.113 -27.001  1.00  0.00     0.023 C 
HETATM   12  C19 UNL     1      -1.500  51.414 -27.765  1.00  0.00     0.023 C 
HETATM   13  C20 UNL     1      -0.367  53.172 -26.416  1.00  0.00     0.135 C 
HETATM   14  O1  UNL     1      -0.595  53.955 -27.344  1.00  0.00    -0.297 OA
HETATM   15  C21 UNL     1       0.196  53.718 -25.128  1.00  0.00     0.080 C 
HETATM   16  C22 UNL     1       0.008  52.811 -23.924  1.00  0.00     0.017 C 
HETATM   17  C23 UNL     1      -1.223  51.882 -24.017  1.00  0.00    -0.031 C 
HETATM   18  C24 UNL     1      -2.518  52.720 -24.150  1.00  0.00     0.016 C 
HETATM   19  C25 UNL     1      -1.290  50.954 -22.736  1.00  0.00     0.024 C 
HETATM   20  C26 UNL     1      -1.436  51.712 -21.392  1.00  0.00     0.010 C 
HETATM   21  C27 UNL     1      -1.583  50.828 -20.129  1.00  0.00     0.011 C 
HETATM   22  C28 UNL     1      -1.947  49.360 -20.420  1.00  0.00    -0.029 C 
HETATM   23  C29 UNL     1      -0.630  48.556 -20.660  1.00  0.00     0.016 C 
ENDROOT
BRANCH   1  24
HETATM   24  C6  UNL     1      -2.034  48.361 -17.952  1.00  0.00    -0.014 C 
HETATM   25  C7  UNL     1      -2.858  48.555 -16.677  1.00  0.00     0.010 C 
BRANCH  24  26
HETATM   26  C5  UNL     1      -0.671  49.103 -17.863  1.00  0.00     0.008 C 
BRANCH  26  27
HETATM   27  C4  UNL     1      -0.509  50.175 -16.774  1.00  0.00     0.028 C 
BRANCH  27  28
HETATM   28  C3  UNL     1       0.626  51.126 -17.038  1.00  0.00    -0.013 C 
HETATM   29  C2  UNL     1       1.401  51.777 -16.148  1.00  0.00     0.008 C 
HETATM   30  C1  UNL     1       2.527  52.671 -16.580  1.00  0.00     0.055 C 
BRANCH  29  31
HETATM   31  C30 UNL     1       1.176  51.671 -14.688  1.00  0.00     0.171 C 
HETATM   32  O2  UNL     1       1.408  50.715 -13.973  1.00  0.00    -0.646 OA
BRANCH  31  33
HETATM   33  O3  UNL     1       0.646  52.804 -14.195  1.00  0.00    -0.773 OA
HETATM   34  H46 UNL     1       0.550  52.615 -13.238  1.00  0.00     0.167 HD
ENDBRANCH  31  33
ENDBRANCH  29  31
ENDBRANCH  27  28
ENDBRANCH  26  27
ENDBRANCH  24  26
ENDBRANCH   1  24
TORSDOF 6
ENDMDL
MODEL 2
REMARK minimizedAffinity -9.29622841
REMARK  6 active torsions:
REMARK  status: ('A' for Active; 'I' for Inactive)
REMARK    1  A    between atoms: C2_2  and  C30_31 
REMARK    2  A    between atoms: C3_3  and  C4_4 
REMARK    3  A    between atoms: C4_4  and  C5_5 
REMARK    4  A    between atoms: C5_5  and  C6_6 
REMARK    5  A    between atoms: C6_6  and  C8_8 
REMARK    6  A    between atoms: C30_31  and  O3_33 
ROOT
HETATM    1  C8  UNL     1      -1.618  51.642 -21.834  1.00  0.00    -0.002 C 
HETATM    2  C9  UNL     1      -1.623  51.384 -20.303  1.00  0.00     0.007 C 
HETATM    3  C10 UNL     1      -2.864  50.511 -19.999  1.00  0.00     0.015 C 
HETATM    4  C11 UNL     1      -3.685  50.506 -21.308  1.00  0.00    -0.013 C 
HETATM    5  C12 UNL     1      -4.557  51.804 -21.277  1.00  0.00     0.021 C 
HETATM    6  C13 UNL     1      -4.658  49.361 -21.562  1.00  0.00    -0.070 C 
HETATM    7  C14 UNL     1      -5.340  48.767 -20.565  1.00  0.00    -0.022 C 
HETATM    8  C15 UNL     1      -6.409  47.735 -20.765  1.00  0.00     0.034 C 
HETATM    9  C16 UNL     1      -6.510  47.196 -22.210  1.00  0.00     0.013 C 
HETATM   10  C17 UNL     1      -7.710  46.207 -22.477  1.00  0.00     0.018 C 
HETATM   11  C18 UNL     1      -7.158  44.778 -22.678  1.00  0.00     0.023 C 
HETATM   12  C19 UNL     1      -8.725  46.146 -21.315  1.00  0.00     0.023 C 
HETATM   13  C20 UNL     1      -8.488  46.543 -23.760  1.00  0.00     0.135 C 
HETATM   14  O1  UNL     1      -9.701  46.334 -23.857  1.00  0.00    -0.297 OA
HETATM   15  C21 UNL     1      -7.738  47.042 -24.970  1.00  0.00     0.080 C 
HETATM   16  C22 UNL     1      -6.408  47.706 -24.659  1.00  0.00     0.017 C 
HETATM   17  C23 UNL     1      -6.336  48.352 -23.256  1.00  0.00    -0.031 C 
HETATM   18  C24 UNL     1      -7.423  49.444 -23.114  1.00  0.00     0.016 C 
HETATM   19  C25 UNL     1      -4.895  48.967 -23.026  1.00  0.00     0.024 C 
HETATM   20  C26 UNL     1      -4.498  50.083 -24.025  1.00  0.00     0.010 C 
HETATM   21  C27 UNL     1      -3.126  50.757 -23.775  1.00  0.00     0.011 C 
HETATM   22  C28 UNL     1      -2.537  50.500 -22.375  1.00  0.00    -0.029 C 
HETATM   23  C29 UNL     1      -1.721  49.170 -22.412  1.00  0.00     0.016 C 
ENDROOT
BRANCH   1  24
HETATM   24  C6  UNL     1      -0.242  51.842 -22.537  1.00  0.00    -0.014 C 
HETATM   25  C7  UNL     1       0.958  52.073 -21.615  1.00  0.00     0.010 C 
BRANCH  24  26
HETATM   26  C5  UNL     1      -0.314  52.923 -23.653  1.00  0.00     0.008 C 
BRANCH  26  27
HETATM   27  C4  UNL     1       0.858  53.008 -24.643  1.00  0.00     0.028 C 
BRANCH  27  28
HETATM   28  C3  UNL     1       0.465  52.687 -26.060  1.00  0.00    -0.013 C 
HETATM   29  C2  UNL     1       1.162  52.008 -26.991  1.00  0.00     0.008 C 
HETATM   30  C1  UNL     1       0.607  51.740 -28.360  1.00  0.00     0.055 C 
BRANCH  29  31
HETATM   31  C30 UNL     1       2.530  51.503 -26.733  1.00  0.00     0.171 C 
HETATM   32  O2  UNL     1       2.854  50.594 -25.993  1.00  0.00    -0.646 OA
BRANCH  31  33
HETATM   33  O3  UNL     1       3.444  52.197 -27.435  1.00  0.00    -0.773 OA
HETATM   34  H46 UNL     1       4.293  51.774 -27.187  1.00  0.00     0.167 HD
ENDBRANCH  31  33
ENDBRANCH  29  31
ENDBRANCH  27  28
ENDBRANCH  26  27
ENDBRANCH  24  26
ENDBRANCH   1  24
TORSDOF 6
ENDMDL
MODEL 3
REMARK minimizedAffinity -9.27788925
REMARK  6 active torsions:
REMARK  status: ('A' for Active; 'I' for Inactive)
REMARK    1  A    between atoms: C2_2  and  C30_31 
REMARK    2  A    between atoms: C3_3  and  C4_4 
REMARK    3  A    between atoms: C4_4  and  C5_5 
REMARK    4  A    between atoms: C5_5  and  C6_6 
REMARK    5  A    between atoms: C6_6  and  C8_8 
REMARK    6  A    between atoms: C30_31  and  O3_33 
ROOT
HETATM    1  C8  UNL     1      -3.469  48.171 -19.857  1.00  0.00    -0.002 C 
HETATM    2  C9  UNL     1      -4.043  47.118 -20.842  1.00  0.00     0.007 C 
HETATM    3  C10 UNL     1      -3.741  47.627 -22.272  1.00  0.00     0.015 C 
HETATM    4  C11 UNL     1      -3.240  49.077 -22.085  1.00  0.00    -0.013 C 
HETATM    5  C12 UNL     1      -4.521  49.971 -22.009  1.00  0.00     0.021 C 
HETATM    6  C13 UNL     1      -2.368  49.699 -23.170  1.00  0.00    -0.070 C 
HETATM    7  C14 UNL     1      -2.534  49.412 -24.474  1.00  0.00    -0.022 C 
HETATM    8  C15 UNL     1      -1.803  50.092 -25.593  1.00  0.00     0.034 C 
HETATM    9  C16 UNL     1      -0.635  50.993 -25.134  1.00  0.00     0.013 C 
HETATM   10  C17 UNL     1       0.066  51.822 -26.280  1.00  0.00     0.018 C 
HETATM   11  C18 UNL     1       1.474  51.242 -26.540  1.00  0.00     0.023 C 
HETATM   12  C19 UNL     1      -0.700  51.784 -27.621  1.00  0.00     0.023 C 
HETATM   13  C20 UNL     1       0.279  53.297 -25.905  1.00  0.00     0.135 C 
HETATM   14  O1  UNL     1       0.242  54.194 -26.754  1.00  0.00    -0.297 OA
HETATM   15  C21 UNL     1       0.648  53.655 -24.487  1.00  0.00     0.080 C 
HETATM   16  C22 UNL     1       0.222  52.632 -23.448  1.00  0.00     0.017 C 
HETATM   17  C23 UNL     1      -1.019  51.803 -23.847  1.00  0.00    -0.031 C 
HETATM   18  C24 UNL     1      -2.233  52.735 -24.078  1.00  0.00     0.016 C 
HETATM   19  C25 UNL     1      -1.339  50.742 -22.715  1.00  0.00     0.024 C 
HETATM   20  C26 UNL     1      -1.667  51.351 -21.328  1.00  0.00     0.010 C 
HETATM   21  C27 UNL     1      -2.060  50.341 -20.222  1.00  0.00     0.011 C 
HETATM   22  C28 UNL     1      -2.440  48.943 -20.745  1.00  0.00    -0.029 C 
HETATM   23  C29 UNL     1      -1.142  48.086 -20.872  1.00  0.00     0.016 C 
ENDROOT
BRANCH   1  24
HETATM   24  C6  UNL     1      -2.978  47.678 -18.463  1.00  0.00    -0.014 C 
HETATM   25  C7  UNL     1      -3.186  46.192 -18.163  1.00  0.00     0.010 C 
BRANCH  24  26
HETATM   26  C5  UNL     1      -3.521  48.569 -17.309  1.00  0.00     0.008 C 
BRANCH  26  27
HETATM   27  C4  UNL     1      -2.522  49.046 -16.244  1.00  0.00     0.028 C 
BRANCH  27  28
HETATM   28  C3  UNL     1      -1.584  50.113 -16.742  1.00  0.00    -0.013 C 
HETATM   29  C2  UNL     1      -0.262  50.240 -16.515  1.00  0.00     0.008 C 
HETATM   30  C1  UNL     1       0.543  51.353 -17.121  1.00  0.00     0.055 C 
BRANCH  29  31
HETATM   31  C30 UNL     1       0.476  49.307 -15.633  1.00  0.00     0.171 C 
HETATM   32  O2  UNL     1       1.067  49.576 -14.605  1.00  0.00    -0.646 OA
BRANCH  31  33
HETATM   33  O3  UNL     1       0.435  48.052 -16.113  1.00  0.00    -0.773 OA
HETATM   34  H46 UNL     1       0.945  47.537 -15.452  1.00  0.00     0.167 HD
ENDBRANCH  31  33
ENDBRANCH  29  31
ENDBRANCH  27  28
ENDBRANCH  26  27
ENDBRANCH  24  26
ENDBRANCH   1  24
TORSDOF 6
ENDMDL
MODEL 4
REMARK minimizedAffinity -9.27520847
REMARK  6 active torsions:
REMARK  status: ('A' for Active; 'I' for Inactive)
REMARK    1  A    between atoms: C2_2  and  C30_31 
REMARK    2  A    between atoms: C3_3  and  C4_4 
REMARK    3  A    between atoms: C4_4  and  C5_5 
REMARK    4  A    between atoms: C5_5  and  C6_6 
REMARK    5  A    between atoms: C6_6  and  C8_8 
REMARK    6  A    between atoms: C30_31  and  O3_33 
ROOT
HETATM    1  C8  UNL     1      -3.942  50.524 -24.969  1.00  0.00    -0.002 C 
HETATM    2  C9  UNL     1      -3.787  52.039 -24.669  1.00  0.00     0.007 C 
HETATM    3  C10 UNL     1      -3.699  52.187 -23.131  1.00  0.00     0.015 C 
HETATM    4  C11 UNL     1      -4.067  50.795 -22.571  1.00  0.00    -0.013 C 
HETATM    5  C12 UNL     1      -5.629  50.755 -22.503  1.00  0.00     0.021 C 
HETATM    6  C13 UNL     1      -3.585  50.412 -21.177  1.00  0.00    -0.070 C 
HETATM    7  C14 UNL     1      -3.473  51.315 -20.185  1.00  0.00    -0.022 C 
HETATM    8  C15 UNL     1      -3.138  50.977 -18.763  1.00  0.00     0.034 C 
HETATM    9  C16 UNL     1      -2.672  49.520 -18.548  1.00  0.00     0.013 C 
HETATM   10  C17 UNL     1      -2.440  49.102 -17.045  1.00  0.00     0.018 C 
HETATM   11  C18 UNL     1      -0.925  48.935 -16.790  1.00  0.00     0.023 C 
HETATM   12  C19 UNL     1      -2.962  50.143 -16.031  1.00  0.00     0.023 C 
HETATM   13  C20 UNL     1      -3.078  47.748 -16.696  1.00  0.00     0.135 C 
HETATM   14  O1  UNL     1      -3.525  47.513 -15.568  1.00  0.00    -0.297 OA
HETATM   15  C21 UNL     1      -3.065  46.638 -17.717  1.00  0.00     0.080 C 
HETATM   16  C22 UNL     1      -2.955  47.108 -19.157  1.00  0.00     0.017 C 
HETATM   17  C23 UNL     1      -3.525  48.523 -19.408  1.00  0.00    -0.031 C 
HETATM   18  C24 UNL     1      -5.028  48.565 -19.040  1.00  0.00     0.016 C 
HETATM   19  C25 UNL     1      -3.312  48.924 -20.924  1.00  0.00     0.024 C 
HETATM   20  C26 UNL     1      -4.018  47.997 -21.947  1.00  0.00     0.010 C 
HETATM   21  C27 UNL     1      -3.892  48.410 -23.434  1.00  0.00     0.011 C 
HETATM   22  C28 UNL     1      -3.423  49.862 -23.652  1.00  0.00    -0.029 C 
HETATM   23  C29 UNL     1      -1.863  49.889 -23.655  1.00  0.00     0.016 C 
ENDROOT
BRANCH   1  24
HETATM   24  C6  UNL     1      -3.371  49.982 -26.313  1.00  0.00    -0.014 C 
HETATM   25  C7  UNL     1      -3.046  48.486 -26.352  1.00  0.00     0.010 C 
BRANCH  24  26
HETATM   26  C5  UNL     1      -2.172  50.834 -26.818  1.00  0.00     0.008 C 
BRANCH  26  27
HETATM   27  C4  UNL     1      -0.882  50.821 -25.983  1.00  0.00     0.028 C 
BRANCH  27  28
HETATM   28  C3  UNL     1       0.368  50.894 -26.817  1.00  0.00    -0.013 C 
HETATM   29  C2  UNL     1       0.909  51.966 -27.427  1.00  0.00     0.008 C 
HETATM   30  C1  UNL     1       2.193  51.876 -28.200  1.00  0.00     0.055 C 
BRANCH  29  31
HETATM   31  C30 UNL     1       0.258  53.296 -27.397  1.00  0.00     0.171 C 
HETATM   32  O2  UNL     1       0.347  54.141 -26.527  1.00  0.00    -0.646 OA
BRANCH  31  33
HETATM   33  O3  UNL     1      -0.498  53.491 -28.492  1.00  0.00    -0.773 OA
HETATM   34  H46 UNL     1      -0.865  54.390 -28.359  1.00  0.00     0.167 HD
ENDBRANCH  31  33
ENDBRANCH  29  31
ENDBRANCH  27  28
ENDBRANCH  26  27
ENDBRANCH  24  26
ENDBRANCH   1  24
TORSDOF 6
ENDMDL
MODEL 5
REMARK minimizedAffinity -9.13846684
REMARK  6 active torsions:
REMARK  status: ('A' for Active; 'I' for Inactive)
REMARK    1  A    between atoms: C2_2  and  C30_31 
REMARK    2  A    between atoms: C3_3  and  C4_4 
REMARK    3  A    between atoms: C4_4  and  C5_5 
REMARK    4  A    between atoms: C5_5  and  C6_6 
REMARK    5  A    between atoms: C6_6  and  C8_8 
REMARK    6  A    between atoms: C30_31  and  O3_33 
ROOT
HETATM    1  C8  UNL     1      -0.703  51.684 -20.855  1.00  0.00    -0.002 C 
HETATM    2  C9  UNL     1      -0.174  50.816 -19.681  1.00  0.00     0.007 C 
HETATM    3  C10 UNL     1      -1.306  49.830 -19.305  1.00  0.00     0.015 C 
HETATM    4  C11 UNL     1      -2.546  50.323 -20.085  1.00  0.00    -0.013 C 
HETATM    5  C12 UNL     1      -3.193  51.442 -19.205  1.00  0.00     0.021 C 
HETATM    6  C13 UNL     1      -3.667  49.335 -20.385  1.00  0.00    -0.070 C 
HETATM    7  C14 UNL     1      -3.996  48.346 -19.533  1.00  0.00    -0.022 C 
HETATM    8  C15 UNL     1      -5.174  47.433 -19.706  1.00  0.00     0.034 C 
HETATM    9  C16 UNL     1      -5.859  47.536 -21.087  1.00  0.00     0.013 C 
HETATM   10  C17 UNL     1      -7.177  46.683 -21.249  1.00  0.00     0.018 C 
HETATM   11  C18 UNL     1      -6.903  45.497 -22.200  1.00  0.00     0.023 C 
HETATM   12  C19 UNL     1      -7.693  46.092 -19.918  1.00  0.00     0.023 C 
HETATM   13  C20 UNL     1      -8.329  47.477 -21.886  1.00  0.00     0.135 C 
HETATM   14  O1  UNL     1      -9.508  47.262 -21.588  1.00  0.00    -0.297 OA
HETATM   15  C21 UNL     1      -8.026  48.471 -22.979  1.00  0.00     0.080 C 
HETATM   16  C22 UNL     1      -6.609  49.017 -22.960  1.00  0.00     0.017 C 
HETATM   17  C23 UNL     1      -5.953  49.029 -21.561  1.00  0.00    -0.031 C 
HETATM   18  C24 UNL     1      -6.781  49.904 -20.589  1.00  0.00     0.016 C 
HETATM   19  C25 UNL     1      -4.469  49.569 -21.671  1.00  0.00     0.024 C 
HETATM   20  C26 UNL     1      -4.344  51.019 -22.207  1.00  0.00     0.010 C 
HETATM   21  C27 UNL     1      -2.910  51.602 -22.251  1.00  0.00     0.011 C 
HETATM   22  C28 UNL     1      -1.880  50.820 -21.413  1.00  0.00    -0.029 C 
HETATM   23  C29 UNL     1      -1.291  49.671 -22.289  1.00  0.00     0.016 C 
ENDROOT
BRANCH   1  24
HETATM   24  C6  UNL     1       0.330  52.231 -21.884  1.00  0.00    -0.014 C 
HETATM   25  C7  UNL     1       1.209  53.388 -21.405  1.00  0.00     0.010 C 
BRANCH  24  26
HETATM   26  C5  UNL     1      -0.332  52.552 -23.254  1.00  0.00     0.008 C 
BRANCH  26  27
HETATM   27  C4  UNL     1       0.491  53.354 -24.276  1.00  0.00     0.028 C 
BRANCH  27  28
HETATM   28  C3  UNL     1       0.919  52.539 -25.466  1.00  0.00    -0.013 C 
HETATM   29  C2  UNL     1       0.578  52.699 -26.760  1.00  0.00     0.008 C 
HETATM   30  C1  UNL     1       1.126  51.813 -27.841  1.00  0.00     0.055 C 
BRANCH  29  31
HETATM   31  C30 UNL     1      -0.379  53.742 -27.194  1.00  0.00     0.171 C 
HETATM   32  O2  UNL     1      -1.505  53.578 -27.625  1.00  0.00    -0.646 OA
BRANCH  31  33
HETATM   33  O3  UNL     1       0.152  54.971 -27.068  1.00  0.00    -0.773 OA
HETATM   34  H46 UNL     1      -0.564  55.564 -27.377  1.00  0.00     0.167 HD
ENDBRANCH  31  33
ENDBRANCH  29  31
ENDBRANCH  27  28
ENDBRANCH  26  27
ENDBRANCH  24  26
ENDBRANCH   1  24
TORSDOF 6
ENDMDL
MODEL 6
REMARK minimizedAffinity -9.10710335
REMARK  6 active torsions:
REMARK  status: ('A' for Active; 'I' for Inactive)
REMARK    1  A    between atoms: C2_2  and  C30_31 
REMARK    2  A    between atoms: C3_3  and  C4_4 
REMARK    3  A    between atoms: C4_4  and  C5_5 
REMARK    4  A    between atoms: C5_5  and  C6_6 
REMARK    5  A    between atoms: C6_6  and  C8_8 
REMARK    6  A    between atoms: C30_31  and  O3_33 
ROOT
HETATM    1  C8  UNL     1      -1.923  49.703 -22.987  1.00  0.00    -0.002 C 
HETATM    2  C9  UNL     1      -3.205  48.830 -22.926  1.00  0.00     0.007 C 
HETATM    3  C10 UNL     1      -3.463  48.514 -21.433  1.00  0.00     0.015 C 
HETATM    4  C11 UNL     1      -2.189  48.984 -20.695  1.00  0.00    -0.013 C 
HETATM    5  C12 UNL     1      -1.169  47.803 -20.796  1.00  0.00     0.021 C 
HETATM    6  C13 UNL     1      -2.281  49.324 -19.212  1.00  0.00    -0.070 C 
HETATM    7  C14 UNL     1      -3.104  48.663 -18.377  1.00  0.00    -0.022 C 
HETATM    8  C15 UNL     1      -3.138  48.857 -16.890  1.00  0.00     0.034 C 
HETATM    9  C16 UNL     1      -2.325  50.071 -16.388  1.00  0.00     0.013 C 
HETATM   10  C17 UNL     1      -2.236  50.221 -14.820  1.00  0.00     0.018 C 
HETATM   11  C18 UNL     1      -3.086  51.432 -14.374  1.00  0.00     0.023 C 
HETATM   12  C19 UNL     1      -2.764  48.986 -14.056  1.00  0.00     0.023 C 
HETATM   13  C20 UNL     1      -0.809  50.502 -14.326  1.00  0.00     0.135 C 
HETATM   14  O1  UNL     1      -0.408  50.091 -13.232  1.00  0.00    -0.297 OA
HETATM   15  C21 UNL     1       0.096  51.390 -15.143  1.00  0.00     0.080 C 
HETATM   16  C22 UNL     1      -0.254  51.459 -16.619  1.00  0.00     0.017 C 
HETATM   17  C23 UNL     1      -0.965  50.198 -17.161  1.00  0.00    -0.031 C 
HETATM   18  C24 UNL     1      -0.064  48.953 -16.974  1.00  0.00     0.016 C 
HETATM   19  C25 UNL     1      -1.323  50.402 -18.689  1.00  0.00     0.024 C 
HETATM   20  C26 UNL     1      -0.102  50.629 -19.618  1.00  0.00     0.010 C 
HETATM   21  C27 UNL     1      -0.416  50.753 -21.129  1.00  0.00     0.011 C 
HETATM   22  C28 UNL     1      -1.818  50.257 -21.530  1.00  0.00    -0.029 C 
HETATM   23  C29 UNL     1      -2.831  51.433 -21.364  1.00  0.00     0.016 C 
ENDROOT
BRANCH   1  24
HETATM   24  C6  UNL     1      -1.792  50.730 -24.151  1.00  0.00    -0.014 C 
HETATM   25  C7  UNL     1      -2.506  52.069 -23.951  1.00  0.00     0.010 C 
BRANCH  24  26
HETATM   26  C5  UNL     1      -2.152  50.096 -25.526  1.00  0.00     0.008 C 
BRANCH  26  27
HETATM   27  C4  UNL     1      -1.421  50.624 -26.770  1.00  0.00     0.028 C 
BRANCH  27  28
HETATM   28  C3  UNL     1       0.076  50.645 -26.618  1.00  0.00    -0.013 C 
HETATM   29  C2  UNL     1       0.921  51.683 -26.773  1.00  0.00     0.008 C 
HETATM   30  C1  UNL     1       2.399  51.543 -26.547  1.00  0.00     0.055 C 
BRANCH  29  31
HETATM   31  C30 UNL     1       0.450  53.019 -27.202  1.00  0.00     0.171 C 
HETATM   32  O2  UNL     1       0.087  53.352 -28.314  1.00  0.00    -0.646 OA
BRANCH  31  33
HETATM   33  O3  UNL     1       0.472  53.893 -26.180  1.00  0.00    -0.773 OA
HETATM   34  H46 UNL     1       0.141  54.724 -26.581  1.00  0.00     0.167 HD
ENDBRANCH  31  33
ENDBRANCH  29  31
ENDBRANCH  27  28
ENDBRANCH  26  27
ENDBRANCH  24  26
ENDBRANCH   1  24
TORSDOF 6
ENDMDL
MODEL 7
REMARK minimizedAffinity -9.03425217
REMARK  6 active torsions:
REMARK  status: ('A' for Active; 'I' for Inactive)
REMARK    1  A    between atoms: C2_2  and  C30_31 
REMARK    2  A    between atoms: C3_3  and  C4_4 
REMARK    3  A    between atoms: C4_4  and  C5_5 
REMARK    4  A    between atoms: C5_5  and  C6_6 
REMARK    5  A    between atoms: C6_6  and  C8_8 
REMARK    6  A    between atoms: C30_31  and  O3_33 
ROOT
HETATM    1  C8  UNL     1       0.152  53.090 -21.940  1.00  0.00    -0.002 C 
HETATM    2  C9  UNL     1       1.367  53.899 -21.410  1.00  0.00     0.007 C 
HETATM    3  C10 UNL     1       1.557  53.502 -19.926  1.00  0.00     0.015 C 
HETATM    4  C11 UNL     1       0.299  52.682 -19.563  1.00  0.00    -0.013 C 
HETATM    5  C12 UNL     1      -0.798  53.725 -19.170  1.00  0.00     0.021 C 
HETATM    6  C13 UNL     1       0.372  51.701 -18.399  1.00  0.00    -0.070 C 
HETATM    7  C14 UNL     1       1.121  51.941 -17.307  1.00  0.00    -0.022 C 
HETATM    8  C15 UNL     1       1.125  51.085 -16.075  1.00  0.00     0.034 C 
HETATM    9  C16 UNL     1       0.386  49.738 -16.235  1.00  0.00     0.013 C 
HETATM   10  C17 UNL     1       0.262  48.877 -14.918  1.00  0.00     0.018 C 
HETATM   11  C18 UNL     1       1.181  47.641 -15.029  1.00  0.00     0.023 C 
HETATM   12  C19 UNL     1       0.678  49.644 -13.644  1.00  0.00     0.023 C 
HETATM   13  C20 UNL     1      -1.156  48.330 -14.693  1.00  0.00     0.135 C 
HETATM   14  O1  UNL     1      -1.617  48.169 -13.558  1.00  0.00    -0.297 OA
HETATM   15  C21 UNL     1      -1.971  47.875 -15.878  1.00  0.00     0.080 C 
HETATM   16  C22 UNL     1      -1.574  48.513 -17.198  1.00  0.00     0.017 C 
HETATM   17  C23 UNL     1      -0.939  49.915 -17.058  1.00  0.00    -0.031 C 
HETATM   18  C24 UNL     1      -1.931  50.887 -16.375  1.00  0.00     0.016 C 
HETATM   19  C25 UNL     1      -0.522  50.457 -18.486  1.00  0.00     0.024 C 
HETATM   20  C26 UNL     1      -1.696  50.625 -19.485  1.00  0.00     0.010 C 
HETATM   21  C27 UNL     1      -1.330  51.228 -20.863  1.00  0.00     0.011 C 
HETATM   22  C28 UNL     1       0.044  51.922 -20.909  1.00  0.00    -0.029 C 
HETATM   23  C29 UNL     1       1.133  50.854 -21.242  1.00  0.00     0.016 C 
ENDROOT
BRANCH   1  24
HETATM   24  C6  UNL     1       0.128  52.712 -23.451  1.00  0.00    -0.014 C 
HETATM   25  C7  UNL     1       0.630  53.785 -24.421  1.00  0.00     0.010 C 
BRANCH  24  26
HETATM   26  C5  UNL     1      -1.257  52.158 -23.889  1.00  0.00     0.008 C 
BRANCH  26  27
HETATM   27  C4  UNL     1      -1.278  50.906 -24.780  1.00  0.00     0.028 C 
BRANCH  27  28
HETATM   28  C3  UNL     1      -0.323  50.986 -25.941  1.00  0.00    -0.013 C 
HETATM   29  C2  UNL     1      -0.501  51.585 -27.134  1.00  0.00     0.008 C 
HETATM   30  C1  UNL     1       0.575  51.604 -28.181  1.00  0.00     0.055 C 
BRANCH  29  31
HETATM   31  C30 UNL     1      -1.778  52.239 -27.500  1.00  0.00     0.171 C 
HETATM   32  O2  UNL     1      -2.089  53.401 -27.320  1.00  0.00    -0.646 OA
BRANCH  31  33
HETATM   33  O3  UNL     1      -2.621  51.368 -28.082  1.00  0.00    -0.773 OA
HETATM   34  H46 UNL     1      -3.413  51.911 -28.278  1.00  0.00     0.167 HD
ENDBRANCH  31  33
ENDBRANCH  29  31
ENDBRANCH  27  28
ENDBRANCH  26  27
ENDBRANCH  24  26
ENDBRANCH   1  24
TORSDOF 6
ENDMDL
MODEL 8
REMARK minimizedAffinity -8.964118
REMARK  6 active torsions:
REMARK  status: ('A' for Active; 'I' for Inactive)
REMARK    1  A    between atoms: C2_2  and  C30_31 
REMARK    2  A    between atoms: C3_3  and  C4_4 
REMARK    3  A    between atoms: C4_4  and  C5_5 
REMARK    4  A    between atoms: C5_5  and  C6_6 
REMARK    5  A    between atoms: C6_6  and  C8_8 
REMARK    6  A    between atoms: C30_31  and  O3_33 
ROOT
HETATM    1  C8  UNL     1      -3.923  47.980 -20.233  1.00  0.00    -0.002 C 
HETATM    2  C9  UNL     1      -4.539  47.039 -21.303  1.00  0.00     0.007 C 
HETATM    3  C10 UNL     1      -4.164  47.624 -22.686  1.00  0.00     0.015 C 
HETATM    4  C11 UNL     1      -3.571  49.019 -22.386  1.00  0.00    -0.013 C 
HETATM    5  C12 UNL     1      -4.790  49.993 -22.277  1.00  0.00     0.021 C 
HETATM    6  C13 UNL     1      -2.628  49.651 -23.403  1.00  0.00    -0.070 C 
HETATM    7  C14 UNL     1      -2.776  49.466 -24.728  1.00  0.00    -0.022 C 
HETATM    8  C15 UNL     1      -1.970  50.169 -25.779  1.00  0.00     0.034 C 
HETATM    9  C16 UNL     1      -0.757  50.953 -25.231  1.00  0.00     0.013 C 
HETATM   10  C17 UNL     1       0.031  51.808 -26.298  1.00  0.00     0.018 C 
HETATM   11  C18 UNL     1       1.404  51.151 -26.565  1.00  0.00     0.023 C 
HETATM   12  C19 UNL     1      -0.697  51.915 -27.656  1.00  0.00     0.023 C 
HETATM   13  C20 UNL     1       0.333  53.235 -25.816  1.00  0.00     0.135 C 
HETATM   14  O1  UNL     1       0.382  54.189 -26.600  1.00  0.00    -0.297 OA
HETATM   15  C21 UNL     1       0.686  53.468 -24.368  1.00  0.00     0.080 C 
HETATM   16  C22 UNL     1       0.162  52.409 -23.413  1.00  0.00     0.017 C 
HETATM   17  C23 UNL     1      -1.121  51.698 -23.899  1.00  0.00    -0.031 C 
HETATM   18  C24 UNL     1      -2.262  52.726 -24.092  1.00  0.00     0.016 C 
HETATM   19  C25 UNL     1      -1.544  50.587 -22.853  1.00  0.00     0.024 C 
HETATM   20  C26 UNL     1      -1.869  51.121 -21.434  1.00  0.00     0.010 C 
HETATM   21  C27 UNL     1      -2.361  50.067 -20.412  1.00  0.00     0.011 C 
HETATM   22  C28 UNL     1      -2.820  48.737 -21.040  1.00  0.00    -0.029 C 
HETATM   23  C29 UNL     1      -1.579  47.803 -21.197  1.00  0.00     0.016 C 
ENDROOT
BRANCH   1  24
HETATM   24  C6  UNL     1      -3.507  47.360 -18.866  1.00  0.00    -0.014 C 
HETATM   25  C7  UNL     1      -3.378  45.835 -18.830  1.00  0.00     0.010 C 
BRANCH  24  26
HETATM   26  C5  UNL     1      -4.395  47.880 -17.699  1.00  0.00     0.008 C 
BRANCH  26  27
HETATM   27  C4  UNL     1      -5.819  47.317 -17.578  1.00  0.00     0.028 C 
BRANCH  27  28
HETATM   28  C3  UNL     1      -6.885  48.303 -17.973  1.00  0.00    -0.013 C 
HETATM   29  C2  UNL     1      -8.210  48.247 -17.737  1.00  0.00     0.008 C 
HETATM   30  C1  UNL     1      -9.141  49.342 -18.172  1.00  0.00     0.055 C 
BRANCH  29  31
HETATM   31  C30 UNL     1      -8.836  47.091 -17.056  1.00  0.00     0.171 C 
HETATM   32  O2  UNL     1      -9.011  45.975 -17.508  1.00  0.00    -0.646 OA
BRANCH  31  33
HETATM   33  O3  UNL     1      -9.228  47.414 -15.811  1.00  0.00    -0.773 OA
HETATM   34  H46 UNL     1      -9.615  46.581 -15.469  1.00  0.00     0.167 HD
ENDBRANCH  31  33
ENDBRANCH  29  31
ENDBRANCH  27  28
ENDBRANCH  26  27
ENDBRANCH  24  26
ENDBRANCH   1  24
TORSDOF 6
ENDMDL
MODEL 9
REMARK minimizedAffinity -8.9320631
REMARK  6 active torsions:
REMARK  status: ('A' for Active; 'I' for Inactive)
REMARK    1  A    between atoms: C2_2  and  C30_31 
REMARK    2  A    between atoms: C3_3  and  C4_4 
REMARK    3  A    between atoms: C4_4  and  C5_5 
REMARK    4  A    between atoms: C5_5  and  C6_6 
REMARK    5  A    between atoms: C6_6  and  C8_8 
REMARK    6  A    between atoms: C30_31  and  O3_33 
ROOT
HETATM    1  C8  UNL     1      -1.725  51.460 -21.819  1.00  0.00    -0.002 C 
HETATM    2  C9  UNL     1      -1.702  51.188 -20.291  1.00  0.00     0.007 C 
HETATM    3  C10 UNL     1      -2.940  50.315 -19.971  1.00  0.00     0.015 C 
HETATM    4  C11 UNL     1      -3.785  50.325 -21.264  1.00  0.00    -0.013 C 
HETATM    5  C12 UNL     1      -4.654  51.624 -21.204  1.00  0.00     0.021 C 
HETATM    6  C13 UNL     1      -4.766  49.184 -21.510  1.00  0.00    -0.070 C 
HETATM    7  C14 UNL     1      -5.430  48.583 -20.506  1.00  0.00    -0.022 C 
HETATM    8  C15 UNL     1      -6.506  47.555 -20.695  1.00  0.00     0.034 C 
HETATM    9  C16 UNL     1      -6.636  47.030 -22.142  1.00  0.00     0.013 C 
HETATM   10  C17 UNL     1      -7.843  46.046 -22.396  1.00  0.00     0.018 C 
HETATM   11  C18 UNL     1      -7.299  44.618 -22.621  1.00  0.00     0.023 C 
HETATM   12  C19 UNL     1      -8.836  45.977 -21.215  1.00  0.00     0.023 C 
HETATM   13  C20 UNL     1      -8.644  46.396 -23.660  1.00  0.00     0.135 C 
HETATM   14  O1  UNL     1      -9.859  46.190 -23.736  1.00  0.00    -0.297 OA
HETATM   15  C21 UNL     1      -7.917  46.905 -24.880  1.00  0.00     0.080 C 
HETATM   16  C22 UNL     1      -6.579  47.563 -24.588  1.00  0.00     0.017 C 
HETATM   17  C23 UNL     1      -6.478  48.195 -23.181  1.00  0.00    -0.031 C 
HETATM   18  C24 UNL     1      -7.560  49.289 -23.008  1.00  0.00     0.016 C 
HETATM   19  C25 UNL     1      -5.032  48.804 -22.973  1.00  0.00     0.024 C 
HETATM   20  C26 UNL     1      -4.651  49.930 -23.969  1.00  0.00     0.010 C 
HETATM   21  C27 UNL     1      -3.273  50.598 -23.739  1.00  0.00     0.011 C 
HETATM   22  C28 UNL     1      -2.658  50.326 -22.353  1.00  0.00    -0.029 C 
HETATM   23  C29 UNL     1      -1.846  48.995 -22.418  1.00  0.00     0.016 C 
ENDROOT
BRANCH   1  24
HETATM   24  C6  UNL     1      -0.363  51.664 -22.546  1.00  0.00    -0.014 C 
HETATM   25  C7  UNL     1       0.822  52.053 -21.659  1.00  0.00     0.010 C 
BRANCH  24  26
HETATM   26  C5  UNL     1      -0.494  52.622 -23.765  1.00  0.00     0.008 C 
BRANCH  26  27
HETATM   27  C4  UNL     1       0.798  53.075 -24.462  1.00  0.00     0.028 C 
BRANCH  27  28
HETATM   28  C3  UNL     1       1.070  52.342 -25.748  1.00  0.00    -0.013 C 
HETATM   29  C2  UNL     1       0.595  52.607 -26.981  1.00  0.00     0.008 C 
HETATM   30  C1  UNL     1       0.996  51.793 -28.177  1.00  0.00     0.055 C 
BRANCH  29  31
HETATM   31  C30 UNL     1      -0.370  53.701 -27.231  1.00  0.00     0.171 C 
HETATM   32  O2  UNL     1      -1.517  53.598 -27.623  1.00  0.00    -0.646 OA
BRANCH  31  33
HETATM   33  O3  UNL     1       0.179  54.902 -26.975  1.00  0.00    -0.773 OA
HETATM   34  H46 UNL     1      -0.545  55.532 -27.169  1.00  0.00     0.167 HD
ENDBRANCH  31  33
ENDBRANCH  29  31
ENDBRANCH  27  28
ENDBRANCH  26  27
ENDBRANCH  24  26
ENDBRANCH   1  24
TORSDOF 6
ENDMDL
