MODEL 1
REMARK minimizedAffinity -9.87531471
REMARK  7 active torsions:
REMARK  status: ('A' for Active; 'I' for Inactive)
REMARK    1  A    between atoms: C2_2  and  C30_33 
REMARK    2  A    between atoms: C3_3  and  C4_4 
REMARK    3  A    between atoms: C4_4  and  C5_5 
REMARK    4  A    between atoms: C5_5  and  C6_6 
REMARK    5  A    between atoms: C6_6  and  C8_8 
REMARK    6  A    between atoms: C10_10  and  O1_11 
REMARK    7  A    between atoms: C30_33  and  O5_35 
ROOT
HETATM    1  C8  UNL     1      -3.383  49.871 -24.369  1.00  0.00     0.001 C 
HETATM    2  C9  UNL     1      -4.911  49.838 -24.108  1.00  0.00     0.038 C 
HETATM    3  C10 UNL     1      -5.096  49.937 -22.574  1.00  0.00     0.131 C 
HETATM    4  C11 UNL     1      -3.717  50.412 -22.036  1.00  0.00     0.014 C 
HETATM    5  C12 UNL     1      -3.632  51.964 -22.200  1.00  0.00     0.023 C 
HETATM    6  C13 UNL     1      -3.322  50.155 -20.583  1.00  0.00    -0.058 C 
HETATM    7  C14 UNL     1      -2.016  50.064 -20.215  1.00  0.00    -0.000 C 
HETATM    8  C15 UNL     1      -0.943  50.092 -21.302  1.00  0.00     0.157 C 
HETATM    9  O2  UNL     1       0.252  50.128 -21.013  1.00  0.00    -0.293 OA
HETATM   10  C16 UNL     1      -1.339  50.081 -22.775  1.00  0.00     0.094 C 
HETATM   11  C17 UNL     1      -2.768  49.581 -22.967  1.00  0.00    -0.019 C 
HETATM   12  C18 UNL     1      -2.779  48.051 -22.668  1.00  0.00     0.017 C 
HETATM   13  C19 UNL     1      -1.558  49.918 -18.741  1.00  0.00    -0.008 C 
HETATM   14  C20 UNL     1      -1.071  48.458 -18.580  1.00  0.00     0.021 C 
HETATM   15  C21 UNL     1      -0.378  50.885 -18.399  1.00  0.00     0.022 C 
HETATM   16  C22 UNL     1      -0.296  51.359 -16.949  1.00  0.00     0.080 C 
HETATM   17  C23 UNL     1      -0.944  50.387 -15.995  1.00  0.00     0.135 C 
HETATM   18  O3  UNL     1      -0.323  49.934 -15.035  1.00  0.00    -0.297 OA
HETATM   19  C24 UNL     1      -2.424  50.078 -16.239  1.00  0.00     0.018 C 
HETATM   20  C25 UNL     1      -2.761  48.676 -15.698  1.00  0.00     0.023 C 
HETATM   21  C26 UNL     1      -3.228  51.098 -15.405  1.00  0.00     0.023 C 
HETATM   22  C27 UNL     1      -2.741  50.276 -17.763  1.00  0.00     0.014 C 
HETATM   23  C28 UNL     1      -4.047  49.607 -18.204  1.00  0.00     0.011 C 
HETATM   24  C29 UNL     1      -4.457  50.089 -19.590  1.00  0.00     0.036 C 
ENDROOT
BRANCH   1  25
HETATM   25  C6  UNL     1      -2.857  49.063 -25.591  1.00  0.00    -0.013 C 
HETATM   26  C7  UNL     1      -3.929  48.307 -26.387  1.00  0.00     0.010 C 
BRANCH  25  27
HETATM   27  C5  UNL     1      -2.076  50.017 -26.535  1.00  0.00     0.008 C 
BRANCH  27  28
HETATM   28  C4  UNL     1      -1.120  50.968 -25.808  1.00  0.00     0.028 C 
BRANCH  28  29
HETATM   29  C3  UNL     1       0.248  50.947 -26.434  1.00  0.00    -0.013 C 
HETATM   30  C2  UNL     1       0.850  51.907 -27.166  1.00  0.00     0.008 C 
HETATM   31  C1  UNL     1       2.193  51.687 -27.802  1.00  0.00     0.055 C 
BRANCH  30  32
HETATM   32  C30 UNL     1       0.276  53.244 -27.444  1.00  0.00     0.171 C 
HETATM   33  O4  UNL     1       0.305  54.194 -26.682  1.00  0.00    -0.646 OA
BRANCH  32  34
HETATM   34  O5  UNL     1      -0.391  53.311 -28.607  1.00  0.00    -0.773 OA
HETATM   35  H44 UNL     1      -0.736  54.227 -28.616  1.00  0.00     0.167 HD
ENDBRANCH  32  34
ENDBRANCH  30  32
ENDBRANCH  28  29
ENDBRANCH  27  28
ENDBRANCH  25  27
ENDBRANCH   1  25
BRANCH   3  36
HETATM   36  O1  UNL     1      -6.160  50.820 -22.250  1.00  0.00    -0.394 OA
HETATM   37  H17 UNL     1      -6.961  50.487 -22.690  1.00  0.00     0.210 HD
ENDBRANCH   3  36
TORSDOF 7
ENDMDL
MODEL 2
REMARK minimizedAffinity -9.86889839
REMARK  7 active torsions:
REMARK  status: ('A' for Active; 'I' for Inactive)
REMARK    1  A    between atoms: C2_2  and  C30_33 
REMARK    2  A    between atoms: C3_3  and  C4_4 
REMARK    3  A    between atoms: C4_4  and  C5_5 
REMARK    4  A    between atoms: C5_5  and  C6_6 
REMARK    5  A    between atoms: C6_6  and  C8_8 
REMARK    6  A    between atoms: C10_10  and  O1_11 
REMARK    7  A    between atoms: C30_33  and  O5_35 
ROOT
HETATM    1  C8  UNL     1      -0.915  50.563 -21.686  1.00  0.00     0.001 C 
HETATM    2  C9  UNL     1      -0.671  49.970 -20.274  1.00  0.00     0.038 C 
HETATM    3  C10 UNL     1      -1.888  49.065 -19.963  1.00  0.00     0.131 C 
HETATM    4  C11 UNL     1      -2.590  48.856 -21.334  1.00  0.00     0.014 C 
HETATM    5  C12 UNL     1      -1.846  47.715 -22.100  1.00  0.00     0.023 C 
HETATM    6  C13 UNL     1      -4.066  48.463 -21.398  1.00  0.00    -0.058 C 
HETATM    7  C14 UNL     1      -4.829  48.772 -22.480  1.00  0.00    -0.000 C 
HETATM    8  C15 UNL     1      -4.223  49.635 -23.584  1.00  0.00     0.157 C 
HETATM    9  O2  UNL     1      -4.832  49.844 -24.633  1.00  0.00    -0.293 OA
HETATM   10  C16 UNL     1      -2.839  50.253 -23.408  1.00  0.00     0.094 C 
HETATM   11  C17 UNL     1      -2.428  50.293 -21.938  1.00  0.00    -0.019 C 
HETATM   12  C18 UNL     1      -3.304  51.372 -21.230  1.00  0.00     0.017 C 
HETATM   13  C19 UNL     1      -6.296  48.299 -22.645  1.00  0.00    -0.008 C 
HETATM   14  C20 UNL     1      -7.182  49.551 -22.430  1.00  0.00     0.021 C 
HETATM   15  C21 UNL     1      -6.568  47.728 -24.074  1.00  0.00     0.022 C 
HETATM   16  C22 UNL     1      -7.644  46.649 -24.173  1.00  0.00     0.080 C 
HETATM   17  C23 UNL     1      -8.654  46.747 -23.058  1.00  0.00     0.135 C 
HETATM   18  O3  UNL     1      -9.858  46.831 -23.299  1.00  0.00    -0.297 OA
HETATM   19  C24 UNL     1      -8.105  46.644 -21.632  1.00  0.00     0.018 C 
HETATM   20  C25 UNL     1      -9.034  47.394 -20.659  1.00  0.00     0.023 C 
HETATM   21  C26 UNL     1      -8.153  45.149 -21.252  1.00  0.00     0.023 C 
HETATM   22  C27 UNL     1      -6.618  47.144 -21.622  1.00  0.00     0.014 C 
HETATM   23  C28 UNL     1      -6.101  47.485 -20.220  1.00  0.00     0.011 C 
HETATM   24  C29 UNL     1      -4.586  47.657 -20.233  1.00  0.00     0.036 C 
ENDROOT
BRANCH   1  25
HETATM   25  C6  UNL     1      -0.361  51.992 -21.958  1.00  0.00    -0.013 C 
HETATM   26  C7  UNL     1       1.121  52.196 -21.615  1.00  0.00     0.010 C 
BRANCH  25  27
HETATM   27  C5  UNL     1      -0.613  52.363 -23.444  1.00  0.00     0.008 C 
BRANCH  27  28
HETATM   28  C4  UNL     1       0.643  52.309 -24.321  1.00  0.00     0.028 C 
BRANCH  28  29
HETATM   29  C3  UNL     1       0.284  52.177 -25.776  1.00  0.00    -0.013 C 
HETATM   30  C2  UNL     1       1.079  51.827 -26.808  1.00  0.00     0.008 C 
HETATM   31  C1  UNL     1       0.581  51.834 -28.225  1.00  0.00     0.055 C 
BRANCH  30  32
HETATM   32  C30 UNL     1       2.500  51.425 -26.683  1.00  0.00     0.171 C 
HETATM   33  O4  UNL     1       2.924  50.564 -25.932  1.00  0.00    -0.646 OA
BRANCH  32  34
HETATM   34  O5  UNL     1       3.337  52.174 -27.418  1.00  0.00    -0.773 OA
HETATM   35  H44 UNL     1       4.219  51.815 -27.191  1.00  0.00     0.167 HD
ENDBRANCH  32  34
ENDBRANCH  30  32
ENDBRANCH  28  29
ENDBRANCH  27  28
ENDBRANCH  25  27
ENDBRANCH   1  25
BRANCH   3  36
HETATM   36  O1  UNL     1      -1.472  47.852 -19.354  1.00  0.00    -0.394 OA
HETATM   37  H17 UNL     1      -0.978  48.083 -18.548  1.00  0.00     0.210 HD
ENDBRANCH   3  36
TORSDOF 7
ENDMDL
MODEL 3
REMARK minimizedAffinity -9.72547722
REMARK  7 active torsions:
REMARK  status: ('A' for Active; 'I' for Inactive)
REMARK    1  A    between atoms: C2_2  and  C30_33 
REMARK    2  A    between atoms: C3_3  and  C4_4 
REMARK    3  A    between atoms: C4_4  and  C5_5 
REMARK    4  A    between atoms: C5_5  and  C6_6 
REMARK    5  A    between atoms: C6_6  and  C8_8 
REMARK    6  A    between atoms: C10_10  and  O1_11 
REMARK    7  A    between atoms: C30_33  and  O5_35 
ROOT
HETATM    1  C8  UNL     1      -2.499  50.553 -22.102  1.00  0.00     0.001 C 
HETATM    2  C9  UNL     1      -1.784  51.868 -22.504  1.00  0.00     0.038 C 
HETATM    3  C10 UNL     1      -0.857  52.243 -21.322  1.00  0.00     0.131 C 
HETATM    4  C11 UNL     1      -0.772  50.953 -20.459  1.00  0.00     0.014 C 
HETATM    5  C12 UNL     1       0.299  50.006 -21.093  1.00  0.00     0.023 C 
HETATM    6  C13 UNL     1      -0.388  51.032 -18.982  1.00  0.00    -0.058 C 
HETATM    7  C14 UNL     1      -0.793  50.081 -18.099  1.00  0.00    -0.000 C 
HETATM    8  C15 UNL     1      -1.749  48.991 -18.580  1.00  0.00     0.157 C 
HETATM    9  O2  UNL     1      -2.052  48.046 -17.853  1.00  0.00    -0.293 OA
HETATM   10  C16 UNL     1      -2.346  49.054 -19.982  1.00  0.00     0.094 C 
HETATM   11  C17 UNL     1      -2.256  50.462 -20.566  1.00  0.00    -0.019 C 
HETATM   12  C18 UNL     1      -3.270  51.361 -19.794  1.00  0.00     0.017 C 
HETATM   13  C19 UNL     1      -0.340  50.052 -16.616  1.00  0.00    -0.008 C 
HETATM   14  C20 UNL     1      -1.569  50.480 -15.779  1.00  0.00     0.021 C 
HETATM   15  C21 UNL     1       0.103  48.621 -16.169  1.00  0.00     0.022 C 
HETATM   16  C22 UNL     1       1.167  48.557 -15.076  1.00  0.00     0.080 C 
HETATM   17  C23 UNL     1       1.166  49.790 -14.208  1.00  0.00     0.135 C 
HETATM   18  O3  UNL     1       1.058  49.703 -12.985  1.00  0.00    -0.297 OA
HETATM   19  C24 UNL     1       1.395  51.126 -14.921  1.00  0.00     0.018 C 
HETATM   20  C25 UNL     1       0.732  52.265 -14.125  1.00  0.00     0.023 C 
HETATM   21  C26 UNL     1       2.918  51.376 -14.900  1.00  0.00     0.023 C 
HETATM   22  C27 UNL     1       0.901  51.001 -16.405  1.00  0.00     0.014 C 
HETATM   23  C28 UNL     1       0.686  52.355 -17.090  1.00  0.00     0.011 C 
HETATM   24  C29 UNL     1       0.516  52.176 -18.594  1.00  0.00     0.036 C 
ENDROOT
BRANCH   1  25
HETATM   25  C6  UNL     1      -3.946  50.343 -22.637  1.00  0.00    -0.013 C 
HETATM   26  C7  UNL     1      -4.514  51.504 -23.463  1.00  0.00     0.010 C 
BRANCH  25  27
HETATM   27  C5  UNL     1      -3.997  49.032 -23.467  1.00  0.00     0.008 C 
BRANCH  27  28
HETATM   28  C4  UNL     1      -3.055  49.022 -24.676  1.00  0.00     0.028 C 
BRANCH  28  29
HETATM   29  C3  UNL     1      -3.711  48.387 -25.871  1.00  0.00    -0.013 C 
HETATM   30  C2  UNL     1      -3.882  48.900 -27.106  1.00  0.00     0.008 C 
HETATM   31  C1  UNL     1      -4.647  48.163 -28.168  1.00  0.00     0.055 C 
BRANCH  30  32
HETATM   32  C30 UNL     1      -3.373  50.218 -27.553  1.00  0.00     0.171 C 
HETATM   33  O4  UNL     1      -2.974  51.104 -26.817  1.00  0.00    -0.646 OA
BRANCH  32  34
HETATM   34  O5  UNL     1      -3.474  50.413 -28.877  1.00  0.00    -0.773 OA
HETATM   35  H44 UNL     1      -3.144  51.327 -28.996  1.00  0.00     0.167 HD
ENDBRANCH  32  34
ENDBRANCH  30  32
ENDBRANCH  28  29
ENDBRANCH  27  28
ENDBRANCH  25  27
ENDBRANCH   1  25
BRANCH   3  36
HETATM   36  O1  UNL     1       0.406  52.689 -21.793  1.00  0.00    -0.394 OA
HETATM   37  H17 UNL     1       0.248  53.446 -22.382  1.00  0.00     0.210 HD
ENDBRANCH   3  36
TORSDOF 7
ENDMDL
MODEL 4
REMARK minimizedAffinity -9.6686697
REMARK  7 active torsions:
REMARK  status: ('A' for Active; 'I' for Inactive)
REMARK    1  A    between atoms: C2_2  and  C30_33 
REMARK    2  A    between atoms: C3_3  and  C4_4 
REMARK    3  A    between atoms: C4_4  and  C5_5 
REMARK    4  A    between atoms: C5_5  and  C6_6 
REMARK    5  A    between atoms: C6_6  and  C8_8 
REMARK    6  A    between atoms: C10_10  and  O1_11 
REMARK    7  A    between atoms: C30_33  and  O5_35 
ROOT
HETATM    1  C8  UNL     1      -0.014  51.868 -23.137  1.00  0.00     0.001 C 
HETATM    2  C9  UNL     1       0.206  52.570 -21.772  1.00  0.00     0.038 C 
HETATM    3  C10 UNL     1      -0.886  52.024 -20.819  1.00  0.00     0.131 C 
HETATM    4  C11 UNL     1      -1.443  50.760 -21.533  1.00  0.00     0.014 C 
HETATM    5  C12 UNL     1      -0.482  49.563 -21.236  1.00  0.00     0.023 C 
HETATM    6  C13 UNL     1      -2.835  50.230 -21.195  1.00  0.00    -0.058 C 
HETATM    7  C14 UNL     1      -3.551  49.508 -22.098  1.00  0.00    -0.000 C 
HETATM    8  C15 UNL     1      -2.995  49.343 -23.511  1.00  0.00     0.157 C 
HETATM    9  O2  UNL     1      -3.546  48.605 -24.328  1.00  0.00    -0.293 OA
HETATM   10  C16 UNL     1      -1.735  50.090 -23.936  1.00  0.00     0.094 C 
HETATM   11  C17 UNL     1      -1.448  51.272 -23.014  1.00  0.00    -0.019 C 
HETATM   12  C18 UNL     1      -2.524  52.365 -23.296  1.00  0.00     0.017 C 
HETATM   13  C19 UNL     1      -4.916  48.851 -21.769  1.00  0.00    -0.008 C 
HETATM   14  C20 UNL     1      -5.989  49.689 -22.506  1.00  0.00     0.021 C 
HETATM   15  C21 UNL     1      -4.991  47.375 -22.277  1.00  0.00     0.022 C 
HETATM   16  C22 UNL     1      -5.886  46.433 -21.475  1.00  0.00     0.080 C 
HETATM   17  C23 UNL     1      -6.981  47.170 -20.747  1.00  0.00     0.135 C 
HETATM   18  O3  UNL     1      -8.162  46.860 -20.898  1.00  0.00    -0.297 OA
HETATM   19  C24 UNL     1      -6.533  48.248 -19.755  1.00  0.00     0.018 C 
HETATM   20  C25 UNL     1      -7.634  49.316 -19.612  1.00  0.00     0.023 C 
HETATM   21  C26 UNL     1      -6.390  47.550 -18.385  1.00  0.00     0.023 C 
HETATM   22  C27 UNL     1      -5.142  48.811 -20.209  1.00  0.00     0.014 C 
HETATM   23  C28 UNL     1      -4.788  50.154 -19.562  1.00  0.00     0.011 C 
HETATM   24  C29 UNL     1      -3.319  50.491 -19.789  1.00  0.00     0.036 C 
ENDROOT
BRANCH   1  25
HETATM   25  C6  UNL     1       0.344  52.682 -24.416  1.00  0.00    -0.013 C 
HETATM   26  C7  UNL     1       0.811  54.122 -24.166  1.00  0.00     0.010 C 
BRANCH  25  27
HETATM   27  C5  UNL     1       1.422  51.912 -25.226  1.00  0.00     0.008 C 
BRANCH  27  28
HETATM   28  C4  UNL     1       1.090  51.755 -26.713  1.00  0.00     0.028 C 
BRANCH  28  29
HETATM   29  C3  UNL     1      -0.370  51.453 -26.915  1.00  0.00    -0.013 C 
HETATM   30  C2  UNL     1      -1.344  52.276 -27.353  1.00  0.00     0.008 C 
HETATM   31  C1  UNL     1      -2.780  51.838 -27.408  1.00  0.00     0.055 C 
BRANCH  30  32
HETATM   32  C30 UNL     1      -1.135  53.673 -27.799  1.00  0.00     0.171 C 
HETATM   33  O4  UNL     1      -0.273  54.424 -27.378  1.00  0.00    -0.646 OA
BRANCH  32  34
HETATM   34  O5  UNL     1      -2.061  54.104 -28.670  1.00  0.00    -0.773 OA
HETATM   35  H44 UNL     1      -1.808  55.037 -28.825  1.00  0.00     0.167 HD
ENDBRANCH  32  34
ENDBRANCH  30  32
ENDBRANCH  28  29
ENDBRANCH  27  28
ENDBRANCH  25  27
ENDBRANCH   1  25
BRANCH   3  36
HETATM   36  O1  UNL     1      -0.343  51.752 -19.535  1.00  0.00    -0.394 OA
HETATM   37  H17 UNL     1       0.049  52.577 -19.201  1.00  0.00     0.210 HD
ENDBRANCH   3  36
TORSDOF 7
ENDMDL
MODEL 5
REMARK minimizedAffinity -9.59171772
REMARK  7 active torsions:
REMARK  status: ('A' for Active; 'I' for Inactive)
REMARK    1  A    between atoms: C2_2  and  C30_33 
REMARK    2  A    between atoms: C3_3  and  C4_4 
REMARK    3  A    between atoms: C4_4  and  C5_5 
REMARK    4  A    between atoms: C5_5  and  C6_6 
REMARK    5  A    between atoms: C6_6  and  C8_8 
REMARK    6  A    between atoms: C10_10  and  O1_11 
REMARK    7  A    between atoms: C30_33  and  O5_35 
ROOT
HETATM    1  C8  UNL     1      -1.021  50.266 -21.734  1.00  0.00     0.001 C 
HETATM    2  C9  UNL     1      -0.781  49.785 -20.279  1.00  0.00     0.038 C 
HETATM    3  C10 UNL     1      -2.023  48.951 -19.883  1.00  0.00     0.131 C 
HETATM    4  C11 UNL     1      -2.748  48.653 -21.226  1.00  0.00     0.014 C 
HETATM    5  C12 UNL     1      -2.051  47.427 -21.900  1.00  0.00     0.023 C 
HETATM    6  C13 UNL     1      -4.236  48.306 -21.243  1.00  0.00    -0.058 C 
HETATM    7  C14 UNL     1      -5.002  48.549 -22.340  1.00  0.00    -0.000 C 
HETATM    8  C15 UNL     1      -4.380  49.297 -23.518  1.00  0.00     0.157 C 
HETATM    9  O2  UNL     1      -4.994  49.438 -24.575  1.00  0.00    -0.293 OA
HETATM   10  C16 UNL     1      -2.975  49.880 -23.406  1.00  0.00     0.094 C 
HETATM   11  C17 UNL     1      -2.546  50.028 -21.949  1.00  0.00    -0.019 C 
HETATM   12  C18 UNL     1      -3.377  51.192 -21.326  1.00  0.00     0.017 C 
HETATM   13  C19 UNL     1      -6.486  48.115 -22.452  1.00  0.00    -0.008 C 
HETATM   14  C20 UNL     1      -7.327  49.410 -22.334  1.00  0.00     0.021 C 
HETATM   15  C21 UNL     1      -6.793  47.436 -23.826  1.00  0.00     0.022 C 
HETATM   16  C22 UNL     1      -7.905  46.390 -23.825  1.00  0.00     0.080 C 
HETATM   17  C23 UNL     1      -8.898  46.615 -22.712  1.00  0.00     0.135 C 
HETATM   18  O3  UNL     1     -10.101  46.719 -22.949  1.00  0.00    -0.297 OA
HETATM   19  C24 UNL     1      -8.336  46.612 -21.287  1.00  0.00     0.018 C 
HETATM   20  C25 UNL     1      -9.228  47.472 -20.372  1.00  0.00     0.023 C 
HETATM   21  C26 UNL     1      -8.429  45.156 -20.783  1.00  0.00     0.023 C 
HETATM   22  C27 UNL     1      -6.834  47.061 -21.333  1.00  0.00     0.014 C 
HETATM   23  C28 UNL     1      -6.288  47.499 -19.969  1.00  0.00     0.011 C 
HETATM   24  C29 UNL     1      -4.770  47.619 -20.010  1.00  0.00     0.036 C 
ENDROOT
BRANCH   1  25
HETATM   25  C6  UNL     1      -0.423  51.649 -22.130  1.00  0.00    -0.013 C 
HETATM   26  C7  UNL     1       0.974  51.942 -21.569  1.00  0.00     0.010 C 
BRANCH  25  27
HETATM   27  C5  UNL     1      -0.406  51.773 -23.677  1.00  0.00     0.008 C 
BRANCH  27  28
HETATM   28  C4  UNL     1       0.791  52.556 -24.226  1.00  0.00     0.028 C 
BRANCH  28  29
HETATM   29  C3  UNL     1       1.161  52.086 -25.606  1.00  0.00    -0.013 C 
HETATM   30  C2  UNL     1       0.680  52.507 -26.794  1.00  0.00     0.008 C 
HETATM   31  C1  UNL     1       1.092  51.861 -28.086  1.00  0.00     0.055 C 
BRANCH  30  32
HETATM   32  C30 UNL     1      -0.298  53.607 -26.968  1.00  0.00     0.171 C 
HETATM   33  O4  UNL     1      -1.405  53.492 -27.463  1.00  0.00    -0.646 OA
BRANCH  32  34
HETATM   34  O5  UNL     1       0.180  54.811 -26.614  1.00  0.00    -0.773 OA
HETATM   35  H44 UNL     1      -0.558  55.417 -26.828  1.00  0.00     0.167 HD
ENDBRANCH  32  34
ENDBRANCH  30  32
ENDBRANCH  28  29
ENDBRANCH  27  28
ENDBRANCH  25  27
ENDBRANCH   1  25
BRANCH   3  36
HETATM   36  O1  UNL     1      -1.640  47.780 -19.178  1.00  0.00    -0.394 OA
HETATM   37  H17 UNL     1      -1.129  48.060 -18.399  1.00  0.00     0.210 HD
ENDBRANCH   3  36
TORSDOF 7
ENDMDL
MODEL 6
REMARK minimizedAffinity -9.51904583
REMARK  7 active torsions:
REMARK  status: ('A' for Active; 'I' for Inactive)
REMARK    1  A    between atoms: C2_2  and  C30_33 
REMARK    2  A    between atoms: C3_3  and  C4_4 
REMARK    3  A    between atoms: C4_4  and  C5_5 
REMARK    4  A    between atoms: C5_5  and  C6_6 
REMARK    5  A    between atoms: C6_6  and  C8_8 
REMARK    6  A    between atoms: C10_10  and  O1_11 
REMARK    7  A    between atoms: C30_33  and  O5_35 
ROOT
HETATM    1  C8  UNL     1      -3.945  50.678 -24.885  1.00  0.00     0.001 C 
HETATM    2  C9  UNL     1      -5.364  50.278 -24.405  1.00  0.00     0.038 C 
HETATM    3  C10 UNL     1      -5.285  50.149 -22.864  1.00  0.00     0.131 C 
HETATM    4  C11 UNL     1      -3.952  50.848 -22.474  1.00  0.00     0.014 C 
HETATM    5  C12 UNL     1      -4.205  52.389 -22.405  1.00  0.00     0.023 C 
HETATM    6  C13 UNL     1      -3.259  50.512 -21.154  1.00  0.00    -0.058 C 
HETATM    7  C14 UNL     1      -1.916  50.667 -21.007  1.00  0.00    -0.000 C 
HETATM    8  C15 UNL     1      -1.084  51.061 -22.226  1.00  0.00     0.157 C 
HETATM    9  O2  UNL     1       0.113  51.324 -22.119  1.00  0.00    -0.293 OA
HETATM   10  C16 UNL     1      -1.728  51.140 -23.606  1.00  0.00     0.094 C 
HETATM   11  C17 UNL     1      -3.042  50.364 -23.655  1.00  0.00    -0.019 C 
HETATM   12  C18 UNL     1      -2.698  48.845 -23.599  1.00  0.00     0.017 C 
HETATM   13  C19 UNL     1      -1.180  50.450 -19.660  1.00  0.00    -0.008 C 
HETATM   14  C20 UNL     1      -0.394  49.123 -19.804  1.00  0.00     0.021 C 
HETATM   15  C21 UNL     1      -0.171  51.604 -19.353  1.00  0.00     0.022 C 
HETATM   16  C22 UNL     1       0.076  51.906 -17.877  1.00  0.00     0.080 C 
HETATM   17  C23 UNL     1      -0.185  50.709 -16.999  1.00  0.00     0.135 C 
HETATM   18  O3  UNL     1       0.676  50.292 -16.225  1.00  0.00    -0.297 OA
HETATM   19  C24 UNL     1      -1.595  50.113 -17.062  1.00  0.00     0.018 C 
HETATM   20  C25 UNL     1      -1.546  48.616 -16.700  1.00  0.00     0.023 C 
HETATM   21  C26 UNL     1      -2.419  50.823 -15.967  1.00  0.00     0.023 C 
HETATM   22  C27 UNL     1      -2.213  50.418 -18.470  1.00  0.00     0.014 C 
HETATM   23  C28 UNL     1      -3.420  49.536 -18.808  1.00  0.00     0.011 C 
HETATM   24  C29 UNL     1      -4.160  50.079 -20.025  1.00  0.00     0.036 C 
ENDROOT
BRANCH   1  25
HETATM   25  C6  UNL     1      -3.499  50.159 -26.284  1.00  0.00    -0.013 C 
HETATM   26  C7  UNL     1      -2.002  50.301 -26.588  1.00  0.00     0.010 C 
BRANCH  25  27
HETATM   27  C5  UNL     1      -3.929  48.675 -26.438  1.00  0.00     0.008 C 
BRANCH  27  28
HETATM   28  C4  UNL     1      -3.926  48.172 -27.885  1.00  0.00     0.028 C 
BRANCH  28  29
HETATM   29  C3  UNL     1      -5.328  47.991 -28.400  1.00  0.00    -0.013 C 
HETATM   30  C2  UNL     1      -5.823  48.305 -29.615  1.00  0.00     0.008 C 
HETATM   31  C1  UNL     1      -7.281  48.144 -29.938  1.00  0.00     0.055 C 
BRANCH  30  32
HETATM   32  C30 UNL     1      -5.026  48.851 -30.738  1.00  0.00     0.171 C 
HETATM   33  O4  UNL     1      -4.803  48.273 -31.787  1.00  0.00    -0.646 OA
BRANCH  32  34
HETATM   34  O5  UNL     1      -4.462  50.039 -30.469  1.00  0.00    -0.773 OA
HETATM   35  H44 UNL     1      -3.946  50.231 -31.279  1.00  0.00     0.167 HD
ENDBRANCH  32  34
ENDBRANCH  30  32
ENDBRANCH  28  29
ENDBRANCH  27  28
ENDBRANCH  25  27
ENDBRANCH   1  25
BRANCH   3  36
HETATM   36  O1  UNL     1      -6.425  50.731 -22.251  1.00  0.00    -0.394 OA
HETATM   37  H17 UNL     1      -7.211  50.286 -22.611  1.00  0.00     0.210 HD
ENDBRANCH   3  36
TORSDOF 7
ENDMDL
MODEL 7
REMARK minimizedAffinity -9.51010132
REMARK  7 active torsions:
REMARK  status: ('A' for Active; 'I' for Inactive)
REMARK    1  A    between atoms: C2_2  and  C30_33 
REMARK    2  A    between atoms: C3_3  and  C4_4 
REMARK    3  A    between atoms: C4_4  and  C5_5 
REMARK    4  A    between atoms: C5_5  and  C6_6 
REMARK    5  A    between atoms: C6_6  and  C8_8 
REMARK    6  A    between atoms: C10_10  and  O1_11 
REMARK    7  A    between atoms: C30_33  and  O5_35 
ROOT
HETATM    1  C8  UNL     1      -2.157  51.984 -22.491  1.00  0.00     0.001 C 
HETATM    2  C9  UNL     1      -2.974  52.145 -23.799  1.00  0.00     0.038 C 
HETATM    3  C10 UNL     1      -4.046  51.028 -23.787  1.00  0.00     0.131 C 
HETATM    4  C11 UNL     1      -4.069  50.514 -22.320  1.00  0.00     0.014 C 
HETATM    5  C12 UNL     1      -4.961  51.479 -21.474  1.00  0.00     0.023 C 
HETATM    6  C13 UNL     1      -4.598  49.117 -21.996  1.00  0.00    -0.058 C 
HETATM    7  C14 UNL     1      -4.177  48.444 -20.893  1.00  0.00    -0.000 C 
HETATM    8  C15 UNL     1      -3.062  49.052 -20.043  1.00  0.00     0.157 C 
HETATM    9  O2  UNL     1      -2.727  48.540 -18.975  1.00  0.00    -0.293 OA
HETATM   10  C16 UNL     1      -2.344  50.317 -20.504  1.00  0.00     0.094 C 
HETATM   11  C17 UNL     1      -2.535  50.555 -22.000  1.00  0.00    -0.019 C 
HETATM   12  C18 UNL     1      -1.707  49.475 -22.761  1.00  0.00     0.017 C 
HETATM   13  C19 UNL     1      -4.764  47.077 -20.457  1.00  0.00    -0.008 C 
HETATM   14  C20 UNL     1      -3.676  46.020 -20.766  1.00  0.00     0.021 C 
HETATM   15  C21 UNL     1      -5.084  47.040 -18.928  1.00  0.00     0.022 C 
HETATM   16  C22 UNL     1      -6.234  46.130 -18.504  1.00  0.00     0.080 C 
HETATM   17  C23 UNL     1      -6.454  44.999 -19.477  1.00  0.00     0.135 C 
HETATM   18  O3  UNL     1      -6.456  43.829 -19.097  1.00  0.00    -0.297 OA
HETATM   19  C24 UNL     1      -6.763  45.397 -20.923  1.00  0.00     0.018 C 
HETATM   20  C25 UNL     1      -6.311  44.278 -21.880  1.00  0.00     0.023 C 
HETATM   21  C26 UNL     1      -8.299  45.500 -21.031  1.00  0.00     0.023 C 
HETATM   22  C27 UNL     1      -6.117  46.796 -21.215  1.00  0.00     0.014 C 
HETATM   23  C28 UNL     1      -5.991  47.108 -22.710  1.00  0.00     0.011 C 
HETATM   24  C29 UNL     1      -5.658  48.580 -22.926  1.00  0.00     0.036 C 
ENDROOT
BRANCH   1  25
HETATM   25  C6  UNL     1      -0.651  52.376 -22.544  1.00  0.00    -0.013 C 
HETATM   26  C7  UNL     1       0.180  51.946 -21.329  1.00  0.00     0.010 C 
BRANCH  25  27
HETATM   27  C5  UNL     1      -0.021  51.804 -23.843  1.00  0.00     0.008 C 
BRANCH  27  28
HETATM   28  C4  UNL     1       0.628  52.863 -24.739  1.00  0.00     0.028 C 
BRANCH  28  29
HETATM   29  C3  UNL     1       0.358  52.584 -26.193  1.00  0.00    -0.013 C 
HETATM   30  C2  UNL     1       1.190  52.058 -27.115  1.00  0.00     0.008 C 
HETATM   31  C1  UNL     1       0.790  51.932 -28.557  1.00  0.00     0.055 C 
BRANCH  30  32
HETATM   32  C30 UNL     1       2.563  51.574 -26.838  1.00  0.00     0.171 C 
HETATM   33  O4  UNL     1       2.851  50.694 -26.047  1.00  0.00    -0.646 OA
BRANCH  32  34
HETATM   34  O5  UNL     1       3.517  52.269 -27.477  1.00  0.00    -0.773 OA
HETATM   35  H44 UNL     1       4.346  51.859 -27.157  1.00  0.00     0.167 HD
ENDBRANCH  32  34
ENDBRANCH  30  32
ENDBRANCH  28  29
ENDBRANCH  27  28
ENDBRANCH  25  27
ENDBRANCH   1  25
BRANCH   3  36
HETATM   36  O1  UNL     1      -5.299  51.527 -24.227  1.00  0.00    -0.394 OA
HETATM   37  H17 UNL     1      -5.172  51.896 -25.118  1.00  0.00     0.210 HD
ENDBRANCH   3  36
TORSDOF 7
ENDMDL
MODEL 8
REMARK minimizedAffinity -9.37764168
REMARK  7 active torsions:
REMARK  status: ('A' for Active; 'I' for Inactive)
REMARK    1  A    between atoms: C2_2  and  C30_33 
REMARK    2  A    between atoms: C3_3  and  C4_4 
REMARK    3  A    between atoms: C4_4  and  C5_5 
REMARK    4  A    between atoms: C5_5  and  C6_6 
REMARK    5  A    between atoms: C6_6  and  C8_8 
REMARK    6  A    between atoms: C10_10  and  O1_11 
REMARK    7  A    between atoms: C30_33  and  O5_35 
ROOT
HETATM    1  C8  UNL     1      -0.650  49.637 -20.257  1.00  0.00     0.001 C 
HETATM    2  C9  UNL     1      -1.110  48.764 -19.061  1.00  0.00     0.038 C 
HETATM    3  C10 UNL     1      -2.433  48.088 -19.495  1.00  0.00     0.131 C 
HETATM    4  C11 UNL     1      -2.489  48.276 -21.037  1.00  0.00     0.014 C 
HETATM    5  C12 UNL     1      -1.617  47.161 -21.701  1.00  0.00     0.023 C 
HETATM    6  C13 UNL     1      -3.824  48.212 -21.778  1.00  0.00    -0.058 C 
HETATM    7  C14 UNL     1      -4.004  48.859 -22.960  1.00  0.00    -0.000 C 
HETATM    8  C15 UNL     1      -2.887  49.762 -23.480  1.00  0.00     0.157 C 
HETATM    9  O2  UNL     1      -2.954  50.275 -24.596  1.00  0.00    -0.293 OA
HETATM   10  C16 UNL     1      -1.658  50.041 -22.620  1.00  0.00     0.094 C 
HETATM   11  C17 UNL     1      -1.924  49.733 -21.149  1.00  0.00    -0.019 C 
HETATM   12  C18 UNL     1      -2.894  50.826 -20.604  1.00  0.00     0.017 C 
HETATM   13  C19 UNL     1      -5.296  48.735 -23.807  1.00  0.00    -0.008 C 
HETATM   14  C20 UNL     1      -6.043  50.083 -23.658  1.00  0.00     0.021 C 
HETATM   15  C21 UNL     1      -4.983  48.496 -25.319  1.00  0.00     0.022 C 
HETATM   16  C22 UNL     1      -6.021  47.696 -26.103  1.00  0.00     0.080 C 
HETATM   17  C23 UNL     1      -7.397  47.800 -25.495  1.00  0.00     0.135 C 
HETATM   18  O3  UNL     1      -8.359  48.171 -26.166  1.00  0.00    -0.297 OA
HETATM   19  C24 UNL     1      -7.536  47.333 -24.042  1.00  0.00     0.018 C 
HETATM   20  C25 UNL     1      -8.706  48.073 -23.366  1.00  0.00     0.023 C 
HETATM   21  C26 UNL     1      -7.909  45.836 -24.097  1.00  0.00     0.023 C 
HETATM   22  C27 UNL     1      -6.156  47.508 -23.318  1.00  0.00     0.014 C 
HETATM   23  C28 UNL     1      -6.263  47.479 -21.790  1.00  0.00     0.011 C 
HETATM   24  C29 UNL     1      -4.884  47.336 -21.156  1.00  0.00     0.036 C 
ENDROOT
BRANCH   1  25
HETATM   25  C6  UNL     1       0.122  50.947 -19.922  1.00  0.00    -0.013 C 
HETATM   26  C7  UNL     1      -0.320  52.187 -20.710  1.00  0.00     0.010 C 
BRANCH  25  27
HETATM   27  C5  UNL     1       0.016  51.226 -18.398  1.00  0.00     0.008 C 
BRANCH  27  28
HETATM   28  C4  UNL     1       0.502  52.618 -17.984  1.00  0.00     0.028 C 
BRANCH  28  29
HETATM   29  C3  UNL     1       1.944  52.586 -17.559  1.00  0.00    -0.013 C 
HETATM   30  C2  UNL     1       2.455  52.295 -16.345  1.00  0.00     0.008 C 
HETATM   31  C1  UNL     1       3.927  52.401 -16.063  1.00  0.00     0.055 C 
BRANCH  30  32
HETATM   32  C30 UNL     1       1.658  51.869 -15.172  1.00  0.00     0.171 C 
HETATM   33  O4  UNL     1       1.528  50.720 -14.790  1.00  0.00    -0.646 OA
BRANCH  32  34
HETATM   34  O5  UNL     1       0.981  52.872 -14.590  1.00  0.00    -0.773 OA
HETATM   35  H44 UNL     1       0.482  52.422 -13.877  1.00  0.00     0.167 HD
ENDBRANCH  32  34
ENDBRANCH  30  32
ENDBRANCH  28  29
ENDBRANCH  27  28
ENDBRANCH  25  27
ENDBRANCH   1  25
BRANCH   3  36
HETATM   36  O1  UNL     1      -2.459  46.727 -19.093  1.00  0.00    -0.394 OA
HETATM   37  H17 UNL     1      -2.341  46.704 -18.128  1.00  0.00     0.210 HD
ENDBRANCH   3  36
TORSDOF 7
ENDMDL
MODEL 9
REMARK minimizedAffinity -9.35356998
REMARK  7 active torsions:
REMARK  status: ('A' for Active; 'I' for Inactive)
REMARK    1  A    between atoms: C2_2  and  C30_33 
REMARK    2  A    between atoms: C3_3  and  C4_4 
REMARK    3  A    between atoms: C4_4  and  C5_5 
REMARK    4  A    between atoms: C5_5  and  C6_6 
REMARK    5  A    between atoms: C6_6  and  C8_8 
REMARK    6  A    between atoms: C10_10  and  O1_11 
REMARK    7  A    between atoms: C30_33  and  O5_35 
ROOT
HETATM    1  C8  UNL     1      -2.330  51.323 -23.845  1.00  0.00     0.001 C 
HETATM    2  C9  UNL     1      -3.470  52.071 -24.583  1.00  0.00     0.038 C 
HETATM    3  C10 UNL     1      -4.798  51.485 -24.046  1.00  0.00     0.131 C 
HETATM    4  C11 UNL     1      -4.400  50.712 -22.757  1.00  0.00     0.014 C 
HETATM    5  C12 UNL     1      -4.293  51.737 -21.582  1.00  0.00     0.023 C 
HETATM    6  C13 UNL     1      -5.293  49.597 -22.215  1.00  0.00    -0.058 C 
HETATM    7  C14 UNL     1      -4.779  48.589 -21.461  1.00  0.00    -0.000 C 
HETATM    8  C15 UNL     1      -3.266  48.514 -21.269  1.00  0.00     0.157 C 
HETATM    9  O2  UNL     1      -2.763  47.692 -20.504  1.00  0.00    -0.293 OA
HETATM   10  C16 UNL     1      -2.345  49.468 -22.023  1.00  0.00     0.094 C 
HETATM   11  C17 UNL     1      -3.045  50.083 -23.232  1.00  0.00    -0.019 C 
HETATM   12  C18 UNL     1      -3.216  48.962 -24.302  1.00  0.00     0.017 C 
HETATM   13  C19 UNL     1      -5.655  47.498 -20.794  1.00  0.00    -0.008 C 
HETATM   14  C20 UNL     1      -5.415  46.197 -21.598  1.00  0.00     0.021 C 
HETATM   15  C21 UNL     1      -5.248  47.254 -19.304  1.00  0.00     0.022 C 
HETATM   16  C22 UNL     1      -6.365  46.793 -18.370  1.00  0.00     0.080 C 
HETATM   17  C23 UNL     1      -7.468  46.080 -19.109  1.00  0.00     0.135 C 
HETATM   18  O3  UNL     1      -7.825  44.949 -18.778  1.00  0.00    -0.297 OA
HETATM   19  C24 UNL     1      -8.168  46.872 -20.218  1.00  0.00     0.018 C 
HETATM   20  C25 UNL     1      -8.735  45.905 -21.273  1.00  0.00     0.023 C 
HETATM   21  C26 UNL     1      -9.366  47.585 -19.556  1.00  0.00     0.023 C 
HETATM   22  C27 UNL     1      -7.168  47.938 -20.788  1.00  0.00     0.014 C 
HETATM   23  C28 UNL     1      -7.589  48.496 -22.153  1.00  0.00     0.011 C 
HETATM   24  C29 UNL     1      -6.768  49.731 -22.504  1.00  0.00     0.036 C 
ENDROOT
BRANCH   1  25
HETATM   25  C6  UNL     1      -1.004  51.101 -24.632  1.00  0.00    -0.013 C 
HETATM   26  C7  UNL     1      -1.171  50.536 -26.049  1.00  0.00     0.010 C 
BRANCH  25  27
HETATM   27  C5  UNL     1      -0.214  52.436 -24.687  1.00  0.00     0.008 C 
BRANCH  27  28
HETATM   28  C4  UNL     1       0.682  52.680 -23.468  1.00  0.00     0.028 C 
BRANCH  28  29
HETATM   29  C3  UNL     1      -0.004  52.260 -22.197  1.00  0.00    -0.013 C 
HETATM   30  C2  UNL     1       0.197  52.718 -20.944  1.00  0.00     0.008 C 
HETATM   31  C1  UNL     1      -0.513  52.120 -19.763  1.00  0.00     0.055 C 
BRANCH  30  32
HETATM   32  C30 UNL     1       1.124  53.815 -20.583  1.00  0.00     0.171 C 
HETATM   33  O4  UNL     1       1.641  54.587 -21.372  1.00  0.00    -0.646 OA
BRANCH  32  34
HETATM   34  O5  UNL     1       1.444  53.841 -19.280  1.00  0.00    -0.773 OA
HETATM   35  H44 UNL     1       2.085  54.580 -19.220  1.00  0.00     0.167 HD
ENDBRANCH  32  34
ENDBRANCH  30  32
ENDBRANCH  28  29
ENDBRANCH  27  28
ENDBRANCH  25  27
ENDBRANCH   1  25
BRANCH   3  36
HETATM   36  O1  UNL     1      -5.746  52.516 -23.814  1.00  0.00    -0.394 OA
HETATM   37  H17 UNL     1      -5.874  52.991 -24.652  1.00  0.00     0.210 HD
ENDBRANCH   3  36
TORSDOF 7
ENDMDL
