MODEL 1
REMARK minimizedAffinity -7.01832008
REMARK CNNscore 0.572142899
REMARK CNNaffinity 6.24448633
REMARK  6 active torsions:
REMARK  status: ('A' for Active; 'I' for Inactive)
REMARK    1  A    between atoms: O1_2  and  C2_3 
REMARK    2  A    between atoms: C17_20  and  C18_21 
REMARK    3  A    between atoms: C22_27  and  O6_28 
REMARK    4  A    between atoms: O6_28  and  C23_29 
REMARK    5  A    between atoms: C26_33  and  O8_34 
REMARK    6  A    between atoms: C31_40  and  O10_41 
ROOT
HETATM    1  C2  UNL     1     -19.065  -9.602   6.811  1.00  0.00     0.190 C 
HETATM    2  C3  UNL     1     -19.238 -10.452   5.542  1.00  0.00     0.064 C 
HETATM    3  C4  UNL     1     -17.929 -10.685   4.796  1.00  0.00     0.174 C 
HETATM    4  O2  UNL     1     -17.139  -9.509   4.803  1.00  0.00    -0.356 OA
HETATM    5  C5  UNL     1     -16.615  -9.192   6.103  1.00  0.00     0.325 C 
HETATM    6  O3  UNL     1     -16.140  -7.839   6.050  1.00  0.00    -0.344 OA
HETATM    7  C6  UNL     1     -16.543  -7.043   7.156  1.00  0.00     0.177 C 
HETATM    8  C7  UNL     1     -15.668  -5.825   7.194  1.00  0.00     0.011 C 
HETATM    9  C8  UNL     1     -15.160  -5.288   8.321  1.00  0.00    -0.072 C 
HETATM   10  C9  UNL     1     -14.259  -4.081   8.258  1.00  0.00     0.035 C 
HETATM   11  C10 UNL     1     -14.776  -2.959   9.154  1.00  0.00     0.012 C 
HETATM   12  C11 UNL     1     -14.992  -3.428  10.613  1.00  0.00     0.026 C 
HETATM   13  C12 UNL     1     -15.946  -4.655  10.638  1.00  0.00     0.005 C 
HETATM   14  C13 UNL     1     -16.225  -5.094  12.085  1.00  0.00     0.007 C 
HETATM   15  C14 UNL     1     -16.784  -3.946  12.917  1.00  0.00     0.013 C 
HETATM   16  C15 UNL     1     -15.844  -2.708  12.981  1.00  0.00    -0.003 C 
HETATM   17  C16 UNL     1     -14.639  -3.065  13.875  1.00  0.00     0.019 C 
HETATM   18  C17 UNL     1     -16.666  -1.491  13.530  1.00  0.00     0.058 C 
HETATM   19  C22 UNL     1     -17.443  -0.994  12.278  1.00  0.00     0.143 C 
HETATM   20  C25 UNL     1     -16.656  -1.454  11.039  1.00  0.00     0.072 C 
HETATM   21  C26 UNL     1     -15.445  -2.261  11.543  1.00  0.00     0.072 C 
HETATM   22  C27 UNL     1     -15.457  -5.842   9.719  1.00  0.00    -0.014 C 
HETATM   23  C28 UNL     1     -14.167  -6.508  10.259  1.00  0.00     0.020 C 
HETATM   24  C29 UNL     1     -16.573  -6.931   9.659  1.00  0.00     0.049 C 
HETATM   25  C30 UNL     1     -16.439  -7.855   8.450  1.00  0.00     0.159 C 
HETATM   26  O9  UNL     1     -17.492  -8.822   8.501  1.00  0.00    -0.341 OA
HETATM   27  C31 UNL     1     -17.592  -9.589   7.294  1.00  0.00     0.240 C 
ENDROOT
BRANCH  18  28
HETATM   28  C18 UNL     1     -15.959  -0.404  14.310  1.00  0.00    -0.043 A 
HETATM   29  C19 UNL     1     -15.610   0.781  13.804  1.00  0.00     0.087 A 
HETATM   30  C20 UNL     1     -14.854   1.494  14.828  1.00  0.00     0.283 A 
HETATM   31  O4  UNL     1     -14.378   2.606  14.697  1.00  0.00    -0.260 OA
HETATM   32  O5  UNL     1     -14.747   0.704  15.926  1.00  0.00    -0.314 OA
HETATM   33  C21 UNL     1     -15.479  -0.508  15.709  1.00  0.00     0.214 A 
ENDBRANCH  18  28
BRANCH  19  34
HETATM   34  O6  UNL     1     -17.644   0.426  12.232  1.00  0.00    -0.316 OA
BRANCH  34  35
HETATM   35  C23 UNL     1     -18.852   0.829  11.746  1.00  0.00     0.255 C 
HETATM   36  C24 UNL     1     -19.600   1.595  12.793  1.00  0.00     0.126 C 
HETATM   37  O7  UNL     1     -19.288   0.573  10.631  1.00  0.00    -0.266 OA
ENDBRANCH  34  35
ENDBRANCH  19  34
BRANCH  21  38
HETATM   38  O8  UNL     1     -14.344  -1.349  11.643  1.00  0.00    -0.389 OA
HETATM   39  H35 UNL     1     -14.180  -0.944  10.773  1.00  0.00     0.210 HD
ENDBRANCH  21  38
BRANCH  27  40
HETATM   40  O10 UNL     1     -17.268 -10.927   7.716  1.00  0.00    -0.360 OA
HETATM   41  H42 UNL     1     -17.673 -10.985   8.598  1.00  0.00     0.213 HD
ENDBRANCH  27  40
BRANCH   1  42
HETATM   42  O1  UNL     1     -19.519  -8.257   6.578  1.00  0.00    -0.385 OA
HETATM   43  C1  UNL     1     -20.420  -8.149   5.483  1.00  0.00     0.202 C 
ENDBRANCH   1  42
TORSDOF 6
ENDMDL
MODEL 2
REMARK minimizedAffinity -8.50555325
REMARK CNNscore 0.535819232
REMARK CNNaffinity 6.41206551
REMARK  6 active torsions:
REMARK  status: ('A' for Active; 'I' for Inactive)
REMARK    1  A    between atoms: O1_2  and  C2_3 
REMARK    2  A    between atoms: C17_20  and  C18_21 
REMARK    3  A    between atoms: C22_27  and  O6_28 
REMARK    4  A    between atoms: O6_28  and  C23_29 
REMARK    5  A    between atoms: C26_33  and  O8_34 
REMARK    6  A    between atoms: C31_40  and  O10_41 
ROOT
HETATM    1  C2  UNL     1       2.636   8.050   9.668  1.00  0.00     0.190 C 
HETATM    2  C3  UNL     1       3.372   7.003   8.818  1.00  0.00     0.064 C 
HETATM    3  C4  UNL     1       2.588   5.705   8.659  1.00  0.00     0.174 C 
HETATM    4  O2  UNL     1       1.948   5.360   9.876  1.00  0.00    -0.356 OA
HETATM    5  C5  UNL     1       0.869   6.246  10.212  1.00  0.00     0.325 C 
HETATM    6  O3  UNL     1       0.540   6.010  11.589  1.00  0.00    -0.344 OA
HETATM    7  C6  UNL     1       0.383   7.196  12.357  1.00  0.00     0.177 C 
HETATM    8  C7  UNL     1      -0.344   6.838  13.619  1.00  0.00     0.011 C 
HETATM    9  C8  UNL     1      -1.316   7.588  14.175  1.00  0.00    -0.072 C 
HETATM   10  C9  UNL     1      -2.016   7.130  15.429  1.00  0.00     0.035 C 
HETATM   11  C10 UNL     1      -1.957   8.199  16.516  1.00  0.00     0.012 C 
HETATM   12  C11 UNL     1      -2.505   9.561  16.029  1.00  0.00     0.026 C 
HETATM   13  C12 UNL     1      -1.741  10.011  14.752  1.00  0.00     0.005 C 
HETATM   14  C13 UNL     1      -2.227  11.395  14.291  1.00  0.00     0.007 C 
HETATM   15  C14 UNL     1      -2.099  12.430  15.403  1.00  0.00     0.013 C 
HETATM   16  C15 UNL     1      -2.894  12.063  16.688  1.00  0.00    -0.003 C 
HETATM   17  C16 UNL     1      -4.397  12.242  16.391  1.00  0.00     0.019 C 
HETATM   18  C17 UNL     1      -2.396  12.983  17.857  1.00  0.00     0.058 C 
HETATM   19  C22 UNL     1      -1.083  12.288  18.319  1.00  0.00     0.143 C 
HETATM   20  C25 UNL     1      -1.180  10.808  17.909  1.00  0.00     0.072 C 
HETATM   21  C26 UNL     1      -2.517  10.629  17.164  1.00  0.00     0.072 C 
HETATM   22  C27 UNL     1      -1.767   8.935  13.598  1.00  0.00    -0.014 C 
HETATM   23  C28 UNL     1      -3.184   8.753  12.999  1.00  0.00     0.020 C 
HETATM   24  C29 UNL     1      -0.814   9.394  12.452  1.00  0.00     0.049 C 
HETATM   25  C30 UNL     1      -0.377   8.247  11.544  1.00  0.00     0.159 C 
HETATM   26  O9  UNL     1       0.472   8.776  10.522  1.00  0.00    -0.341 OA
HETATM   27  C31 UNL     1       1.117   7.750   9.757  1.00  0.00     0.240 C 
ENDROOT
BRANCH  18  28
HETATM   28  C18 UNL     1      -3.346  13.350  18.976  1.00  0.00    -0.043 A 
HETATM   29  C19 UNL     1      -4.390  12.608  19.351  1.00  0.00     0.087 A 
HETATM   30  C20 UNL     1      -5.118  13.354  20.373  1.00  0.00     0.283 A 
HETATM   31  O4  UNL     1      -6.129  12.970  20.930  1.00  0.00    -0.260 OA
HETATM   32  O5  UNL     1      -4.500  14.546  20.572  1.00  0.00    -0.314 OA
HETATM   33  C21 UNL     1      -3.318  14.606  19.764  1.00  0.00     0.214 A 
ENDBRANCH  18  28
BRANCH  19  34
HETATM   34  O6  UNL     1      -0.825  12.390  19.727  1.00  0.00    -0.316 OA
BRANCH  34  35
HETATM   35  C23 UNL     1       0.492  12.365  20.081  1.00  0.00     0.255 C 
HETATM   36  C24 UNL     1       0.899  10.973  20.452  1.00  0.00     0.126 C 
HETATM   37  O7  UNL     1       1.231  13.339  20.129  1.00  0.00    -0.266 OA
ENDBRANCH  34  35
ENDBRANCH  19  34
BRANCH  21  38
HETATM   38  O8  UNL     1      -3.484  10.205  18.133  1.00  0.00    -0.389 OA
HETATM   39  H35 UNL     1      -3.182   9.380  18.551  1.00  0.00     0.210 HD
ENDBRANCH  21  38
BRANCH  27  40
HETATM   40  O10 UNL     1       0.570   7.918   8.436  1.00  0.00    -0.360 OA
HETATM   41  H42 UNL     1       0.487   8.883   8.351  1.00  0.00     0.213 HD
ENDBRANCH  27  40
BRANCH   1  42
HETATM   42  O1  UNL     1       3.204   8.111  10.989  1.00  0.00    -0.385 OA
HETATM   43  C1  UNL     1       4.581   7.760  11.026  1.00  0.00     0.202 C 
ENDBRANCH   1  42
TORSDOF 6
ENDMDL
MODEL 3
REMARK minimizedAffinity -6.00287008
REMARK CNNscore 0.403521866
REMARK CNNaffinity 6.38931847
REMARK  6 active torsions:
REMARK  status: ('A' for Active; 'I' for Inactive)
REMARK    1  A    between atoms: O1_2  and  C2_3 
REMARK    2  A    between atoms: C17_20  and  C18_21 
REMARK    3  A    between atoms: C22_27  and  O6_28 
REMARK    4  A    between atoms: O6_28  and  C23_29 
REMARK    5  A    between atoms: C26_33  and  O8_34 
REMARK    6  A    between atoms: C31_40  and  O10_41 
ROOT
HETATM    1  C2  UNL     1      -5.776  14.760  22.616  1.00  0.00     0.190 C 
HETATM    2  C3  UNL     1      -4.785  15.788  23.184  1.00  0.00     0.064 C 
HETATM    3  C4  UNL     1      -4.986  17.189  22.617  1.00  0.00     0.174 C 
HETATM    4  O2  UNL     1      -5.281  17.125  21.232  1.00  0.00    -0.356 OA
HETATM    5  C5  UNL     1      -6.579  16.573  20.959  1.00  0.00     0.325 C 
HETATM    6  O3  UNL     1      -6.616  16.248  19.562  1.00  0.00    -0.344 OA
HETATM    7  C6  UNL     1      -7.149  14.961  19.283  1.00  0.00     0.177 C 
HETATM    8  C7  UNL     1      -7.512  14.915  17.829  1.00  0.00     0.011 C 
HETATM    9  C8  UNL     1      -8.631  14.342  17.342  1.00  0.00    -0.072 C 
HETATM   10  C9  UNL     1      -8.931  14.375  15.865  1.00  0.00     0.035 C 
HETATM   11  C10 UNL     1      -9.182  12.972  15.321  1.00  0.00     0.012 C 
HETATM   12  C11 UNL     1     -10.290  12.230  16.105  1.00  0.00     0.026 C 
HETATM   13  C12 UNL     1      -9.933  12.193  17.618  1.00  0.00     0.005 C 
HETATM   14  C13 UNL     1     -10.991  11.402  18.404  1.00  0.00     0.007 C 
HETATM   15  C14 UNL     1     -11.163   9.995  17.846  1.00  0.00     0.013 C 
HETATM   16  C15 UNL     1     -11.581   9.966  16.348  1.00  0.00    -0.003 C 
HETATM   17  C16 UNL     1     -13.051  10.425  16.250  1.00  0.00     0.019 C 
HETATM   18  C17 UNL     1     -11.364   8.513  15.801  1.00  0.00     0.058 C 
HETATM   19  C22 UNL     1      -9.838   8.470  15.506  1.00  0.00     0.143 C 
HETATM   20  C25 UNL     1      -9.373   9.920  15.287  1.00  0.00     0.072 C 
HETATM   21  C26 UNL     1     -10.600  10.827  15.499  1.00  0.00     0.072 C 
HETATM   22  C27 UNL     1      -9.657  13.623  18.227  1.00  0.00    -0.014 C 
HETATM   23  C28 UNL     1     -10.937  14.492  18.286  1.00  0.00     0.020 C 
HETATM   24  C29 UNL     1      -9.116  13.460  19.681  1.00  0.00     0.049 C 
HETATM   25  C30 UNL     1      -8.362  14.692  20.178  1.00  0.00     0.159 C 
HETATM   26  O9  UNL     1      -7.930  14.448  21.520  1.00  0.00    -0.341 OA
HETATM   27  C31 UNL     1      -7.019  15.448  21.994  1.00  0.00     0.240 C 
ENDROOT
BRANCH  18  28
HETATM   28  C18 UNL     1     -12.241   7.997  14.681  1.00  0.00    -0.043 A 
HETATM   29  C19 UNL     1     -12.841   8.774  13.776  1.00  0.00     0.087 A 
HETATM   30  C20 UNL     1     -13.682   7.917  12.946  1.00  0.00     0.283 A 
HETATM   31  O4  UNL     1     -14.376   8.302  12.024  1.00  0.00    -0.260 OA
HETATM   32  O5  UNL     1     -13.583   6.639  13.391  1.00  0.00    -0.314 OA
HETATM   33  C21 UNL     1     -12.633   6.584  14.462  1.00  0.00     0.214 A 
ENDBRANCH  18  28
BRANCH  19  34
HETATM   34  O6  UNL     1      -9.478   7.664  14.374  1.00  0.00    -0.316 OA
BRANCH  34  35
HETATM   35  C23 UNL     1      -8.359   6.901  14.535  1.00  0.00     0.255 C 
HETATM   36  C24 UNL     1      -8.108   6.653  15.990  1.00  0.00     0.126 C 
HETATM   37  O7  UNL     1      -7.636   6.505  13.631  1.00  0.00    -0.266 OA
ENDBRANCH  34  35
ENDBRANCH  19  34
BRANCH  21  38
HETATM   38  O8  UNL     1     -11.189  11.045  14.210  1.00  0.00    -0.389 OA
HETATM   39  H35 UNL     1     -10.530  11.448  13.618  1.00  0.00     0.210 HD
ENDBRANCH  21  38
BRANCH  27  40
HETATM   40  O10 UNL     1      -7.741  16.080  23.068  1.00  0.00    -0.360 OA
HETATM   41  H42 UNL     1      -8.218  15.340  23.480  1.00  0.00     0.213 HD
ENDBRANCH  27  40
BRANCH   1  42
HETATM   42  O1  UNL     1      -5.130  13.931  21.633  1.00  0.00    -0.385 OA
HETATM   43  C1  UNL     1      -5.613  12.594  21.621  1.00  0.00     0.202 C 
ENDBRANCH   1  42
TORSDOF 6
ENDMDL
MODEL 4
REMARK minimizedAffinity -6.51171589
REMARK CNNscore 0.402375609
REMARK CNNaffinity 5.98080826
REMARK  6 active torsions:
REMARK  status: ('A' for Active; 'I' for Inactive)
REMARK    1  A    between atoms: O1_2  and  C2_3 
REMARK    2  A    between atoms: C17_20  and  C18_21 
REMARK    3  A    between atoms: C22_27  and  O6_28 
REMARK    4  A    between atoms: O6_28  and  C23_29 
REMARK    5  A    between atoms: C26_33  and  O8_34 
REMARK    6  A    between atoms: C31_40  and  O10_41 
ROOT
HETATM    1  C2  UNL     1     -21.676   3.047   7.470  1.00  0.00     0.190 C 
HETATM    2  C3  UNL     1     -22.923   3.492   6.690  1.00  0.00     0.064 C 
HETATM    3  C4  UNL     1     -24.227   3.063   7.352  1.00  0.00     0.174 C 
HETATM    4  O2  UNL     1     -24.107   1.753   7.880  1.00  0.00    -0.356 OA
HETATM    5  C5  UNL     1     -23.232   1.684   9.017  1.00  0.00     0.325 C 
HETATM    6  O3  UNL     1     -22.929   0.299   9.236  1.00  0.00    -0.344 OA
HETATM    7  C6  UNL     1     -21.550   0.038   9.460  1.00  0.00     0.177 C 
HETATM    8  C7  UNL     1     -21.430  -1.327  10.070  1.00  0.00     0.011 C 
HETATM    9  C8  UNL     1     -20.587  -1.640  11.074  1.00  0.00    -0.072 C 
HETATM   10  C9  UNL     1     -20.560  -3.033  11.648  1.00  0.00     0.035 C 
HETATM   11  C10 UNL     1     -19.148  -3.612  11.626  1.00  0.00     0.012 C 
HETATM   12  C11 UNL     1     -18.126  -2.690  12.333  1.00  0.00     0.026 C 
HETATM   13  C12 UNL     1     -18.165  -1.273  11.695  1.00  0.00     0.005 C 
HETATM   14  C13 UNL     1     -17.109  -0.361  12.341  1.00  0.00     0.007 C 
HETATM   15  C14 UNL     1     -15.714  -0.969  12.246  1.00  0.00     0.013 C 
HETATM   16  C15 UNL     1     -15.597  -2.365  12.921  1.00  0.00    -0.003 C 
HETATM   17  C16 UNL     1     -15.648  -2.166  14.450  1.00  0.00     0.019 C 
HETATM   18  C17 UNL     1     -14.262  -3.036  12.444  1.00  0.00     0.058 C 
HETATM   19  C22 UNL     1     -14.633  -3.604  11.044  1.00  0.00     0.143 C 
HETATM   20  C25 UNL     1     -16.157  -3.809  11.022  1.00  0.00     0.072 C 
HETATM   21  C26 UNL     1     -16.701  -3.320  12.378  1.00  0.00     0.072 C 
HETATM   22  C27 UNL     1     -19.607  -0.633  11.689  1.00  0.00    -0.014 C 
HETATM   23  C28 UNL     1     -20.102  -0.287  13.115  1.00  0.00     0.020 C 
HETATM   24  C29 UNL     1     -19.574   0.686  10.856  1.00  0.00     0.049 C 
HETATM   25  C30 UNL     1     -20.955   1.118  10.367  1.00  0.00     0.159 C 
HETATM   26  O9  UNL     1     -20.816   2.341   9.638  1.00  0.00    -0.341 OA
HETATM   27  C31 UNL     1     -22.016   2.706   8.944  1.00  0.00     0.240 C 
ENDROOT
BRANCH  18  28
HETATM   28  C18 UNL     1     -13.548  -4.010  13.354  1.00  0.00    -0.043 A 
HETATM   29  C19 UNL     1     -12.902  -3.663  14.469  1.00  0.00     0.087 A 
HETATM   30  C20 UNL     1     -12.253  -4.860  14.996  1.00  0.00     0.283 A 
HETATM   31  O4  UNL     1     -11.574  -4.899  16.004  1.00  0.00    -0.260 OA
HETATM   32  O5  UNL     1     -12.510  -5.901  14.164  1.00  0.00    -0.314 OA
HETATM   33  C21 UNL     1     -13.384  -5.464  13.117  1.00  0.00     0.214 A 
ENDBRANCH  18  28
BRANCH  19  34
HETATM   34  O6  UNL     1     -13.968  -4.832  10.710  1.00  0.00    -0.316 OA
BRANCH  34  35
HETATM   35  C23 UNL     1     -14.029  -5.188   9.396  1.00  0.00     0.255 C 
HETATM   36  C24 UNL     1     -13.868  -3.980   8.526  1.00  0.00     0.126 C 
HETATM   37  O7  UNL     1     -14.225  -6.321   8.978  1.00  0.00    -0.266 OA
ENDBRANCH  34  35
ENDBRANCH  19  34
BRANCH  21  38
HETATM   38  O8  UNL     1     -16.772  -4.465  13.239  1.00  0.00    -0.389 OA
HETATM   39  H35 UNL     1     -17.345  -5.138  12.833  1.00  0.00     0.210 HD
ENDBRANCH  21  38
BRANCH  27  40
HETATM   40  O10 UNL     1     -22.417   3.932   9.585  1.00  0.00    -0.360 OA
HETATM   41  H42 UNL     1     -21.570   4.374   9.766  1.00  0.00     0.213 HD
ENDBRANCH  27  40
BRANCH   1  42
HETATM   42  O1  UNL     1     -21.064   1.913   6.831  1.00  0.00    -0.385 OA
HETATM   43  C1  UNL     1     -21.106   1.977   5.411  1.00  0.00     0.202 C 
ENDBRANCH   1  42
TORSDOF 6
ENDMDL
MODEL 5
REMARK minimizedAffinity -6.7394228
REMARK CNNscore 0.391669065
REMARK CNNaffinity 5.6577611
REMARK  6 active torsions:
REMARK  status: ('A' for Active; 'I' for Inactive)
REMARK    1  A    between atoms: O1_2  and  C2_3 
REMARK    2  A    between atoms: C17_20  and  C18_21 
REMARK    3  A    between atoms: C22_27  and  O6_28 
REMARK    4  A    between atoms: O6_28  and  C23_29 
REMARK    5  A    between atoms: C26_33  and  O8_34 
REMARK    6  A    between atoms: C31_40  and  O10_41 
ROOT
HETATM    1  C2  UNL     1     -10.617  -7.951   4.748  1.00  0.00     0.190 C 
HETATM    2  C3  UNL     1     -10.295  -8.980   3.654  1.00  0.00     0.064 C 
HETATM    3  C4  UNL     1     -11.533  -9.692   3.120  1.00  0.00     0.174 C 
HETATM    4  O2  UNL     1     -12.431  -9.984   4.176  1.00  0.00    -0.356 OA
HETATM    5  C5  UNL     1     -13.053  -8.811   4.725  1.00  0.00     0.325 C 
HETATM    6  O3  UNL     1     -13.651  -9.193   5.972  1.00  0.00    -0.344 OA
HETATM    7  C6  UNL     1     -13.387  -8.291   7.038  1.00  0.00     0.177 C 
HETATM    8  C7  UNL     1     -14.375  -8.566   8.133  1.00  0.00     0.011 C 
HETATM    9  C8  UNL     1     -14.993  -7.611   8.857  1.00  0.00    -0.072 C 
HETATM   10  C9  UNL     1     -16.000  -7.982   9.916  1.00  0.00     0.035 C 
HETATM   11  C10 UNL     1     -15.642  -7.356  11.261  1.00  0.00     0.012 C 
HETATM   12  C11 UNL     1     -15.463  -5.822  11.164  1.00  0.00     0.026 C 
HETATM   13  C12 UNL     1     -14.399  -5.482  10.082  1.00  0.00     0.005 C 
HETATM   14  C13 UNL     1     -14.160  -3.965  10.017  1.00  0.00     0.007 C 
HETATM   15  C14 UNL     1     -13.759  -3.406  11.378  1.00  0.00     0.013 C 
HETATM   16  C15 UNL     1     -14.815  -3.662  12.491  1.00  0.00    -0.003 C 
HETATM   17  C16 UNL     1     -16.028  -2.748  12.224  1.00  0.00     0.019 C 
HETATM   18  C17 UNL     1     -14.145  -3.386  13.882  1.00  0.00     0.058 C 
HETATM   19  C22 UNL     1     -13.350  -4.694  14.158  1.00  0.00     0.143 C 
HETATM   20  C25 UNL     1     -14.021  -5.816  13.347  1.00  0.00     0.072 C 
HETATM   21  C26 UNL     1     -15.175  -5.176  12.553  1.00  0.00     0.072 C 
HETATM   22  C27 UNL     1     -14.722  -6.114   8.672  1.00  0.00    -0.014 C 
HETATM   23  C28 UNL     1     -15.969  -5.474   8.015  1.00  0.00     0.020 C 
HETATM   24  C29 UNL     1     -13.505  -5.884   7.722  1.00  0.00     0.049 C 
HETATM   25  C30 UNL     1     -13.484  -6.848   6.538  1.00  0.00     0.159 C 
HETATM   26  O9  UNL     1     -12.348  -6.540   5.724  1.00  0.00    -0.341 OA
HETATM   27  C31 UNL     1     -12.109  -7.531   4.716  1.00  0.00     0.240 C 
ENDROOT
BRANCH  18  28
HETATM   28  C18 UNL     1     -14.993  -2.903  15.037  1.00  0.00    -0.043 A 
HETATM   29  C19 UNL     1     -14.988  -1.653  15.505  1.00  0.00     0.087 A 
HETATM   30  C20 UNL     1     -15.844  -1.619  16.686  1.00  0.00     0.283 A 
HETATM   31  O4  UNL     1     -16.060  -0.632  17.364  1.00  0.00    -0.260 OA
HETATM   32  O5  UNL     1     -16.330  -2.866  16.914  1.00  0.00    -0.314 OA
HETATM   33  C21 UNL     1     -15.888  -3.743  15.871  1.00  0.00     0.214 A 
ENDBRANCH  18  28
BRANCH  19  34
HETATM   34  O6  UNL     1     -13.284  -5.063  15.543  1.00  0.00    -0.316 OA
BRANCH  34  35
HETATM   35  C23 UNL     1     -12.642  -6.237  15.803  1.00  0.00     0.255 C 
HETATM   36  C24 UNL     1     -13.500  -7.116  16.660  1.00  0.00     0.126 C 
HETATM   37  O7  UNL     1     -11.512  -6.525  15.430  1.00  0.00    -0.266 OA
ENDBRANCH  34  35
ENDBRANCH  19  34
BRANCH  21  38
HETATM   38  O8  UNL     1     -16.362  -5.326  13.342  1.00  0.00    -0.389 OA
HETATM   39  H35 UNL     1     -16.515  -6.271  13.518  1.00  0.00     0.210 HD
ENDBRANCH  21  38
BRANCH  27  40
HETATM   40  O10 UNL     1     -12.327  -6.819   3.484  1.00  0.00    -0.360 OA
HETATM   41  H42 UNL     1     -11.968  -5.935   3.672  1.00  0.00     0.213 HD
ENDBRANCH  27  40
BRANCH   1  42
HETATM   42  O1  UNL     1     -10.282  -8.476   6.045  1.00  0.00    -0.385 OA
HETATM   43  C1  UNL     1      -9.046  -9.181   6.064  1.00  0.00     0.202 C 
ENDBRANCH   1  42
TORSDOF 6
ENDMDL
MODEL 6
REMARK minimizedAffinity -7.71755075
REMARK CNNscore 0.363795668
REMARK CNNaffinity 6.74013758
REMARK  6 active torsions:
REMARK  status: ('A' for Active; 'I' for Inactive)
REMARK    1  A    between atoms: O1_2  and  C2_3 
REMARK    2  A    between atoms: C17_20  and  C18_21 
REMARK    3  A    between atoms: C22_27  and  O6_28 
REMARK    4  A    between atoms: O6_28  and  C23_29 
REMARK    5  A    between atoms: C26_33  and  O8_34 
REMARK    6  A    between atoms: C31_40  and  O10_41 
ROOT
HETATM    1  C2  UNL     1      -7.770   6.467  13.005  1.00  0.00     0.190 C 
HETATM    2  C3  UNL     1      -9.149   5.792  13.070  1.00  0.00     0.064 C 
HETATM    3  C4  UNL     1      -9.115   4.426  13.744  1.00  0.00     0.174 C 
HETATM    4  O2  UNL     1      -7.954   3.711  13.357  1.00  0.00    -0.356 OA
HETATM    5  C5  UNL     1      -6.745   4.269  13.897  1.00  0.00     0.325 C 
HETATM    6  O3  UNL     1      -5.650   3.688  13.175  1.00  0.00    -0.344 OA
HETATM    7  C6  UNL     1      -4.673   4.629  12.752  1.00  0.00     0.177 C 
HETATM    8  C7  UNL     1      -3.426   3.874  12.396  1.00  0.00     0.011 C 
HETATM    9  C8  UNL     1      -2.178   4.278  12.705  1.00  0.00    -0.072 C 
HETATM   10  C9  UNL     1      -0.984   3.435  12.336  1.00  0.00     0.035 C 
HETATM   11  C10 UNL     1       0.034   4.241  11.535  1.00  0.00     0.012 C 
HETATM   12  C11 UNL     1       0.462   5.536  12.267  1.00  0.00     0.026 C 
HETATM   13  C12 UNL     1      -0.792   6.389  12.606  1.00  0.00     0.005 C 
HETATM   14  C13 UNL     1      -0.382   7.711  13.275  1.00  0.00     0.007 C 
HETATM   15  C14 UNL     1       0.598   8.493  12.408  1.00  0.00     0.013 C 
HETATM   16  C15 UNL     1       1.904   7.712  12.085  1.00  0.00    -0.003 C 
HETATM   17  C16 UNL     1       2.753   7.641  13.370  1.00  0.00     0.019 C 
HETATM   18  C17 UNL     1       2.643   8.446  10.912  1.00  0.00     0.058 C 
HETATM   19  C22 UNL     1       1.882   7.950   9.649  1.00  0.00     0.143 C 
HETATM   20  C25 UNL     1       1.234   6.601  10.006  1.00  0.00     0.072 C 
HETATM   21  C26 UNL     1       1.561   6.317  11.484  1.00  0.00     0.072 C 
HETATM   22  C27 UNL     1      -1.881   5.596  13.430  1.00  0.00    -0.014 C 
HETATM   23  C28 UNL     1      -1.401   5.262  14.864  1.00  0.00     0.020 C 
HETATM   24  C29 UNL     1      -3.168   6.470  13.542  1.00  0.00     0.049 C 
HETATM   25  C30 UNL     1      -4.417   5.651  13.863  1.00  0.00     0.159 C 
HETATM   26  O9  UNL     1      -5.530   6.544  13.964  1.00  0.00    -0.341 OA
HETATM   27  C31 UNL     1      -6.784   5.854  14.034  1.00  0.00     0.240 C 
ENDROOT
BRANCH  18  28
HETATM   28  C18 UNL     1       4.150   8.371  10.815  1.00  0.00    -0.043 A 
HETATM   29  C19 UNL     1       4.965   9.423  10.914  1.00  0.00     0.087 A 
HETATM   30  C20 UNL     1       6.323   8.958  10.652  1.00  0.00     0.283 A 
HETATM   31  O4  UNL     1       7.315   9.662  10.656  1.00  0.00    -0.260 OA
HETATM   32  O5  UNL     1       6.287   7.629  10.378  1.00  0.00    -0.314 OA
HETATM   33  C21 UNL     1       4.944   7.153  10.520  1.00  0.00     0.214 A 
ENDBRANCH  18  28
BRANCH  19  34
HETATM   34  O6  UNL     1       2.707   7.805   8.483  1.00  0.00    -0.316 OA
BRANCH  34  35
HETATM   35  C23 UNL     1       2.342   6.804   7.634  1.00  0.00     0.255 C 
HETATM   36  C24 UNL     1       1.462   7.343   6.549  1.00  0.00     0.126 C 
HETATM   37  O7  UNL     1       2.651   5.626   7.753  1.00  0.00    -0.266 OA
ENDBRANCH  34  35
ENDBRANCH  19  34
BRANCH  21  38
HETATM   38  O8  UNL     1       2.747   5.512  11.505  1.00  0.00    -0.389 OA
HETATM   39  H35 UNL     1       2.592   4.696  10.997  1.00  0.00     0.210 HD
ENDBRANCH  21  38
BRANCH  27  40
HETATM   40  O10 UNL     1      -7.278   6.181  15.346  1.00  0.00    -0.360 OA
HETATM   41  H42 UNL     1      -6.999   7.105  15.464  1.00  0.00     0.213 HD
ENDBRANCH  27  40
BRANCH   1  42
HETATM   42  O1  UNL     1      -7.223   6.363  11.678  1.00  0.00    -0.385 OA
HETATM   43  C1  UNL     1      -8.186   5.988  10.701  1.00  0.00     0.202 C 
ENDBRANCH   1  42
TORSDOF 6
ENDMDL
MODEL 7
REMARK minimizedAffinity -6.51937103
REMARK CNNscore 0.317692757
REMARK CNNaffinity 5.78827906
REMARK  6 active torsions:
REMARK  status: ('A' for Active; 'I' for Inactive)
REMARK    1  A    between atoms: O1_2  and  C2_3 
REMARK    2  A    between atoms: C17_20  and  C18_21 
REMARK    3  A    between atoms: C22_27  and  O6_28 
REMARK    4  A    between atoms: O6_28  and  C23_29 
REMARK    5  A    between atoms: C26_33  and  O8_34 
REMARK    6  A    between atoms: C31_40  and  O10_41 
ROOT
HETATM    1  C2  UNL     1      -5.881 -10.098   9.734  1.00  0.00     0.190 C 
HETATM    2  C3  UNL     1      -5.278  -9.730  11.099  1.00  0.00     0.064 C 
HETATM    3  C4  UNL     1      -6.333  -9.437  12.160  1.00  0.00     0.174 C 
HETATM    4  O2  UNL     1      -7.408  -8.705  11.599  1.00  0.00    -0.356 OA
HETATM    5  C5  UNL     1      -8.202  -9.482  10.688  1.00  0.00     0.325 C 
HETATM    6  O3  UNL     1      -9.018  -8.563   9.947  1.00  0.00    -0.344 OA
HETATM    7  C6  UNL     1      -9.036  -8.805   8.547  1.00  0.00     0.177 C 
HETATM    8  C7  UNL     1     -10.209  -8.073   7.965  1.00  0.00     0.011 C 
HETATM    9  C8  UNL     1     -11.021  -8.574   7.012  1.00  0.00    -0.072 C 
HETATM   10  C9  UNL     1     -12.198  -7.777   6.511  1.00  0.00     0.035 C 
HETATM   11  C10 UNL     1     -12.164  -7.638   4.992  1.00  0.00     0.012 C 
HETATM   12  C11 UNL     1     -12.065  -9.008   4.280  1.00  0.00     0.026 C 
HETATM   13  C12 UNL     1     -10.825  -9.786   4.804  1.00  0.00     0.005 C 
HETATM   14  C13 UNL     1     -10.673 -11.123   4.060  1.00  0.00     0.007 C 
HETATM   15  C14 UNL     1     -10.596 -10.916   2.552  1.00  0.00     0.013 C 
HETATM   16  C15 UNL     1     -11.840 -10.194   1.959  1.00  0.00    -0.003 C 
HETATM   17  C16 UNL     1     -13.026 -11.179   1.987  1.00  0.00     0.019 C 
HETATM   18  C17 UNL     1     -11.488  -9.713   0.508  1.00  0.00     0.058 C 
HETATM   19  C22 UNL     1     -10.687  -8.402   0.754  1.00  0.00     0.143 C 
HETATM   20  C25 UNL     1     -11.106  -7.863   2.132  1.00  0.00     0.072 C 
HETATM   21  C26 UNL     1     -12.110  -8.868   2.728  1.00  0.00     0.072 C 
HETATM   22  C27 UNL     1     -10.811  -9.951   6.373  1.00  0.00    -0.014 C 
HETATM   23  C28 UNL     1     -11.935 -10.892   6.873  1.00  0.00     0.020 C 
HETATM   24  C29 UNL     1      -9.442 -10.561   6.807  1.00  0.00     0.049 C 
HETATM   25  C30 UNL     1      -9.118 -10.310   8.279  1.00  0.00     0.159 C 
HETATM   26  O9  UNL     1      -7.861 -10.924   8.576  1.00  0.00    -0.341 OA
HETATM   27  C31 UNL     1      -7.359 -10.551   9.866  1.00  0.00     0.240 C 
ENDROOT
BRANCH  18  28
HETATM   28  C18 UNL     1     -12.584  -9.602  -0.528  1.00  0.00    -0.043 A 
HETATM   29  C19 UNL     1     -12.721 -10.423  -1.571  1.00  0.00     0.087 A 
HETATM   30  C20 UNL     1     -13.817  -9.918  -2.392  1.00  0.00     0.283 A 
HETATM   31  O4  UNL     1     -14.207 -10.427  -3.426  1.00  0.00    -0.260 OA
HETATM   32  O5  UNL     1     -14.301  -8.782  -1.829  1.00  0.00    -0.314 OA
HETATM   33  C21 UNL     1     -13.613  -8.536  -0.597  1.00  0.00     0.214 A 
ENDBRANCH  18  28
BRANCH  19  34
HETATM   34  O6  UNL     1     -10.884  -7.394  -0.248  1.00  0.00    -0.316 OA
BRANCH  34  35
HETATM   35  C23 UNL     1      -9.797  -7.124  -1.025  1.00  0.00     0.255 C 
HETATM   36  C24 UNL     1      -8.727  -8.144  -0.785  1.00  0.00     0.126 C 
HETATM   37  O7  UNL     1      -9.686  -6.169  -1.782  1.00  0.00    -0.266 OA
ENDBRANCH  34  35
ENDBRANCH  19  34
BRANCH  21  38
HETATM   38  O8  UNL     1     -13.422  -8.404   2.384  1.00  0.00    -0.389 OA
HETATM   39  H35 UNL     1     -13.549  -7.505   2.733  1.00  0.00     0.210 HD
ENDBRANCH  21  38
BRANCH  27  40
HETATM   40  O10 UNL     1      -7.362 -11.789  10.601  1.00  0.00    -0.360 OA
HETATM   41  H42 UNL     1      -7.105 -12.445   9.932  1.00  0.00     0.213 HD
ENDBRANCH  27  40
BRANCH   1  42
HETATM   42  O1  UNL     1      -5.788  -8.984   8.828  1.00  0.00    -0.385 OA
HETATM   43  C1  UNL     1      -4.976  -9.251   7.691  1.00  0.00     0.202 C 
ENDBRANCH   1  42
TORSDOF 6
ENDMDL
MODEL 8
REMARK minimizedAffinity -6.28420258
REMARK CNNscore 0.309627801
REMARK CNNaffinity 5.21715927
REMARK  6 active torsions:
REMARK  status: ('A' for Active; 'I' for Inactive)
REMARK    1  A    between atoms: O1_2  and  C2_3 
REMARK    2  A    between atoms: C17_20  and  C18_21 
REMARK    3  A    between atoms: C22_27  and  O6_28 
REMARK    4  A    between atoms: O6_28  and  C23_29 
REMARK    5  A    between atoms: C26_33  and  O8_34 
REMARK    6  A    between atoms: C31_40  and  O10_41 
ROOT
HETATM    1  C2  UNL     1     -19.954   9.469  10.440  1.00  0.00     0.190 C 
HETATM    2  C3  UNL     1     -20.356  10.931  10.196  1.00  0.00     0.064 C 
HETATM    3  C4  UNL     1     -19.480  11.926  10.950  1.00  0.00     0.174 C 
HETATM    4  O2  UNL     1     -19.186  11.441  12.249  1.00  0.00    -0.356 OA
HETATM    5  C5  UNL     1     -18.301  10.309  12.239  1.00  0.00     0.325 C 
HETATM    6  O3  UNL     1     -18.357   9.715  13.544  1.00  0.00    -0.344 OA
HETATM    7  C6  UNL     1     -18.495   8.301  13.529  1.00  0.00     0.177 C 
HETATM    8  C7  UNL     1     -18.129   7.786  14.889  1.00  0.00     0.011 C 
HETATM    9  C8  UNL     1     -17.401   6.673  15.110  1.00  0.00    -0.072 C 
HETATM   10  C9  UNL     1     -17.052   6.250  16.514  1.00  0.00     0.035 C 
HETATM   11  C10 UNL     1     -17.480   4.810  16.779  1.00  0.00     0.012 C 
HETATM   12  C11 UNL     1     -16.903   3.826  15.734  1.00  0.00     0.026 C 
HETATM   13  C12 UNL     1     -17.306   4.280  14.302  1.00  0.00     0.005 C 
HETATM   14  C13 UNL     1     -16.797   3.278  13.254  1.00  0.00     0.007 C 
HETATM   15  C14 UNL     1     -17.295   1.867  13.543  1.00  0.00     0.013 C 
HETATM   16  C15 UNL     1     -16.870   1.332  14.941  1.00  0.00    -0.003 C 
HETATM   17  C16 UNL     1     -15.358   1.030  14.901  1.00  0.00     0.019 C 
HETATM   18  C17 UNL     1     -17.732   0.063  15.268  1.00  0.00     0.058 C 
HETATM   19  C22 UNL     1     -19.076   0.667  15.767  1.00  0.00     0.143 C 
HETATM   20  C25 UNL     1     -18.776   2.084  16.285  1.00  0.00     0.072 C 
HETATM   21  C26 UNL     1     -17.276   2.346  16.051  1.00  0.00     0.072 C 
HETATM   22  C27 UNL     1     -16.891   5.769  13.982  1.00  0.00    -0.014 C 
HETATM   23  C28 UNL     1     -15.355   5.940  13.883  1.00  0.00     0.020 C 
HETATM   24  C29 UNL     1     -17.512   6.186  12.613  1.00  0.00     0.049 C 
HETATM   25  C30 UNL     1     -17.604   7.701  12.438  1.00  0.00     0.159 C 
HETATM   26  O9  UNL     1     -18.164   7.974  11.150  1.00  0.00    -0.341 OA
HETATM   27  C31 UNL     1     -18.505   9.356  10.981  1.00  0.00     0.240 C 
ENDROOT
BRANCH  18  28
HETATM   28  C18 UNL     1     -17.158  -1.022  16.151  1.00  0.00    -0.043 A 
HETATM   29  C19 UNL     1     -17.179  -0.998  17.485  1.00  0.00     0.087 A 
HETATM   30  C20 UNL     1     -16.430  -2.156  17.961  1.00  0.00     0.283 A 
HETATM   31  O4  UNL     1     -16.246  -2.437  19.131  1.00  0.00    -0.260 OA
HETATM   32  O5  UNL     1     -15.953  -2.842  16.891  1.00  0.00    -0.314 OA
HETATM   33  C21 UNL     1     -16.423  -2.224  15.687  1.00  0.00     0.214 A 
ENDBRANCH  18  28
BRANCH  19  34
HETATM   34  O6  UNL     1     -19.724  -0.102  16.791  1.00  0.00    -0.316 OA
BRANCH  34  35
HETATM   35  C23 UNL     1     -20.784  -0.850  16.375  1.00  0.00     0.255 C 
HETATM   36  C24 UNL     1     -21.693  -0.024  15.517  1.00  0.00     0.126 C 
HETATM   37  O7  UNL     1     -20.994  -2.016  16.682  1.00  0.00    -0.266 OA
ENDBRANCH  34  35
ENDBRANCH  19  34
BRANCH  21  38
HETATM   38  O8  UNL     1     -16.594   1.989  17.261  1.00  0.00    -0.389 OA
HETATM   39  H35 UNL     1     -16.949   2.514  17.999  1.00  0.00     0.210 HD
ENDBRANCH  21  38
BRANCH  27  40
HETATM   40  O10 UNL     1     -17.621   9.796   9.933  1.00  0.00    -0.360 OA
HETATM   41  H42 UNL     1     -17.578   9.026   9.342  1.00  0.00     0.213 HD
ENDBRANCH  27  40
BRANCH   1  42
HETATM   42  O1  UNL     1     -20.871   8.843  11.356  1.00  0.00    -0.385 OA
HETATM   43  C1  UNL     1     -22.065   8.386  10.732  1.00  0.00     0.202 C 
ENDBRANCH   1  42
TORSDOF 6
ENDMDL
MODEL 9
REMARK minimizedAffinity -6.58843851
REMARK CNNscore 0.294122994
REMARK CNNaffinity 5.24383402
REMARK  6 active torsions:
REMARK  status: ('A' for Active; 'I' for Inactive)
REMARK    1  A    between atoms: O1_2  and  C2_3 
REMARK    2  A    between atoms: C17_20  and  C18_21 
REMARK    3  A    between atoms: C22_27  and  O6_28 
REMARK    4  A    between atoms: O6_28  and  C23_29 
REMARK    5  A    between atoms: C26_33  and  O8_34 
REMARK    6  A    between atoms: C31_40  and  O10_41 
ROOT
HETATM    1  C2  UNL     1     -22.019   0.788  10.737  1.00  0.00     0.190 C 
HETATM    2  C3  UNL     1     -22.975   1.970  10.512  1.00  0.00     0.064 C 
HETATM    3  C4  UNL     1     -22.262   3.318  10.485  1.00  0.00     0.174 C 
HETATM    4  O2  UNL     1     -21.245   3.360  11.470  1.00  0.00    -0.356 OA
HETATM    5  C5  UNL     1     -20.134   2.501  11.167  1.00  0.00     0.325 C 
HETATM    6  O3  UNL     1     -19.359   2.371  12.367  1.00  0.00    -0.344 OA
HETATM    7  C6  UNL     1     -18.979   1.035  12.667  1.00  0.00     0.177 C 
HETATM    8  C7  UNL     1     -17.863   1.085  13.669  1.00  0.00     0.011 C 
HETATM    9  C8  UNL     1     -16.777   0.287  13.638  1.00  0.00    -0.072 C 
HETATM   10  C9  UNL     1     -15.688   0.432  14.670  1.00  0.00     0.035 C 
HETATM   11  C10 UNL     1     -15.402  -0.897  15.362  1.00  0.00     0.012 C 
HETATM   12  C11 UNL     1     -15.078  -2.025  14.353  1.00  0.00     0.026 C 
HETATM   13  C12 UNL     1     -16.235  -2.161  13.324  1.00  0.00     0.005 C 
HETATM   14  C13 UNL     1     -15.960  -3.321  12.353  1.00  0.00     0.007 C 
HETATM   15  C14 UNL     1     -15.730  -4.630  13.099  1.00  0.00     0.013 C 
HETATM   16  C15 UNL     1     -14.543  -4.574  14.102  1.00  0.00    -0.003 C 
HETATM   17  C16 UNL     1     -13.230  -4.546  13.293  1.00  0.00     0.019 C 
HETATM   18  C17 UNL     1     -14.640  -5.817  15.054  1.00  0.00     0.058 C 
HETATM   19  C22 UNL     1     -15.708  -5.380  16.098  1.00  0.00     0.143 C 
HETATM   20  C25 UNL     1     -15.722  -3.842  16.122  1.00  0.00     0.072 C 
HETATM   21  C26 UNL     1     -14.709  -3.362  15.065  1.00  0.00     0.072 C 
HETATM   22  C27 UNL     1     -16.573  -0.808  12.585  1.00  0.00    -0.014 C 
HETATM   23  C28 UNL     1     -15.436  -0.359  11.635  1.00  0.00     0.020 C 
HETATM   24  C29 UNL     1     -17.865  -1.005  11.732  1.00  0.00     0.049 C 
HETATM   25  C30 UNL     1     -18.556   0.312  11.386  1.00  0.00     0.159 C 
HETATM   26  O9  UNL     1     -19.709   0.023  10.590  1.00  0.00    -0.341 OA
HETATM   27  C31 UNL     1     -20.552   1.168  10.407  1.00  0.00     0.240 C 
ENDROOT
BRANCH  18  28
HETATM   28  C18 UNL     1     -13.379  -6.405  15.646  1.00  0.00    -0.043 A 
HETATM   29  C19 UNL     1     -13.335  -7.537  16.352  1.00  0.00     0.087 A 
HETATM   30  C20 UNL     1     -11.969  -7.700  16.841  1.00  0.00     0.283 A 
HETATM   31  O4  UNL     1     -11.580  -8.627  17.526  1.00  0.00    -0.260 OA
HETATM   32  O5  UNL     1     -11.226  -6.642  16.432  1.00  0.00    -0.314 OA
HETATM   33  C21 UNL     1     -12.030  -5.790  15.607  1.00  0.00     0.214 A 
ENDBRANCH  18  28
BRANCH  19  34
HETATM   34  O6  UNL     1     -15.482  -5.888  17.421  1.00  0.00    -0.316 OA
BRANCH  34  35
HETATM   35  C23 UNL     1     -16.532  -6.558  17.975  1.00  0.00     0.255 C 
HETATM   36  C24 UNL     1     -17.339  -7.227  16.905  1.00  0.00     0.126 C 
HETATM   37  O7  UNL     1     -16.808  -6.582  19.167  1.00  0.00    -0.266 OA
ENDBRANCH  34  35
ENDBRANCH  19  34
BRANCH  21  38
HETATM   38  O8  UNL     1     -13.464  -3.149  15.744  1.00  0.00    -0.389 OA
HETATM   39  H35 UNL     1     -13.591  -2.498  16.456  1.00  0.00     0.210 HD
ENDBRANCH  21  38
BRANCH  27  40
HETATM   40  O10 UNL     1     -20.482   1.416   8.990  1.00  0.00    -0.360 OA
HETATM   41  H42 UNL     1     -20.453   0.521   8.610  1.00  0.00     0.213 HD
ENDBRANCH  27  40
BRANCH   1  42
HETATM   42  O1  UNL     1     -22.112   0.320  12.094  1.00  0.00    -0.385 OA
HETATM   43  C1  UNL     1     -22.687  -0.977  12.203  1.00  0.00     0.202 C 
ENDBRANCH   1  42
TORSDOF 6
ENDMDL
