MODEL 1
REMARK minimizedAffinity -5.76580191
REMARK CNNscore 0.443940461
REMARK CNNaffinity 5.21899366
REMARK  8 active torsions:
REMARK  status: ('A' for Active; 'I' for Inactive)
REMARK    1  A    between atoms: C4_4  and  C5_5 
REMARK    2  A    between atoms: C5_5  and  C6_6 
REMARK    3  A    between atoms: C6_6  and  C7_7 
REMARK    4  A    between atoms: C7_7  and  C9_9 
REMARK    5  A    between atoms: C21_21  and  C22_22 
REMARK    6  A    between atoms: C22_22  and  C23_23 
REMARK    7  A    between atoms: C23_23  and  C24_24 
REMARK    8  A    between atoms: C24_24  and  O1_25 
ROOT
HETATM    1  C9  UNL     1      -5.514 -10.682   8.363  1.00  0.00    -0.002 C 
HETATM    2  C10 UNL     1      -4.128 -10.002   8.619  1.00  0.00     0.006 C 
HETATM    3  C11 UNL     1      -3.522  -9.645   7.245  1.00  0.00     0.011 C 
HETATM    4  C12 UNL     1      -4.374 -10.431   6.230  1.00  0.00    -0.032 C 
HETATM    5  C13 UNL     1      -3.801 -11.881   6.266  1.00  0.00     0.016 C 
HETATM    6  C14 UNL     1      -4.397  -9.848   4.778  1.00  0.00     0.003 C 
HETATM    7  C15 UNL     1      -3.026  -9.748   4.071  1.00  0.00     0.010 C 
HETATM    8  C16 UNL     1      -2.522 -11.008   3.360  1.00  0.00     0.035 C 
HETATM    9  C17 UNL     1      -3.631 -11.978   2.978  1.00  0.00    -0.073 C 
HETATM   10  C18 UNL     1      -3.426 -13.322   3.034  1.00  0.00    -0.085 C 
HETATM   11  C19 UNL     1      -4.475 -14.392   2.880  1.00  0.00     0.043 C 
HETATM   12  C20 UNL     1      -2.061 -13.932   3.287  1.00  0.00     0.043 C 
HETATM   13  C21 UNL     1      -4.888 -11.188   2.575  1.00  0.00     0.023 C 
HETATM   14  C25 UNL     1      -5.531 -10.474   3.849  1.00  0.00    -0.032 C 
HETATM   15  C26 UNL     1      -6.409  -9.305   3.306  1.00  0.00     0.016 C 
HETATM   16  C27 UNL     1      -6.474 -11.445   4.620  1.00  0.00     0.011 C 
HETATM   17  C28 UNL     1      -6.812 -11.149   6.098  1.00  0.00     0.011 C 
HETATM   18  C29 UNL     1      -5.805 -10.278   6.876  1.00  0.00    -0.032 C 
HETATM   19  C30 UNL     1      -6.351  -8.814   6.912  1.00  0.00     0.016 C 
ENDROOT
BRANCH   1  20
HETATM   20  C7  UNL     1      -6.545 -10.353   9.489  1.00  0.00    -0.014 C 
HETATM   21  C8  UNL     1      -7.971 -10.355   8.910  1.00  0.00     0.010 C 
BRANCH  20  22
HETATM   22  C6  UNL     1      -6.250  -8.994  10.169  1.00  0.00     0.008 C 
BRANCH  22  23
HETATM   23  C5  UNL     1      -5.931  -9.047  11.671  1.00  0.00     0.028 C 
BRANCH  23  24
HETATM   24  C4  UNL     1      -7.149  -9.316  12.513  1.00  0.00    -0.025 C 
HETATM   25  C2  UNL     1      -7.574 -10.490  13.019  1.00  0.00    -0.091 C 
HETATM   26  C1  UNL     1      -6.901 -11.821  12.829  1.00  0.00     0.042 C 
HETATM   27  C3  UNL     1      -8.825 -10.549  13.859  1.00  0.00     0.042 C 
ENDBRANCH  23  24
ENDBRANCH  22  23
ENDBRANCH  20  22
ENDBRANCH   1  20
BRANCH  13  28
HETATM   28  C22 UNL     1      -5.904 -11.871   1.616  1.00  0.00     0.012 C 
BRANCH  28  29
HETATM   29  C23 UNL     1      -6.064 -11.199   0.238  1.00  0.00     0.027 C 
BRANCH  29  30
HETATM   30  C24 UNL     1      -4.771 -10.607  -0.317  1.00  0.00     0.164 C 
BRANCH  30  31
HETATM   31  O1  UNL     1      -4.914 -10.255  -1.683  1.00  0.00    -0.401 OA
HETATM   32  H42 UNL     1      -4.088  -9.821  -1.954  1.00  0.00     0.209 HD
ENDBRANCH  30  31
ENDBRANCH  29  30
ENDBRANCH  28  29
ENDBRANCH  13  28
TORSDOF 8
ENDMDL
MODEL 2
REMARK minimizedAffinity -5.82614756
REMARK CNNscore 0.322287202
REMARK CNNaffinity 5.45956612
REMARK  8 active torsions:
REMARK  status: ('A' for Active; 'I' for Inactive)
REMARK    1  A    between atoms: C4_4  and  C5_5 
REMARK    2  A    between atoms: C5_5  and  C6_6 
REMARK    3  A    between atoms: C6_6  and  C7_7 
REMARK    4  A    between atoms: C7_7  and  C9_9 
REMARK    5  A    between atoms: C21_21  and  C22_22 
REMARK    6  A    between atoms: C22_22  and  C23_23 
REMARK    7  A    between atoms: C23_23  and  C24_24 
REMARK    8  A    between atoms: C24_24  and  O1_25 
ROOT
HETATM    1  C9  UNL     1       5.157   8.448  12.332  1.00  0.00    -0.002 C 
HETATM    2  C10 UNL     1       5.750   9.259  11.133  1.00  0.00     0.006 C 
HETATM    3  C11 UNL     1       7.020   9.977  11.637  1.00  0.00     0.011 C 
HETATM    4  C12 UNL     1       6.944   9.868  13.172  1.00  0.00    -0.032 C 
HETATM    5  C13 UNL     1       5.960  10.998  13.605  1.00  0.00     0.016 C 
HETATM    6  C14 UNL     1       8.313   9.967  13.922  1.00  0.00     0.003 C 
HETATM    7  C15 UNL     1       9.103  11.279  13.711  1.00  0.00     0.010 C 
HETATM    8  C16 UNL     1       8.733  12.461  14.612  1.00  0.00     0.035 C 
HETATM    9  C17 UNL     1       8.061  12.049  15.914  1.00  0.00    -0.073 C 
HETATM   10  C18 UNL     1       7.073  12.813  16.456  1.00  0.00    -0.085 C 
HETATM   11  C19 UNL     1       6.190  12.437  17.617  1.00  0.00     0.043 C 
HETATM   12  C20 UNL     1       6.715  14.186  15.923  1.00  0.00     0.043 C 
HETATM   13  C21 UNL     1       8.669  10.726  16.410  1.00  0.00     0.023 C 
HETATM   14  C25 UNL     1       8.245   9.522  15.452  1.00  0.00    -0.032 C 
HETATM   15  C26 UNL     1       9.295   8.390  15.671  1.00  0.00     0.016 C 
HETATM   16  C27 UNL     1       6.853   8.951  15.852  1.00  0.00     0.011 C 
HETATM   17  C28 UNL     1       6.045   8.142  14.812  1.00  0.00     0.011 C 
HETATM   18  C29 UNL     1       6.368   8.407  13.328  1.00  0.00    -0.032 C 
HETATM   19  C30 UNL     1       7.320   7.274  12.825  1.00  0.00     0.016 C 
ENDROOT
BRANCH   1  20
HETATM   20  C7  UNL     1       4.474   7.124  11.863  1.00  0.00    -0.014 C 
HETATM   21  C8  UNL     1       4.886   6.806  10.413  1.00  0.00     0.010 C 
BRANCH  20  22
HETATM   22  C6  UNL     1       2.932   7.196  11.972  1.00  0.00     0.008 C 
BRANCH  22  23
HETATM   23  C5  UNL     1       2.291   8.542  11.598  1.00  0.00     0.028 C 
BRANCH  23  24
HETATM   24  C4  UNL     1       1.134   8.387  10.647  1.00  0.00    -0.025 C 
HETATM   25  C2  UNL     1       1.163   8.289   9.304  1.00  0.00    -0.091 C 
HETATM   26  C1  UNL     1       2.399   8.331   8.448  1.00  0.00     0.042 C 
HETATM   27  C3  UNL     1      -0.117   8.122   8.524  1.00  0.00     0.042 C 
ENDBRANCH  23  24
ENDBRANCH  22  23
ENDBRANCH  20  22
ENDBRANCH   1  20
BRANCH  13  28
HETATM   28  C22 UNL     1       8.601  10.416  17.932  1.00  0.00     0.012 C 
BRANCH  28  29
HETATM   29  C23 UNL     1       9.612  11.183  18.808  1.00  0.00     0.027 C 
BRANCH  29  30
HETATM   30  C24 UNL     1      11.072  10.881  18.476  1.00  0.00     0.164 C 
BRANCH  30  31
HETATM   31  O1  UNL     1      11.762  10.384  19.611  1.00  0.00    -0.401 OA
HETATM   32  H42 UNL     1      12.657  10.145  19.318  1.00  0.00     0.209 HD
ENDBRANCH  30  31
ENDBRANCH  29  30
ENDBRANCH  28  29
ENDBRANCH  13  28
TORSDOF 8
ENDMDL
MODEL 3
REMARK minimizedAffinity -5.94413471
REMARK CNNscore 0.313587457
REMARK CNNaffinity 6.11405182
REMARK  8 active torsions:
REMARK  status: ('A' for Active; 'I' for Inactive)
REMARK    1  A    between atoms: C4_4  and  C5_5 
REMARK    2  A    between atoms: C5_5  and  C6_6 
REMARK    3  A    between atoms: C6_6  and  C7_7 
REMARK    4  A    between atoms: C7_7  and  C9_9 
REMARK    5  A    between atoms: C21_21  and  C22_22 
REMARK    6  A    between atoms: C22_22  and  C23_23 
REMARK    7  A    between atoms: C23_23  and  C24_24 
REMARK    8  A    between atoms: C24_24  and  O1_25 
ROOT
HETATM    1  C9  UNL     1       1.710   7.606  11.266  1.00  0.00    -0.002 C 
HETATM    2  C10 UNL     1       2.572   6.392  10.786  1.00  0.00     0.006 C 
HETATM    3  C11 UNL     1       3.909   6.434  11.557  1.00  0.00     0.011 C 
HETATM    4  C12 UNL     1       3.949   7.839  12.188  1.00  0.00    -0.032 C 
HETATM    5  C13 UNL     1       4.419   8.780  11.037  1.00  0.00     0.016 C 
HETATM    6  C14 UNL     1       4.847   7.979  13.461  1.00  0.00     0.003 C 
HETATM    7  C15 UNL     1       6.344   7.647  13.268  1.00  0.00     0.010 C 
HETATM    8  C16 UNL     1       7.239   8.772  12.738  1.00  0.00     0.035 C 
HETATM    9  C17 UNL     1       6.681  10.166  12.990  1.00  0.00    -0.073 C 
HETATM   10  C18 UNL     1       6.855  11.158  12.074  1.00  0.00    -0.085 C 
HETATM   11  C19 UNL     1       6.199  12.514  12.093  1.00  0.00     0.043 C 
HETATM   12  C20 UNL     1       7.755  11.006  10.864  1.00  0.00     0.043 C 
HETATM   13  C21 UNL     1       5.954  10.190  14.345  1.00  0.00     0.023 C 
HETATM   14  C25 UNL     1       4.610   9.331  14.273  1.00  0.00    -0.032 C 
HETATM   15  C26 UNL     1       4.247   8.953  15.742  1.00  0.00     0.016 C 
HETATM   16  C27 UNL     1       3.433  10.177  13.704  1.00  0.00     0.011 C 
HETATM   17  C28 UNL     1       2.207   9.451  13.105  1.00  0.00     0.011 C 
HETATM   18  C29 UNL     1       2.434   8.015  12.596  1.00  0.00    -0.032 C 
HETATM   19  C30 UNL     1       1.937   7.022  13.697  1.00  0.00     0.016 C 
ENDROOT
BRANCH   1  20
HETATM   20  C7  UNL     1       0.184   7.278  11.266  1.00  0.00    -0.014 C 
HETATM   21  C8  UNL     1      -0.036   5.804  10.877  1.00  0.00     0.010 C 
BRANCH  20  22
HETATM   22  C6  UNL     1      -0.609   8.203  10.311  1.00  0.00     0.008 C 
BRANCH  22  23
HETATM   23  C5  UNL     1       0.208   8.894   9.208  1.00  0.00     0.028 C 
BRANCH  23  24
HETATM   24  C4  UNL     1       0.582   7.956   8.091  1.00  0.00    -0.025 C 
HETATM   25  C2  UNL     1       1.782   7.795   7.500  1.00  0.00    -0.091 C 
HETATM   26  C1  UNL     1       3.034   8.556   7.838  1.00  0.00     0.042 C 
HETATM   27  C3  UNL     1       1.959   6.782   6.398  1.00  0.00     0.042 C 
ENDBRANCH  23  24
ENDBRANCH  22  23
ENDBRANCH  20  22
ENDBRANCH   1  20
BRANCH  13  28
HETATM   28  C22 UNL     1       5.828  11.553  15.082  1.00  0.00     0.012 C 
BRANCH  28  29
HETATM   29  C23 UNL     1       6.573  11.646  16.428  1.00  0.00     0.027 C 
BRANCH  29  30
HETATM   30  C24 UNL     1       7.616  10.550  16.635  1.00  0.00     0.164 C 
BRANCH  30  31
HETATM   31  O1  UNL     1       7.267   9.710  17.723  1.00  0.00    -0.401 OA
HETATM   32  H42 UNL     1       7.926   8.996  17.756  1.00  0.00     0.209 HD
ENDBRANCH  30  31
ENDBRANCH  29  30
ENDBRANCH  28  29
ENDBRANCH  13  28
TORSDOF 8
ENDMDL
MODEL 4
REMARK minimizedAffinity -5.79518127
REMARK CNNscore 0.31323114
REMARK CNNaffinity 5.18202209
REMARK  8 active torsions:
REMARK  status: ('A' for Active; 'I' for Inactive)
REMARK    1  A    between atoms: C4_4  and  C5_5 
REMARK    2  A    between atoms: C5_5  and  C6_6 
REMARK    3  A    between atoms: C6_6  and  C7_7 
REMARK    4  A    between atoms: C7_7  and  C9_9 
REMARK    5  A    between atoms: C21_21  and  C22_22 
REMARK    6  A    between atoms: C22_22  and  C23_23 
REMARK    7  A    between atoms: C23_23  and  C24_24 
REMARK    8  A    between atoms: C24_24  and  O1_25 
ROOT
HETATM    1  C9  UNL     1       4.616   8.127  11.618  1.00  0.00    -0.002 C 
HETATM    2  C10 UNL     1       5.167   8.968  10.420  1.00  0.00     0.006 C 
HETATM    3  C11 UNL     1       6.501   9.603  10.870  1.00  0.00     0.011 C 
HETATM    4  C12 UNL     1       6.520   9.421  12.400  1.00  0.00    -0.032 C 
HETATM    5  C13 UNL     1       5.623  10.572  12.949  1.00  0.00     0.016 C 
HETATM    6  C14 UNL     1       7.939   9.421  13.059  1.00  0.00     0.003 C 
HETATM    7  C15 UNL     1       8.776  10.705  12.856  1.00  0.00     0.010 C 
HETATM    8  C16 UNL     1       8.524  11.857  13.833  1.00  0.00     0.035 C 
HETATM    9  C17 UNL     1       7.919  11.412  15.157  1.00  0.00    -0.073 C 
HETATM   10  C18 UNL     1       7.007  12.192  15.800  1.00  0.00    -0.085 C 
HETATM   11  C19 UNL     1       6.184  11.800  16.999  1.00  0.00     0.043 C 
HETATM   12  C20 UNL     1       6.682  13.605  15.356  1.00  0.00     0.043 C 
HETATM   13  C21 UNL     1       8.494  10.041  15.550  1.00  0.00     0.023 C 
HETATM   14  C25 UNL     1       7.950   8.905  14.568  1.00  0.00    -0.032 C 
HETATM   15  C26 UNL     1       8.955   7.717  14.663  1.00  0.00     0.016 C 
HETATM   16  C27 UNL     1       6.560   8.379  15.035  1.00  0.00     0.011 C 
HETATM   17  C28 UNL     1       5.648   7.659  14.016  1.00  0.00     0.011 C 
HETATM   18  C29 UNL     1       5.885   7.982  12.527  1.00  0.00    -0.032 C 
HETATM   19  C30 UNL     1       6.747   6.833  11.909  1.00  0.00     0.016 C 
ENDROOT
BRANCH   1  20
HETATM   20  C7  UNL     1       3.840   6.860  11.136  1.00  0.00    -0.014 C 
HETATM   21  C8  UNL     1       3.738   6.861   9.599  1.00  0.00     0.010 C 
BRANCH  20  22
HETATM   22  C6  UNL     1       2.427   6.771  11.761  1.00  0.00     0.008 C 
BRANCH  22  23
HETATM   23  C5  UNL     1       1.249   6.808  10.775  1.00  0.00     0.028 C 
BRANCH  23  24
HETATM   24  C4  UNL     1      -0.076   6.567  11.447  1.00  0.00    -0.025 C 
HETATM   25  C2  UNL     1      -0.587   5.405  11.896  1.00  0.00    -0.091 C 
HETATM   26  C1  UNL     1       0.078   4.060  11.804  1.00  0.00     0.042 C 
HETATM   27  C3  UNL     1      -1.940   5.374  12.562  1.00  0.00     0.042 C 
ENDBRANCH  23  24
ENDBRANCH  22  23
ENDBRANCH  20  22
ENDBRANCH   1  20
BRANCH  13  28
HETATM   28  C22 UNL     1       8.510   9.659  17.057  1.00  0.00     0.012 C 
BRANCH  28  29
HETATM   29  C23 UNL     1       9.625  10.319  17.892  1.00  0.00     0.027 C 
BRANCH  29  30
HETATM   30  C24 UNL     1       9.115  11.088  19.109  1.00  0.00     0.164 C 
BRANCH  30  31
HETATM   31  O1  UNL     1       9.983  12.159  19.438  1.00  0.00    -0.401 OA
HETATM   32  H42 UNL     1       9.568  12.649  20.168  1.00  0.00     0.209 HD
ENDBRANCH  30  31
ENDBRANCH  29  30
ENDBRANCH  28  29
ENDBRANCH  13  28
TORSDOF 8
ENDMDL
MODEL 5
REMARK minimizedAffinity -8.1619978
REMARK CNNscore 0.292680532
REMARK CNNaffinity 6.58693457
REMARK  8 active torsions:
REMARK  status: ('A' for Active; 'I' for Inactive)
REMARK    1  A    between atoms: C4_4  and  C5_5 
REMARK    2  A    between atoms: C5_5  and  C6_6 
REMARK    3  A    between atoms: C6_6  and  C7_7 
REMARK    4  A    between atoms: C7_7  and  C9_9 
REMARK    5  A    between atoms: C21_21  and  C22_22 
REMARK    6  A    between atoms: C22_22  and  C23_23 
REMARK    7  A    between atoms: C23_23  and  C24_24 
REMARK    8  A    between atoms: C24_24  and  O1_25 
ROOT
HETATM    1  C9  UNL     1      -1.695   7.438  12.654  1.00  0.00    -0.002 C 
HETATM    2  C10 UNL     1      -1.938   5.902  12.488  1.00  0.00     0.006 C 
HETATM    3  C11 UNL     1      -0.585   5.251  12.126  1.00  0.00     0.011 C 
HETATM    4  C12 UNL     1       0.323   6.434  11.740  1.00  0.00    -0.032 C 
HETATM    5  C13 UNL     1      -0.070   6.775  10.269  1.00  0.00     0.016 C 
HETATM    6  C14 UNL     1       1.859   6.180  11.890  1.00  0.00     0.003 C 
HETATM    7  C15 UNL     1       2.434   5.018  11.049  1.00  0.00     0.010 C 
HETATM    8  C16 UNL     1       2.816   5.335   9.600  1.00  0.00     0.035 C 
HETATM    9  C17 UNL     1       3.094   6.811   9.352  1.00  0.00    -0.073 C 
HETATM   10  C18 UNL     1       2.740   7.395   8.175  1.00  0.00    -0.085 C 
HETATM   11  C19 UNL     1       2.769   8.869   7.865  1.00  0.00     0.043 C 
HETATM   12  C20 UNL     1       2.234   6.600   6.987  1.00  0.00     0.043 C 
HETATM   13  C21 UNL     1       3.773   7.421  10.590  1.00  0.00     0.023 C 
HETATM   14  C25 UNL     1       2.744   7.504  11.808  1.00  0.00    -0.032 C 
HETATM   15  C26 UNL     1       3.601   7.592  13.107  1.00  0.00     0.016 C 
HETATM   16  C27 UNL     1       1.884   8.799  11.728  1.00  0.00     0.011 C 
HETATM   17  C28 UNL     1       0.539   8.857  12.487  1.00  0.00     0.011 C 
HETATM   18  C29 UNL     1      -0.135   7.507  12.802  1.00  0.00    -0.032 C 
HETATM   19  C30 UNL     1       0.188   7.134  14.285  1.00  0.00     0.016 C 
ENDROOT
BRANCH   1  20
HETATM   20  C7  UNL     1      -2.622   8.063  13.744  1.00  0.00    -0.014 C 
HETATM   21  C8  UNL     1      -2.765   7.092  14.931  1.00  0.00     0.010 C 
BRANCH  20  22
HETATM   22  C6  UNL     1      -4.018   8.424  13.183  1.00  0.00     0.008 C 
BRANCH  22  23
HETATM   23  C5  UNL     1      -5.219   7.794  13.906  1.00  0.00     0.028 C 
BRANCH  23  24
HETATM   24  C4  UNL     1      -5.575   6.437  13.362  1.00  0.00    -0.025 C 
HETATM   25  C2  UNL     1      -6.773   5.820  13.369  1.00  0.00    -0.091 C 
HETATM   26  C1  UNL     1      -8.041   6.375  13.957  1.00  0.00     0.042 C 
HETATM   27  C3  UNL     1      -6.930   4.453  12.753  1.00  0.00     0.042 C 
ENDBRANCH  23  24
ENDBRANCH  22  23
ENDBRANCH  20  22
ENDBRANCH   1  20
BRANCH  13  28
HETATM   28  C22 UNL     1       4.664   8.680  10.390  1.00  0.00     0.012 C 
BRANCH  28  29
HETATM   29  C23 UNL     1       6.169   8.469  10.641  1.00  0.00     0.027 C 
BRANCH  29  30
HETATM   30  C24 UNL     1       6.546   7.027  10.975  1.00  0.00     0.164 C 
BRANCH  30  31
HETATM   31  O1  UNL     1       7.808   6.964  11.619  1.00  0.00    -0.401 OA
HETATM   32  H42 UNL     1       7.954   6.036  11.868  1.00  0.00     0.209 HD
ENDBRANCH  30  31
ENDBRANCH  29  30
ENDBRANCH  28  29
ENDBRANCH  13  28
TORSDOF 8
ENDMDL
MODEL 6
REMARK minimizedAffinity -6.10351419
REMARK CNNscore 0.281966478
REMARK CNNaffinity 6.12377787
REMARK  8 active torsions:
REMARK  status: ('A' for Active; 'I' for Inactive)
REMARK    1  A    between atoms: C4_4  and  C5_5 
REMARK    2  A    between atoms: C5_5  and  C6_6 
REMARK    3  A    between atoms: C6_6  and  C7_7 
REMARK    4  A    between atoms: C7_7  and  C9_9 
REMARK    5  A    between atoms: C21_21  and  C22_22 
REMARK    6  A    between atoms: C22_22  and  C23_23 
REMARK    7  A    between atoms: C23_23  and  C24_24 
REMARK    8  A    between atoms: C24_24  and  O1_25 
ROOT
HETATM    1  C9  UNL     1      -1.359   7.871  13.946  1.00  0.00    -0.002 C 
HETATM    2  C10 UNL     1      -1.962   6.809  14.923  1.00  0.00     0.006 C 
HETATM    3  C11 UNL     1      -2.650   7.571  16.076  1.00  0.00     0.011 C 
HETATM    4  C12 UNL     1      -2.134   9.017  15.946  1.00  0.00    -0.032 C 
HETATM    5  C13 UNL     1      -0.723   8.998  16.610  1.00  0.00     0.016 C 
HETATM    6  C14 UNL     1      -3.056  10.118  16.566  1.00  0.00     0.003 C 
HETATM    7  C15 UNL     1      -3.335   9.987  18.081  1.00  0.00     0.010 C 
HETATM    8  C16 UNL     1      -2.292  10.587  19.030  1.00  0.00     0.035 C 
HETATM    9  C17 UNL     1      -1.440  11.674  18.391  1.00  0.00    -0.073 C 
HETATM   10  C18 UNL     1      -0.124  11.803  18.716  1.00  0.00    -0.085 C 
HETATM   11  C19 UNL     1       0.881  12.691  18.029  1.00  0.00     0.043 C 
HETATM   12  C20 UNL     1       0.521  11.023  19.845  1.00  0.00     0.043 C 
HETATM   13  C21 UNL     1      -2.297  12.487  17.406  1.00  0.00     0.023 C 
HETATM   14  C25 UNL     1      -2.672  11.603  16.131  1.00  0.00    -0.032 C 
HETATM   15  C26 UNL     1      -3.933  12.259  15.492  1.00  0.00     0.016 C 
HETATM   16  C27 UNL     1      -1.535  11.643  15.067  1.00  0.00     0.011 C 
HETATM   17  C28 UNL     1      -1.456  10.520  14.008  1.00  0.00     0.011 C 
HETATM   18  C29 UNL     1      -2.114   9.176  14.376  1.00  0.00    -0.032 C 
HETATM   19  C30 UNL     1      -3.522   9.119  13.698  1.00  0.00     0.016 C 
ENDROOT
BRANCH   1  20
HETATM   20  C7  UNL     1      -1.394   7.389  12.461  1.00  0.00    -0.014 C 
HETATM   21  C8  UNL     1      -1.640   5.870  12.409  1.00  0.00     0.010 C 
BRANCH  20  22
HETATM   22  C6  UNL     1      -0.091   7.743  11.704  1.00  0.00     0.008 C 
BRANCH  22  23
HETATM   23  C5  UNL     1       0.217   6.895  10.460  1.00  0.00     0.028 C 
BRANCH  23  24
HETATM   24  C4  UNL     1       0.926   7.677   9.388  1.00  0.00    -0.025 C 
HETATM   25  C2  UNL     1       2.189   7.531   8.942  1.00  0.00    -0.091 C 
HETATM   26  C1  UNL     1       3.188   6.530   9.451  1.00  0.00     0.042 C 
HETATM   27  C3  UNL     1       2.714   8.413   7.837  1.00  0.00     0.042 C 
ENDBRANCH  23  24
ENDBRANCH  22  23
ENDBRANCH  20  22
ENDBRANCH   1  20
BRANCH  13  28
HETATM   28  C22 UNL     1      -1.865  13.948  17.095  1.00  0.00     0.012 C 
BRANCH  28  29
HETATM   29  C23 UNL     1      -2.733  15.044  17.743  1.00  0.00     0.027 C 
BRANCH  29  30
HETATM   30  C24 UNL     1      -2.683  16.385  17.014  1.00  0.00     0.164 C 
BRANCH  30  31
HETATM   31  O1  UNL     1      -3.036  17.451  17.880  1.00  0.00    -0.401 OA
HETATM   32  H42 UNL     1      -2.914  18.276  17.381  1.00  0.00     0.209 HD
ENDBRANCH  30  31
ENDBRANCH  29  30
ENDBRANCH  28  29
ENDBRANCH  13  28
TORSDOF 8
ENDMDL
MODEL 7
REMARK minimizedAffinity -6.67864656
REMARK CNNscore 0.256832629
REMARK CNNaffinity 6.53577185
REMARK  8 active torsions:
REMARK  status: ('A' for Active; 'I' for Inactive)
REMARK    1  A    between atoms: C4_4  and  C5_5 
REMARK    2  A    between atoms: C5_5  and  C6_6 
REMARK    3  A    between atoms: C6_6  and  C7_7 
REMARK    4  A    between atoms: C7_7  and  C9_9 
REMARK    5  A    between atoms: C21_21  and  C22_22 
REMARK    6  A    between atoms: C22_22  and  C23_23 
REMARK    7  A    between atoms: C23_23  and  C24_24 
REMARK    8  A    between atoms: C24_24  and  O1_25 
ROOT
HETATM    1  C9  UNL     1      -8.770   5.933  14.733  1.00  0.00    -0.002 C 
HETATM    2  C10 UNL     1      -9.153   5.888  13.217  1.00  0.00     0.006 C 
HETATM    3  C11 UNL     1      -9.946   7.174  12.897  1.00  0.00     0.011 C 
HETATM    4  C12 UNL     1     -10.316   7.754  14.276  1.00  0.00    -0.032 C 
HETATM    5  C13 UNL     1     -11.559   6.930  14.735  1.00  0.00     0.016 C 
HETATM    6  C14 UNL     1     -10.593   9.294  14.305  1.00  0.00     0.003 C 
HETATM    7  C15 UNL     1     -11.748   9.787  13.404  1.00  0.00     0.010 C 
HETATM    8  C16 UNL     1     -13.162   9.708  13.987  1.00  0.00     0.035 C 
HETATM    9  C17 UNL     1     -13.194   9.683  15.508  1.00  0.00    -0.073 C 
HETATM   10  C18 UNL     1     -14.122   8.939  16.170  1.00  0.00    -0.085 C 
HETATM   11  C19 UNL     1     -14.152   8.661  17.651  1.00  0.00     0.043 C 
HETATM   12  C20 UNL     1     -15.277   8.256  15.465  1.00  0.00     0.043 C 
HETATM   13  C21 UNL     1     -12.067  10.573  16.060  1.00  0.00     0.023 C 
HETATM   14  C25 UNL     1     -10.642   9.913  15.773  1.00  0.00    -0.032 C 
HETATM   15  C26 UNL     1      -9.596  11.067  15.844  1.00  0.00     0.016 C 
HETATM   16  C27 UNL     1     -10.271   8.879  16.876  1.00  0.00     0.011 C 
HETATM   17  C28 UNL     1      -9.211   7.798  16.567  1.00  0.00     0.011 C 
HETATM   18  C29 UNL     1      -8.995   7.446  15.082  1.00  0.00    -0.032 C 
HETATM   19  C30 UNL     1      -7.730   8.212  14.576  1.00  0.00     0.016 C 
ENDROOT
BRANCH   1  20
HETATM   20  C7  UNL     1      -7.392   5.254  15.011  1.00  0.00    -0.014 C 
HETATM   21  C8  UNL     1      -6.776   5.826  16.301  1.00  0.00     0.010 C 
BRANCH  20  22
HETATM   22  C6  UNL     1      -6.409   5.432  13.829  1.00  0.00     0.008 C 
BRANCH  22  23
HETATM   23  C5  UNL     1      -6.400   4.305  12.784  1.00  0.00     0.028 C 
BRANCH  23  24
HETATM   24  C4  UNL     1      -5.017   3.773  12.518  1.00  0.00    -0.025 C 
HETATM   25  C2  UNL     1      -4.665   2.638  11.883  1.00  0.00    -0.091 C 
HETATM   26  C1  UNL     1      -5.614   1.628  11.302  1.00  0.00     0.042 C 
HETATM   27  C3  UNL     1      -3.209   2.286  11.703  1.00  0.00     0.042 C 
ENDBRANCH  23  24
ENDBRANCH  22  23
ENDBRANCH  20  22
ENDBRANCH   1  20
BRANCH  13  28
HETATM   28  C22 UNL     1     -12.242  11.176  17.483  1.00  0.00     0.012 C 
BRANCH  28  29
HETATM   29  C23 UNL     1     -11.570  10.384  18.622  1.00  0.00     0.027 C 
BRANCH  29  30
HETATM   30  C24 UNL     1     -11.108  11.252  19.790  1.00  0.00     0.164 C 
BRANCH  30  31
HETATM   31  O1  UNL     1     -10.817  10.461  20.931  1.00  0.00    -0.401 OA
HETATM   32  H42 UNL     1     -10.461  11.059  21.609  1.00  0.00     0.209 HD
ENDBRANCH  30  31
ENDBRANCH  29  30
ENDBRANCH  28  29
ENDBRANCH  13  28
TORSDOF 8
ENDMDL
MODEL 8
REMARK minimizedAffinity -6.90910959
REMARK CNNscore 0.24914521
REMARK CNNaffinity 6.19941282
REMARK  8 active torsions:
REMARK  status: ('A' for Active; 'I' for Inactive)
REMARK    1  A    between atoms: C4_4  and  C5_5 
REMARK    2  A    between atoms: C5_5  and  C6_6 
REMARK    3  A    between atoms: C6_6  and  C7_7 
REMARK    4  A    between atoms: C7_7  and  C9_9 
REMARK    5  A    between atoms: C21_21  and  C22_22 
REMARK    6  A    between atoms: C22_22  and  C23_23 
REMARK    7  A    between atoms: C23_23  and  C24_24 
REMARK    8  A    between atoms: C24_24  and  O1_25 
ROOT
HETATM    1  C9  UNL     1      -1.568   7.616  12.706  1.00  0.00    -0.002 C 
HETATM    2  C10 UNL     1      -1.896   6.098  12.521  1.00  0.00     0.006 C 
HETATM    3  C11 UNL     1      -0.589   5.384  12.114  1.00  0.00     0.011 C 
HETATM    4  C12 UNL     1       0.371   6.524  11.724  1.00  0.00    -0.032 C 
HETATM    5  C13 UNL     1      -0.040   6.911  10.270  1.00  0.00     0.016 C 
HETATM    6  C14 UNL     1       1.894   6.187  11.831  1.00  0.00     0.003 C 
HETATM    7  C15 UNL     1       2.386   5.011  10.957  1.00  0.00     0.010 C 
HETATM    8  C16 UNL     1       2.748   5.333   9.504  1.00  0.00     0.035 C 
HETATM    9  C17 UNL     1       3.098   6.796   9.273  1.00  0.00    -0.073 C 
HETATM   10  C18 UNL     1       2.746   7.418   8.114  1.00  0.00    -0.085 C 
HETATM   11  C19 UNL     1       2.846   8.894   7.827  1.00  0.00     0.043 C 
HETATM   12  C20 UNL     1       2.170   6.671   6.927  1.00  0.00     0.043 C 
HETATM   13  C21 UNL     1       3.839   7.348  10.502  1.00  0.00     0.023 C 
HETATM   14  C25 UNL     1       2.845   7.464  11.747  1.00  0.00    -0.032 C 
HETATM   15  C26 UNL     1       3.738   7.484  13.026  1.00  0.00     0.016 C 
HETATM   16  C27 UNL     1       2.054   8.804  11.710  1.00  0.00     0.011 C 
HETATM   17  C28 UNL     1       0.733   8.919  12.504  1.00  0.00     0.011 C 
HETATM   18  C29 UNL     1      -0.004   7.601  12.815  1.00  0.00    -0.032 C 
HETATM   19  C30 UNL     1       0.336   7.186  14.283  1.00  0.00     0.016 C 
ENDROOT
BRANCH   1  20
HETATM   20  C7  UNL     1      -2.433   8.271  13.829  1.00  0.00    -0.014 C 
HETATM   21  C8  UNL     1      -3.916   7.907  13.628  1.00  0.00     0.010 C 
BRANCH  20  22
HETATM   22  C6  UNL     1      -2.265   9.808  13.871  1.00  0.00     0.008 C 
BRANCH  22  23
HETATM   23  C5  UNL     1      -1.513  10.372  15.088  1.00  0.00     0.028 C 
BRANCH  23  24
HETATM   24  C4  UNL     1      -2.156   9.987  16.394  1.00  0.00    -0.025 C 
HETATM   25  C2  UNL     1      -2.201  10.689  17.543  1.00  0.00    -0.091 C 
HETATM   26  C1  UNL     1      -1.585  12.042  17.769  1.00  0.00     0.042 C 
HETATM   27  C3  UNL     1      -2.915  10.132  18.749  1.00  0.00     0.042 C 
ENDBRANCH  23  24
ENDBRANCH  22  23
ENDBRANCH  20  22
ENDBRANCH   1  20
BRANCH  13  28
HETATM   28  C22 UNL     1       4.789   8.561  10.299  1.00  0.00     0.012 C 
BRANCH  28  29
HETATM   29  C23 UNL     1       6.237   8.354  10.787  1.00  0.00     0.027 C 
BRANCH  29  30
HETATM   30  C24 UNL     1       6.850   9.587  11.447  1.00  0.00     0.164 C 
BRANCH  30  31
HETATM   31  O1  UNL     1       6.130   9.956  12.611  1.00  0.00    -0.401 OA
HETATM   32  H42 UNL     1       6.610  10.695  13.021  1.00  0.00     0.209 HD
ENDBRANCH  30  31
ENDBRANCH  29  30
ENDBRANCH  28  29
ENDBRANCH  13  28
TORSDOF 8
ENDMDL
MODEL 9
REMARK minimizedAffinity -6.77961874
REMARK CNNscore 0.241179436
REMARK CNNaffinity 6.16648674
REMARK  8 active torsions:
REMARK  status: ('A' for Active; 'I' for Inactive)
REMARK    1  A    between atoms: C4_4  and  C5_5 
REMARK    2  A    between atoms: C5_5  and  C6_6 
REMARK    3  A    between atoms: C6_6  and  C7_7 
REMARK    4  A    between atoms: C7_7  and  C9_9 
REMARK    5  A    between atoms: C21_21  and  C22_22 
REMARK    6  A    between atoms: C22_22  and  C23_23 
REMARK    7  A    between atoms: C23_23  and  C24_24 
REMARK    8  A    between atoms: C24_24  and  O1_25 
ROOT
HETATM    1  C9  UNL     1       0.749  10.141  17.397  1.00  0.00    -0.002 C 
HETATM    2  C10 UNL     1       1.651  10.660  16.230  1.00  0.00     0.006 C 
HETATM    3  C11 UNL     1       0.811  10.614  14.935  1.00  0.00     0.011 C 
HETATM    4  C12 UNL     1      -0.412   9.749  15.296  1.00  0.00    -0.032 C 
HETATM    5  C13 UNL     1       0.095   8.278  15.190  1.00  0.00     0.016 C 
HETATM    6  C14 UNL     1      -1.688   9.992  14.425  1.00  0.00     0.003 C 
HETATM    7  C15 UNL     1      -1.526   9.740  12.909  1.00  0.00     0.010 C 
HETATM    8  C16 UNL     1      -1.696   8.296  12.426  1.00  0.00     0.035 C 
HETATM    9  C17 UNL     1      -2.517   7.430  13.371  1.00  0.00    -0.073 C 
HETATM   10  C18 UNL     1      -2.209   6.116  13.551  1.00  0.00    -0.085 C 
HETATM   11  C19 UNL     1      -2.798   5.196  14.589  1.00  0.00     0.043 C 
HETATM   12  C20 UNL     1      -1.179   5.394  12.705  1.00  0.00     0.043 C 
HETATM   13  C21 UNL     1      -3.632   8.278  14.006  1.00  0.00     0.023 C 
HETATM   14  C25 UNL     1      -3.013   9.340  15.025  1.00  0.00    -0.032 C 
HETATM   15  C26 UNL     1      -4.076  10.470  15.186  1.00  0.00     0.016 C 
HETATM   16  C27 UNL     1      -2.790   8.706  16.430  1.00  0.00     0.011 C 
HETATM   17  C28 UNL     1      -1.788   9.368  17.402  1.00  0.00     0.011 C 
HETATM   18  C29 UNL     1      -0.685  10.240  16.771  1.00  0.00    -0.032 C 
HETATM   19  C30 UNL     1      -1.119  11.737  16.889  1.00  0.00     0.016 C 
ENDROOT
BRANCH   1  20
HETATM   20  C7  UNL     1       1.073  10.852  18.749  1.00  0.00    -0.014 C 
HETATM   21  C8  UNL     1       0.167  12.085  18.923  1.00  0.00     0.010 C 
BRANCH  20  22
HETATM   22  C6  UNL     1       2.560  11.269  18.845  1.00  0.00     0.008 C 
BRANCH  22  23
HETATM   23  C5  UNL     1       3.257  10.981  20.185  1.00  0.00     0.028 C 
BRANCH  23  24
HETATM   24  C4  UNL     1       2.619   9.843  20.936  1.00  0.00    -0.025 C 
HETATM   25  C2  UNL     1       2.948   9.351  22.146  1.00  0.00    -0.091 C 
HETATM   26  C1  UNL     1       4.068   9.845  23.018  1.00  0.00     0.042 C 
HETATM   27  C3  UNL     1       2.169   8.204  22.739  1.00  0.00     0.042 C 
ENDBRANCH  23  24
ENDBRANCH  22  23
ENDBRANCH  20  22
ENDBRANCH   1  20
BRANCH  13  28
HETATM   28  C22 UNL     1      -4.910   7.547  14.507  1.00  0.00     0.012 C 
BRANCH  28  29
HETATM   29  C23 UNL     1      -5.836   7.005  13.401  1.00  0.00     0.027 C 
BRANCH  29  30
HETATM   30  C24 UNL     1      -6.752   5.872  13.860  1.00  0.00     0.164 C 
BRANCH  30  31
HETATM   31  O1  UNL     1      -8.088   6.093  13.439  1.00  0.00    -0.401 OA
HETATM   32  H42 UNL     1      -8.601   5.308  13.697  1.00  0.00     0.209 HD
ENDBRANCH  30  31
ENDBRANCH  29  30
ENDBRANCH  28  29
ENDBRANCH  13  28
TORSDOF 8
ENDMDL
