MODEL 1
REMARK minimizedAffinity -7.80082655
REMARK  11 active torsions:
REMARK  status: ('A' for Active; 'I' for Inactive)
REMARK    1  A    between atoms: C7_8  and  C8_9 
REMARK    2  A    between atoms: C8_9  and  C10_11 
REMARK    3  A    between atoms: C10_11  and  O2_12 
REMARK    4  A    between atoms: C16_18  and  O3_20 
REMARK    5  A    between atoms: O3_20  and  C18_21 
REMARK    6  A    between atoms: C18_21  and  C19_23 
REMARK    7  A    between atoms: C19_23  and  C20_24 
REMARK    8  A    between atoms: C19_23  and  O5_26 
REMARK    9  A    between atoms: O5_26  and  C22_27 
REMARK   10  A    between atoms: C22_27  and  C23_29 
REMARK   11  A    between atoms: C23_29  and  C24_30 
ROOT
HETATM    1  C1  UNL     1      -1.194  10.343  18.384  1.00  0.00     0.022 C 
HETATM    2  C2  UNL     1      -1.222   9.810  17.150  1.00  0.00    -0.019 C 
HETATM    3  C3  UNL     1      -2.482   9.302  16.486  1.00  0.00     0.074 C 
HETATM    4  C4  UNL     1      -2.459   7.798  16.174  1.00  0.00     0.135 C 
HETATM    5  O1  UNL     1      -1.139   7.466  15.711  1.00  0.00    -0.376 OA
HETATM    6  C5  UNL     1      -1.168   6.944  14.383  1.00  0.00     0.162 C 
HETATM    7  C6  UNL     1      -2.547   6.280  14.306  1.00  0.00     0.033 C 
HETATM    8  C7  UNL     1      -3.052   5.787  12.933  1.00  0.00    -0.001 C 
HETATM    9  C11 UNL     1      -4.584   5.800  12.948  1.00  0.00     0.010 C 
HETATM   10  C12 UNL     1      -5.103   7.223  13.162  1.00  0.00     0.034 C 
HETATM   11  C13 UNL     1      -4.538   7.921  14.387  1.00  0.00    -0.082 C 
HETATM   12  C14 UNL     1      -5.115   9.090  14.727  1.00  0.00     0.015 C 
HETATM   13  C15 UNL     1      -3.475   7.168  15.172  1.00  0.00     0.050 C 
HETATM   14  C16 UNL     1      -0.663   8.039  13.378  1.00  0.00     0.094 C 
HETATM   15  C17 UNL     1      -1.745   8.983  12.824  1.00  0.00     0.049 C 
HETATM   16  C26 UNL     1       0.496   8.916  13.983  1.00  0.00     0.048 C 
HETATM   17  C27 UNL     1       0.120  10.076  14.923  1.00  0.00     0.086 C 
HETATM   18  C28 UNL     1       0.093   9.729  16.409  1.00  0.00     0.155 C 
HETATM   19  O7  UNL     1       1.130   9.458  17.014  1.00  0.00    -0.293 OA
ENDROOT
BRANCH  14  20
HETATM   20  O3  UNL     1      -0.174   7.403  12.139  1.00  0.00    -0.306 OA
BRANCH  20  21
HETATM   21  C18 UNL     1       0.913   6.580  12.131  1.00  0.00     0.289 C 
HETATM   22  O4  UNL     1       1.147   5.702  12.949  1.00  0.00    -0.262 OA
BRANCH  21  23
HETATM   23  C19 UNL     1       1.827   6.936  10.954  1.00  0.00     0.231 C 
BRANCH  23  24
HETATM   24  C20 UNL     1       3.277   7.037  11.442  1.00  0.00     0.038 C 
HETATM   25  C21 UNL     1       3.649   8.460  11.837  1.00  0.00     0.008 C 
ENDBRANCH  23  24
BRANCH  23  26
HETATM   26  O5  UNL     1       1.777   5.906   9.952  1.00  0.00    -0.306 OA
BRANCH  26  27
HETATM   27  C22 UNL     1       2.845   5.887   9.106  1.00  0.00     0.259 C 
HETATM   28  O6  UNL     1       3.969   5.524   9.417  1.00  0.00    -0.265 OA
BRANCH  27  29
HETATM   29  C23 UNL     1       2.411   6.353   7.738  1.00  0.00     0.111 C 
BRANCH  29  30
HETATM   30  C24 UNL     1       2.070   7.842   7.687  1.00  0.00     0.005 C 
HETATM   31  C25 UNL     1       3.250   8.726   8.068  1.00  0.00     0.005 C 
ENDBRANCH  29  30
ENDBRANCH  27  29
ENDBRANCH  26  27
ENDBRANCH  23  26
ENDBRANCH  21  23
ENDBRANCH  20  21
ENDBRANCH  14  20
BRANCH   8  32
HETATM   32  C8  UNL     1      -2.414   4.415  12.543  1.00  0.00     0.010 C 
HETATM   33  C9  UNL     1      -3.390   3.233  12.622  1.00  0.00     0.012 C 
BRANCH  32  34
HETATM   34  C10 UNL     1      -1.743   4.449  11.157  1.00  0.00     0.168 C 
BRANCH  34  35
HETATM   35  O2  UNL     1      -0.468   3.823  11.168  1.00  0.00    -0.400 OA
HETATM   36  H15 UNL     1      -0.097   3.915  10.272  1.00  0.00     0.209 HD
ENDBRANCH  34  35
ENDBRANCH  32  34
ENDBRANCH   8  32
TORSDOF 11
ENDMDL
MODEL 2
REMARK minimizedAffinity -7.60448027
REMARK  11 active torsions:
REMARK  status: ('A' for Active; 'I' for Inactive)
REMARK    1  A    between atoms: C7_8  and  C8_9 
REMARK    2  A    between atoms: C8_9  and  C10_11 
REMARK    3  A    between atoms: C10_11  and  O2_12 
REMARK    4  A    between atoms: C16_18  and  O3_20 
REMARK    5  A    between atoms: O3_20  and  C18_21 
REMARK    6  A    between atoms: C18_21  and  C19_23 
REMARK    7  A    between atoms: C19_23  and  C20_24 
REMARK    8  A    between atoms: C19_23  and  O5_26 
REMARK    9  A    between atoms: O5_26  and  C22_27 
REMARK   10  A    between atoms: C22_27  and  C23_29 
REMARK   11  A    between atoms: C23_29  and  C24_30 
ROOT
HETATM    1  C1  UNL     1      -1.226  10.389  18.132  1.00  0.00     0.022 C 
HETATM    2  C2  UNL     1      -1.350   9.810  16.925  1.00  0.00    -0.019 C 
HETATM    3  C3  UNL     1      -2.651   9.247  16.397  1.00  0.00     0.074 C 
HETATM    4  C4  UNL     1      -2.615   7.733  16.138  1.00  0.00     0.135 C 
HETATM    5  O1  UNL     1      -1.333   7.415  15.570  1.00  0.00    -0.376 OA
HETATM    6  C5  UNL     1      -1.467   6.843  14.269  1.00  0.00     0.162 C 
HETATM    7  C6  UNL     1      -2.829   6.144  14.341  1.00  0.00     0.033 C 
HETATM    8  C7  UNL     1      -3.442   5.588  13.038  1.00  0.00    -0.001 C 
HETATM    9  C11 UNL     1      -4.966   5.565  13.191  1.00  0.00     0.010 C 
HETATM   10  C12 UNL     1      -5.502   6.982  13.400  1.00  0.00     0.034 C 
HETATM   11  C13 UNL     1      -4.849   7.739  14.543  1.00  0.00    -0.082 C 
HETATM   12  C14 UNL     1      -5.424   8.906  14.893  1.00  0.00     0.015 C 
HETATM   13  C15 UNL     1      -3.699   7.042  15.256  1.00  0.00     0.050 C 
HETATM   14  C16 UNL     1      -1.084   7.911  13.183  1.00  0.00     0.094 C 
HETATM   15  C17 UNL     1      -2.236   8.807  12.697  1.00  0.00     0.049 C 
HETATM   16  C26 UNL     1       0.100   8.837  13.650  1.00  0.00     0.048 C 
HETATM   17  C27 UNL     1      -0.221  10.022  14.578  1.00  0.00     0.086 C 
HETATM   18  C28 UNL     1      -0.105   9.732  16.071  1.00  0.00     0.155 C 
HETATM   19  O7  UNL     1       0.989   9.509  16.590  1.00  0.00    -0.293 OA
ENDROOT
BRANCH  14  20
HETATM   20  O3  UNL     1      -0.692   7.240  11.929  1.00  0.00    -0.306 OA
BRANCH  20  21
HETATM   21  C18 UNL     1       0.567   6.755  11.734  1.00  0.00     0.289 C 
HETATM   22  O4  UNL     1       1.150   5.970  12.468  1.00  0.00    -0.262 OA
BRANCH  21  23
HETATM   23  C19 UNL     1       1.169   7.364  10.462  1.00  0.00     0.231 C 
BRANCH  23  24
HETATM   24  C20 UNL     1       0.224   8.437   9.910  1.00  0.00     0.038 C 
HETATM   25  C21 UNL     1       0.008   8.292   8.409  1.00  0.00     0.008 C 
ENDBRANCH  23  24
BRANCH  23  26
HETATM   26  O5  UNL     1       2.424   8.000  10.757  1.00  0.00    -0.306 OA
BRANCH  26  27
HETATM   27  C22 UNL     1       3.426   7.709   9.880  1.00  0.00     0.259 C 
HETATM   28  O6  UNL     1       3.705   8.383   8.900  1.00  0.00    -0.265 OA
BRANCH  27  29
HETATM   29  C23 UNL     1       4.136   6.456  10.325  1.00  0.00     0.111 C 
BRANCH  29  30
HETATM   30  C24 UNL     1       5.171   6.704  11.422  1.00  0.00     0.005 C 
HETATM   31  C25 UNL     1       6.469   7.287  10.881  1.00  0.00     0.005 C 
ENDBRANCH  29  30
ENDBRANCH  27  29
ENDBRANCH  26  27
ENDBRANCH  23  26
ENDBRANCH  21  23
ENDBRANCH  20  21
ENDBRANCH  14  20
BRANCH   8  32
HETATM   32  C8  UNL     1      -2.805   4.217  12.641  1.00  0.00     0.010 C 
HETATM   33  C9  UNL     1      -3.803   3.052  12.623  1.00  0.00     0.012 C 
BRANCH  32  34
HETATM   34  C10 UNL     1      -2.051   4.283  11.298  1.00  0.00     0.168 C 
BRANCH  34  35
HETATM   35  O2  UNL     1      -2.791   3.688  10.243  1.00  0.00    -0.400 OA
HETATM   36  H15 UNL     1      -2.239   3.739   9.443  1.00  0.00     0.209 HD
ENDBRANCH  34  35
ENDBRANCH  32  34
ENDBRANCH   8  32
TORSDOF 11
ENDMDL
MODEL 3
REMARK minimizedAffinity -7.37055731
REMARK  11 active torsions:
REMARK  status: ('A' for Active; 'I' for Inactive)
REMARK    1  A    between atoms: C7_8  and  C8_9 
REMARK    2  A    between atoms: C8_9  and  C10_11 
REMARK    3  A    between atoms: C10_11  and  O2_12 
REMARK    4  A    between atoms: C16_18  and  O3_20 
REMARK    5  A    between atoms: O3_20  and  C18_21 
REMARK    6  A    between atoms: C18_21  and  C19_23 
REMARK    7  A    between atoms: C19_23  and  C20_24 
REMARK    8  A    between atoms: C19_23  and  O5_26 
REMARK    9  A    between atoms: O5_26  and  C22_27 
REMARK   10  A    between atoms: C22_27  and  C23_29 
REMARK   11  A    between atoms: C23_29  and  C24_30 
ROOT
HETATM    1  C1  UNL     1       2.022   6.980   6.743  1.00  0.00     0.022 C 
HETATM    2  C2  UNL     1       2.158   7.192   8.064  1.00  0.00    -0.019 C 
HETATM    3  C3  UNL     1       1.342   6.475   9.116  1.00  0.00     0.074 C 
HETATM    4  C4  UNL     1       0.454   7.405   9.956  1.00  0.00     0.135 C 
HETATM    5  O1  UNL     1       1.200   8.604  10.223  1.00  0.00    -0.376 OA
HETATM    6  C5  UNL     1       1.383   8.802  11.624  1.00  0.00     0.162 C 
HETATM    7  C6  UNL     1       0.143   8.136  12.229  1.00  0.00     0.033 C 
HETATM    8  C7  UNL     1       0.083   7.942  13.760  1.00  0.00    -0.001 C 
HETATM    9  C11 UNL     1      -0.821   6.741  14.061  1.00  0.00     0.010 C 
HETATM   10  C12 UNL     1      -0.238   5.469  13.444  1.00  0.00     0.034 C 
HETATM   11  C13 UNL     1       0.060   5.569  11.958  1.00  0.00    -0.082 C 
HETATM   12  C14 UNL     1       0.379   4.420  11.333  1.00  0.00     0.015 C 
HETATM   13  C15 UNL     1      -0.160   6.928  11.308  1.00  0.00     0.050 C 
HETATM   14  C16 UNL     1       2.858   8.436  12.019  1.00  0.00     0.094 C 
HETATM   15  C17 UNL     1       3.100   6.963  12.391  1.00  0.00     0.049 C 
HETATM   16  C26 UNL     1       3.892   8.840  10.902  1.00  0.00     0.048 C 
HETATM   17  C27 UNL     1       4.071   7.899   9.697  1.00  0.00     0.086 C 
HETATM   18  C28 UNL     1       3.192   8.209   8.490  1.00  0.00     0.155 C 
HETATM   19  O7  UNL     1       3.364   9.233   7.828  1.00  0.00    -0.293 OA
ENDROOT
BRANCH  14  20
HETATM   20  O3  UNL     1       3.230   9.116  13.274  1.00  0.00    -0.306 OA
BRANCH  20  21
HETATM   21  C18 UNL     1       3.766   8.440  14.329  1.00  0.00     0.289 C 
HETATM   22  O4  UNL     1       3.160   7.672  15.063  1.00  0.00    -0.262 OA
BRANCH  21  23
HETATM   23  C19 UNL     1       5.246   8.805  14.486  1.00  0.00     0.231 C 
BRANCH  23  24
HETATM   24  C20 UNL     1       5.391  10.327  14.598  1.00  0.00     0.038 C 
HETATM   25  C21 UNL     1       6.051  10.931  13.366  1.00  0.00     0.008 C 
ENDBRANCH  23  24
BRANCH  23  26
HETATM   26  O5  UNL     1       5.779   8.228  15.690  1.00  0.00    -0.306 OA
BRANCH  26  27
HETATM   27  C22 UNL     1       7.122   8.393  15.851  1.00  0.00     0.259 C 
HETATM   28  O6  UNL     1       7.646   8.899  16.832  1.00  0.00    -0.265 OA
BRANCH  27  29
HETATM   29  C23 UNL     1       7.844   7.835  14.650  1.00  0.00     0.111 C 
BRANCH  29  30
HETATM   30  C24 UNL     1       9.001   8.714  14.176  1.00  0.00     0.005 C 
HETATM   31  C25 UNL     1      10.291   7.928  13.982  1.00  0.00     0.005 C 
ENDBRANCH  29  30
ENDBRANCH  27  29
ENDBRANCH  26  27
ENDBRANCH  23  26
ENDBRANCH  21  23
ENDBRANCH  20  21
ENDBRANCH  14  20
BRANCH   8  32
HETATM   32  C8  UNL     1      -0.319   9.262  14.493  1.00  0.00     0.010 C 
HETATM   33  C9  UNL     1       0.839  10.255  14.663  1.00  0.00     0.012 C 
BRANCH  32  34
HETATM   34  C10 UNL     1      -1.519   9.964  13.828  1.00  0.00     0.168 C 
BRANCH  34  35
HETATM   35  O2  UNL     1      -1.291  11.354  13.653  1.00  0.00    -0.400 OA
HETATM   36  H15 UNL     1      -2.101  11.729  13.262  1.00  0.00     0.209 HD
ENDBRANCH  34  35
ENDBRANCH  32  34
ENDBRANCH   8  32
TORSDOF 11
ENDMDL
MODEL 4
REMARK minimizedAffinity -7.24310064
REMARK  11 active torsions:
REMARK  status: ('A' for Active; 'I' for Inactive)
REMARK    1  A    between atoms: C7_8  and  C8_9 
REMARK    2  A    between atoms: C8_9  and  C10_11 
REMARK    3  A    between atoms: C10_11  and  O2_12 
REMARK    4  A    between atoms: C16_18  and  O3_20 
REMARK    5  A    between atoms: O3_20  and  C18_21 
REMARK    6  A    between atoms: C18_21  and  C19_23 
REMARK    7  A    between atoms: C19_23  and  C20_24 
REMARK    8  A    between atoms: C19_23  and  O5_26 
REMARK    9  A    between atoms: O5_26  and  C22_27 
REMARK   10  A    between atoms: C22_27  and  C23_29 
REMARK   11  A    between atoms: C23_29  and  C24_30 
ROOT
HETATM    1  C1  UNL     1      -1.606   2.140  10.366  1.00  0.00     0.022 C 
HETATM    2  C2  UNL     1      -1.915   3.236  11.080  1.00  0.00    -0.019 C 
HETATM    3  C3  UNL     1      -1.113   4.517  11.036  1.00  0.00     0.074 C 
HETATM    4  C4  UNL     1      -0.479   4.901  12.382  1.00  0.00     0.135 C 
HETATM    5  O1  UNL     1      -1.431   4.605  13.418  1.00  0.00    -0.376 OA
HETATM    6  C5  UNL     1      -1.792   5.780  14.144  1.00  0.00     0.162 C 
HETATM    7  C6  UNL     1      -0.535   6.648  14.039  1.00  0.00     0.033 C 
HETATM    8  C7  UNL     1      -0.609   8.114  14.516  1.00  0.00    -0.001 C 
HETATM    9  C11 UNL     1       0.437   8.928  13.747  1.00  0.00     0.010 C 
HETATM   10  C12 UNL     1       0.135   8.901  12.247  1.00  0.00     0.034 C 
HETATM   11  C13 UNL     1      -0.015   7.508  11.661  1.00  0.00    -0.082 C 
HETATM   12  C14 UNL     1      -0.078   7.429  10.317  1.00  0.00     0.015 C 
HETATM   13  C15 UNL     1       0.054   6.344  12.638  1.00  0.00     0.050 C 
HETATM   14  C16 UNL     1      -3.224   6.250  13.703  1.00  0.00     0.094 C 
HETATM   15  C17 UNL     1      -3.267   7.213  12.503  1.00  0.00     0.049 C 
HETATM   16  C26 UNL     1      -4.183   5.039  13.400  1.00  0.00     0.048 C 
HETATM   17  C27 UNL     1      -4.080   4.351  12.026  1.00  0.00     0.086 C 
HETATM   18  C28 UNL     1      -3.137   3.154  11.965  1.00  0.00     0.155 C 
HETATM   19  O7  UNL     1      -3.399   2.112  12.566  1.00  0.00    -0.293 OA
ENDROOT
BRANCH  14  20
HETATM   20  O3  UNL     1      -3.833   7.080  14.760  1.00  0.00    -0.306 OA
BRANCH  20  21
HETATM   21  C18 UNL     1      -4.911   7.878  14.520  1.00  0.00     0.289 C 
HETATM   22  O4  UNL     1      -4.867   9.060  14.210  1.00  0.00    -0.262 OA
BRANCH  21  23
HETATM   23  C19 UNL     1      -6.205   7.082  14.724  1.00  0.00     0.231 C 
BRANCH  23  24
HETATM   24  C20 UNL     1      -7.145   7.860  15.652  1.00  0.00     0.038 C 
HETATM   25  C21 UNL     1      -7.599   7.022  16.841  1.00  0.00     0.008 C 
ENDBRANCH  23  24
BRANCH  23  26
HETATM   26  O5  UNL     1      -6.884   6.900  13.470  1.00  0.00    -0.306 OA
BRANCH  26  27
HETATM   27  C22 UNL     1      -7.976   6.087  13.531  1.00  0.00     0.259 C 
HETATM   28  O6  UNL     1      -9.129   6.462  13.378  1.00  0.00    -0.265 OA
BRANCH  27  29
HETATM   29  C23 UNL     1      -7.533   4.668  13.788  1.00  0.00     0.111 C 
BRANCH  29  30
HETATM   30  C24 UNL     1      -7.804   3.728  12.614  1.00  0.00     0.005 C 
HETATM   31  C25 UNL     1      -7.411   2.288  12.916  1.00  0.00     0.005 C 
ENDBRANCH  29  30
ENDBRANCH  27  29
ENDBRANCH  26  27
ENDBRANCH  23  26
ENDBRANCH  21  23
ENDBRANCH  20  21
ENDBRANCH  14  20
BRANCH   8  32
HETATM   32  C8  UNL     1      -0.503   8.220  16.072  1.00  0.00     0.010 C 
HETATM   33  C9  UNL     1       0.660   9.097  16.556  1.00  0.00     0.012 C 
BRANCH  32  34
HETATM   34  C10 UNL     1      -1.819   8.687  16.723  1.00  0.00     0.168 C 
BRANCH  34  35
HETATM   35  O2  UNL     1      -2.607   7.595  17.172  1.00  0.00    -0.400 OA
HETATM   36  H15 UNL     1      -3.429   7.967  17.537  1.00  0.00     0.209 HD
ENDBRANCH  34  35
ENDBRANCH  32  34
ENDBRANCH   8  32
TORSDOF 11
ENDMDL
MODEL 5
REMARK minimizedAffinity -7.11990833
REMARK  11 active torsions:
REMARK  status: ('A' for Active; 'I' for Inactive)
REMARK    1  A    between atoms: C7_8  and  C8_9 
REMARK    2  A    between atoms: C8_9  and  C10_11 
REMARK    3  A    between atoms: C10_11  and  O2_12 
REMARK    4  A    between atoms: C16_18  and  O3_20 
REMARK    5  A    between atoms: O3_20  and  C18_21 
REMARK    6  A    between atoms: C18_21  and  C19_23 
REMARK    7  A    between atoms: C19_23  and  C20_24 
REMARK    8  A    between atoms: C19_23  and  O5_26 
REMARK    9  A    between atoms: O5_26  and  C22_27 
REMARK   10  A    between atoms: C22_27  and  C23_29 
REMARK   11  A    between atoms: C23_29  and  C24_30 
ROOT
HETATM    1  C1  UNL     1      -2.658   3.417  11.509  1.00  0.00     0.022 C 
HETATM    2  C2  UNL     1      -2.117   4.576  11.924  1.00  0.00    -0.019 C 
HETATM    3  C3  UNL     1      -0.812   5.127  11.395  1.00  0.00     0.074 C 
HETATM    4  C4  UNL     1       0.287   5.256  12.460  1.00  0.00     0.135 C 
HETATM    5  O1  UNL     1      -0.328   5.722  13.673  1.00  0.00    -0.376 OA
HETATM    6  C5  UNL     1       0.217   6.975  14.085  1.00  0.00     0.162 C 
HETATM    7  C6  UNL     1       1.648   6.921  13.543  1.00  0.00     0.033 C 
HETATM    8  C7  UNL     1       2.504   8.205  13.592  1.00  0.00    -0.001 C 
HETATM    9  C11 UNL     1       3.546   8.137  12.470  1.00  0.00     0.010 C 
HETATM   10  C12 UNL     1       2.855   8.078  11.106  1.00  0.00     0.034 C 
HETATM   11  C13 UNL     1       1.828   6.968  10.968  1.00  0.00    -0.082 C 
HETATM   12  C14 UNL     1       1.347   6.750   9.729  1.00  0.00     0.015 C 
HETATM   13  C15 UNL     1       1.551   6.136  12.211  1.00  0.00     0.050 C 
HETATM   14  C16 UNL     1      -0.803   8.124  13.759  1.00  0.00     0.094 C 
HETATM   15  C17 UNL     1      -0.676   8.748  12.357  1.00  0.00     0.049 C 
HETATM   16  C26 UNL     1      -2.298   7.671  13.964  1.00  0.00     0.048 C 
HETATM   17  C27 UNL     1      -2.978   6.866  12.843  1.00  0.00     0.086 C 
HETATM   18  C28 UNL     1      -2.878   5.349  12.976  1.00  0.00     0.155 C 
HETATM   19  O7  UNL     1      -3.464   4.754  13.880  1.00  0.00    -0.293 OA
ENDROOT
BRANCH  14  20
HETATM   20  O3  UNL     1      -0.542   9.293  14.620  1.00  0.00    -0.306 OA
BRANCH  20  21
HETATM   21  C18 UNL     1      -1.449  10.301  14.763  1.00  0.00     0.289 C 
HETATM   22  O4  UNL     1      -1.953  10.938  13.849  1.00  0.00    -0.262 OA
BRANCH  21  23
HETATM   23  C19 UNL     1      -1.728  10.545  16.250  1.00  0.00     0.231 C 
BRANCH  23  24
HETATM   24  C20 UNL     1      -3.116  10.003  16.607  1.00  0.00     0.038 C 
HETATM   25  C21 UNL     1      -4.165  10.387  15.571  1.00  0.00     0.008 C 
ENDBRANCH  23  24
BRANCH  23  26
HETATM   26  O5  UNL     1      -0.767   9.849  17.061  1.00  0.00    -0.306 OA
BRANCH  26  27
HETATM   27  C22 UNL     1       0.119  10.657  17.708  1.00  0.00     0.259 C 
HETATM   28  O6  UNL     1       1.139  11.107  17.209  1.00  0.00    -0.265 OA
BRANCH  27  29
HETATM   29  C23 UNL     1      -0.375  10.923  19.109  1.00  0.00     0.111 C 
BRANCH  29  30
HETATM   30  C24 UNL     1       0.664  11.609  19.996  1.00  0.00     0.005 C 
HETATM   31  C25 UNL     1       1.635  10.622  20.630  1.00  0.00     0.005 C 
ENDBRANCH  29  30
ENDBRANCH  27  29
ENDBRANCH  26  27
ENDBRANCH  23  26
ENDBRANCH  21  23
ENDBRANCH  20  21
ENDBRANCH  14  20
BRANCH   8  32
HETATM   32  C8  UNL     1       3.096   8.450  15.018  1.00  0.00     0.010 C 
HETATM   33  C9  UNL     1       2.377   7.673  16.129  1.00  0.00     0.012 C 
BRANCH  32  34
HETATM   34  C10 UNL     1       4.611   8.177  15.083  1.00  0.00     0.168 C 
BRANCH  34  35
HETATM   35  O2  UNL     1       4.904   6.953  15.740  1.00  0.00    -0.400 OA
HETATM   36  H15 UNL     1       5.873   6.870  15.771  1.00  0.00     0.209 HD
ENDBRANCH  34  35
ENDBRANCH  32  34
ENDBRANCH   8  32
TORSDOF 11
ENDMDL
MODEL 6
REMARK minimizedAffinity -7.07226562
REMARK  11 active torsions:
REMARK  status: ('A' for Active; 'I' for Inactive)
REMARK    1  A    between atoms: C7_8  and  C8_9 
REMARK    2  A    between atoms: C8_9  and  C10_11 
REMARK    3  A    between atoms: C10_11  and  O2_12 
REMARK    4  A    between atoms: C16_18  and  O3_20 
REMARK    5  A    between atoms: O3_20  and  C18_21 
REMARK    6  A    between atoms: C18_21  and  C19_23 
REMARK    7  A    between atoms: C19_23  and  C20_24 
REMARK    8  A    between atoms: C19_23  and  O5_26 
REMARK    9  A    between atoms: O5_26  and  C22_27 
REMARK   10  A    between atoms: C22_27  and  C23_29 
REMARK   11  A    between atoms: C23_29  and  C24_30 
ROOT
HETATM    1  C1  UNL     1      -2.256   2.784  11.047  1.00  0.00     0.022 C 
HETATM    2  C2  UNL     1      -1.865   3.975  11.533  1.00  0.00    -0.019 C 
HETATM    3  C3  UNL     1      -0.633   4.710  11.055  1.00  0.00     0.074 C 
HETATM    4  C4  UNL     1       0.434   4.911  12.142  1.00  0.00     0.135 C 
HETATM    5  O1  UNL     1      -0.243   5.229  13.369  1.00  0.00    -0.376 OA
HETATM    6  C5  UNL     1       0.141   6.514  13.858  1.00  0.00     0.162 C 
HETATM    7  C6  UNL     1       1.572   6.666  13.335  1.00  0.00     0.033 C 
HETATM    8  C7  UNL     1       2.264   8.040  13.467  1.00  0.00    -0.001 C 
HETATM    9  C11 UNL     1       3.314   8.163  12.359  1.00  0.00     0.010 C 
HETATM   10  C12 UNL     1       2.647   8.098  10.984  1.00  0.00     0.034 C 
HETATM   11  C13 UNL     1       1.765   6.881  10.769  1.00  0.00    -0.082 C 
HETATM   12  C14 UNL     1       1.323   6.677   9.513  1.00  0.00     0.015 C 
HETATM   13  C15 UNL     1       1.582   5.952  11.960  1.00  0.00     0.050 C 
HETATM   14  C16 UNL     1      -1.010   7.546  13.581  1.00  0.00     0.094 C 
HETATM   15  C17 UNL     1      -0.950   8.260  12.219  1.00  0.00     0.049 C 
HETATM   16  C26 UNL     1      -2.439   6.904  13.740  1.00  0.00     0.048 C 
HETATM   17  C27 UNL     1      -3.007   6.086  12.566  1.00  0.00     0.086 C 
HETATM   18  C28 UNL     1      -2.723   4.588  12.616  1.00  0.00     0.155 C 
HETATM   19  O7  UNL     1      -3.238   3.875  13.477  1.00  0.00    -0.293 OA
ENDROOT
BRANCH  14  20
HETATM   20  O3  UNL     1      -0.901   8.687  14.510  1.00  0.00    -0.306 OA
BRANCH  20  21
HETATM   21  C18 UNL     1      -1.751   9.751  14.449  1.00  0.00     0.289 C 
HETATM   22  O4  UNL     1      -1.680  10.673  13.649  1.00  0.00    -0.262 OA
BRANCH  21  23
HETATM   23  C19 UNL     1      -2.804   9.642  15.557  1.00  0.00     0.231 C 
BRANCH  23  24
HETATM   24  C20 UNL     1      -2.418  10.559  16.724  1.00  0.00     0.038 C 
HETATM   25  C21 UNL     1      -2.948  10.044  18.056  1.00  0.00     0.008 C 
ENDBRANCH  23  24
BRANCH  23  26
HETATM   26  O5  UNL     1      -4.087  10.072  15.073  1.00  0.00    -0.306 OA
BRANCH  26  27
HETATM   27  C22 UNL     1      -4.855   9.076  14.545  1.00  0.00     0.259 C 
HETATM   28  O6  UNL     1      -5.023   8.892  13.349  1.00  0.00    -0.265 OA
BRANCH  27  29
HETATM   29  C23 UNL     1      -5.428   8.239  15.661  1.00  0.00     0.111 C 
BRANCH  29  30
HETATM   30  C24 UNL     1      -6.910   7.915  15.473  1.00  0.00     0.005 C 
HETATM   31  C25 UNL     1      -7.470   7.064  16.606  1.00  0.00     0.005 C 
ENDBRANCH  29  30
ENDBRANCH  27  29
ENDBRANCH  26  27
ENDBRANCH  23  26
ENDBRANCH  21  23
ENDBRANCH  20  21
ENDBRANCH  14  20
BRANCH   8  32
HETATM   32  C8  UNL     1       2.810   8.273  14.913  1.00  0.00     0.010 C 
HETATM   33  C9  UNL     1       2.175   7.360  15.971  1.00  0.00     0.012 C 
BRANCH  32  34
HETATM   34  C10 UNL     1       4.346   8.172  14.987  1.00  0.00     0.168 C 
BRANCH  34  35
HETATM   35  O2  UNL     1       4.770   7.024  15.705  1.00  0.00    -0.400 OA
HETATM   36  H15 UNL     1       5.743   7.050  15.737  1.00  0.00     0.209 HD
ENDBRANCH  34  35
ENDBRANCH  32  34
ENDBRANCH   8  32
TORSDOF 11
ENDMDL
MODEL 7
REMARK minimizedAffinity -7.03516054
REMARK  11 active torsions:
REMARK  status: ('A' for Active; 'I' for Inactive)
REMARK    1  A    between atoms: C7_8  and  C8_9 
REMARK    2  A    between atoms: C8_9  and  C10_11 
REMARK    3  A    between atoms: C10_11  and  O2_12 
REMARK    4  A    between atoms: C16_18  and  O3_20 
REMARK    5  A    between atoms: O3_20  and  C18_21 
REMARK    6  A    between atoms: C18_21  and  C19_23 
REMARK    7  A    between atoms: C19_23  and  C20_24 
REMARK    8  A    between atoms: C19_23  and  O5_26 
REMARK    9  A    between atoms: O5_26  and  C22_27 
REMARK   10  A    between atoms: C22_27  and  C23_29 
REMARK   11  A    between atoms: C23_29  and  C24_30 
ROOT
HETATM    1  C1  UNL     1       3.143   6.640   8.779  1.00  0.00     0.022 C 
HETATM    2  C2  UNL     1       2.558   6.757   9.984  1.00  0.00    -0.019 C 
HETATM    3  C3  UNL     1       1.289   6.031  10.372  1.00  0.00     0.074 C 
HETATM    4  C4  UNL     1       0.111   6.963  10.693  1.00  0.00     0.135 C 
HETATM    5  O1  UNL     1       0.627   8.089  11.424  1.00  0.00    -0.376 OA
HETATM    6  C5  UNL     1       0.037   8.183  12.720  1.00  0.00     0.162 C 
HETATM    7  C6  UNL     1      -1.349   7.565  12.511  1.00  0.00     0.033 C 
HETATM    8  C7  UNL     1      -2.222   7.277  13.751  1.00  0.00    -0.001 C 
HETATM    9  C11 UNL     1      -3.175   6.124  13.416  1.00  0.00     0.010 C 
HETATM   10  C12 UNL     1      -2.383   4.857  13.089  1.00  0.00     0.034 C 
HETATM   11  C13 UNL     1      -1.334   5.033  12.004  1.00  0.00    -0.082 C 
HETATM   12  C14 UNL     1      -0.757   3.907  11.542  1.00  0.00     0.015 C 
HETATM   13  C15 UNL     1      -1.141   6.443  11.464  1.00  0.00     0.050 C 
HETATM   14  C16 UNL     1       1.064   7.692  13.801  1.00  0.00     0.094 C 
HETATM   15  C17 UNL     1       1.036   6.185  14.109  1.00  0.00     0.049 C 
HETATM   16  C26 UNL     1       2.544   8.096  13.446  1.00  0.00     0.048 C 
HETATM   17  C27 UNL     1       3.318   7.224  12.440  1.00  0.00     0.086 C 
HETATM   18  C28 UNL     1       3.227   7.671  10.984  1.00  0.00     0.155 C 
HETATM   19  O7  UNL     1       3.751   8.721  10.611  1.00  0.00    -0.293 OA
ENDROOT
BRANCH  14  20
HETATM   20  O3  UNL     1       0.724   8.262  15.119  1.00  0.00    -0.306 OA
BRANCH  20  21
HETATM   21  C18 UNL     1       1.605   8.252  16.159  1.00  0.00     0.289 C 
HETATM   22  O4  UNL     1       2.282   7.296  16.508  1.00  0.00    -0.262 OA
BRANCH  21  23
HETATM   23  C19 UNL     1       1.606   9.617  16.855  1.00  0.00     0.231 C 
BRANCH  23  24
HETATM   24  C20 UNL     1       0.163  10.070  17.101  1.00  0.00     0.038 C 
HETATM   25  C21 UNL     1      -0.180  11.336  16.326  1.00  0.00     0.008 C 
ENDBRANCH  23  24
BRANCH  23  26
HETATM   26  O5  UNL     1       2.257   9.527  18.134  1.00  0.00    -0.306 OA
BRANCH  26  27
HETATM   27  C22 UNL     1       2.473  10.726  18.745  1.00  0.00     0.259 C 
HETATM   28  O6  UNL     1       2.949  11.707  18.196  1.00  0.00    -0.265 OA
BRANCH  27  29
HETATM   29  C23 UNL     1       2.008  10.649  20.178  1.00  0.00     0.111 C 
BRANCH  29  30
HETATM   30  C24 UNL     1       2.995   9.930  21.097  1.00  0.00     0.005 C 
HETATM   31  C25 UNL     1       2.309   8.949  22.038  1.00  0.00     0.005 C 
ENDBRANCH  29  30
ENDBRANCH  27  29
ENDBRANCH  26  27
ENDBRANCH  23  26
ENDBRANCH  21  23
ENDBRANCH  20  21
ENDBRANCH  14  20
BRANCH   8  32
HETATM   32  C8  UNL     1      -2.923   8.571  14.276  1.00  0.00     0.010 C 
HETATM   33  C9  UNL     1      -4.391   8.699  13.847  1.00  0.00     0.012 C 
BRANCH  32  34
HETATM   34  C10 UNL     1      -2.807   8.727  15.804  1.00  0.00     0.168 C 
BRANCH  34  35
HETATM   35  O2  UNL     1      -2.644   7.477  16.456  1.00  0.00    -0.400 OA
HETATM   36  H15 UNL     1      -2.613   7.655  17.412  1.00  0.00     0.209 HD
ENDBRANCH  34  35
ENDBRANCH  32  34
ENDBRANCH   8  32
TORSDOF 11
ENDMDL
MODEL 8
REMARK minimizedAffinity -7.01921701
REMARK  11 active torsions:
REMARK  status: ('A' for Active; 'I' for Inactive)
REMARK    1  A    between atoms: C7_8  and  C8_9 
REMARK    2  A    between atoms: C8_9  and  C10_11 
REMARK    3  A    between atoms: C10_11  and  O2_12 
REMARK    4  A    between atoms: C16_18  and  O3_20 
REMARK    5  A    between atoms: O3_20  and  C18_21 
REMARK    6  A    between atoms: C18_21  and  C19_23 
REMARK    7  A    between atoms: C19_23  and  C20_24 
REMARK    8  A    between atoms: C19_23  and  O5_26 
REMARK    9  A    between atoms: O5_26  and  C22_27 
REMARK   10  A    between atoms: C22_27  and  C23_29 
REMARK   11  A    between atoms: C23_29  and  C24_30 
ROOT
HETATM    1  C1  UNL     1      -3.286   6.329  13.462  1.00  0.00     0.022 C 
HETATM    2  C2  UNL     1      -2.018   6.683  13.189  1.00  0.00    -0.019 C 
HETATM    3  C3  UNL     1      -1.546   7.111  11.817  1.00  0.00     0.074 C 
HETATM    4  C4  UNL     1      -0.484   6.184  11.207  1.00  0.00     0.135 C 
HETATM    5  O1  UNL     1       0.413   5.790  12.258  1.00  0.00    -0.376 OA
HETATM    6  C5  UNL     1       1.750   6.208  11.986  1.00  0.00     0.162 C 
HETATM    7  C6  UNL     1       1.803   6.210  10.455  1.00  0.00     0.033 C 
HETATM    8  C7  UNL     1       3.035   6.829   9.761  1.00  0.00    -0.001 C 
HETATM    9  C11 UNL     1       2.613   7.323   8.373  1.00  0.00     0.010 C 
HETATM   10  C12 UNL     1       1.542   8.409   8.498  1.00  0.00     0.034 C 
HETATM   11  C13 UNL     1       0.335   8.010   9.328  1.00  0.00    -0.082 C 
HETATM   12  C14 UNL     1      -0.716   8.851   9.297  1.00  0.00     0.015 C 
HETATM   13  C15 UNL     1       0.388   6.645   9.998  1.00  0.00     0.050 C 
HETATM   14  C16 UNL     1       2.104   7.451  12.879  1.00  0.00     0.094 C 
HETATM   15  C17 UNL     1       1.757   8.823  12.276  1.00  0.00     0.049 C 
HETATM   16  C26 UNL     1       1.455   7.361  14.310  1.00  0.00     0.048 C 
HETATM   17  C27 UNL     1      -0.020   7.774  14.470  1.00  0.00     0.086 C 
HETATM   18  C28 UNL     1      -1.033   6.642  14.334  1.00  0.00     0.155 C 
HETATM   19  O7  UNL     1      -1.100   5.748  15.178  1.00  0.00    -0.293 OA
ENDROOT
BRANCH  14  20
HETATM   20  O3  UNL     1       3.567   7.564  13.031  1.00  0.00    -0.306 OA
BRANCH  20  21
HETATM   21  C18 UNL     1       4.137   8.098  14.149  1.00  0.00     0.289 C 
HETATM   22  O4  UNL     1       3.671   8.047  15.278  1.00  0.00    -0.262 OA
BRANCH  21  23
HETATM   23  C19 UNL     1       5.445   8.806  13.780  1.00  0.00     0.231 C 
BRANCH  23  24
HETATM   24  C20 UNL     1       5.166   9.885  12.728  1.00  0.00     0.038 C 
HETATM   25  C21 UNL     1       6.190   9.862  11.599  1.00  0.00     0.008 C 
ENDBRANCH  23  24
BRANCH  23  26
HETATM   26  O5  UNL     1       6.004   9.457  14.933  1.00  0.00    -0.306 OA
BRANCH  26  27
HETATM   27  C22 UNL     1       7.044   8.791  15.510  1.00  0.00     0.259 C 
HETATM   28  O6  UNL     1       7.166   8.605  16.712  1.00  0.00    -0.265 OA
BRANCH  27  29
HETATM   29  C23 UNL     1       7.988   8.307  14.438  1.00  0.00     0.111 C 
BRANCH  29  30
HETATM   30  C24 UNL     1       9.318   7.794  14.989  1.00  0.00     0.005 C 
HETATM   31  C25 UNL     1      10.504   8.197  14.123  1.00  0.00     0.005 C 
ENDBRANCH  29  30
ENDBRANCH  27  29
ENDBRANCH  26  27
ENDBRANCH  23  26
ENDBRANCH  21  23
ENDBRANCH  20  21
ENDBRANCH  14  20
BRANCH   8  32
HETATM   32  C8  UNL     1       4.251   5.848   9.761  1.00  0.00     0.010 C 
HETATM   33  C9  UNL     1       5.201   6.037  10.952  1.00  0.00     0.012 C 
BRANCH  32  34
HETATM   34  C10 UNL     1       3.819   4.372   9.665  1.00  0.00     0.168 C 
BRANCH  34  35
HETATM   35  O2  UNL     1       4.847   3.550   9.131  1.00  0.00    -0.400 OA
HETATM   36  H15 UNL     1       4.488   2.647   9.071  1.00  0.00     0.209 HD
ENDBRANCH  34  35
ENDBRANCH  32  34
ENDBRANCH   8  32
TORSDOF 11
ENDMDL
MODEL 9
REMARK minimizedAffinity -6.83610106
REMARK  11 active torsions:
REMARK  status: ('A' for Active; 'I' for Inactive)
REMARK    1  A    between atoms: C7_8  and  C8_9 
REMARK    2  A    between atoms: C8_9  and  C10_11 
REMARK    3  A    between atoms: C10_11  and  O2_12 
REMARK    4  A    between atoms: C16_18  and  O3_20 
REMARK    5  A    between atoms: O3_20  and  C18_21 
REMARK    6  A    between atoms: C18_21  and  C19_23 
REMARK    7  A    between atoms: C19_23  and  C20_24 
REMARK    8  A    between atoms: C19_23  and  O5_26 
REMARK    9  A    between atoms: O5_26  and  C22_27 
REMARK   10  A    between atoms: C22_27  and  C23_29 
REMARK   11  A    between atoms: C23_29  and  C24_30 
ROOT
HETATM    1  C1  UNL     1      -7.328   3.925  12.248  1.00  0.00     0.022 C 
HETATM    2  C2  UNL     1      -6.260   4.541  12.783  1.00  0.00    -0.019 C 
HETATM    3  C3  UNL     1      -6.356   5.747  13.691  1.00  0.00     0.074 C 
HETATM    4  C4  UNL     1      -5.690   7.009  13.122  1.00  0.00     0.135 C 
HETATM    5  O1  UNL     1      -4.470   6.609  12.474  1.00  0.00    -0.376 OA
HETATM    6  C5  UNL     1      -3.334   7.230  13.074  1.00  0.00     0.162 C 
HETATM    7  C6  UNL     1      -3.903   8.551  13.601  1.00  0.00     0.033 C 
HETATM    8  C7  UNL     1      -3.020   9.418  14.524  1.00  0.00    -0.001 C 
HETATM    9  C11 UNL     1      -3.936  10.258  15.421  1.00  0.00     0.010 C 
HETATM   10  C12 UNL     1      -4.796   9.350  16.302  1.00  0.00     0.034 C 
HETATM   11  C13 UNL     1      -5.588   8.302  15.541  1.00  0.00    -0.082 C 
HETATM   12  C14 UNL     1      -6.508   7.618  16.249  1.00  0.00     0.015 C 
HETATM   13  C15 UNL     1      -5.352   8.224  14.040  1.00  0.00     0.050 C 
HETATM   14  C16 UNL     1      -2.574   6.184  13.965  1.00  0.00     0.094 C 
HETATM   15  C17 UNL     1      -3.050   6.084  15.426  1.00  0.00     0.049 C 
HETATM   16  C26 UNL     1      -2.595   4.739  13.339  1.00  0.00     0.048 C 
HETATM   17  C27 UNL     1      -3.851   3.872  13.543  1.00  0.00     0.086 C 
HETATM   18  C28 UNL     1      -4.901   3.975  12.441  1.00  0.00     0.155 C 
HETATM   19  O7  UNL     1      -4.677   3.540  11.311  1.00  0.00    -0.293 OA
ENDROOT
BRANCH  14  20
HETATM   20  O3  UNL     1      -1.170   6.598  14.147  1.00  0.00    -0.306 OA
BRANCH  20  21
HETATM   21  C18 UNL     1      -0.133   5.880  13.630  1.00  0.00     0.289 C 
HETATM   22  O4  UNL     1      -0.020   4.663  13.670  1.00  0.00    -0.262 OA
BRANCH  21  23
HETATM   23  C19 UNL     1       0.899   6.828  13.008  1.00  0.00     0.231 C 
BRANCH  23  24
HETATM   24  C20 UNL     1       1.990   7.144  14.037  1.00  0.00     0.038 C 
HETATM   25  C21 UNL     1       2.945   8.224  13.545  1.00  0.00     0.008 C 
ENDBRANCH  23  24
BRANCH  23  26
HETATM   26  O5  UNL     1       1.534   6.205  11.879  1.00  0.00    -0.306 OA
BRANCH  26  27
HETATM   27  C22 UNL     1       1.221   6.763  10.675  1.00  0.00     0.259 C 
HETATM   28  O6  UNL     1       0.092   7.078  10.331  1.00  0.00    -0.265 OA
BRANCH  27  29
HETATM   29  C23 UNL     1       2.479   6.950   9.866  1.00  0.00     0.111 C 
BRANCH  29  30
HETATM   30  C24 UNL     1       2.400   6.328   8.472  1.00  0.00     0.005 C 
HETATM   31  C25 UNL     1       2.047   7.345   7.396  1.00  0.00     0.005 C 
ENDBRANCH  29  30
ENDBRANCH  27  29
ENDBRANCH  26  27
ENDBRANCH  23  26
ENDBRANCH  21  23
ENDBRANCH  20  21
ENDBRANCH  14  20
BRANCH   8  32
HETATM   32  C8  UNL     1      -1.970  10.242  13.710  1.00  0.00     0.010 C 
HETATM   33  C9  UNL     1      -1.171  11.240  14.560  1.00  0.00     0.012 C 
BRANCH  32  34
HETATM   34  C10 UNL     1      -1.007   9.344  12.911  1.00  0.00     0.168 C 
BRANCH  34  35
HETATM   35  O2  UNL     1      -1.270   9.389  11.517  1.00  0.00    -0.400 OA
HETATM   36  H15 UNL     1      -0.648   8.775  11.089  1.00  0.00     0.209 HD
ENDBRANCH  34  35
ENDBRANCH  32  34
ENDBRANCH   8  32
TORSDOF 11
ENDMDL
