MODEL 1
REMARK minimizedAffinity -8.91453648
REMARK  5 active torsions:
REMARK  status: ('A' for Active; 'I' for Inactive)
REMARK    1  A    between atoms: O1_2  and  C2_3 
REMARK    2  A    between atoms: C12_15  and  C13_16 
REMARK    3  A    between atoms: C13_16  and  C15_18 
REMARK    4  A    between atoms: C15_18  and  C16_19 
REMARK    5  A    between atoms: C16_19  and  C17_21 
ROOT
HETATM    1  C2  UNL     1       1.815   6.392  13.802  1.00  0.00     0.270 C 
HETATM    2  O2  UNL     1       2.855   7.257  13.337  1.00  0.00    -0.347 OA
HETATM    3  C3  UNL     1       2.441   7.874  12.100  1.00  0.00     0.089 C 
HETATM    4  C4  UNL     1       1.982   9.295  12.467  1.00  0.00     0.118 C 
HETATM    5  C5  UNL     1       0.798   9.346  13.412  1.00  0.00     0.135 C 
HETATM    6  O3  UNL     1       0.516  10.415  13.961  1.00  0.00    -0.297 OA
HETATM    7  C6  UNL     1      -0.085   8.111  13.615  1.00  0.00     0.078 C 
HETATM    8  C7  UNL     1       0.537   6.785  13.010  1.00  0.00     0.027 C 
HETATM    9  C8  UNL     1      -0.457   5.585  13.045  1.00  0.00     0.016 C 
HETATM   10  C9  UNL     1      -1.932   5.892  12.743  1.00  0.00     0.011 C 
HETATM   11  C10 UNL     1      -2.428   7.094  13.562  1.00  0.00    -0.032 C 
HETATM   12  C11 UNL     1      -2.354   6.707  15.072  1.00  0.00     0.016 C 
HETATM   13  C12 UNL     1      -3.860   7.607  13.233  1.00  0.00    -0.002 C 
HETATM   14  C21 UNL     1      -3.837   9.060  13.782  1.00  0.00     0.006 C 
HETATM   15  C22 UNL     1      -2.345   9.459  13.924  1.00  0.00     0.011 C 
HETATM   16  C23 UNL     1      -1.564   8.354  13.177  1.00  0.00    -0.025 C 
HETATM   17  C24 UNL     1      -1.634   8.754  11.667  1.00  0.00     0.016 C 
HETATM   18  C25 UNL     1       1.187   7.088  11.642  1.00  0.00     0.036 C 
HETATM   19  C26 UNL     1       1.529   5.891  10.750  1.00  0.00     0.016 C 
HETATM   20  C27 UNL     1       2.246   6.337   9.481  1.00  0.00     0.079 C 
HETATM   21  C28 UNL     1       3.091   7.578   9.689  1.00  0.00     0.137 C 
HETATM   22  O5  UNL     1       3.329   8.323   8.738  1.00  0.00    -0.297 OA
HETATM   23  C29 UNL     1       3.650   7.830  11.092  1.00  0.00     0.045 C 
HETATM   24  C30 UNL     1       4.482   9.131  11.084  1.00  0.00     0.026 C 
HETATM   25  C31 UNL     1       4.659   6.696  11.398  1.00  0.00     0.026 C 
ENDROOT
BRANCH  13  26
HETATM   26  C13 UNL     1      -5.076   6.724  13.633  1.00  0.00    -0.007 C 
HETATM   27  C14 UNL     1      -5.294   6.826  15.156  1.00  0.00     0.011 C 
BRANCH  26  28
HETATM   28  C15 UNL     1      -4.980   5.232  13.258  1.00  0.00     0.087 C 
BRANCH  28  29
HETATM   29  C16 UNL     1      -6.332   4.660  12.856  1.00  0.00     0.149 C 
HETATM   30  O4  UNL     1      -7.331   5.364  12.740  1.00  0.00    -0.293 OA
BRANCH  29  31
HETATM   31  C17 UNL     1      -6.367   3.198  12.556  1.00  0.00     0.052 C 
HETATM   32  C18 UNL     1      -5.832   2.616  11.466  1.00  0.00    -0.084 C 
HETATM   33  C19 UNL     1      -5.899   1.123  11.290  1.00  0.00     0.043 C 
HETATM   34  C20 UNL     1      -5.146   3.342  10.339  1.00  0.00     0.043 C 
ENDBRANCH  29  31
ENDBRANCH  28  29
ENDBRANCH  26  28
ENDBRANCH  13  26
BRANCH   1  35
HETATM   35  O1  UNL     1       1.618   6.509  15.201  1.00  0.00    -0.365 OA
HETATM   36  C1  UNL     1       2.635   7.276  15.827  1.00  0.00     0.204 C 
ENDBRANCH   1  35
TORSDOF 5
ENDMDL
MODEL 2
REMARK minimizedAffinity -8.67637348
REMARK  5 active torsions:
REMARK  status: ('A' for Active; 'I' for Inactive)
REMARK    1  A    between atoms: O1_2  and  C2_3 
REMARK    2  A    between atoms: C12_15  and  C13_16 
REMARK    3  A    between atoms: C13_16  and  C15_18 
REMARK    4  A    between atoms: C15_18  and  C16_19 
REMARK    5  A    between atoms: C16_19  and  C17_21 
ROOT
HETATM    1  C2  UNL     1       1.569   6.350  13.811  1.00  0.00     0.270 C 
HETATM    2  O2  UNL     1       2.599   7.228  13.346  1.00  0.00    -0.347 OA
HETATM    3  C3  UNL     1       2.169   7.851  12.117  1.00  0.00     0.089 C 
HETATM    4  C4  UNL     1       1.701   9.265  12.500  1.00  0.00     0.118 C 
HETATM    5  C5  UNL     1       0.524   9.298  13.454  1.00  0.00     0.135 C 
HETATM    6  O3  UNL     1       0.236  10.360  14.015  1.00  0.00    -0.297 OA
HETATM    7  C6  UNL     1      -0.347   8.054  13.654  1.00  0.00     0.078 C 
HETATM    8  C7  UNL     1       0.282   6.738  13.032  1.00  0.00     0.027 C 
HETATM    9  C8  UNL     1      -0.701   5.530  13.064  1.00  0.00     0.016 C 
HETATM   10  C9  UNL     1      -2.182   5.826  12.776  1.00  0.00     0.011 C 
HETATM   11  C10 UNL     1      -2.681   7.017  13.608  1.00  0.00    -0.032 C 
HETATM   12  C11 UNL     1      -2.592   6.617  15.115  1.00  0.00     0.016 C 
HETATM   13  C12 UNL     1      -4.120   7.520  13.295  1.00  0.00    -0.002 C 
HETATM   14  C21 UNL     1      -4.105   8.968  13.856  1.00  0.00     0.006 C 
HETATM   15  C22 UNL     1      -2.616   9.379  13.990  1.00  0.00     0.011 C 
HETATM   16  C23 UNL     1      -1.831   8.287  13.228  1.00  0.00    -0.025 C 
HETATM   17  C24 UNL     1      -1.917   8.700  11.723  1.00  0.00     0.016 C 
HETATM   18  C25 UNL     1       0.920   7.058  11.662  1.00  0.00     0.036 C 
HETATM   19  C26 UNL     1       1.265   5.872  10.758  1.00  0.00     0.016 C 
HETATM   20  C27 UNL     1       1.969   6.336   9.487  1.00  0.00     0.079 C 
HETATM   21  C28 UNL     1       2.804   7.582   9.700  1.00  0.00     0.137 C 
HETATM   22  O5  UNL     1       3.028   8.337   8.754  1.00  0.00    -0.297 OA
HETATM   23  C29 UNL     1       3.371   7.827  11.100  1.00  0.00     0.045 C 
HETATM   24  C30 UNL     1       4.192   9.136  11.097  1.00  0.00     0.026 C 
HETATM   25  C31 UNL     1       4.393   6.700  11.389  1.00  0.00     0.026 C 
ENDROOT
BRANCH  13  26
HETATM   26  C13 UNL     1      -5.326   6.623  13.696  1.00  0.00    -0.007 C 
HETATM   27  C14 UNL     1      -5.467   6.625  15.231  1.00  0.00     0.011 C 
BRANCH  26  28
HETATM   28  C15 UNL     1      -5.266   5.158  13.219  1.00  0.00     0.087 C 
BRANCH  28  29
HETATM   29  C16 UNL     1      -6.652   4.599  12.932  1.00  0.00     0.149 C 
HETATM   30  O4  UNL     1      -6.820   3.566  12.290  1.00  0.00    -0.293 OA
BRANCH  29  31
HETATM   31  C17 UNL     1      -7.801   5.347  13.521  1.00  0.00     0.052 C 
HETATM   32  C18 UNL     1      -8.803   5.912  12.820  1.00  0.00    -0.084 C 
HETATM   33  C19 UNL     1      -9.930   6.611  13.530  1.00  0.00     0.043 C 
HETATM   34  C20 UNL     1      -8.913   5.926  11.319  1.00  0.00     0.043 C 
ENDBRANCH  29  31
ENDBRANCH  28  29
ENDBRANCH  26  28
ENDBRANCH  13  26
BRANCH   1  35
HETATM   35  O1  UNL     1       1.381   6.453  15.212  1.00  0.00    -0.365 OA
HETATM   36  C1  UNL     1       2.356   7.282  15.828  1.00  0.00     0.204 C 
ENDBRANCH   1  35
TORSDOF 5
ENDMDL
MODEL 3
REMARK minimizedAffinity -8.514081
REMARK  5 active torsions:
REMARK  status: ('A' for Active; 'I' for Inactive)
REMARK    1  A    between atoms: O1_2  and  C2_3 
REMARK    2  A    between atoms: C12_15  and  C13_16 
REMARK    3  A    between atoms: C13_16  and  C15_18 
REMARK    4  A    between atoms: C15_18  and  C16_19 
REMARK    5  A    between atoms: C16_19  and  C17_21 
ROOT
HETATM    1  C2  UNL     1       1.083   8.492  10.427  1.00  0.00     0.270 C 
HETATM    2  O2  UNL     1       2.262   7.778  10.045  1.00  0.00    -0.347 OA
HETATM    3  C3  UNL     1       2.857   7.185  11.218  1.00  0.00     0.089 C 
HETATM    4  C4  UNL     1       2.447   5.703  11.199  1.00  0.00     0.118 C 
HETATM    5  C5  UNL     1       0.952   5.467  11.285  1.00  0.00     0.135 C 
HETATM    6  O3  UNL     1       0.507   4.344  11.026  1.00  0.00    -0.297 OA
HETATM    7  C6  UNL     1       0.018   6.579  11.771  1.00  0.00     0.078 C 
HETATM    8  C7  UNL     1       0.719   7.998  11.855  1.00  0.00     0.027 C 
HETATM    9  C8  UNL     1      -0.179   9.072  12.538  1.00  0.00     0.016 C 
HETATM   10  C9  UNL     1      -1.026   8.615  13.737  1.00  0.00     0.011 C 
HETATM   11  C10 UNL     1      -1.791   7.322  13.414  1.00  0.00    -0.032 C 
HETATM   12  C11 UNL     1      -2.791   7.635  12.257  1.00  0.00     0.016 C 
HETATM   13  C12 UNL     1      -2.563   6.667  14.596  1.00  0.00    -0.002 C 
HETATM   14  C21 UNL     1      -2.737   5.199  14.118  1.00  0.00     0.006 C 
HETATM   15  C22 UNL     1      -1.686   4.966  13.001  1.00  0.00     0.011 C 
HETATM   16  C23 UNL     1      -0.747   6.192  13.075  1.00  0.00    -0.025 C 
HETATM   17  C24 UNL     1       0.256   5.866  14.230  1.00  0.00     0.016 C 
HETATM   18  C25 UNL     1       2.147   7.845  12.426  1.00  0.00     0.036 C 
HETATM   19  C26 UNL     1       2.848   9.119  12.905  1.00  0.00     0.016 C 
HETATM   20  C27 UNL     1       4.276   8.825  13.352  1.00  0.00     0.079 C 
HETATM   21  C28 UNL     1       4.907   7.680  12.586  1.00  0.00     0.137 C 
HETATM   22  O5  UNL     1       5.806   7.019  13.106  1.00  0.00    -0.297 OA
HETATM   23  C29 UNL     1       4.413   7.420  11.161  1.00  0.00     0.045 C 
HETATM   24  C30 UNL     1       5.187   6.225  10.562  1.00  0.00     0.026 C 
HETATM   25  C31 UNL     1       4.814   8.644  10.302  1.00  0.00     0.026 C 
ENDROOT
BRANCH  13  26
HETATM   26  C13 UNL     1      -3.830   7.381  15.145  1.00  0.00    -0.007 C 
HETATM   27  C14 UNL     1      -3.429   8.276  16.335  1.00  0.00     0.011 C 
BRANCH  26  28
HETATM   28  C15 UNL     1      -4.981   6.462  15.598  1.00  0.00     0.087 C 
BRANCH  28  29
HETATM   29  C16 UNL     1      -6.092   6.390  14.561  1.00  0.00     0.149 C 
HETATM   30  O4  UNL     1      -6.615   7.397  14.093  1.00  0.00    -0.293 OA
BRANCH  29  31
HETATM   31  C17 UNL     1      -6.477   5.024  14.099  1.00  0.00     0.052 C 
HETATM   32  C18 UNL     1      -7.560   4.732  13.354  1.00  0.00    -0.084 C 
HETATM   33  C19 UNL     1      -7.824   3.317  12.917  1.00  0.00     0.043 C 
HETATM   34  C20 UNL     1      -8.595   5.725  12.897  1.00  0.00     0.043 C 
ENDBRANCH  29  31
ENDBRANCH  28  29
ENDBRANCH  26  28
ENDBRANCH  13  26
BRANCH   1  35
HETATM   35  O1  UNL     1       0.019   8.280   9.515  1.00  0.00    -0.365 OA
HETATM   36  C1  UNL     1       0.475   8.135   8.178  1.00  0.00     0.204 C 
ENDBRANCH   1  35
TORSDOF 5
ENDMDL
MODEL 4
REMARK minimizedAffinity -8.22900105
REMARK  5 active torsions:
REMARK  status: ('A' for Active; 'I' for Inactive)
REMARK    1  A    between atoms: O1_2  and  C2_3 
REMARK    2  A    between atoms: C12_15  and  C13_16 
REMARK    3  A    between atoms: C13_16  and  C15_18 
REMARK    4  A    between atoms: C15_18  and  C16_19 
REMARK    5  A    between atoms: C16_19  and  C17_21 
ROOT
HETATM    1  C2  UNL     1       4.827  10.427  13.610  1.00  0.00     0.270 C 
HETATM    2  O2  UNL     1       6.161  10.871  13.348  1.00  0.00    -0.347 OA
HETATM    3  C3  UNL     1       6.967   9.742  12.950  1.00  0.00     0.089 C 
HETATM    4  C4  UNL     1       7.077   9.817  11.418  1.00  0.00     0.118 C 
HETATM    5  C5  UNL     1       5.753   9.702  10.690  1.00  0.00     0.135 C 
HETATM    6  O3  UNL     1       5.700  10.000   9.492  1.00  0.00    -0.297 OA
HETATM    7  C6  UNL     1       4.520   9.143  11.406  1.00  0.00     0.078 C 
HETATM    8  C7  UNL     1       4.707   9.013  12.974  1.00  0.00     0.027 C 
HETATM    9  C8  UNL     1       3.528   8.259  13.660  1.00  0.00     0.016 C 
HETATM   10  C9  UNL     1       2.932   7.061  12.904  1.00  0.00     0.011 C 
HETATM   11  C10 UNL     1       2.633   7.421  11.441  1.00  0.00    -0.032 C 
HETATM   12  C11 UNL     1       1.541   8.536  11.437  1.00  0.00     0.016 C 
HETATM   13  C12 UNL     1       2.174   6.250  10.525  1.00  0.00    -0.002 C 
HETATM   14  C21 UNL     1       2.483   6.789   9.101  1.00  0.00     0.006 C 
HETATM   15  C22 UNL     1       3.506   7.942   9.273  1.00  0.00     0.011 C 
HETATM   16  C23 UNL     1       3.981   7.838  10.740  1.00  0.00    -0.025 C 
HETATM   17  C24 UNL     1       5.081   6.726  10.733  1.00  0.00     0.016 C 
HETATM   18  C25 UNL     1       6.125   8.488  13.292  1.00  0.00     0.036 C 
HETATM   19  C26 UNL     1       6.376   7.971  14.711  1.00  0.00     0.016 C 
HETATM   20  C27 UNL     1       7.837   7.575  14.901  1.00  0.00     0.079 C 
HETATM   21  C28 UNL     1       8.784   8.407  14.062  1.00  0.00     0.137 C 
HETATM   22  O5  UNL     1       9.873   7.942  13.725  1.00  0.00    -0.297 OA
HETATM   23  C29 UNL     1       8.350   9.830  13.697  1.00  0.00     0.045 C 
HETATM   24  C30 UNL     1       9.456  10.502  12.854  1.00  0.00     0.026 C 
HETATM   25  C31 UNL     1       8.283  10.643  15.014  1.00  0.00     0.026 C 
ENDROOT
BRANCH  13  26
HETATM   26  C13 UNL     1       0.763   5.636  10.752  1.00  0.00    -0.007 C 
HETATM   27  C14 UNL     1      -0.295   6.753  10.649  1.00  0.00     0.011 C 
BRANCH  26  28
HETATM   28  C15 UNL     1       0.555   4.897  12.089  1.00  0.00     0.087 C 
BRANCH  28  29
HETATM   29  C16 UNL     1      -0.405   3.726  11.946  1.00  0.00     0.149 C 
HETATM   30  O4  UNL     1      -0.046   2.635  11.513  1.00  0.00    -0.293 OA
BRANCH  29  31
HETATM   31  C17 UNL     1      -1.804   3.958  12.413  1.00  0.00     0.052 C 
HETATM   32  C18 UNL     1      -2.902   3.908  11.634  1.00  0.00    -0.084 C 
HETATM   33  C19 UNL     1      -4.267   4.124  12.228  1.00  0.00     0.043 C 
HETATM   34  C20 UNL     1      -2.905   3.655  10.150  1.00  0.00     0.043 C 
ENDBRANCH  29  31
ENDBRANCH  28  29
ENDBRANCH  26  28
ENDBRANCH  13  26
BRANCH   1  35
HETATM   35  O1  UNL     1       3.860  11.319  13.082  1.00  0.00    -0.365 OA
HETATM   36  C1  UNL     1       4.231  12.679  13.254  1.00  0.00     0.204 C 
ENDBRANCH   1  35
TORSDOF 5
ENDMDL
MODEL 5
REMARK minimizedAffinity -7.98935556
REMARK  5 active torsions:
REMARK  status: ('A' for Active; 'I' for Inactive)
REMARK    1  A    between atoms: O1_2  and  C2_3 
REMARK    2  A    between atoms: C12_15  and  C13_16 
REMARK    3  A    between atoms: C13_16  and  C15_18 
REMARK    4  A    between atoms: C15_18  and  C16_19 
REMARK    5  A    between atoms: C16_19  and  C17_21 
ROOT
HETATM    1  C2  UNL     1       5.373   6.518  11.561  1.00  0.00     0.270 C 
HETATM    2  O2  UNL     1       4.830   6.732  10.255  1.00  0.00    -0.347 OA
HETATM    3  C3  UNL     1       3.910   7.843  10.301  1.00  0.00     0.089 C 
HETATM    4  C4  UNL     1       4.675   9.051   9.736  1.00  0.00     0.118 C 
HETATM    5  C5  UNL     1       5.898   9.448  10.538  1.00  0.00     0.135 C 
HETATM    6  O3  UNL     1       6.713  10.231  10.040  1.00  0.00    -0.297 OA
HETATM    7  C6  UNL     1       6.076   8.954  11.976  1.00  0.00     0.078 C 
HETATM    8  C7  UNL     1       5.062   7.804  12.377  1.00  0.00     0.027 C 
HETATM    9  C8  UNL     1       5.119   7.454  13.895  1.00  0.00     0.016 C 
HETATM   10  C9  UNL     1       5.305   8.624  14.874  1.00  0.00     0.011 C 
HETATM   11  C10 UNL     1       6.458   9.538  14.434  1.00  0.00    -0.032 C 
HETATM   12  C11 UNL     1       7.775   8.703  14.484  1.00  0.00     0.016 C 
HETATM   13  C12 UNL     1       6.648  10.847  15.253  1.00  0.00    -0.002 C 
HETATM   14  C21 UNL     1       7.459  11.745  14.278  1.00  0.00     0.006 C 
HETATM   15  C22 UNL     1       7.265  11.151  12.859  1.00  0.00     0.011 C 
HETATM   16  C23 UNL     1       6.121  10.123  13.010  1.00  0.00    -0.025 C 
HETATM   17  C24 UNL     1       4.805  10.966  12.949  1.00  0.00     0.016 C 
HETATM   18  C25 UNL     1       3.661   8.116  11.805  1.00  0.00     0.036 C 
HETATM   19  C26 UNL     1       2.482   7.317  12.367  1.00  0.00     0.016 C 
HETATM   20  C27 UNL     1       1.186   7.667  11.645  1.00  0.00     0.079 C 
HETATM   21  C28 UNL     1       1.407   8.051  10.196  1.00  0.00     0.137 C 
HETATM   22  O5  UNL     1       0.603   8.793   9.630  1.00  0.00    -0.297 OA
HETATM   23  C29 UNL     1       2.623   7.458   9.480  1.00  0.00     0.045 C 
HETATM   24  C30 UNL     1       2.656   7.966   8.022  1.00  0.00     0.026 C 
HETATM   25  C31 UNL     1       2.398   5.929   9.379  1.00  0.00     0.026 C 
ENDROOT
BRANCH  13  26
HETATM   26  C13 UNL     1       7.175  10.742  16.713  1.00  0.00    -0.007 C 
HETATM   27  C14 UNL     1       6.210  11.492  17.653  1.00  0.00     0.011 C 
BRANCH  26  28
HETATM   28  C15 UNL     1       8.600  11.277  16.957  1.00  0.00     0.087 C 
BRANCH  28  29
HETATM   29  C16 UNL     1       9.478  10.252  17.659  1.00  0.00     0.149 C 
HETATM   30  O4  UNL     1       9.249   9.047  17.604  1.00  0.00    -0.293 OA
BRANCH  29  31
HETATM   31  C17 UNL     1      10.672  10.787  18.378  1.00  0.00     0.052 C 
HETATM   32  C18 UNL     1      10.647  11.402  19.576  1.00  0.00    -0.084 C 
HETATM   33  C19 UNL     1      11.925  11.867  20.219  1.00  0.00     0.043 C 
HETATM   34  C20 UNL     1       9.407  11.698  20.376  1.00  0.00     0.043 C 
ENDBRANCH  29  31
ENDBRANCH  28  29
ENDBRANCH  26  28
ENDBRANCH  13  26
BRANCH   1  35
HETATM   35  O1  UNL     1       6.765   6.253  11.517  1.00  0.00    -0.365 OA
HETATM   36  C1  UNL     1       7.074   5.128  10.708  1.00  0.00     0.204 C 
ENDBRANCH   1  35
TORSDOF 5
ENDMDL
MODEL 6
REMARK minimizedAffinity -7.87375021
REMARK  5 active torsions:
REMARK  status: ('A' for Active; 'I' for Inactive)
REMARK    1  A    between atoms: O1_2  and  C2_3 
REMARK    2  A    between atoms: C12_15  and  C13_16 
REMARK    3  A    between atoms: C13_16  and  C15_18 
REMARK    4  A    between atoms: C15_18  and  C16_19 
REMARK    5  A    between atoms: C16_19  and  C17_21 
ROOT
HETATM    1  C2  UNL     1      -1.668  12.012  15.488  1.00  0.00     0.270 C 
HETATM    2  O2  UNL     1      -0.272  12.244  15.697  1.00  0.00    -0.347 OA
HETATM    3  C3  UNL     1       0.280  11.147  16.455  1.00  0.00     0.089 C 
HETATM    4  C4  UNL     1       0.999  10.246  15.437  1.00  0.00     0.118 C 
HETATM    5  C5  UNL     1       0.091   9.649  14.380  1.00  0.00     0.135 C 
HETATM    6  O3  UNL     1       0.597   9.126  13.382  1.00  0.00    -0.297 OA
HETATM    7  C6  UNL     1      -1.426   9.619  14.588  1.00  0.00     0.078 C 
HETATM    8  C7  UNL     1      -1.913  10.511  15.804  1.00  0.00     0.027 C 
HETATM    9  C8  UNL     1      -3.424  10.312  16.128  1.00  0.00     0.016 C 
HETATM   10  C9  UNL     1      -3.980   8.883  16.015  1.00  0.00     0.011 C 
HETATM   11  C10 UNL     1      -3.569   8.231  14.686  1.00  0.00    -0.032 C 
HETATM   12  C11 UNL     1      -4.219   9.054  13.530  1.00  0.00     0.016 C 
HETATM   13  C12 UNL     1      -3.934   6.728  14.515  1.00  0.00    -0.002 C 
HETATM   14  C21 UNL     1      -2.956   6.264  13.401  1.00  0.00     0.006 C 
HETATM   15  C22 UNL     1      -1.809   7.307  13.352  1.00  0.00     0.011 C 
HETATM   16  C23 UNL     1      -1.996   8.165  14.623  1.00  0.00    -0.025 C 
HETATM   17  C24 UNL     1      -1.334   7.339  15.774  1.00  0.00     0.016 C 
HETATM   18  C25 UNL     1      -0.938  10.356  16.992  1.00  0.00     0.036 C 
HETATM   19  C26 UNL     1      -1.416  10.856  18.358  1.00  0.00     0.016 C 
HETATM   20  C27 UNL     1      -0.318  10.722  19.408  1.00  0.00     0.079 C 
HETATM   21  C28 UNL     1       1.072  10.877  18.826  1.00  0.00     0.137 C 
HETATM   22  O5  UNL     1       2.032  10.345  19.384  1.00  0.00    -0.297 OA
HETATM   23  C29 UNL     1       1.225  11.737  17.568  1.00  0.00     0.045 C 
HETATM   24  C30 UNL     1       2.712  11.770  17.150  1.00  0.00     0.026 C 
HETATM   25  C31 UNL     1       0.873  13.193  17.959  1.00  0.00     0.026 C 
ENDROOT
BRANCH  13  26
HETATM   26  C13 UNL     1      -5.431   6.342  14.340  1.00  0.00    -0.007 C 
HETATM   27  C14 UNL     1      -6.217   6.796  15.587  1.00  0.00     0.011 C 
BRANCH  26  28
HETATM   28  C15 UNL     1      -5.719   4.846  14.106  1.00  0.00     0.087 C 
BRANCH  28  29
HETATM   29  C16 UNL     1      -6.741   4.632  13.000  1.00  0.00     0.149 C 
HETATM   30  O4  UNL     1      -7.439   5.545  12.569  1.00  0.00    -0.293 OA
BRANCH  29  31
HETATM   31  C17 UNL     1      -6.813   3.256  12.424  1.00  0.00     0.052 C 
HETATM   32  C18 UNL     1      -5.883   2.698  11.626  1.00  0.00    -0.084 C 
HETATM   33  C19 UNL     1      -6.048   1.285  11.136  1.00  0.00     0.043 C 
HETATM   34  C20 UNL     1      -4.633   3.380  11.138  1.00  0.00     0.043 C 
ENDBRANCH  29  31
ENDBRANCH  28  29
ENDBRANCH  26  28
ENDBRANCH  13  26
BRANCH   1  35
HETATM   35  O1  UNL     1      -2.064  12.337  14.166  1.00  0.00    -0.365 OA
HETATM   36  C1  UNL     1      -1.720  13.669  13.812  1.00  0.00     0.204 C 
ENDBRANCH   1  35
TORSDOF 5
ENDMDL
MODEL 7
REMARK minimizedAffinity -7.84099483
REMARK  5 active torsions:
REMARK  status: ('A' for Active; 'I' for Inactive)
REMARK    1  A    between atoms: O1_2  and  C2_3 
REMARK    2  A    between atoms: C12_15  and  C13_16 
REMARK    3  A    between atoms: C13_16  and  C15_18 
REMARK    4  A    between atoms: C15_18  and  C16_19 
REMARK    5  A    between atoms: C16_19  and  C17_21 
ROOT
HETATM    1  C2  UNL     1      -2.401   7.534  16.299  1.00  0.00     0.270 C 
HETATM    2  O2  UNL     1      -3.338   8.609  16.415  1.00  0.00    -0.347 OA
HETATM    3  C3  UNL     1      -2.728   9.823  15.929  1.00  0.00     0.089 C 
HETATM    4  C4  UNL     1      -3.279  10.036  14.509  1.00  0.00     0.118 C 
HETATM    5  C5  UNL     1      -2.928   8.934  13.530  1.00  0.00     0.135 C 
HETATM    6  O3  UNL     1      -3.524   8.881  12.449  1.00  0.00    -0.297 OA
HETATM    7  C6  UNL     1      -1.792   7.955  13.839  1.00  0.00     0.078 C 
HETATM    8  C7  UNL     1      -1.285   8.032  15.339  1.00  0.00     0.027 C 
HETATM    9  C8  UNL     1      -0.003   7.181  15.584  1.00  0.00     0.016 C 
HETATM   10  C9  UNL     1       1.052   7.170  14.466  1.00  0.00     0.011 C 
HETATM   11  C10 UNL     1       0.410   6.891  13.099  1.00  0.00    -0.032 C 
HETATM   12  C11 UNL     1      -0.205   5.457  13.144  1.00  0.00     0.016 C 
HETATM   13  C12 UNL     1       1.346   7.010  11.862  1.00  0.00    -0.002 C 
HETATM   14  C21 UNL     1       0.344   7.216  10.693  1.00  0.00     0.006 C 
HETATM   15  C22 UNL     1      -0.990   7.689  11.328  1.00  0.00     0.011 C 
HETATM   16  C23 UNL     1      -0.635   8.030  12.793  1.00  0.00    -0.025 C 
HETATM   17  C24 UNL     1      -0.029   9.471  12.741  1.00  0.00     0.016 C 
HETATM   18  C25 UNL     1      -1.218   9.507  15.795  1.00  0.00     0.036 C 
HETATM   19  C26 UNL     1      -0.431   9.807  17.074  1.00  0.00     0.016 C 
HETATM   20  C27 UNL     1      -0.532  11.282  17.447  1.00  0.00     0.079 C 
HETATM   21  C28 UNL     1      -1.848  11.905  17.029  1.00  0.00     0.137 C 
HETATM   22  O5  UNL     1      -1.910  13.116  16.812  1.00  0.00    -0.297 OA
HETATM   23  C29 UNL     1      -3.070  10.988  16.931  1.00  0.00     0.045 C 
HETATM   24  C30 UNL     1      -4.299  11.819  16.503  1.00  0.00     0.026 C 
HETATM   25  C31 UNL     1      -3.388  10.489  18.362  1.00  0.00     0.026 C 
ENDROOT
BRANCH  13  26
HETATM   26  C13 UNL     1       2.450   5.934  11.659  1.00  0.00    -0.007 C 
HETATM   27  C14 UNL     1       3.816   6.634  11.511  1.00  0.00     0.011 C 
BRANCH  26  28
HETATM   28  C15 UNL     1       2.260   4.990  10.455  1.00  0.00     0.087 C 
BRANCH  28  29
HETATM   29  C16 UNL     1       3.171   5.361   9.294  1.00  0.00     0.149 C 
HETATM   30  O4  UNL     1       3.717   4.513   8.594  1.00  0.00    -0.293 OA
BRANCH  29  31
HETATM   31  C17 UNL     1       3.324   6.819   9.015  1.00  0.00     0.052 C 
HETATM   32  C18 UNL     1       2.771   7.474   7.976  1.00  0.00    -0.084 C 
HETATM   33  C19 UNL     1       2.967   8.957   7.819  1.00  0.00     0.043 C 
HETATM   34  C20 UNL     1       1.941   6.841   6.891  1.00  0.00     0.043 C 
ENDBRANCH  29  31
ENDBRANCH  28  29
ENDBRANCH  26  28
ENDBRANCH  13  26
BRANCH   1  35
HETATM   35  O1  UNL     1      -3.013   6.350  15.817  1.00  0.00    -0.365 OA
HETATM   36  C1  UNL     1      -4.427   6.461  15.756  1.00  0.00     0.204 C 
ENDBRANCH   1  35
TORSDOF 5
ENDMDL
MODEL 8
REMARK minimizedAffinity -7.78136539
REMARK  5 active torsions:
REMARK  status: ('A' for Active; 'I' for Inactive)
REMARK    1  A    between atoms: O1_2  and  C2_3 
REMARK    2  A    between atoms: C12_15  and  C13_16 
REMARK    3  A    between atoms: C13_16  and  C15_18 
REMARK    4  A    between atoms: C15_18  and  C16_19 
REMARK    5  A    between atoms: C16_19  and  C17_21 
ROOT
HETATM    1  C2  UNL     1       0.587   8.693  11.762  1.00  0.00     0.270 C 
HETATM    2  O2  UNL     1       1.916   8.240  12.035  1.00  0.00    -0.347 OA
HETATM    3  C3  UNL     1       2.142   8.271  13.461  1.00  0.00     0.089 C 
HETATM    4  C4  UNL     1       1.985   6.820  13.947  1.00  0.00     0.118 C 
HETATM    5  C5  UNL     1       0.606   6.232  13.724  1.00  0.00     0.135 C 
HETATM    6  O3  UNL     1       0.449   5.013  13.843  1.00  0.00    -0.297 OA
HETATM    7  C6  UNL     1      -0.590   7.145  13.441  1.00  0.00     0.078 C 
HETATM    8  C7  UNL     1      -0.178   8.640  13.114  1.00  0.00     0.027 C 
HETATM    9  C8  UNL     1      -1.405   9.597  13.028  1.00  0.00     0.016 C 
HETATM   10  C9  UNL     1      -2.541   9.367  14.038  1.00  0.00     0.011 C 
HETATM   11  C10 UNL     1      -2.948   7.886  14.088  1.00  0.00    -0.032 C 
HETATM   12  C11 UNL     1      -3.513   7.499  12.686  1.00  0.00     0.016 C 
HETATM   13  C12 UNL     1      -3.980   7.494  15.185  1.00  0.00    -0.002 C 
HETATM   14  C21 UNL     1      -3.759   5.962  15.328  1.00  0.00     0.006 C 
HETATM   15  C22 UNL     1      -2.363   5.655  14.728  1.00  0.00     0.011 C 
HETATM   16  C23 UNL     1      -1.698   7.037  14.535  1.00  0.00    -0.025 C 
HETATM   17  C24 UNL     1      -1.126   7.413  15.941  1.00  0.00     0.016 C 
HETATM   18  C25 UNL     1       0.966   9.086  14.052  1.00  0.00     0.036 C 
HETATM   19  C26 UNL     1       1.262  10.586  14.129  1.00  0.00     0.016 C 
HETATM   20  C27 UNL     1       2.469  10.863  15.018  1.00  0.00     0.079 C 
HETATM   21  C28 UNL     1       3.488   9.743  14.991  1.00  0.00     0.137 C 
HETATM   22  O5  UNL     1       4.235   9.571  15.954  1.00  0.00    -0.297 OA
HETATM   23  C29 UNL     1       3.568   8.885  13.725  1.00  0.00     0.045 C 
HETATM   24  C30 UNL     1       4.668   7.815  13.901  1.00  0.00     0.026 C 
HETATM   25  C31 UNL     1       4.061   9.799  12.577  1.00  0.00     0.026 C 
ENDROOT
BRANCH  13  26
HETATM   26  C13 UNL     1      -5.449   7.981  15.033  1.00  0.00    -0.007 C 
HETATM   27  C14 UNL     1      -5.628   9.295  15.818  1.00  0.00     0.011 C 
BRANCH  26  28
HETATM   28  C15 UNL     1      -6.539   6.992  15.491  1.00  0.00     0.087 C 
BRANCH  28  29
HETATM   29  C16 UNL     1      -7.369   6.482  14.322  1.00  0.00     0.149 C 
HETATM   30  O4  UNL     1      -8.571   6.712  14.225  1.00  0.00    -0.293 OA
BRANCH  29  31
HETATM   31  C17 UNL     1      -6.631   5.730  13.266  1.00  0.00     0.052 C 
HETATM   32  C18 UNL     1      -6.668   4.395  13.092  1.00  0.00    -0.084 C 
HETATM   33  C19 UNL     1      -5.907   3.752  11.964  1.00  0.00     0.043 C 
HETATM   34  C20 UNL     1      -7.425   3.426  13.961  1.00  0.00     0.043 C 
ENDBRANCH  29  31
ENDBRANCH  28  29
ENDBRANCH  26  28
ENDBRANCH  13  26
BRANCH   1  35
HETATM   35  O1  UNL     1      -0.048   7.900  10.773  1.00  0.00    -0.365 OA
HETATM   36  C1  UNL     1       0.107   8.439   9.469  1.00  0.00     0.204 C 
ENDBRANCH   1  35
TORSDOF 5
ENDMDL
MODEL 9
REMARK minimizedAffinity -7.75678921
REMARK  5 active torsions:
REMARK  status: ('A' for Active; 'I' for Inactive)
REMARK    1  A    between atoms: O1_2  and  C2_3 
REMARK    2  A    between atoms: C12_15  and  C13_16 
REMARK    3  A    between atoms: C13_16  and  C15_18 
REMARK    4  A    between atoms: C15_18  and  C16_19 
REMARK    5  A    between atoms: C16_19  and  C17_21 
ROOT
HETATM    1  C2  UNL     1       0.168  10.188  16.384  1.00  0.00     0.270 C 
HETATM    2  O2  UNL     1      -0.865  10.651  17.258  1.00  0.00    -0.347 OA
HETATM    3  C3  UNL     1      -2.077  10.843  16.497  1.00  0.00     0.089 C 
HETATM    4  C4  UNL     1      -2.954   9.610  16.779  1.00  0.00     0.118 C 
HETATM    5  C5  UNL     1      -2.346   8.296  16.332  1.00  0.00     0.135 C 
HETATM    6  O3  UNL     1      -2.844   7.239  16.732  1.00  0.00    -0.297 OA
HETATM    7  C6  UNL     1      -1.187   8.278  15.331  1.00  0.00     0.078 C 
HETATM    8  C7  UNL     1      -0.541   9.704  15.088  1.00  0.00     0.027 C 
HETATM    9  C8  UNL     1       0.495   9.705  13.925  1.00  0.00     0.016 C 
HETATM   10  C9  UNL     1       0.163   8.847  12.694  1.00  0.00     0.011 C 
HETATM   11  C10 UNL     1      -0.264   7.429  13.105  1.00  0.00    -0.032 C 
HETATM   12  C11 UNL     1       0.953   6.749  13.807  1.00  0.00     0.016 C 
HETATM   13  C12 UNL     1      -0.779   6.507  11.961  1.00  0.00    -0.002 C 
HETATM   14  C21 UNL     1      -1.601   5.436  12.730  1.00  0.00     0.006 C 
HETATM   15  C22 UNL     1      -1.927   6.039  14.122  1.00  0.00     0.011 C 
HETATM   16  C23 UNL     1      -1.551   7.534  14.007  1.00  0.00    -0.025 C 
HETATM   17  C24 UNL     1      -2.779   8.209  13.312  1.00  0.00     0.016 C 
HETATM   18  C25 UNL     1      -1.651  10.776  15.010  1.00  0.00     0.036 C 
HETATM   19  C26 UNL     1      -1.263  12.144  14.441  1.00  0.00     0.016 C 
HETATM   20  C27 UNL     1      -2.431  13.121  14.513  1.00  0.00     0.079 C 
HETATM   21  C28 UNL     1      -3.343  12.860  15.694  1.00  0.00     0.137 C 
HETATM   22  O5  UNL     1      -4.525  13.202  15.641  1.00  0.00    -0.297 OA
HETATM   23  C29 UNL     1      -2.730  12.207  16.935  1.00  0.00     0.045 C 
HETATM   24  C30 UNL     1      -3.820  12.041  18.017  1.00  0.00     0.026 C 
HETATM   25  C31 UNL     1      -1.709  13.209  17.529  1.00  0.00     0.026 C 
ENDROOT
BRANCH  13  26
HETATM   26  C13 UNL     1       0.241   5.988  10.908  1.00  0.00    -0.007 C 
HETATM   27  C14 UNL     1       0.819   4.641  11.388  1.00  0.00     0.011 C 
BRANCH  26  28
HETATM   28  C15 UNL     1       1.418   6.930  10.586  1.00  0.00     0.087 C 
BRANCH  28  29
HETATM   29  C16 UNL     1       2.479   6.242   9.740  1.00  0.00     0.149 C 
HETATM   30  O4  UNL     1       2.265   5.885   8.585  1.00  0.00    -0.293 OA
BRANCH  29  31
HETATM   31  C17 UNL     1       3.820   6.071  10.374  1.00  0.00     0.052 C 
HETATM   32  C18 UNL     1       4.735   7.047  10.530  1.00  0.00    -0.084 C 
HETATM   33  C19 UNL     1       6.041   6.761  11.220  1.00  0.00     0.043 C 
HETATM   34  C20 UNL     1       4.584   8.466  10.053  1.00  0.00     0.043 C 
ENDBRANCH  29  31
ENDBRANCH  28  29
ENDBRANCH  26  28
ENDBRANCH  13  26
BRANCH   1  35
HETATM   35  O1  UNL     1       0.935   9.154  16.975  1.00  0.00    -0.365 OA
HETATM   36  C1  UNL     1       2.279   9.548  17.214  1.00  0.00     0.204 C 
ENDBRANCH   1  35
TORSDOF 5
ENDMDL
