MODEL 1
REMARK minimizedAffinity -8.97635174
REMARK CNNscore 0.658420444
REMARK CNNaffinity 6.66243362
REMARK  5 active torsions:
REMARK  status: ('A' for Active; 'I' for Inactive)
REMARK    1  A    between atoms: C2_2  and  C4_4 
REMARK    2  A    between atoms: C10_11  and  O2_12 
REMARK    3  A    between atoms: C13_15  and  O3_16 
REMARK    4  A    between atoms: C32_38  and  O5_39 
REMARK    5  A    between atoms: C37_45  and  O7_46 
ROOT
HETATM    1  C4  UNL     1     -15.010  43.460 -22.621  1.00  0.00     0.181 C 
HETATM    2  O1  UNL     1     -14.048  44.521 -22.825  1.00  0.00    -0.370 OA
HETATM    3  C5  UNL     1     -14.510  45.434 -23.833  1.00  0.00     0.163 C 
HETATM    4  C6  UNL     1     -13.626  46.689 -23.854  1.00  0.00     0.036 C 
HETATM    5  C7  UNL     1     -12.340  46.606 -24.681  1.00  0.00     0.016 C 
HETATM    6  C8  UNL     1     -12.424  45.718 -25.970  1.00  0.00     0.006 C 
HETATM    7  C9  UNL     1     -11.694  44.401 -25.568  1.00  0.00     0.020 C 
HETATM    8  C10 UNL     1     -13.948  45.394 -26.344  1.00  0.00     0.102 C 
HETATM    9  C11 UNL     1     -14.106  44.620 -27.689  1.00  0.00     0.045 C 
HETATM   10  C12 UNL     1     -13.358  45.239 -28.900  1.00  0.00     0.045 C 
HETATM   11  C13 UNL     1     -11.903  45.482 -28.520  1.00  0.00     0.102 C 
HETATM   12  C14 UNL     1     -10.892  46.095 -29.590  1.00  0.00     0.194 C 
HETATM   13  O4  UNL     1     -10.526  45.013 -30.443  1.00  0.00    -0.367 OA
HETATM   14  C15 UNL     1      -9.938  45.269 -31.727  1.00  0.00     0.061 C 
HETATM   15  C16 UNL     1      -9.945  43.872 -32.388  1.00  0.00     0.046 C 
HETATM   16  C17 UNL     1     -10.815  46.171 -32.596  1.00  0.00     0.046 C 
HETATM   17  C18 UNL     1      -8.472  45.715 -31.582  1.00  0.00     0.060 C 
HETATM   18  C19 UNL     1      -7.609  45.872 -32.849  1.00  0.00     0.023 C 
HETATM   19  C20 UNL     1      -6.849  47.045 -32.198  1.00  0.00     0.054 C 
HETATM   20  C21 UNL     1      -5.495  46.836 -31.594  1.00  0.00    -0.077 C 
HETATM   21  C22 UNL     1      -4.604  46.008 -32.177  1.00  0.00     0.015 C 
HETATM   22  C23 UNL     1      -5.178  47.666 -30.355  1.00  0.00     0.074 C 
HETATM   23  C24 UNL     1      -6.204  47.530 -29.244  1.00  0.00    -0.022 C 
HETATM   24  C25 UNL     1      -5.895  47.743 -27.893  1.00  0.00     0.043 C 
HETATM   25 CL1  UNL     1      -4.301  48.186 -27.389  1.00  0.00    -0.084 Cl
HETATM   26  C26 UNL     1      -6.870  47.626 -26.894  1.00  0.00     0.054 C 
HETATM   27  C27 UNL     1      -8.158  47.229 -27.284  1.00  0.00     0.045 A 
HETATM   28  N1  UNL     1      -9.299  47.018 -26.515  1.00  0.00    -0.357 N 
HETATM   29  C28 UNL     1     -10.303  46.660 -27.343  1.00  0.00     0.032 A 
HETATM   30  C29 UNL     1      -9.829  46.562 -28.633  1.00  0.00     0.010 A 
HETATM   31  C30 UNL     1      -8.495  47.000 -28.631  1.00  0.00     0.011 A 
HETATM   32  C31 UNL     1      -7.534  47.238 -29.632  1.00  0.00    -0.001 C 
HETATM   33  C32 UNL     1      -8.014  47.155 -31.135  1.00  0.00     0.100 C 
HETATM   34  C33 UNL     1     -11.779  46.428 -27.228  1.00  0.00     0.043 C 
HETATM   35  C34 UNL     1     -12.409  47.834 -27.535  1.00  0.00     0.026 C 
HETATM   36  C35 UNL     1     -14.600  44.708 -25.155  1.00  0.00     0.147 A 
HETATM   37  O6  UNL     1     -15.928  44.175 -25.395  1.00  0.00    -0.360 OA
HETATM   38  C36 UNL     1     -14.904  43.218 -25.141  1.00  0.00     0.194 A 
HETATM   39  C37 UNL     1     -14.942  42.491 -23.834  1.00  0.00     0.183 C 
HETATM   40  H37 UNL     1      -9.361  47.143 -25.512  1.00  0.00     0.166 HD
ENDROOT
BRANCH   1  41
HETATM   41  C2  UNL     1     -14.747  42.765 -21.284  1.00  0.00    -0.062 C 
HETATM   42  C1  UNL     1     -13.810  41.824 -21.097  1.00  0.00     0.016 C 
HETATM   43  C3  UNL     1     -15.638  43.212 -20.151  1.00  0.00     0.045 C 
ENDBRANCH   1  41
BRANCH  39  44
HETATM   44  O7  UNL     1     -13.763  41.687 -23.792  1.00  0.00    -0.390 OA
HETATM   45  H44 UNL     1     -13.038  42.255 -23.481  1.00  0.00     0.210 HD
ENDBRANCH  39  44
BRANCH   8  46
HETATM   46  O2  UNL     1     -14.657  46.639 -26.510  1.00  0.00    -0.386 OA
HETATM   47  H15 UNL     1     -15.330  46.529 -27.211  1.00  0.00     0.210 HD
ENDBRANCH   8  46
BRANCH  11  48
HETATM   48  O3  UNL     1     -11.386  44.152 -28.228  1.00  0.00    -0.386 OA
HETATM   49  H20 UNL     1     -11.228  43.716 -29.101  1.00  0.00     0.210 HD
ENDBRANCH  11  48
BRANCH  33  50
HETATM   50  O5  UNL     1      -8.915  48.244 -31.468  1.00  0.00    -0.384 OA
HETATM   51  H38 UNL     1      -9.379  48.445 -30.642  1.00  0.00     0.211 HD
ENDBRANCH  33  50
TORSDOF 5
ENDMDL
MODEL 2
REMARK minimizedAffinity -8.01821995
REMARK CNNscore 0.651436925
REMARK CNNaffinity 7.3723197
REMARK  5 active torsions:
REMARK  status: ('A' for Active; 'I' for Inactive)
REMARK    1  A    between atoms: C2_2  and  C4_4 
REMARK    2  A    between atoms: C10_11  and  O2_12 
REMARK    3  A    between atoms: C13_15  and  O3_16 
REMARK    4  A    between atoms: C32_38  and  O5_39 
REMARK    5  A    between atoms: C37_45  and  O7_46 
ROOT
HETATM    1  C4  UNL     1     -10.038  43.325 -15.090  1.00  0.00     0.181 C 
HETATM    2  O1  UNL     1      -9.126  44.427 -15.308  1.00  0.00    -0.370 OA
HETATM    3  C5  UNL     1      -9.812  45.541 -15.899  1.00  0.00     0.163 C 
HETATM    4  C6  UNL     1      -8.914  46.786 -15.879  1.00  0.00     0.036 C 
HETATM    5  C7  UNL     1      -7.921  46.932 -17.035  1.00  0.00     0.016 C 
HETATM    6  C8  UNL     1      -8.407  46.372 -18.416  1.00  0.00     0.006 C 
HETATM    7  C9  UNL     1      -7.653  45.015 -18.558  1.00  0.00     0.020 C 
HETATM    8  C10 UNL     1      -9.988  46.109 -18.403  1.00  0.00     0.102 C 
HETATM    9  C11 UNL     1     -10.555  45.672 -19.788  1.00  0.00     0.045 C 
HETATM   10  C12 UNL     1     -10.154  46.578 -20.984  1.00  0.00     0.045 C 
HETATM   11  C13 UNL     1      -8.642  46.758 -20.990  1.00  0.00     0.102 C 
HETATM   12  C14 UNL     1      -7.949  47.630 -22.131  1.00  0.00     0.194 C 
HETATM   13  O4  UNL     1      -7.889  46.790 -23.280  1.00  0.00    -0.367 OA
HETATM   14  C15 UNL     1      -7.678  47.356 -24.582  1.00  0.00     0.061 C 
HETATM   15  C16 UNL     1      -7.935  46.155 -25.521  1.00  0.00     0.046 C 
HETATM   16  C17 UNL     1      -8.723  48.417 -24.929  1.00  0.00     0.046 C 
HETATM   17  C18 UNL     1      -6.212  47.790 -24.762  1.00  0.00     0.060 C 
HETATM   18  C19 UNL     1      -5.737  48.262 -26.151  1.00  0.00     0.023 C 
HETATM   19  C20 UNL     1      -4.771  49.266 -25.490  1.00  0.00     0.054 C 
HETATM   20  C21 UNL     1      -3.312  48.953 -25.364  1.00  0.00    -0.077 C 
HETATM   21  C22 UNL     1      -2.662  48.307 -26.354  1.00  0.00     0.015 C 
HETATM   22  C23 UNL     1      -2.620  49.473 -24.109  1.00  0.00     0.074 C 
HETATM   23  C24 UNL     1      -3.294  49.054 -22.815  1.00  0.00    -0.022 C 
HETATM   24  C25 UNL     1      -2.606  48.949 -21.598  1.00  0.00     0.043 C 
HETATM   25 CL1  UNL     1      -0.916  49.298 -21.483  1.00  0.00    -0.084 Cl
HETATM   26  C26 UNL     1      -3.262  48.576 -20.419  1.00  0.00     0.054 C 
HETATM   27  C27 UNL     1      -4.624  48.251 -20.505  1.00  0.00     0.045 A 
HETATM   28  N1  UNL     1      -5.508  47.838 -19.513  1.00  0.00    -0.357 N 
HETATM   29  C28 UNL     1      -6.721  47.662 -20.078  1.00  0.00     0.032 A 
HETATM   30  C29 UNL     1      -6.638  47.883 -21.436  1.00  0.00     0.010 A 
HETATM   31  C30 UNL     1      -5.339  48.340 -21.714  1.00  0.00     0.011 A 
HETATM   32  C31 UNL     1      -4.691  48.831 -22.863  1.00  0.00    -0.001 C 
HETATM   33  C32 UNL     1      -5.582  49.093 -24.142  1.00  0.00     0.100 C 
HETATM   34  C33 UNL     1      -8.114  47.374 -19.604  1.00  0.00     0.043 C 
HETATM   35  C34 UNL     1      -8.739  48.797 -19.381  1.00  0.00     0.026 C 
HETATM   36  C35 UNL     1     -10.307  45.147 -17.272  1.00  0.00     0.147 A 
HETATM   37  O6  UNL     1     -11.671  44.653 -17.239  1.00  0.00    -0.360 OA
HETATM   38  C36 UNL     1     -10.662  43.689 -17.518  1.00  0.00     0.194 A 
HETATM   39  C37 UNL     1     -10.361  42.673 -16.463  1.00  0.00     0.183 C 
HETATM   40  H37 UNL     1      -5.278  47.720 -18.534  1.00  0.00     0.166 HD
ENDROOT
BRANCH   1  41
HETATM   41  C2  UNL     1      -9.439  42.341 -14.085  1.00  0.00    -0.062 C 
HETATM   42  C1  UNL     1      -8.203  42.447 -13.573  1.00  0.00     0.016 C 
HETATM   43  C3  UNL     1     -10.348  41.202 -13.693  1.00  0.00     0.045 C 
ENDBRANCH   1  41
BRANCH  39  44
HETATM   44  O7  UNL     1      -9.256  41.909 -16.949  1.00  0.00    -0.390 OA
HETATM   45  H44 UNL     1      -8.448  42.405 -16.734  1.00  0.00     0.210 HD
ENDBRANCH  39  44
BRANCH   8  46
HETATM   46  O2  UNL     1     -10.657  47.341 -18.064  1.00  0.00    -0.386 OA
HETATM   47  H15 UNL     1     -11.505  47.384 -18.549  1.00  0.00     0.210 HD
ENDBRANCH   8  46
BRANCH  11  48
HETATM   48  O3  UNL     1      -8.124  45.409 -21.176  1.00  0.00    -0.386 OA
HETATM   49  H20 UNL     1      -8.240  45.197 -22.135  1.00  0.00     0.210 HD
ENDBRANCH  11  48
BRANCH  33  50
HETATM   50  O5  UNL     1      -6.489  50.209 -23.940  1.00  0.00    -0.384 OA
HETATM   51  H38 UNL     1      -6.690  50.198 -22.992  1.00  0.00     0.211 HD
ENDBRANCH  33  50
TORSDOF 5
ENDMDL
MODEL 3
REMARK minimizedAffinity -9.13286972
REMARK CNNscore 0.641431212
REMARK CNNaffinity 7.32325363
REMARK  5 active torsions:
REMARK  status: ('A' for Active; 'I' for Inactive)
REMARK    1  A    between atoms: C2_2  and  C4_4 
REMARK    2  A    between atoms: C10_11  and  O2_12 
REMARK    3  A    between atoms: C13_15  and  O3_16 
REMARK    4  A    between atoms: C32_38  and  O5_39 
REMARK    5  A    between atoms: C37_45  and  O7_46 
ROOT
HETATM    1  C4  UNL     1       4.634  50.227  -9.040  1.00  0.00     0.181 C 
HETATM    2  O1  UNL     1       4.291  51.204 -10.050  1.00  0.00    -0.370 OA
HETATM    3  C5  UNL     1       2.897  51.541  -9.973  1.00  0.00     0.163 C 
HETATM    4  C6  UNL     1       2.598  52.761 -10.856  1.00  0.00     0.036 C 
HETATM    5  C7  UNL     1       2.333  52.484 -12.338  1.00  0.00     0.016 C 
HETATM    6  C8  UNL     1       1.610  51.129 -12.652  1.00  0.00     0.006 C 
HETATM    7  C9  UNL     1       2.754  50.204 -13.167  1.00  0.00     0.020 C 
HETATM    8  C10 UNL     1       0.968  50.501 -11.325  1.00  0.00     0.102 C 
HETATM    9  C11 UNL     1       0.126  49.216 -11.590  1.00  0.00     0.045 C 
HETATM   10  C12 UNL     1      -0.938  49.343 -12.714  1.00  0.00     0.045 C 
HETATM   11  C13 UNL     1      -0.277  49.892 -13.971  1.00  0.00     0.102 C 
HETATM   12  C14 UNL     1      -1.138  50.105 -15.296  1.00  0.00     0.194 C 
HETATM   13  O4  UNL     1      -1.269  48.814 -15.885  1.00  0.00    -0.367 OA
HETATM   14  C15 UNL     1      -2.284  48.565 -16.869  1.00  0.00     0.061 C 
HETATM   15  C16 UNL     1      -2.229  47.029 -17.034  1.00  0.00     0.046 C 
HETATM   16  C17 UNL     1      -3.684  48.903 -16.355  1.00  0.00     0.046 C 
HETATM   17  C18 UNL     1      -1.907  49.199 -18.221  1.00  0.00     0.060 C 
HETATM   18  C19 UNL     1      -2.779  48.900 -19.456  1.00  0.00     0.023 C 
HETATM   19  C20 UNL     1      -2.513  50.319 -19.999  1.00  0.00     0.054 C 
HETATM   20  C21 UNL     1      -1.495  50.547 -21.073  1.00  0.00    -0.077 C 
HETATM   21  C22 UNL     1      -1.348  49.659 -22.078  1.00  0.00     0.015 C 
HETATM   22  C23 UNL     1      -0.717  51.856 -20.994  1.00  0.00     0.074 C 
HETATM   23  C24 UNL     1      -0.036  52.087 -19.656  1.00  0.00    -0.022 C 
HETATM   24  C25 UNL     1       1.105  52.889 -19.513  1.00  0.00     0.043 C 
HETATM   25 CL1  UNL     1       1.825  53.687 -20.868  1.00  0.00    -0.084 Cl
HETATM   26  C26 UNL     1       1.699  53.095 -18.261  1.00  0.00     0.054 C 
HETATM   27  C27 UNL     1       1.149  52.423 -17.160  1.00  0.00     0.045 A 
HETATM   28  N1  UNL     1       1.540  52.428 -15.824  1.00  0.00    -0.357 N 
HETATM   29  C28 UNL     1       0.690  51.638 -15.135  1.00  0.00     0.032 A 
HETATM   30  C29 UNL     1      -0.210  51.056 -16.001  1.00  0.00     0.010 A 
HETATM   31  C30 UNL     1       0.010  51.605 -17.275  1.00  0.00     0.011 A 
HETATM   32  C31 UNL     1      -0.644  51.505 -18.518  1.00  0.00    -0.001 C 
HETATM   33  C32 UNL     1      -2.023  50.734 -18.554  1.00  0.00     0.100 C 
HETATM   34  C33 UNL     1       0.435  51.306 -13.696  1.00  0.00     0.043 C 
HETATM   35  C34 UNL     1      -0.636  52.363 -13.248  1.00  0.00     0.026 C 
HETATM   36  C35 UNL     1       2.073  50.316 -10.297  1.00  0.00     0.147 A 
HETATM   37  O6  UNL     1       1.697  49.581  -9.104  1.00  0.00    -0.360 OA
HETATM   38  C36 UNL     1       2.647  48.950  -9.957  1.00  0.00     0.194 A 
HETATM   39  C37 UNL     1       4.058  48.849  -9.470  1.00  0.00     0.183 C 
HETATM   40  H37 UNL     1       2.312  52.959 -15.441  1.00  0.00     0.166 HD
ENDROOT
BRANCH   1  41
HETATM   41  C2  UNL     1       6.149  50.204  -8.828  1.00  0.00    -0.062 C 
HETATM   42  C1  UNL     1       6.766  49.465  -7.893  1.00  0.00     0.016 C 
HETATM   43  C3  UNL     1       6.934  51.093  -9.760  1.00  0.00     0.045 C 
ENDBRANCH   1  41
BRANCH  39  44
HETATM   44  O7  UNL     1       4.810  48.283 -10.543  1.00  0.00    -0.390 OA
HETATM   45  H44 UNL     1       5.046  49.009 -11.144  1.00  0.00     0.210 HD
ENDBRANCH  39  44
BRANCH   8  46
HETATM   46  O2  UNL     1       0.063  51.466 -10.750  1.00  0.00    -0.386 OA
HETATM   47  H15 UNL     1      -0.688  50.990 -10.341  1.00  0.00     0.210 HD
ENDBRANCH   8  46
BRANCH  11  48
HETATM   48  O3  UNL     1       0.714  48.884 -14.321  1.00  0.00    -0.386 OA
HETATM   49  H20 UNL     1       0.218  48.140 -14.741  1.00  0.00     0.210 HD
ENDBRANCH  11  48
BRANCH  33  50
HETATM   50  O5  UNL     1      -3.060  51.465 -17.848  1.00  0.00    -0.384 OA
HETATM   51  H38 UNL     1      -2.595  51.943 -17.145  1.00  0.00     0.211 HD
ENDBRANCH  33  50
TORSDOF 5
ENDMDL
MODEL 4
REMARK minimizedAffinity -8.54087543
REMARK CNNscore 0.56782937
REMARK CNNaffinity 7.02530479
REMARK  5 active torsions:
REMARK  status: ('A' for Active; 'I' for Inactive)
REMARK    1  A    between atoms: C2_2  and  C4_4 
REMARK    2  A    between atoms: C10_11  and  O2_12 
REMARK    3  A    between atoms: C13_15  and  O3_16 
REMARK    4  A    between atoms: C32_38  and  O5_39 
REMARK    5  A    between atoms: C37_45  and  O7_46 
ROOT
HETATM    1  C4  UNL     1       7.433  55.202  -5.199  1.00  0.00     0.181 C 
HETATM    2  O1  UNL     1       7.330  54.725  -6.560  1.00  0.00    -0.370 OA
HETATM    3  C5  UNL     1       6.599  55.660  -7.369  1.00  0.00     0.163 C 
HETATM    4  C6  UNL     1       6.724  55.286  -8.853  1.00  0.00     0.036 C 
HETATM    5  C7  UNL     1       5.741  54.236  -9.379  1.00  0.00     0.016 C 
HETATM    6  C8  UNL     1       4.318  54.256  -8.721  1.00  0.00     0.006 C 
HETATM    7  C9  UNL     1       4.345  53.052  -7.731  1.00  0.00     0.020 C 
HETATM    8  C10 UNL     1       4.082  55.616  -7.907  1.00  0.00     0.102 C 
HETATM    9  C11 UNL     1       2.639  55.753  -7.334  1.00  0.00     0.045 C 
HETATM   10  C12 UNL     1       1.495  55.514  -8.357  1.00  0.00     0.045 C 
HETATM   11  C13 UNL     1       1.729  54.189  -9.070  1.00  0.00     0.102 C 
HETATM   12  C14 UNL     1       0.689  53.679 -10.165  1.00  0.00     0.194 C 
HETATM   13  O4  UNL     1      -0.408  53.134  -9.435  1.00  0.00    -0.367 OA
HETATM   14  C15 UNL     1      -1.676  52.931 -10.076  1.00  0.00     0.061 C 
HETATM   15  C16 UNL     1      -2.604  52.581  -8.891  1.00  0.00     0.046 C 
HETATM   16  C17 UNL     1      -2.222  54.216 -10.700  1.00  0.00     0.046 C 
HETATM   17  C18 UNL     1      -1.629  51.710 -11.014  1.00  0.00     0.060 C 
HETATM   18  C19 UNL     1      -2.936  51.216 -11.665  1.00  0.00     0.023 C 
HETATM   19  C20 UNL     1      -2.160  50.799 -12.930  1.00  0.00     0.054 C 
HETATM   20  C21 UNL     1      -1.788  49.366 -13.159  1.00  0.00    -0.077 C 
HETATM   21  C22 UNL     1      -2.637  48.375 -12.819  1.00  0.00     0.015 C 
HETATM   22  C23 UNL     1      -0.455  49.122 -13.858  1.00  0.00     0.074 C 
HETATM   23  C24 UNL     1       0.725  49.803 -13.187  1.00  0.00    -0.022 C 
HETATM   24  C25 UNL     1       2.040  49.332 -13.303  1.00  0.00     0.043 C 
HETATM   25 CL1  UNL     1       2.418  47.924 -14.233  1.00  0.00    -0.084 Cl
HETATM   26  C26 UNL     1       3.109  49.994 -12.685  1.00  0.00     0.054 C 
HETATM   27  C27 UNL     1       2.813  51.114 -11.895  1.00  0.00     0.045 A 
HETATM   28  N1  UNL     1       3.661  51.940 -11.163  1.00  0.00    -0.357 N 
HETATM   29  C28 UNL     1       2.911  52.899 -10.578  1.00  0.00     0.032 A 
HETATM   30  C29 UNL     1       1.579  52.679 -10.853  1.00  0.00     0.010 A 
HETATM   31  C30 UNL     1       1.501  51.605 -11.754  1.00  0.00     0.011 A 
HETATM   32  C31 UNL     1       0.457  50.999 -12.478  1.00  0.00    -0.001 C 
HETATM   33  C32 UNL     1      -0.958  51.701 -12.439  1.00  0.00     0.100 C 
HETATM   34  C33 UNL     1       3.162  54.152  -9.795  1.00  0.00     0.043 C 
HETATM   35  C34 UNL     1       3.233  55.275 -10.891  1.00  0.00     0.026 C 
HETATM   36  C35 UNL     1       5.178  55.747  -6.862  1.00  0.00     0.147 A 
HETATM   37  O6  UNL     1       5.004  56.829  -5.910  1.00  0.00    -0.360 OA
HETATM   38  C36 UNL     1       4.925  55.509  -5.382  1.00  0.00     0.194 A 
HETATM   39  C37 UNL     1       6.048  55.040  -4.513  1.00  0.00     0.183 C 
HETATM   40  H37 UNL     1       4.667  51.847 -11.108  1.00  0.00     0.166 HD
ENDROOT
BRANCH   1  41
HETATM   41  C2  UNL     1       8.554  54.463  -4.468  1.00  0.00    -0.062 C 
HETATM   42  C1  UNL     1       8.414  53.253  -3.905  1.00  0.00     0.016 C 
HETATM   43  C3  UNL     1       9.869  55.201  -4.410  1.00  0.00     0.045 C 
ENDBRANCH   1  41
BRANCH  39  44
HETATM   44  O7  UNL     1       5.774  53.671  -4.212  1.00  0.00    -0.390 OA
HETATM   45  H44 UNL     1       6.100  53.142  -4.959  1.00  0.00     0.210 HD
ENDBRANCH  39  44
BRANCH   8  46
HETATM   46  O2  UNL     1       4.268  56.728  -8.806  1.00  0.00    -0.386 OA
HETATM   47  H15 UNL     1       3.649  57.444  -8.554  1.00  0.00     0.210 HD
ENDBRANCH   8  46
BRANCH  11  48
HETATM   48  O3  UNL     1       1.674  53.197  -8.004  1.00  0.00    -0.386 OA
HETATM   49  H20 UNL     1       0.717  53.071  -7.791  1.00  0.00     0.210 HD
ENDBRANCH  11  48
BRANCH  33  50
HETATM   50  O5  UNL     1      -0.943  52.969 -13.147  1.00  0.00    -0.384 OA
HETATM   51  H38 UNL     1      -0.041  53.305 -13.037  1.00  0.00     0.211 HD
ENDBRANCH  33  50
TORSDOF 5
ENDMDL
MODEL 5
REMARK minimizedAffinity -8.76978397
REMARK CNNscore 0.541472316
REMARK CNNaffinity 7.20835114
REMARK  5 active torsions:
REMARK  status: ('A' for Active; 'I' for Inactive)
REMARK    1  A    between atoms: C2_2  and  C4_4 
REMARK    2  A    between atoms: C10_11  and  O2_12 
REMARK    3  A    between atoms: C13_15  and  O3_16 
REMARK    4  A    between atoms: C32_38  and  O5_39 
REMARK    5  A    between atoms: C37_45  and  O7_46 
ROOT
HETATM    1  C4  UNL     1     -11.096  43.668 -29.549  1.00  0.00     0.181 C 
HETATM    2  O1  UNL     1     -10.884  43.520 -28.126  1.00  0.00    -0.370 OA
HETATM    3  C5  UNL     1     -11.363  44.676 -27.422  1.00  0.00     0.163 C 
HETATM    4  C6  UNL     1     -11.383  44.403 -25.911  1.00  0.00     0.036 C 
HETATM    5  C7  UNL     1     -10.070  44.630 -25.158  1.00  0.00     0.016 C 
HETATM    6  C8  UNL     1      -9.171  45.792 -25.705  1.00  0.00     0.006 C 
HETATM    7  C9  UNL     1      -8.046  45.057 -26.494  1.00  0.00     0.020 C 
HETATM    8  C10 UNL     1      -9.998  46.736 -26.701  1.00  0.00     0.102 C 
HETATM    9  C11 UNL     1      -9.197  47.984 -27.181  1.00  0.00     0.045 C 
HETATM   10  C12 UNL     1      -8.532  48.818 -26.053  1.00  0.00     0.045 C 
HETATM   11  C13 UNL     1      -7.715  47.893 -25.162  1.00  0.00     0.102 C 
HETATM   12  C14 UNL     1      -6.901  48.490 -23.927  1.00  0.00     0.194 C 
HETATM   13  O4  UNL     1      -5.718  49.060 -24.481  1.00  0.00    -0.367 OA
HETATM   14  C15 UNL     1      -4.947  50.006 -23.725  1.00  0.00     0.061 C 
HETATM   15  C16 UNL     1      -3.940  50.536 -24.771  1.00  0.00     0.046 C 
HETATM   16  C17 UNL     1      -5.782  51.204 -23.271  1.00  0.00     0.046 C 
HETATM   17  C18 UNL     1      -4.146  49.301 -22.615  1.00  0.00     0.060 C 
HETATM   18  C19 UNL     1      -3.120  50.114 -21.801  1.00  0.00     0.023 C 
HETATM   19  C20 UNL     1      -3.435  49.274 -20.547  1.00  0.00     0.054 C 
HETATM   20  C21 UNL     1      -2.527  48.161 -20.124  1.00  0.00    -0.077 C 
HETATM   21  C22 UNL     1      -1.189  48.286 -20.243  1.00  0.00     0.015 C 
HETATM   22  C23 UNL     1      -3.201  46.947 -19.495  1.00  0.00     0.074 C 
HETATM   23  C24 UNL     1      -4.303  46.344 -20.348  1.00  0.00    -0.022 C 
HETATM   24  C25 UNL     1      -4.685  44.998 -20.258  1.00  0.00     0.043 C 
HETATM   25 CL1  UNL     1      -3.918  43.914 -19.149  1.00  0.00    -0.084 Cl
HETATM   26  C26 UNL     1      -5.718  44.478 -21.047  1.00  0.00     0.054 C 
HETATM   27  C27 UNL     1      -6.322  45.336 -21.979  1.00  0.00     0.045 A 
HETATM   28  N1  UNL     1      -7.343  45.087 -22.891  1.00  0.00    -0.357 N 
HETATM   29  C28 UNL     1      -7.596  46.231 -23.561  1.00  0.00     0.032 A 
HETATM   30  C29 UNL     1      -6.713  47.210 -23.158  1.00  0.00     0.010 A 
HETATM   31  C30 UNL     1      -5.954  46.689 -22.098  1.00  0.00     0.011 A 
HETATM   32  C31 UNL     1      -4.998  47.223 -21.214  1.00  0.00    -0.001 C 
HETATM   33  C32 UNL     1      -4.760  48.785 -21.259  1.00  0.00     0.100 C 
HETATM   34  C33 UNL     1      -8.616  46.715 -24.546  1.00  0.00     0.043 C 
HETATM   35  C34 UNL     1      -9.750  47.326 -23.647  1.00  0.00     0.026 C 
HETATM   36  C35 UNL     1     -10.546  45.880 -27.831  1.00  0.00     0.147 A 
HETATM   37  O6  UNL     1     -11.160  46.609 -28.924  1.00  0.00    -0.360 OA
HETATM   38  C36 UNL     1      -9.959  45.909 -29.233  1.00  0.00     0.194 A 
HETATM   39  C37 UNL     1     -10.066  44.694 -30.099  1.00  0.00     0.183 C 
HETATM   40  H37 UNL     1      -7.827  44.205 -23.003  1.00  0.00     0.166 HD
ENDROOT
BRANCH   1  41
HETATM   41  C2  UNL     1     -11.008  42.304 -30.236  1.00  0.00    -0.062 C 
HETATM   42  C1  UNL     1     -10.939  42.135 -31.566  1.00  0.00     0.016 C 
HETATM   43  C3  UNL     1     -11.007  41.121 -29.300  1.00  0.00     0.045 C 
ENDBRANCH   1  41
BRANCH  39  44
HETATM   44  O7  UNL     1      -8.755  44.133 -30.161  1.00  0.00    -0.390 OA
HETATM   45  H44 UNL     1      -8.639  43.585 -29.367  1.00  0.00     0.210 HD
ENDBRANCH  39  44
BRANCH   8  46
HETATM   46  O2  UNL     1     -11.154  47.242 -26.003  1.00  0.00    -0.386 OA
HETATM   47  H15 UNL     1     -11.340  48.149 -26.317  1.00  0.00     0.210 HD
ENDBRANCH   8  46
BRANCH  11  48
HETATM   48  O3  UNL     1      -6.702  47.343 -26.053  1.00  0.00    -0.386 OA
HETATM   49  H20 UNL     1      -6.023  48.053 -26.173  1.00  0.00     0.210 HD
ENDBRANCH  11  48
BRANCH  33  50
HETATM   50  O5  UNL     1      -5.912  49.514 -20.759  1.00  0.00    -0.384 OA
HETATM   51  H38 UNL     1      -6.675  48.960 -20.986  1.00  0.00     0.211 HD
ENDBRANCH  33  50
TORSDOF 5
ENDMDL
MODEL 6
REMARK minimizedAffinity -8.71970081
REMARK CNNscore 0.526846111
REMARK CNNaffinity 7.39083433
REMARK  5 active torsions:
REMARK  status: ('A' for Active; 'I' for Inactive)
REMARK    1  A    between atoms: C2_2  and  C4_4 
REMARK    2  A    between atoms: C10_11  and  O2_12 
REMARK    3  A    between atoms: C13_15  and  O3_16 
REMARK    4  A    between atoms: C32_38  and  O5_39 
REMARK    5  A    between atoms: C37_45  and  O7_46 
ROOT
HETATM    1  C4  UNL     1      -5.227  45.219 -15.952  1.00  0.00     0.181 C 
HETATM    2  O1  UNL     1      -4.958  46.288 -16.888  1.00  0.00    -0.370 OA
HETATM    3  C5  UNL     1      -6.182  46.917 -17.300  1.00  0.00     0.163 C 
HETATM    4  C6  UNL     1      -5.878  48.209 -18.073  1.00  0.00     0.036 C 
HETATM    5  C7  UNL     1      -5.585  48.058 -19.568  1.00  0.00     0.016 C 
HETATM    6  C8  UNL     1      -6.364  46.908 -20.294  1.00  0.00     0.006 C 
HETATM    7  C9  UNL     1      -5.302  45.777 -20.452  1.00  0.00     0.020 C 
HETATM    8  C10 UNL     1      -7.580  46.381 -19.393  1.00  0.00     0.102 C 
HETATM    9  C11 UNL     1      -8.472  45.323 -20.112  1.00  0.00     0.045 C 
HETATM   10  C12 UNL     1      -8.965  45.726 -21.528  1.00  0.00     0.045 C 
HETATM   11  C13 UNL     1      -7.774  46.169 -22.367  1.00  0.00     0.102 C 
HETATM   12  C14 UNL     1      -7.989  46.619 -23.881  1.00  0.00     0.194 C 
HETATM   13  O4  UNL     1      -8.114  45.413 -24.631  1.00  0.00    -0.367 OA
HETATM   14  C15 UNL     1      -8.688  45.434 -25.946  1.00  0.00     0.061 C 
HETATM   15  C16 UNL     1      -8.857  43.931 -26.267  1.00  0.00     0.046 C 
HETATM   16  C17 UNL     1     -10.089  46.047 -25.959  1.00  0.00     0.046 C 
HETATM   17  C18 UNL     1      -7.699  46.025 -26.968  1.00  0.00     0.060 C 
HETATM   18  C19 UNL     1      -8.055  45.976 -28.468  1.00  0.00     0.023 C 
HETATM   19  C20 UNL     1      -7.339  47.323 -28.691  1.00  0.00     0.054 C 
HETATM   20  C21 UNL     1      -5.957  47.367 -29.267  1.00  0.00    -0.077 C 
HETATM   21  C22 UNL     1      -5.595  46.511 -30.244  1.00  0.00     0.015 C 
HETATM   22  C23 UNL     1      -5.046  48.470 -28.741  1.00  0.00     0.074 C 
HETATM   23  C24 UNL     1      -4.915  48.491 -27.229  1.00  0.00    -0.022 C 
HETATM   24  C25 UNL     1      -3.796  49.018 -26.569  1.00  0.00     0.043 C 
HETATM   25 CL1  UNL     1      -2.467  49.695 -27.445  1.00  0.00    -0.084 Cl
HETATM   26  C26 UNL     1      -3.715  49.038 -25.171  1.00  0.00     0.054 C 
HETATM   27  C27 UNL     1      -4.767  48.457 -24.449  1.00  0.00     0.045 A 
HETATM   28  N1  UNL     1      -4.939  48.321 -23.074  1.00  0.00    -0.357 N 
HETATM   29  C28 UNL     1      -6.122  47.708 -22.858  1.00  0.00     0.032 A 
HETATM   30  C29 UNL     1      -6.699  47.372 -24.064  1.00  0.00     0.010 A 
HETATM   31  C30 UNL     1      -5.900  47.913 -25.083  1.00  0.00     0.011 A 
HETATM   32  C31 UNL     1      -6.018  48.010 -26.483  1.00  0.00    -0.001 C 
HETATM   33  C32 UNL     1      -7.389  47.561 -27.129  1.00  0.00     0.100 C 
HETATM   34  C33 UNL     1      -6.979  47.380 -21.673  1.00  0.00     0.043 C 
HETATM   35  C34 UNL     1      -7.924  48.627 -21.533  1.00  0.00     0.026 C 
HETATM   36  C35 UNL     1      -7.023  45.917 -18.058  1.00  0.00     0.147 A 
HETATM   37  O6  UNL     1      -7.967  45.232 -17.193  1.00  0.00    -0.360 OA
HETATM   38  C36 UNL     1      -6.892  44.445 -17.698  1.00  0.00     0.194 A 
HETATM   39  C37 UNL     1      -5.832  44.019 -16.733  1.00  0.00     0.183 C 
HETATM   40  H37 UNL     1      -4.297  48.655 -22.367  1.00  0.00     0.166 HD
ENDROOT
BRANCH   1  41
HETATM   41  C2  UNL     1      -3.951  44.856 -15.191  1.00  0.00    -0.062 C 
HETATM   42  C1  UNL     1      -2.739  45.361 -15.471  1.00  0.00     0.016 C 
HETATM   43  C3  UNL     1      -4.140  43.860 -14.073  1.00  0.00     0.045 C 
ENDBRANCH   1  41
BRANCH  39  44
HETATM   44  O7  UNL     1      -4.838  43.347 -17.506  1.00  0.00    -0.390 OA
HETATM   45  H44 UNL     1      -4.255  44.028 -17.880  1.00  0.00     0.210 HD
ENDBRANCH  39  44
BRANCH   8  46
HETATM   46  O2  UNL     1      -8.443  47.496 -19.087  1.00  0.00    -0.386 OA
HETATM   47  H15 UNL     1      -9.368  47.178 -19.052  1.00  0.00     0.210 HD
ENDBRANCH   8  46
BRANCH  11  48
HETATM   48  O3  UNL     1      -6.930  44.984 -22.440  1.00  0.00    -0.386 OA
HETATM   49  H20 UNL     1      -7.350  44.384 -23.105  1.00  0.00     0.210 HD
ENDBRANCH  11  48
BRANCH  33  50
HETATM   50  O5  UNL     1      -8.465  48.471 -26.780  1.00  0.00    -0.384 OA
HETATM   51  H38 UNL     1      -8.234  48.806 -25.901  1.00  0.00     0.211 HD
ENDBRANCH  33  50
TORSDOF 5
ENDMDL
MODEL 7
REMARK minimizedAffinity -7.86562443
REMARK CNNscore 0.479695618
REMARK CNNaffinity 6.35031748
REMARK  5 active torsions:
REMARK  status: ('A' for Active; 'I' for Inactive)
REMARK    1  A    between atoms: C2_2  and  C4_4 
REMARK    2  A    between atoms: C10_11  and  O2_12 
REMARK    3  A    between atoms: C13_15  and  O3_16 
REMARK    4  A    between atoms: C32_38  and  O5_39 
REMARK    5  A    between atoms: C37_45  and  O7_46 
ROOT
HETATM    1  C4  UNL     1      -9.247  47.169 -28.824  1.00  0.00     0.181 C 
HETATM    2  O1  UNL     1      -9.525  45.884 -29.429  1.00  0.00    -0.370 OA
HETATM    3  C5  UNL     1      -8.495  45.535 -30.366  1.00  0.00     0.163 C 
HETATM    4  C6  UNL     1      -8.649  44.071 -30.800  1.00  0.00     0.036 C 
HETATM    5  C7  UNL     1      -9.627  43.795 -31.945  1.00  0.00     0.016 C 
HETATM    6  C8  UNL     1      -9.725  44.920 -33.033  1.00  0.00     0.006 C 
HETATM    7  C9  UNL     1     -11.058  45.653 -32.695  1.00  0.00     0.020 C 
HETATM    8  C10 UNL     1      -8.501  45.946 -32.908  1.00  0.00     0.102 C 
HETATM    9  C11 UNL     1      -8.471  47.016 -34.041  1.00  0.00     0.045 C 
HETATM   10  C12 UNL     1      -8.578  46.454 -35.484  1.00  0.00     0.045 C 
HETATM   11  C13 UNL     1      -9.782  45.527 -35.573  1.00  0.00     0.102 C 
HETATM   12  C14 UNL     1     -10.145  44.823 -36.958  1.00  0.00     0.194 C 
HETATM   13  O4  UNL     1     -10.807  45.817 -37.736  1.00  0.00    -0.367 OA
HETATM   14  C15 UNL     1     -10.936  45.657 -39.157  1.00  0.00     0.061 C 
HETATM   15  C16 UNL     1     -11.468  47.037 -39.607  1.00  0.00     0.046 C 
HETATM   16  C17 UNL     1      -9.583  45.461 -39.843  1.00  0.00     0.046 C 
HETATM   17  C18 UNL     1     -12.007  44.605 -39.498  1.00  0.00     0.060 C 
HETATM   18  C19 UNL     1     -12.423  44.410 -40.969  1.00  0.00     0.023 C 
HETATM   19  C20 UNL     1     -12.641  42.905 -40.718  1.00  0.00     0.054 C 
HETATM   20  C21 UNL     1     -14.019  42.357 -40.508  1.00  0.00    -0.077 C 
HETATM   21  C22 UNL     1     -15.063  42.840 -41.214  1.00  0.00     0.015 C 
HETATM   22  C23 UNL     1     -14.138  41.196 -39.528  1.00  0.00     0.074 C 
HETATM   23  C24 UNL     1     -13.543  41.482 -38.161  1.00  0.00    -0.022 C 
HETATM   24  C25 UNL     1     -13.972  40.833 -36.994  1.00  0.00     0.043 C 
HETATM   25 CL1  UNL     1     -15.224  39.641 -37.031  1.00  0.00    -0.084 Cl
HETATM   26  C26 UNL     1     -13.389  41.107 -35.750  1.00  0.00     0.054 C 
HETATM   27  C27 UNL     1     -12.399  42.100 -35.699  1.00  0.00     0.045 A 
HETATM   28  N1  UNL     1     -11.674  42.583 -34.613  1.00  0.00    -0.357 N 
HETATM   29  C28 UNL     1     -10.822  43.528 -35.065  1.00  0.00     0.032 A 
HETATM   30  C29 UNL     1     -11.021  43.727 -36.414  1.00  0.00     0.010 A 
HETATM   31  C30 UNL     1     -11.955  42.774 -36.852  1.00  0.00     0.011 A 
HETATM   32  C31 UNL     1     -12.467  42.400 -38.109  1.00  0.00    -0.001 C 
HETATM   33  C32 UNL     1     -11.800  43.048 -39.387  1.00  0.00     0.100 C 
HETATM   34  C33 UNL     1      -9.691  44.334 -34.502  1.00  0.00     0.043 C 
HETATM   35  C34 UNL     1      -8.421  43.457 -34.789  1.00  0.00     0.026 C 
HETATM   36  C35 UNL     1      -8.504  46.530 -31.505  1.00  0.00     0.147 A 
HETATM   37  O6  UNL     1      -7.574  47.621 -31.282  1.00  0.00    -0.360 OA
HETATM   38  C36 UNL     1      -8.957  47.952 -31.216  1.00  0.00     0.194 A 
HETATM   39  C37 UNL     1      -9.529  48.280 -29.873  1.00  0.00     0.183 C 
HETATM   40  H37 UNL     1     -11.758  42.256 -33.660  1.00  0.00     0.166 HD
ENDROOT
BRANCH   1  41
HETATM   41  C2  UNL     1     -10.067  47.332 -27.543  1.00  0.00    -0.062 C 
HETATM   42  C1  UNL     1     -11.082  46.528 -27.191  1.00  0.00     0.016 C 
HETATM   43  C3  UNL     1      -9.656  48.493 -26.671  1.00  0.00     0.045 C 
ENDBRANCH   1  41
BRANCH  39  44
HETATM   44  O7  UNL     1     -10.931  48.464 -30.071  1.00  0.00    -0.390 OA
HETATM   45  H44 UNL     1     -11.342  47.583 -30.056  1.00  0.00     0.210 HD
ENDBRANCH  39  44
BRANCH   8  46
HETATM   46  O2  UNL     1      -7.267  45.207 -33.017  1.00  0.00    -0.386 OA
HETATM   47  H15 UNL     1      -6.605  45.763 -33.475  1.00  0.00     0.210 HD
ENDBRANCH   8  46
BRANCH  11  48
HETATM   48  O3  UNL     1     -10.918  46.390 -35.278  1.00  0.00    -0.386 OA
HETATM   49  H20 UNL     1     -11.089  46.916 -36.098  1.00  0.00     0.210 HD
ENDBRANCH  11  48
BRANCH  33  50
HETATM   50  O5  UNL     1     -10.443  42.568 -39.580  1.00  0.00    -0.384 OA
HETATM   51  H38 UNL     1     -10.112  42.389 -38.688  1.00  0.00     0.211 HD
ENDBRANCH  33  50
TORSDOF 5
ENDMDL
MODEL 8
REMARK minimizedAffinity -7.69411612
REMARK CNNscore 0.460677505
REMARK CNNaffinity 6.30037069
REMARK  5 active torsions:
REMARK  status: ('A' for Active; 'I' for Inactive)
REMARK    1  A    between atoms: C2_2  and  C4_4 
REMARK    2  A    between atoms: C10_11  and  O2_12 
REMARK    3  A    between atoms: C13_15  and  O3_16 
REMARK    4  A    between atoms: C32_38  and  O5_39 
REMARK    5  A    between atoms: C37_45  and  O7_46 
ROOT
HETATM    1  C4  UNL     1       0.314  53.833 -10.312  1.00  0.00     0.181 C 
HETATM    2  O1  UNL     1       1.258  54.907 -10.094  1.00  0.00    -0.370 OA
HETATM    3  C5  UNL     1       2.583  54.496 -10.464  1.00  0.00     0.163 C 
HETATM    4  C6  UNL     1       3.525  55.709 -10.488  1.00  0.00     0.036 C 
HETATM    5  C7  UNL     1       4.147  56.117  -9.150  1.00  0.00     0.016 C 
HETATM    6  C8  UNL     1       4.456  54.939  -8.162  1.00  0.00     0.006 C 
HETATM    7  C9  UNL     1       3.304  55.017  -7.115  1.00  0.00     0.020 C 
HETATM    8  C10 UNL     1       4.400  53.528  -8.919  1.00  0.00     0.102 C 
HETATM    9  C11 UNL     1       4.822  52.325  -8.021  1.00  0.00     0.045 C 
HETATM   10  C12 UNL     1       6.171  52.500  -7.272  1.00  0.00     0.045 C 
HETATM   11  C13 UNL     1       6.162  53.826  -6.525  1.00  0.00     0.102 C 
HETATM   12  C14 UNL     1       7.422  54.255  -5.648  1.00  0.00     0.194 C 
HETATM   13  O4  UNL     1       7.312  53.526  -4.428  1.00  0.00    -0.367 OA
HETATM   14  C15 UNL     1       8.452  53.374  -3.569  1.00  0.00     0.061 C 
HETATM   15  C16 UNL     1       7.961  52.336  -2.534  1.00  0.00     0.046 C 
HETATM   16  C17 UNL     1       9.643  52.745  -4.293  1.00  0.00     0.046 C 
HETATM   17  C18 UNL     1       8.753  54.683  -2.817  1.00  0.00     0.060 C 
HETATM   18  C19 UNL     1       9.830  54.682  -1.714  1.00  0.00     0.023 C 
HETATM   19  C20 UNL     1      10.223  56.127  -2.083  1.00  0.00     0.054 C 
HETATM   20  C21 UNL     1       9.734  57.284  -1.268  1.00  0.00    -0.077 C 
HETATM   21  C22 UNL     1       9.640  57.184   0.074  1.00  0.00     0.015 C 
HETATM   22  C23 UNL     1       9.437  58.567  -2.034  1.00  0.00     0.074 C 
HETATM   23  C24 UNL     1       8.476  58.382  -3.195  1.00  0.00    -0.022 C 
HETATM   24  C25 UNL     1       7.672  59.419  -3.689  1.00  0.00     0.043 C 
HETATM   25 CL1  UNL     1       7.721  61.006  -3.003  1.00  0.00    -0.084 Cl
HETATM   26  C26 UNL     1       6.808  59.220  -4.773  1.00  0.00     0.054 C 
HETATM   27  C27 UNL     1       6.728  57.928  -5.313  1.00  0.00     0.045 A 
HETATM   28  N1  UNL     1       5.953  57.446  -6.365  1.00  0.00    -0.357 N 
HETATM   29  C28 UNL     1       6.235  56.136  -6.527  1.00  0.00     0.032 A 
HETATM   30  C29 UNL     1       7.127  55.728  -5.559  1.00  0.00     0.010 A 
HETATM   31  C30 UNL     1       7.517  56.866  -4.833  1.00  0.00     0.011 A 
HETATM   32  C31 UNL     1       8.465  57.114  -3.823  1.00  0.00    -0.001 C 
HETATM   33  C32 UNL     1       9.457  55.940  -3.454  1.00  0.00     0.100 C 
HETATM   34  C33 UNL     1       5.894  55.062  -7.516  1.00  0.00     0.043 C 
HETATM   35  C34 UNL     1       7.045  55.149  -8.581  1.00  0.00     0.026 C 
HETATM   36  C35 UNL     1       3.027  53.376  -9.552  1.00  0.00     0.147 A 
HETATM   37  O6  UNL     1       2.742  52.069 -10.117  1.00  0.00    -0.360 OA
HETATM   38  C36 UNL     1       1.966  52.446  -8.984  1.00  0.00     0.194 A 
HETATM   39  C37 UNL     1       0.521  52.761  -9.206  1.00  0.00     0.183 C 
HETATM   40  H37 UNL     1       5.314  57.997  -6.923  1.00  0.00     0.166 HD
ENDROOT
BRANCH   1  41
HETATM   41  C2  UNL     1      -1.111  54.388 -10.349  1.00  0.00    -0.062 C 
HETATM   42  C1  UNL     1      -1.427  55.667 -10.095  1.00  0.00     0.016 C 
HETATM   43  C3  UNL     1      -2.177  53.377 -10.695  1.00  0.00     0.045 C 
ENDBRANCH   1  41
BRANCH  39  44
HETATM   44  O7  UNL     1       0.013  53.206  -7.948  1.00  0.00    -0.390 OA
HETATM   45  H44 UNL     1       0.230  54.151  -7.868  1.00  0.00     0.210 HD
ENDBRANCH  39  44
BRANCH   8  46
HETATM   46  O2  UNL     1       5.333  53.558 -10.018  1.00  0.00    -0.386 OA
HETATM   47  H15 UNL     1       5.717  52.665 -10.131  1.00  0.00     0.210 HD
ENDBRANCH   8  46
BRANCH  11  48
HETATM   48  O3  UNL     1       5.066  53.692  -5.575  1.00  0.00    -0.386 OA
HETATM   49  H20 UNL     1       5.404  53.123  -4.839  1.00  0.00     0.210 HD
ENDBRANCH  11  48
BRANCH  33  50
HETATM   50  O5  UNL     1      10.390  55.672  -4.534  1.00  0.00    -0.384 OA
HETATM   51  H38 UNL     1       9.904  55.888  -5.343  1.00  0.00     0.211 HD
ENDBRANCH  33  50
TORSDOF 5
ENDMDL
MODEL 9
REMARK minimizedAffinity -9.89382553
REMARK CNNscore 0.453911126
REMARK CNNaffinity 6.36702871
REMARK  5 active torsions:
REMARK  status: ('A' for Active; 'I' for Inactive)
REMARK    1  A    between atoms: C2_2  and  C4_4 
REMARK    2  A    between atoms: C10_11  and  O2_12 
REMARK    3  A    between atoms: C13_15  and  O3_16 
REMARK    4  A    between atoms: C32_38  and  O5_39 
REMARK    5  A    between atoms: C37_45  and  O7_46 
ROOT
HETATM    1  C4  UNL     1      -7.005  45.407 -30.806  1.00  0.00     0.181 C 
HETATM    2  O1  UNL     1      -8.416  45.611 -31.048  1.00  0.00    -0.370 OA
HETATM    3  C5  UNL     1      -8.861  46.833 -30.441  1.00  0.00     0.163 C 
HETATM    4  C6  UNL     1     -10.278  47.178 -30.923  1.00  0.00     0.036 C 
HETATM    5  C7  UNL     1     -11.436  46.516 -30.172  1.00  0.00     0.016 C 
HETATM    6  C8  UNL     1     -11.196  46.275 -28.641  1.00  0.00     0.006 C 
HETATM    7  C9  UNL     1     -10.882  44.751 -28.546  1.00  0.00     0.020 C 
HETATM    8  C10 UNL     1      -9.936  47.117 -28.120  1.00  0.00     0.102 C 
HETATM    9  C11 UNL     1      -9.721  47.019 -26.578  1.00  0.00     0.045 C 
HETATM   10  C12 UNL     1     -10.978  47.311 -25.715  1.00  0.00     0.045 C 
HETATM   11  C13 UNL     1     -12.135  46.453 -26.210  1.00  0.00     0.102 C 
HETATM   12  C14 UNL     1     -13.553  46.534 -25.484  1.00  0.00     0.194 C 
HETATM   13  O4  UNL     1     -13.430  45.748 -24.302  1.00  0.00    -0.367 OA
HETATM   14  C15 UNL     1     -14.371  45.900 -23.229  1.00  0.00     0.061 C 
HETATM   15  C16 UNL     1     -13.727  45.074 -22.092  1.00  0.00     0.046 C 
HETATM   16  C17 UNL     1     -14.455  47.343 -22.731  1.00  0.00     0.046 C 
HETATM   17  C18 UNL     1     -15.719  45.244 -23.583  1.00  0.00     0.060 C 
HETATM   18  C19 UNL     1     -16.809  45.144 -22.498  1.00  0.00     0.023 C 
HETATM   19  C20 UNL     1     -17.904  45.329 -23.568  1.00  0.00     0.054 C 
HETATM   20  C21 UNL     1     -18.662  44.151 -24.098  1.00  0.00    -0.077 C 
HETATM   21  C22 UNL     1     -19.016  43.140 -23.279  1.00  0.00     0.015 C 
HETATM   22  C23 UNL     1     -19.060  44.214 -25.568  1.00  0.00     0.074 C 
HETATM   23  C24 UNL     1     -17.897  44.476 -26.510  1.00  0.00    -0.022 C 
HETATM   24  C25 UNL     1     -17.900  44.071 -27.852  1.00  0.00     0.043 C 
HETATM   25 CL1  UNL     1     -19.248  43.236 -28.541  1.00  0.00    -0.084 Cl
HETATM   26  C26 UNL     1     -16.818  44.343 -28.698  1.00  0.00     0.054 C 
HETATM   27  C27 UNL     1     -15.701  44.985 -28.143  1.00  0.00     0.045 A 
HETATM   28  N1  UNL     1     -14.498  45.357 -28.736  1.00  0.00    -0.357 N 
HETATM   29  C28 UNL     1     -13.738  45.964 -27.799  1.00  0.00     0.032 A 
HETATM   30  C29 UNL     1     -14.387  45.935 -26.584  1.00  0.00     0.010 A 
HETATM   31  C30 UNL     1     -15.666  45.396 -26.797  1.00  0.00     0.011 A 
HETATM   32  C31 UNL     1     -16.809  45.221 -25.994  1.00  0.00    -0.001 C 
HETATM   33  C32 UNL     1     -16.791  45.869 -24.553  1.00  0.00     0.100 C 
HETATM   34  C33 UNL     1     -12.439  46.710 -27.765  1.00  0.00     0.043 C 
HETATM   35  C34 UNL     1     -12.857  48.208 -27.987  1.00  0.00     0.026 C 
HETATM   36  C35 UNL     1      -8.720  46.722 -28.941  1.00  0.00     0.147 A 
HETATM   37  O6  UNL     1      -7.453  47.251 -28.472  1.00  0.00    -0.360 OA
HETATM   38  C36 UNL     1      -7.614  45.839 -28.385  1.00  0.00     0.194 A 
HETATM   39  C37 UNL     1      -6.814  44.990 -29.321  1.00  0.00     0.183 C 
HETATM   40  H37 UNL     1     -14.257  45.219 -29.709  1.00  0.00     0.166 HD
ENDROOT
BRANCH   1  41
HETATM   41  C2  UNL     1      -6.446  44.381 -31.793  1.00  0.00    -0.062 C 
HETATM   42  C1  UNL     1      -7.123  43.306 -32.223  1.00  0.00     0.016 C 
HETATM   43  C3  UNL     1      -5.040  44.656 -32.266  1.00  0.00     0.045 C 
ENDBRANCH   1  41
BRANCH  39  44
HETATM   44  O7  UNL     1      -7.239  43.645 -29.100  1.00  0.00    -0.390 OA
HETATM   45  H44 UNL     1      -8.044  43.507 -29.627  1.00  0.00     0.210 HD
ENDBRANCH  39  44
BRANCH   8  46
HETATM   46  O2  UNL     1     -10.163  48.511 -28.409  1.00  0.00    -0.386 OA
HETATM   47  H15 UNL     1      -9.768  49.050 -27.693  1.00  0.00     0.210 HD
ENDBRANCH   8  46
BRANCH  11  48
HETATM   48  O3  UNL     1     -11.680  45.086 -26.000  1.00  0.00    -0.386 OA
HETATM   49  H20 UNL     1     -11.779  44.904 -25.033  1.00  0.00     0.210 HD
ENDBRANCH  11  48
BRANCH  33  50
HETATM   50  O5  UNL     1     -16.823  47.320 -24.621  1.00  0.00    -0.384 OA
HETATM   51  H38 UNL     1     -16.364  47.541 -25.446  1.00  0.00     0.211 HD
ENDBRANCH  33  50
TORSDOF 5
ENDMDL
