MODEL 1
REMARK minimizedAffinity -10.0998058
REMARK CNNscore 0.638642013
REMARK CNNaffinity 7.55931139
REMARK  11 active torsions:
REMARK  status: ('A' for Active; 'I' for Inactive)
REMARK    1  A    between atoms: C2_2  and  O2_4 
REMARK    2  A    between atoms: O2_4  and  C3_5 
REMARK    3  A    between atoms: C4_6  and  O3_7 
REMARK    4  A    between atoms: O3_7  and  C5_8 
REMARK    5  A    between atoms: C15_18  and  C16_19 
REMARK    6  A    between atoms: C20_23  and  C21_24 
REMARK    7  A    between atoms: C21_24  and  O4_27 
REMARK    8  A    between atoms: C24_29  and  O6_30 
REMARK    9  A    between atoms: C30_36  and  O7_37 
REMARK   10  A    between atoms: C36_44  and  O9_45 
REMARK   11  A    between atoms: C37_46  and  O10_47 
ROOT
HETATM    1  C5  UNL     1       0.982   8.219  12.616  1.00  0.00     0.133 C 
HETATM    2  C6  UNL     1      -0.101   8.806  11.699  1.00  0.00     0.034 C 
HETATM    3  C7  UNL     1      -1.485   8.922  12.325  1.00  0.00     0.013 C 
HETATM    4  C8  UNL     1      -1.832   7.717  13.171  1.00  0.00    -0.025 A 
HETATM    5  C9  UNL     1      -2.484   6.573  12.436  1.00  0.00     0.021 A 
HETATM    6  C10 UNL     1      -3.326   7.353  13.435  1.00  0.00    -0.027 A 
HETATM    7  C11 UNL     1      -4.385   8.303  12.835  1.00  0.00     0.011 C 
HETATM    8  C12 UNL     1      -5.870   8.124  13.198  1.00  0.00     0.011 C 
HETATM    9  C13 UNL     1      -6.165   6.929  14.098  1.00  0.00    -0.028 C 
HETATM   10  C14 UNL     1      -6.107   5.649  13.215  1.00  0.00     0.016 C 
HETATM   11  C15 UNL     1      -7.506   7.008  14.910  1.00  0.00     0.057 C 
HETATM   12  C24 UNL     1      -7.247   6.060  16.112  1.00  0.00     0.126 C 
HETATM   13  C25 UNL     1      -5.716   5.873  16.215  1.00  0.00     0.042 C 
HETATM   14  C26 UNL     1      -5.103   6.926  15.264  1.00  0.00    -0.029 C 
HETATM   15  C27 UNL     1      -5.010   8.271  16.051  1.00  0.00     0.016 C 
HETATM   16  C28 UNL     1      -3.706   6.544  14.703  1.00  0.00     0.006 C 
HETATM   17  C29 UNL     1      -2.588   6.441  15.768  1.00  0.00     0.038 C 
HETATM   18  C30 UNL     1      -1.448   7.449  15.651  1.00  0.00     0.124 C 
HETATM   19  C31 UNL     1      -0.796   7.373  14.255  1.00  0.00     0.034 C 
HETATM   20  C32 UNL     1       0.570   8.148  14.118  1.00  0.00    -0.015 C 
HETATM   21  C33 UNL     1       1.663   7.353  14.890  1.00  0.00     0.018 C 
HETATM   22  C34 UNL     1       0.586   9.567  14.730  1.00  0.00     0.018 C 
ENDROOT
BRANCH   1  23
HETATM   23  O3  UNL     1       1.296   6.887  12.170  1.00  0.00    -0.352 OA
BRANCH  23  24
HETATM   24  C4  UNL     1       2.616   6.756  11.613  1.00  0.00     0.292 C 
HETATM   25  C3  UNL     1       2.678   7.673  10.374  1.00  0.00     0.218 C 
HETATM   26  C37 UNL     1       4.090   7.689   9.750  1.00  0.00     0.183 C 
HETATM   27  C36 UNL     1       5.175   7.295  10.757  1.00  0.00     0.173 C 
HETATM   28  C35 UNL     1       4.756   7.734  12.158  1.00  0.00     0.205 C 
HETATM   29  O8  UNL     1       3.584   7.060  12.617  1.00  0.00    -0.356 OA
BRANCH  25  30
HETATM   30  O2  UNL     1       1.707   7.184   9.404  1.00  0.00    -0.309 OA
BRANCH  30  31
HETATM   31  C2  UNL     1       2.188   6.474   8.358  1.00  0.00     0.255 C 
HETATM   32  C1  UNL     1       1.946   7.193   7.067  1.00  0.00     0.126 C 
HETATM   33  O1  UNL     1       2.705   5.368   8.442  1.00  0.00    -0.266 OA
ENDBRANCH  30  31
ENDBRANCH  25  30
BRANCH  26  34
HETATM   34  O10 UNL     1       4.382   9.014   9.270  1.00  0.00    -0.390 OA
HETATM   35  H60 UNL     1       3.639   9.267   8.674  1.00  0.00     0.210 HD
ENDBRANCH  26  34
BRANCH  27  36
HETATM   36  O9  UNL     1       5.351   5.873  10.723  1.00  0.00    -0.391 OA
HETATM   37  H58 UNL     1       5.987   5.645  11.425  1.00  0.00     0.210 HD
ENDBRANCH  27  36
ENDBRANCH  23  24
ENDBRANCH   1  23
BRANCH  18  38
HETATM   38  O7  UNL     1      -1.913   8.756  15.969  1.00  0.00    -0.395 OA
HETATM   39  H47 UNL     1      -2.439   9.064  15.212  1.00  0.00     0.210 HD
ENDBRANCH  18  38
BRANCH  11  40
HETATM   40  C16 UNL     1      -8.916   6.962  14.240  1.00  0.00     0.065 C 
HETATM   41  C17 UNL     1      -9.055   6.175  12.938  1.00  0.00     0.046 C 
HETATM   42  C18 UNL     1     -10.006   6.506  15.233  1.00  0.00     0.041 C 
HETATM   43  C19 UNL     1     -10.384   7.780  15.948  1.00  0.00     0.038 C 
HETATM   44  C20 UNL     1     -10.308   8.797  14.819  1.00  0.00     0.156 C 
HETATM   45  O5  UNL     1      -9.269   8.338  13.925  1.00  0.00    -0.372 OA
BRANCH  44  46
HETATM   46  C21 UNL     1     -10.069  10.259  15.267  1.00  0.00     0.076 C 
HETATM   47  C22 UNL     1     -10.479  10.450  16.729  1.00  0.00     0.048 C 
HETATM   48  C23 UNL     1     -10.837  11.235  14.368  1.00  0.00     0.048 C 
BRANCH  46  49
HETATM   49  O4  UNL     1      -8.672  10.576  15.176  1.00  0.00    -0.388 OA
HETATM   50  H35 UNL     1      -8.566  11.530  15.331  1.00  0.00     0.210 HD
ENDBRANCH  46  49
ENDBRANCH  44  46
ENDBRANCH  11  40
BRANCH  12  51
HETATM   51  O6  UNL     1      -7.880   4.801  15.962  1.00  0.00    -0.395 OA
HETATM   52  H37 UNL     1      -7.623   4.241  16.713  1.00  0.00     0.210 HD
ENDBRANCH  12  51
TORSDOF 11
ENDMDL
MODEL 2
REMARK minimizedAffinity -8.18569851
REMARK CNNscore 0.624427617
REMARK CNNaffinity 7.02883005
REMARK  11 active torsions:
REMARK  status: ('A' for Active; 'I' for Inactive)
REMARK    1  A    between atoms: C2_2  and  O2_4 
REMARK    2  A    between atoms: O2_4  and  C3_5 
REMARK    3  A    between atoms: C4_6  and  O3_7 
REMARK    4  A    between atoms: O3_7  and  C5_8 
REMARK    5  A    between atoms: C15_18  and  C16_19 
REMARK    6  A    between atoms: C20_23  and  C21_24 
REMARK    7  A    between atoms: C21_24  and  O4_27 
REMARK    8  A    between atoms: C24_29  and  O6_30 
REMARK    9  A    between atoms: C30_36  and  O7_37 
REMARK   10  A    between atoms: C36_44  and  O9_45 
REMARK   11  A    between atoms: C37_46  and  O10_47 
ROOT
HETATM    1  C5  UNL     1       0.267   6.006  12.584  1.00  0.00     0.133 C 
HETATM    2  C6  UNL     1       1.261   6.965  13.257  1.00  0.00     0.034 C 
HETATM    3  C7  UNL     1       0.665   7.864  14.332  1.00  0.00     0.013 C 
HETATM    4  C8  UNL     1      -0.696   8.395  13.942  1.00  0.00    -0.025 A 
HETATM    5  C9  UNL     1      -0.692   9.682  13.156  1.00  0.00     0.021 A 
HETATM    6  C10 UNL     1      -1.232   9.715  14.578  1.00  0.00    -0.027 A 
HETATM    7  C11 UNL     1      -0.326  10.391  15.632  1.00  0.00     0.011 C 
HETATM    8  C12 UNL     1      -0.852  11.590  16.439  1.00  0.00     0.011 C 
HETATM    9  C13 UNL     1      -2.251  12.056  16.049  1.00  0.00    -0.028 C 
HETATM   10  C14 UNL     1      -2.128  12.856  14.721  1.00  0.00     0.016 C 
HETATM   11  C15 UNL     1      -3.023  12.873  17.146  1.00  0.00     0.057 C 
HETATM   12  C24 UNL     1      -4.511  12.666  16.757  1.00  0.00     0.126 C 
HETATM   13  C25 UNL     1      -4.567  11.430  15.830  1.00  0.00     0.042 C 
HETATM   14  C26 UNL     1      -3.169  10.779  15.921  1.00  0.00    -0.029 C 
HETATM   15  C27 UNL     1      -3.163   9.855  17.180  1.00  0.00     0.016 C 
HETATM   16  C28 UNL     1      -2.761   9.961  14.665  1.00  0.00     0.006 C 
HETATM   17  C29 UNL     1      -3.636   8.715  14.392  1.00  0.00     0.038 C 
HETATM   18  C30 UNL     1      -2.935   7.362  14.486  1.00  0.00     0.124 C 
HETATM   19  C31 UNL     1      -1.717   7.315  13.541  1.00  0.00     0.034 C 
HETATM   20  C32 UNL     1      -1.097   5.882  13.331  1.00  0.00    -0.015 C 
HETATM   21  C33 UNL     1      -2.068   5.053  12.441  1.00  0.00     0.018 C 
HETATM   22  C34 UNL     1      -0.910   5.049  14.619  1.00  0.00     0.018 C 
ENDROOT
BRANCH   1  23
HETATM   23  O3  UNL     1       0.009   6.469  11.246  1.00  0.00    -0.352 OA
BRANCH  23  24
HETATM   24  C4  UNL     1       1.045   6.137  10.305  1.00  0.00     0.292 C 
HETATM   25  C3  UNL     1       2.051   7.307  10.307  1.00  0.00     0.218 C 
HETATM   26  C37 UNL     1       3.266   7.013   9.402  1.00  0.00     0.183 C 
HETATM   27  C36 UNL     1       3.481   5.511   9.188  1.00  0.00     0.173 C 
HETATM   28  C35 UNL     1       3.017   4.747  10.425  1.00  0.00     0.205 C 
HETATM   29  O8  UNL     1       1.613   4.876  10.656  1.00  0.00    -0.356 OA
BRANCH  25  30
HETATM   30  O2  UNL     1       1.355   8.499   9.839  1.00  0.00    -0.309 OA
BRANCH  30  31
HETATM   31  C2  UNL     1       0.803   8.443   8.605  1.00  0.00     0.255 C 
HETATM   32  C1  UNL     1       1.863   8.392   7.548  1.00  0.00     0.126 C 
HETATM   33  O1  UNL     1      -0.397   8.481   8.373  1.00  0.00    -0.266 OA
ENDBRANCH  30  31
ENDBRANCH  25  30
BRANCH  26  34
HETATM   34  O10 UNL     1       4.454   7.554  10.010  1.00  0.00    -0.390 OA
HETATM   35  H60 UNL     1       4.267   8.504  10.194  1.00  0.00     0.210 HD
ENDBRANCH  26  34
BRANCH  27  36
HETATM   36  O9  UNL     1       2.728   5.090   8.042  1.00  0.00    -0.391 OA
HETATM   37  H58 UNL     1       2.821   4.122   7.978  1.00  0.00     0.210 HD
ENDBRANCH  27  36
ENDBRANCH  23  24
ENDBRANCH   1  23
BRANCH  18  38
HETATM   38  O7  UNL     1      -2.591   7.080  15.838  1.00  0.00    -0.395 OA
HETATM   39  H47 UNL     1      -1.829   7.639  16.063  1.00  0.00     0.210 HD
ENDBRANCH  18  38
BRANCH  11  40
HETATM   40  C16 UNL     1      -2.586  14.297  17.615  1.00  0.00     0.065 C 
HETATM   41  C17 UNL     1      -2.840  14.670  19.075  1.00  0.00     0.046 C 
HETATM   42  C18 UNL     1      -1.113  14.590  17.260  1.00  0.00     0.041 C 
HETATM   43  C19 UNL     1      -1.186  15.077  15.834  1.00  0.00     0.038 C 
HETATM   44  C20 UNL     1      -2.473  15.888  15.855  1.00  0.00     0.156 C 
HETATM   45  O5  UNL     1      -3.344  15.246  16.814  1.00  0.00    -0.372 OA
BRANCH  44  46
HETATM   46  C21 UNL     1      -3.164  16.057  14.481  1.00  0.00     0.076 C 
HETATM   47  C22 UNL     1      -2.137  16.385  13.395  1.00  0.00     0.048 C 
HETATM   48  C23 UNL     1      -4.237  17.150  14.544  1.00  0.00     0.048 C 
BRANCH  46  49
HETATM   49  O4  UNL     1      -3.803  14.829  14.100  1.00  0.00    -0.388 OA
HETATM   50  H35 UNL     1      -4.339  14.998  13.307  1.00  0.00     0.210 HD
ENDBRANCH  46  49
ENDBRANCH  44  46
ENDBRANCH  11  40
BRANCH  12  51
HETATM   51  O6  UNL     1      -5.066  13.791  16.099  1.00  0.00    -0.395 OA
HETATM   52  H37 UNL     1      -5.973  13.569  15.829  1.00  0.00     0.210 HD
ENDBRANCH  12  51
TORSDOF 11
ENDMDL
MODEL 3
REMARK minimizedAffinity -8.66511536
REMARK CNNscore 0.615189135
REMARK CNNaffinity 6.72064066
REMARK  11 active torsions:
REMARK  status: ('A' for Active; 'I' for Inactive)
REMARK    1  A    between atoms: C2_2  and  O2_4 
REMARK    2  A    between atoms: O2_4  and  C3_5 
REMARK    3  A    between atoms: C4_6  and  O3_7 
REMARK    4  A    between atoms: O3_7  and  C5_8 
REMARK    5  A    between atoms: C15_18  and  C16_19 
REMARK    6  A    between atoms: C20_23  and  C21_24 
REMARK    7  A    between atoms: C21_24  and  O4_27 
REMARK    8  A    between atoms: C24_29  and  O6_30 
REMARK    9  A    between atoms: C30_36  and  O7_37 
REMARK   10  A    between atoms: C36_44  and  O9_45 
REMARK   11  A    between atoms: C37_46  and  O10_47 
ROOT
HETATM    1  C5  UNL     1       0.795   6.784  13.692  1.00  0.00     0.133 C 
HETATM    2  C6  UNL     1       1.466   7.332  14.960  1.00  0.00     0.034 C 
HETATM    3  C7  UNL     1       0.548   8.110  15.893  1.00  0.00     0.013 C 
HETATM    4  C8  UNL     1      -0.406   9.007  15.137  1.00  0.00    -0.025 A 
HETATM    5  C9  UNL     1       0.110  10.389  14.826  1.00  0.00     0.021 A 
HETATM    6  C10 UNL     1      -1.020  10.260  15.837  1.00  0.00    -0.027 A 
HETATM    7  C11 UNL     1      -0.636  10.483  17.316  1.00  0.00     0.011 C 
HETATM    8  C12 UNL     1      -1.335  11.584  18.132  1.00  0.00     0.011 C 
HETATM    9  C13 UNL     1      -2.329  12.428  17.342  1.00  0.00    -0.028 C 
HETATM   10  C14 UNL     1      -1.512  13.428  16.475  1.00  0.00     0.016 C 
HETATM   11  C15 UNL     1      -3.421  13.164  18.197  1.00  0.00     0.057 C 
HETATM   12  C24 UNL     1      -4.572  13.388  17.180  1.00  0.00     0.126 C 
HETATM   13  C25 UNL     1      -4.332  12.411  16.006  1.00  0.00     0.042 C 
HETATM   14  C26 UNL     1      -3.222  11.450  16.486  1.00  0.00    -0.029 C 
HETATM   15  C27 UNL     1      -3.908  10.316  17.312  1.00  0.00     0.016 C 
HETATM   16  C28 UNL     1      -2.375  10.829  15.341  1.00  0.00     0.006 C 
HETATM   17  C29 UNL     1      -3.160   9.900  14.385  1.00  0.00     0.038 C 
HETATM   18  C30 UNL     1      -2.743   8.431  14.377  1.00  0.00     0.124 C 
HETATM   19  C31 UNL     1      -1.241   8.295  14.058  1.00  0.00     0.034 C 
HETATM   20  C32 UNL     1      -0.763   6.830  13.730  1.00  0.00    -0.015 C 
HETATM   21  C33 UNL     1      -1.299   6.444  12.321  1.00  0.00     0.018 C 
HETATM   22  C34 UNL     1      -1.292   5.735  14.683  1.00  0.00     0.018 C 
ENDROOT
BRANCH   1  23
HETATM   23  O3  UNL     1       1.243   7.553  12.560  1.00  0.00    -0.352 OA
BRANCH  23  24
HETATM   24  C4  UNL     1       2.574   7.226  12.124  1.00  0.00     0.292 C 
HETATM   25  C3  UNL     1       2.745   7.815  10.708  1.00  0.00     0.218 C 
HETATM   26  C37 UNL     1       4.179   7.610  10.178  1.00  0.00     0.183 C 
HETATM   27  C36 UNL     1       5.196   7.415  11.307  1.00  0.00     0.173 C 
HETATM   28  C35 UNL     1       4.746   8.197  12.539  1.00  0.00     0.205 C 
HETATM   29  O8  UNL     1       3.516   7.713  13.079  1.00  0.00    -0.356 OA
BRANCH  25  30
HETATM   30  O2  UNL     1       1.787   7.157   9.829  1.00  0.00    -0.309 OA
BRANCH  30  31
HETATM   31  C2  UNL     1       1.249   7.904   8.838  1.00  0.00     0.255 C 
HETATM   32  C1  UNL     1       1.707   7.421   7.496  1.00  0.00     0.126 C 
HETATM   33  O1  UNL     1       0.527   8.877   9.008  1.00  0.00    -0.266 OA
ENDBRANCH  30  31
ENDBRANCH  25  30
BRANCH  26  34
HETATM   34  O10 UNL     1       4.573   8.765   9.414  1.00  0.00    -0.390 OA
HETATM   35  H60 UNL     1       3.873   8.905   8.735  1.00  0.00     0.210 HD
ENDBRANCH  26  34
BRANCH  27  36
HETATM   36  O9  UNL     1       5.284   6.019  11.622  1.00  0.00    -0.391 OA
HETATM   37  H58 UNL     1       5.874   5.934  12.391  1.00  0.00     0.210 HD
ENDBRANCH  27  36
ENDBRANCH  23  24
ENDBRANCH   1  23
BRANCH  18  38
HETATM   38  O7  UNL     1      -3.101   7.812  15.607  1.00  0.00    -0.395 OA
HETATM   39  H47 UNL     1      -2.472   8.123  16.278  1.00  0.00     0.210 HD
ENDBRANCH  18  38
BRANCH  11  40
HETATM   40  C16 UNL     1      -3.092  14.325  19.189  1.00  0.00     0.065 C 
HETATM   41  C17 UNL     1      -1.631  14.521  19.588  1.00  0.00     0.046 C 
HETATM   42  C18 UNL     1      -3.678  15.669  18.709  1.00  0.00     0.041 C 
HETATM   43  C19 UNL     1      -5.098  15.634  19.216  1.00  0.00     0.038 C 
HETATM   44  C20 UNL     1      -4.924  14.951  20.564  1.00  0.00     0.156 C 
HETATM   45  O5  UNL     1      -3.815  14.035  20.418  1.00  0.00    -0.372 OA
BRANCH  44  46
HETATM   46  C21 UNL     1      -6.185  14.238  21.107  1.00  0.00     0.076 C 
HETATM   47  C22 UNL     1      -5.799  13.103  22.057  1.00  0.00     0.048 C 
HETATM   48  C23 UNL     1      -7.040  13.697  19.955  1.00  0.00     0.048 C 
BRANCH  46  49
HETATM   49  O4  UNL     1      -6.986  15.163  21.858  1.00  0.00    -0.388 OA
HETATM   50  H35 UNL     1      -7.830  14.731  22.071  1.00  0.00     0.210 HD
ENDBRANCH  46  49
ENDBRANCH  44  46
ENDBRANCH  11  40
BRANCH  12  51
HETATM   51  O6  UNL     1      -4.625  14.720  16.699  1.00  0.00    -0.395 OA
HETATM   52  H37 UNL     1      -5.321  14.771  16.023  1.00  0.00     0.210 HD
ENDBRANCH  12  51
TORSDOF 11
ENDMDL
MODEL 4
REMARK minimizedAffinity -8.87073612
REMARK CNNscore 0.611704588
REMARK CNNaffinity 7.02374697
REMARK  11 active torsions:
REMARK  status: ('A' for Active; 'I' for Inactive)
REMARK    1  A    between atoms: C2_2  and  O2_4 
REMARK    2  A    between atoms: O2_4  and  C3_5 
REMARK    3  A    between atoms: C4_6  and  O3_7 
REMARK    4  A    between atoms: O3_7  and  C5_8 
REMARK    5  A    between atoms: C15_18  and  C16_19 
REMARK    6  A    between atoms: C20_23  and  C21_24 
REMARK    7  A    between atoms: C21_24  and  O4_27 
REMARK    8  A    between atoms: C24_29  and  O6_30 
REMARK    9  A    between atoms: C30_36  and  O7_37 
REMARK   10  A    between atoms: C36_44  and  O9_45 
REMARK   11  A    between atoms: C37_46  and  O10_47 
ROOT
HETATM    1  C5  UNL     1      -1.604   6.260  13.763  1.00  0.00     0.133 C 
HETATM    2  C6  UNL     1      -0.288   6.134  14.545  1.00  0.00     0.034 C 
HETATM    3  C7  UNL     1      -0.092   7.160  15.653  1.00  0.00     0.013 C 
HETATM    4  C8  UNL     1      -0.557   8.539  15.242  1.00  0.00    -0.025 A 
HETATM    5  C9  UNL     1       0.474   9.394  14.549  1.00  0.00     0.021 A 
HETATM    6  C10 UNL     1       0.029   9.803  15.944  1.00  0.00    -0.027 A 
HETATM    7  C11 UNL     1       1.044   9.553  17.081  1.00  0.00     0.011 C 
HETATM    8  C12 UNL     1       1.532  10.728  17.947  1.00  0.00     0.011 C 
HETATM    9  C13 UNL     1       0.994  12.092  17.529  1.00  0.00    -0.028 C 
HETATM   10  C14 UNL     1       1.783  12.544  16.267  1.00  0.00     0.016 C 
HETATM   11  C15 UNL     1       1.010  13.197  18.645  1.00  0.00     0.057 C 
HETATM   12  C24 UNL     1      -0.091  14.186  18.178  1.00  0.00     0.126 C 
HETATM   13  C25 UNL     1      -0.978  13.426  17.165  1.00  0.00     0.042 C 
HETATM   14  C26 UNL     1      -0.555  11.944  17.272  1.00  0.00    -0.029 C 
HETATM   15  C27 UNL     1      -1.347  11.316  18.462  1.00  0.00     0.016 C 
HETATM   16  C28 UNL     1      -0.798  11.115  15.981  1.00  0.00     0.006 C 
HETATM   17  C29 UNL     1      -2.285  10.957  15.583  1.00  0.00     0.038 C 
HETATM   18  C30 UNL     1      -2.846   9.538  15.613  1.00  0.00     0.124 C 
HETATM   19  C31 UNL     1      -2.004   8.602  14.721  1.00  0.00     0.034 C 
HETATM   20  C32 UNL     1      -2.654   7.194  14.439  1.00  0.00    -0.015 C 
HETATM   21  C33 UNL     1      -3.840   7.392  13.452  1.00  0.00     0.018 C 
HETATM   22  C34 UNL     1      -3.261   6.489  15.673  1.00  0.00     0.018 C 
ENDROOT
BRANCH   1  23
HETATM   23  O3  UNL     1      -1.317   6.776  12.451  1.00  0.00    -0.352 OA
BRANCH  23  24
HETATM   24  C4  UNL     1       0.089   6.885  12.162  1.00  0.00     0.292 C 
HETATM   25  C3  UNL     1       0.459   5.694  11.255  1.00  0.00     0.218 C 
HETATM   26  C37 UNL     1       1.931   5.765  10.798  1.00  0.00     0.183 C 
HETATM   27  C36 UNL     1       2.488   7.191  10.850  1.00  0.00     0.173 C 
HETATM   28  C35 UNL     1       1.365   8.189  10.580  1.00  0.00     0.205 C 
HETATM   29  O8  UNL     1       0.353   8.164  11.588  1.00  0.00    -0.356 OA
BRANCH  25  30
HETATM   30  O2  UNL     1       0.226   4.467  12.007  1.00  0.00    -0.309 OA
BRANCH  30  31
HETATM   31  C2  UNL     1      -0.394   3.456  11.356  1.00  0.00     0.255 C 
HETATM   32  C1  UNL     1      -1.751   3.878  10.883  1.00  0.00     0.126 C 
HETATM   33  O1  UNL     1       0.063   2.330  11.216  1.00  0.00    -0.266 OA
ENDBRANCH  30  31
ENDBRANCH  25  30
BRANCH  26  34
HETATM   34  O10 UNL     1       2.030   5.294   9.440  1.00  0.00    -0.390 OA
HETATM   35  H60 UNL     1       1.610   4.403   9.421  1.00  0.00     0.210 HD
ENDBRANCH  26  34
BRANCH  27  36
HETATM   36  O9  UNL     1       3.048   7.426  12.149  1.00  0.00    -0.391 OA
HETATM   37  H58 UNL     1       3.321   8.360  12.179  1.00  0.00     0.210 HD
ENDBRANCH  27  36
ENDBRANCH  23  24
ENDBRANCH   1  23
BRANCH  18  38
HETATM   38  O7  UNL     1      -2.942   9.076  16.955  1.00  0.00    -0.395 OA
HETATM   39  H47 UNL     1      -2.041   8.867  17.252  1.00  0.00     0.210 HD
ENDBRANCH  18  38
BRANCH  11  40
HETATM   40  C16 UNL     1       2.326  13.799  19.232  1.00  0.00     0.065 C 
HETATM   41  C17 UNL     1       3.141  14.728  18.334  1.00  0.00     0.046 C 
HETATM   42  C18 UNL     1       2.083  14.486  20.593  1.00  0.00     0.041 C 
HETATM   43  C19 UNL     1       2.160  13.347  21.579  1.00  0.00     0.038 C 
HETATM   44  C20 UNL     1       3.273  12.500  20.980  1.00  0.00     0.156 C 
HETATM   45  O5  UNL     1       3.191  12.673  19.547  1.00  0.00    -0.372 OA
BRANCH  44  46
HETATM   46  C21 UNL     1       3.245  11.004  21.376  1.00  0.00     0.076 C 
HETATM   47  C22 UNL     1       1.838  10.427  21.211  1.00  0.00     0.048 C 
HETATM   48  C23 UNL     1       3.730  10.816  22.818  1.00  0.00     0.048 C 
BRANCH  46  49
HETATM   49  O4  UNL     1       4.113  10.253  20.514  1.00  0.00    -0.388 OA
HETATM   50  H35 UNL     1       4.182   9.350  20.865  1.00  0.00     0.210 HD
ENDBRANCH  46  49
ENDBRANCH  44  46
ENDBRANCH  11  40
BRANCH  12  51
HETATM   51  O6  UNL     1       0.442  15.353  17.576  1.00  0.00    -0.395 OA
HETATM   52  H37 UNL     1      -0.299  15.892  17.252  1.00  0.00     0.210 HD
ENDBRANCH  12  51
TORSDOF 11
ENDMDL
MODEL 5
REMARK minimizedAffinity -10.3906565
REMARK CNNscore 0.577440023
REMARK CNNaffinity 7.26533365
REMARK  11 active torsions:
REMARK  status: ('A' for Active; 'I' for Inactive)
REMARK    1  A    between atoms: C2_2  and  O2_4 
REMARK    2  A    between atoms: O2_4  and  C3_5 
REMARK    3  A    between atoms: C4_6  and  O3_7 
REMARK    4  A    between atoms: O3_7  and  C5_8 
REMARK    5  A    between atoms: C15_18  and  C16_19 
REMARK    6  A    between atoms: C20_23  and  C21_24 
REMARK    7  A    between atoms: C21_24  and  O4_27 
REMARK    8  A    between atoms: C24_29  and  O6_30 
REMARK    9  A    between atoms: C30_36  and  O7_37 
REMARK   10  A    between atoms: C36_44  and  O9_45 
REMARK   11  A    between atoms: C37_46  and  O10_47 
ROOT
HETATM    1  C5  UNL     1      -4.177   6.737  14.713  1.00  0.00     0.133 C 
HETATM    2  C6  UNL     1      -3.004   6.193  15.543  1.00  0.00     0.034 C 
HETATM    3  C7  UNL     1      -1.634   6.739  15.163  1.00  0.00     0.013 C 
HETATM    4  C8  UNL     1      -1.464   6.859  13.665  1.00  0.00    -0.025 A 
HETATM    5  C9  UNL     1      -0.939   5.629  12.969  1.00  0.00     0.021 A 
HETATM    6  C10 UNL     1      -0.034   6.850  13.039  1.00  0.00    -0.027 A 
HETATM    7  C11 UNL     1       1.151   6.762  14.025  1.00  0.00     0.011 C 
HETATM    8  C12 UNL     1       2.591   6.930  13.510  1.00  0.00     0.011 C 
HETATM    9  C13 UNL     1       2.711   7.104  11.999  1.00  0.00    -0.028 C 
HETATM   10  C14 UNL     1       2.518   5.704  11.347  1.00  0.00     0.016 C 
HETATM   11  C15 UNL     1       4.029   7.796  11.500  1.00  0.00     0.057 C 
HETATM   12  C24 UNL     1       3.621   8.376  10.119  1.00  0.00     0.126 C 
HETATM   13  C25 UNL     1       2.076   8.432  10.093  1.00  0.00     0.042 C 
HETATM   14  C26 UNL     1       1.625   8.154  11.545  1.00  0.00    -0.029 C 
HETATM   15  C27 UNL     1       1.679   9.509  12.320  1.00  0.00     0.016 C 
HETATM   16  C28 UNL     1       0.207   7.532  11.667  1.00  0.00     0.006 C 
HETATM   17  C29 UNL     1      -0.944   8.446  11.183  1.00  0.00     0.038 C 
HETATM   18  C30 UNL     1      -1.946   8.891  12.246  1.00  0.00     0.124 C 
HETATM   19  C31 UNL     1      -2.564   7.668  12.955  1.00  0.00     0.034 C 
HETATM   20  C32 UNL     1      -3.818   7.988  13.854  1.00  0.00    -0.015 C 
HETATM   21  C33 UNL     1      -5.022   8.303  12.921  1.00  0.00     0.018 C 
HETATM   22  C34 UNL     1      -3.674   9.224  14.770  1.00  0.00     0.018 C 
ENDROOT
BRANCH   1  23
HETATM   23  O3  UNL     1      -4.642   5.700  13.830  1.00  0.00    -0.352 OA
BRANCH  23  24
HETATM   24  C4  UNL     1      -6.059   5.741  13.580  1.00  0.00     0.292 C 
HETATM   25  C3  UNL     1      -6.474   4.335  13.098  1.00  0.00     0.218 C 
HETATM   26  C37 UNL     1      -8.000   4.234  12.894  1.00  0.00     0.183 C 
HETATM   27  C36 UNL     1      -8.767   5.275  13.715  1.00  0.00     0.173 C 
HETATM   28  C35 UNL     1      -8.004   5.575  15.002  1.00  0.00     0.205 C 
HETATM   29  O8  UNL     1      -6.732   6.179  14.759  1.00  0.00    -0.356 OA
BRANCH  25  30
HETATM   30  O2  UNL     1      -5.782   4.068  11.844  1.00  0.00    -0.309 OA
BRANCH  30  31
HETATM   31  C2  UNL     1      -5.003   2.963  11.795  1.00  0.00     0.255 C 
HETATM   32  C1  UNL     1      -5.778   1.783  11.295  1.00  0.00     0.126 C 
HETATM   33  O1  UNL     1      -3.836   2.914  12.158  1.00  0.00    -0.266 OA
ENDBRANCH  30  31
ENDBRANCH  25  30
BRANCH  26  34
HETATM   34  O10 UNL     1      -8.448   2.926  13.298  1.00  0.00    -0.390 OA
HETATM   35  H60 UNL     1      -7.897   2.276  12.802  1.00  0.00     0.210 HD
ENDBRANCH  26  34
BRANCH  27  36
HETATM   36  O9  UNL     1      -8.905   6.473  12.939  1.00  0.00    -0.391 OA
HETATM   37  H58 UNL     1      -9.324   7.140  13.512  1.00  0.00     0.210 HD
ENDBRANCH  27  36
ENDBRANCH  23  24
ENDBRANCH   1  23
BRANCH  18  38
HETATM   38  O7  UNL     1      -1.330   9.798  13.153  1.00  0.00    -0.395 OA
HETATM   39  H47 UNL     1      -0.749   9.275  13.731  1.00  0.00     0.210 HD
ENDBRANCH  18  38
BRANCH  11  40
HETATM   40  C16 UNL     1       5.440   7.138  11.623  1.00  0.00     0.065 C 
HETATM   41  C17 UNL     1       5.692   5.853  10.835  1.00  0.00     0.046 C 
HETATM   42  C18 UNL     1       6.569   8.148  11.331  1.00  0.00     0.041 C 
HETATM   43  C19 UNL     1       6.772   8.839  12.657  1.00  0.00     0.038 C 
HETATM   44  C20 UNL     1       6.577   7.689  13.633  1.00  0.00     0.156 C 
HETATM   45  O5  UNL     1       5.615   6.796  13.026  1.00  0.00    -0.372 OA
BRANCH  44  46
HETATM   46  C21 UNL     1       6.147   8.105  15.060  1.00  0.00     0.076 C 
HETATM   47  C22 UNL     1       5.158   9.271  15.009  1.00  0.00     0.048 C 
HETATM   48  C23 UNL     1       7.369   8.482  15.907  1.00  0.00     0.048 C 
BRANCH  46  49
HETATM   49  O4  UNL     1       5.478   7.012  15.708  1.00  0.00    -0.388 OA
HETATM   50  H35 UNL     1       5.340   7.250  16.640  1.00  0.00     0.210 HD
ENDBRANCH  46  49
ENDBRANCH  44  46
ENDBRANCH  11  40
BRANCH  12  51
HETATM   51  O6  UNL     1       4.095   7.595   9.036  1.00  0.00    -0.395 OA
HETATM   52  H37 UNL     1       3.751   7.978   8.212  1.00  0.00     0.210 HD
ENDBRANCH  12  51
TORSDOF 11
ENDMDL
MODEL 6
REMARK minimizedAffinity -8.59821892
REMARK CNNscore 0.549108803
REMARK CNNaffinity 7.24730682
REMARK  11 active torsions:
REMARK  status: ('A' for Active; 'I' for Inactive)
REMARK    1  A    between atoms: C2_2  and  O2_4 
REMARK    2  A    between atoms: O2_4  and  C3_5 
REMARK    3  A    between atoms: C4_6  and  O3_7 
REMARK    4  A    between atoms: O3_7  and  C5_8 
REMARK    5  A    between atoms: C15_18  and  C16_19 
REMARK    6  A    between atoms: C20_23  and  C21_24 
REMARK    7  A    between atoms: C21_24  and  O4_27 
REMARK    8  A    between atoms: C24_29  and  O6_30 
REMARK    9  A    between atoms: C30_36  and  O7_37 
REMARK   10  A    between atoms: C36_44  and  O9_45 
REMARK   11  A    between atoms: C37_46  and  O10_47 
ROOT
HETATM    1  C5  UNL     1      -3.485   5.926  13.836  1.00  0.00     0.133 C 
HETATM    2  C6  UNL     1      -2.157   5.711  14.578  1.00  0.00     0.034 C 
HETATM    3  C7  UNL     1      -1.754   6.838  15.520  1.00  0.00     0.013 C 
HETATM    4  C8  UNL     1      -2.040   8.202  14.933  1.00  0.00    -0.025 A 
HETATM    5  C9  UNL     1      -0.939   8.791  14.087  1.00  0.00     0.021 A 
HETATM    6  C10 UNL     1      -1.240   9.448  15.426  1.00  0.00    -0.027 A 
HETATM    7  C11 UNL     1      -0.207   9.206  16.548  1.00  0.00     0.011 C 
HETATM    8  C12 UNL     1       0.493  10.401  17.218  1.00  0.00     0.011 C 
HETATM    9  C13 UNL     1       0.132  11.761  16.630  1.00  0.00    -0.028 C 
HETATM   10  C14 UNL     1       0.903  11.914  15.288  1.00  0.00     0.016 C 
HETATM   11  C15 UNL     1       0.370  12.992  17.576  1.00  0.00     0.057 C 
HETATM   12  C24 UNL     1      -0.604  14.062  17.013  1.00  0.00     0.126 C 
HETATM   13  C25 UNL     1      -1.647  13.313  16.152  1.00  0.00     0.042 C 
HETATM   14  C26 UNL     1      -1.435  11.812  16.454  1.00  0.00    -0.029 C 
HETATM   15  C27 UNL     1      -2.238  11.477  17.752  1.00  0.00     0.016 C 
HETATM   16  C28 UNL     1      -1.868  10.861  15.305  1.00  0.00     0.006 C 
HETATM   17  C29 UNL     1      -3.382  10.875  14.990  1.00  0.00     0.038 C 
HETATM   18  C30 UNL     1      -4.137   9.573  15.243  1.00  0.00     0.124 C 
HETATM   19  C31 UNL     1      -3.491   8.409  14.464  1.00  0.00     0.034 C 
HETATM   20  C32 UNL     1      -4.350   7.089  14.410  1.00  0.00    -0.015 C 
HETATM   21  C33 UNL     1      -5.552   7.326  13.449  1.00  0.00     0.018 C 
HETATM   22  C34 UNL     1      -4.979   6.657  15.754  1.00  0.00     0.018 C 
ENDROOT
BRANCH   1  23
HETATM   23  O3  UNL     1      -3.204   6.210  12.454  1.00  0.00    -0.352 OA
BRANCH  23  24
HETATM   24  C4  UNL     1      -2.941   5.039  11.660  1.00  0.00     0.292 C 
HETATM   25  C3  UNL     1      -1.448   4.694  11.842  1.00  0.00     0.218 C 
HETATM   26  C37 UNL     1      -1.074   3.388  11.111  1.00  0.00     0.183 C 
HETATM   27  C36 UNL     1      -2.287   2.481  10.882  1.00  0.00     0.173 C 
HETATM   28  C35 UNL     1      -3.291   2.676  12.016  1.00  0.00     0.205 C 
HETATM   29  O8  UNL     1      -3.835   3.997  12.048  1.00  0.00    -0.356 OA
BRANCH  25  30
HETATM   30  O2  UNL     1      -0.663   5.804  11.317  1.00  0.00    -0.309 OA
BRANCH  30  31
HETATM   31  C2  UNL     1       0.683   5.674  11.347  1.00  0.00     0.255 C 
HETATM   32  C1  UNL     1       1.233   6.115  12.668  1.00  0.00     0.126 C 
HETATM   33  O1  UNL     1       1.370   5.297  10.407  1.00  0.00    -0.266 OA
ENDBRANCH  30  31
ENDBRANCH  25  30
BRANCH  26  34
HETATM   34  O10 UNL     1      -0.112   2.661  11.898  1.00  0.00    -0.390 OA
HETATM   35  H60 UNL     1       0.628   3.285  12.083  1.00  0.00     0.210 HD
ENDBRANCH  26  34
BRANCH  27  36
HETATM   36  O9  UNL     1      -2.896   2.820   9.629  1.00  0.00    -0.391 OA
HETATM   37  H58 UNL     1      -3.705   2.285   9.548  1.00  0.00     0.210 HD
ENDBRANCH  27  36
ENDBRANCH  23  24
ENDBRANCH   1  23
BRANCH  18  38
HETATM   38  O7  UNL     1      -4.221   9.317  16.641  1.00  0.00    -0.395 OA
HETATM   39  H47 UNL     1      -3.343   9.018  16.930  1.00  0.00     0.210 HD
ENDBRANCH  18  38
BRANCH  11  40
HETATM   40  C16 UNL     1       1.791  13.466  18.021  1.00  0.00     0.065 C 
HETATM   41  C17 UNL     1       2.685  14.111  16.964  1.00  0.00     0.046 C 
HETATM   42  C18 UNL     1       1.725  14.378  19.263  1.00  0.00     0.041 C 
HETATM   43  C19 UNL     1       1.686  13.403  20.414  1.00  0.00     0.038 C 
HETATM   44  C20 UNL     1       2.627  12.313  19.921  1.00  0.00     0.156 C 
HETATM   45  O5  UNL     1       2.495  12.279  18.482  1.00  0.00    -0.372 OA
BRANCH  44  46
HETATM   46  C21 UNL     1       2.399  10.917  20.548  1.00  0.00     0.076 C 
HETATM   47  C22 UNL     1       0.904  10.609  20.656  1.00  0.00     0.048 C 
HETATM   48  C23 UNL     1       3.060  10.827  21.929  1.00  0.00     0.048 C 
BRANCH  46  49
HETATM   49  O4  UNL     1       2.979   9.905  19.712  1.00  0.00    -0.388 OA
HETATM   50  H35 UNL     1       2.942   9.059  20.189  1.00  0.00     0.210 HD
ENDBRANCH  46  49
ENDBRANCH  44  46
ENDBRANCH  11  40
BRANCH  12  51
HETATM   51  O6  UNL     1       0.054  15.043  16.231  1.00  0.00    -0.395 OA
HETATM   52  H37 UNL     1      -0.619  15.638  15.861  1.00  0.00     0.210 HD
ENDBRANCH  12  51
TORSDOF 11
ENDMDL
MODEL 7
REMARK minimizedAffinity -8.17387104
REMARK CNNscore 0.538139462
REMARK CNNaffinity 6.70860434
REMARK  11 active torsions:
REMARK  status: ('A' for Active; 'I' for Inactive)
REMARK    1  A    between atoms: C2_2  and  O2_4 
REMARK    2  A    between atoms: O2_4  and  C3_5 
REMARK    3  A    between atoms: C4_6  and  O3_7 
REMARK    4  A    between atoms: O3_7  and  C5_8 
REMARK    5  A    between atoms: C15_18  and  C16_19 
REMARK    6  A    between atoms: C20_23  and  C21_24 
REMARK    7  A    between atoms: C21_24  and  O4_27 
REMARK    8  A    between atoms: C24_29  and  O6_30 
REMARK    9  A    between atoms: C30_36  and  O7_37 
REMARK   10  A    between atoms: C36_44  and  O9_45 
REMARK   11  A    between atoms: C37_46  and  O10_47 
ROOT
HETATM    1  C5  UNL     1       0.690   7.469  12.787  1.00  0.00     0.133 C 
HETATM    2  C6  UNL     1       1.768   7.146  13.832  1.00  0.00     0.034 C 
HETATM    3  C7  UNL     1       1.693   7.966  15.113  1.00  0.00     0.013 C 
HETATM    4  C8  UNL     1       1.362   9.417  14.843  1.00  0.00    -0.025 A 
HETATM    5  C9  UNL     1       2.544  10.315  14.580  1.00  0.00     0.021 A 
HETATM    6  C10 UNL     1       1.770  10.516  15.874  1.00  0.00    -0.027 A 
HETATM    7  C11 UNL     1       2.466  10.029  17.164  1.00  0.00     0.011 C 
HETATM    8  C12 UNL     1       2.736  11.019  18.310  1.00  0.00     0.011 C 
HETATM    9  C13 UNL     1       2.336  12.460  18.013  1.00  0.00    -0.028 C 
HETATM   10  C14 UNL     1       3.421  13.068  17.078  1.00  0.00     0.016 C 
HETATM   11  C15 UNL     1       2.087  13.366  19.272  1.00  0.00     0.057 C 
HETATM   12  C24 UNL     1       1.149  14.476  18.727  1.00  0.00     0.126 C 
HETATM   13  C25 UNL     1       0.534  13.941  17.413  1.00  0.00     0.042 C 
HETATM   14  C26 UNL     1       0.899  12.441  17.364  1.00  0.00    -0.029 C 
HETATM   15  C27 UNL     1      -0.173  11.671  18.200  1.00  0.00     0.016 C 
HETATM   16  C28 UNL     1       0.976  11.847  15.931  1.00  0.00     0.006 C 
HETATM   17  C29 UNL     1      -0.366  11.837  15.162  1.00  0.00     0.038 C 
HETATM   18  C30 UNL     1      -0.934  10.464  14.810  1.00  0.00     0.124 C 
HETATM   19  C31 UNL     1       0.092   9.642  14.004  1.00  0.00     0.034 C 
HETATM   20  C32 UNL     1      -0.484   8.337  13.335  1.00  0.00    -0.015 C 
HETATM   21  C33 UNL     1      -1.384   8.756  12.137  1.00  0.00     0.018 C 
HETATM   22  C34 UNL     1      -1.388   7.474  14.244  1.00  0.00     0.018 C 
ENDROOT
BRANCH   1  23
HETATM   23  O3  UNL     1       1.301   8.176  11.692  1.00  0.00    -0.352 OA
BRANCH  23  24
HETATM   24  C4  UNL     1       1.872   7.315  10.690  1.00  0.00     0.292 C 
HETATM   25  C3  UNL     1       3.398   7.305  10.917  1.00  0.00     0.218 C 
HETATM   26  C37 UNL     1       4.108   6.329   9.955  1.00  0.00     0.183 C 
HETATM   27  C36 UNL     1       3.168   5.236   9.437  1.00  0.00     0.173 C 
HETATM   28  C35 UNL     1       2.117   4.920  10.499  1.00  0.00     0.205 C 
HETATM   29  O8  UNL     1       1.258   6.029  10.769  1.00  0.00    -0.356 OA
BRANCH  25  30
HETATM   30  O2  UNL     1       3.892   8.660  10.710  1.00  0.00    -0.309 OA
BRANCH  30  31
HETATM   31  C2  UNL     1       5.090   8.968  11.258  1.00  0.00     0.255 C 
HETATM   32  C1  UNL     1       4.933   9.980  12.351  1.00  0.00     0.126 C 
HETATM   33  O1  UNL     1       6.166   8.523  10.883  1.00  0.00    -0.266 OA
ENDBRANCH  30  31
ENDBRANCH  25  30
BRANCH  26  34
HETATM   34  O10 UNL     1       5.200   5.692  10.644  1.00  0.00    -0.390 OA
HETATM   35  H60 UNL     1       5.754   6.415  11.020  1.00  0.00     0.210 HD
ENDBRANCH  26  34
BRANCH  27  36
HETATM   36  O9  UNL     1       2.528   5.698   8.240  1.00  0.00    -0.391 OA
HETATM   37  H58 UNL     1       1.882   5.018   7.979  1.00  0.00     0.210 HD
ENDBRANCH  27  36
ENDBRANCH  23  24
ENDBRANCH   1  23
BRANCH  18  38
HETATM   38  O7  UNL     1      -1.369   9.796  15.989  1.00  0.00    -0.395 OA
HETATM   39  H47 UNL     1      -0.572   9.493  16.456  1.00  0.00     0.210 HD
ENDBRANCH  18  38
BRANCH  11  40
HETATM   40  C16 UNL     1       3.222  13.793  20.256  1.00  0.00     0.065 C 
HETATM   41  C17 UNL     1       4.207  14.859  19.780  1.00  0.00     0.046 C 
HETATM   42  C18 UNL     1       2.661  14.193  21.637  1.00  0.00     0.041 C 
HETATM   43  C19 UNL     1       2.526  12.875  22.357  1.00  0.00     0.038 C 
HETATM   44  C20 UNL     1       3.761  12.133  21.867  1.00  0.00     0.156 C 
HETATM   45  O5  UNL     1       4.009  12.598  20.521  1.00  0.00    -0.372 OA
BRANCH  44  46
HETATM   46  C21 UNL     1       3.666  10.589  21.928  1.00  0.00     0.076 C 
HETATM   47  C22 UNL     1       2.241  10.122  21.624  1.00  0.00     0.048 C 
HETATM   48  C23 UNL     1       4.112  10.073  23.301  1.00  0.00     0.048 C 
BRANCH  46  49
HETATM   49  O4  UNL     1       4.523  10.007  20.935  1.00  0.00    -0.388 OA
HETATM   50  H35 UNL     1       4.549   9.047  21.082  1.00  0.00     0.210 HD
ENDBRANCH  46  49
ENDBRANCH  44  46
ENDBRANCH  11  40
BRANCH  12  51
HETATM   51  O6  UNL     1       1.830  15.695  18.482  1.00  0.00    -0.395 OA
HETATM   52  H37 UNL     1       1.200  16.320  18.084  1.00  0.00     0.210 HD
ENDBRANCH  12  51
TORSDOF 11
ENDMDL
MODEL 8
REMARK minimizedAffinity -7.98408747
REMARK CNNscore 0.522002101
REMARK CNNaffinity 7.53027344
REMARK  11 active torsions:
REMARK  status: ('A' for Active; 'I' for Inactive)
REMARK    1  A    between atoms: C2_2  and  O2_4 
REMARK    2  A    between atoms: O2_4  and  C3_5 
REMARK    3  A    between atoms: C4_6  and  O3_7 
REMARK    4  A    between atoms: O3_7  and  C5_8 
REMARK    5  A    between atoms: C15_18  and  C16_19 
REMARK    6  A    between atoms: C20_23  and  C21_24 
REMARK    7  A    between atoms: C21_24  and  O4_27 
REMARK    8  A    between atoms: C24_29  and  O6_30 
REMARK    9  A    between atoms: C30_36  and  O7_37 
REMARK   10  A    between atoms: C36_44  and  O9_45 
REMARK   11  A    between atoms: C37_46  and  O10_47 
ROOT
HETATM    1  C5  UNL     1      -4.488   4.700  13.281  1.00  0.00     0.133 C 
HETATM    2  C6  UNL     1      -4.592   5.207  14.728  1.00  0.00     0.034 C 
HETATM    3  C7  UNL     1      -6.001   5.559  15.190  1.00  0.00     0.013 C 
HETATM    4  C8  UNL     1      -6.792   6.272  14.117  1.00  0.00    -0.025 A 
HETATM    5  C9  UNL     1      -6.647   7.773  14.091  1.00  0.00     0.021 A 
HETATM    6  C10 UNL     1      -7.989   7.193  14.511  1.00  0.00    -0.027 A 
HETATM    7  C11 UNL     1      -8.326   7.282  16.016  1.00  0.00     0.011 C 
HETATM    8  C12 UNL     1      -9.596   8.017  16.475  1.00  0.00     0.011 C 
HETATM    9  C13 UNL     1     -10.392   8.674  15.353  1.00  0.00    -0.028 C 
HETATM   10  C14 UNL     1      -9.646   9.977  14.947  1.00  0.00     0.016 C 
HETATM   11  C15 UNL     1     -11.906   8.951  15.669  1.00  0.00     0.057 C 
HETATM   12  C24 UNL     1     -12.554   9.011  14.260  1.00  0.00     0.126 C 
HETATM   13  C25 UNL     1     -11.571   8.326  13.282  1.00  0.00     0.042 C 
HETATM   14  C26 UNL     1     -10.514   7.636  14.172  1.00  0.00    -0.029 C 
HETATM   15  C27 UNL     1     -11.090   6.247  14.595  1.00  0.00     0.016 C 
HETATM   16  C28 UNL     1      -9.130   7.447  13.492  1.00  0.00     0.006 C 
HETATM   17  C29 UNL     1      -9.134   6.499  12.270  1.00  0.00     0.038 C 
HETATM   18  C30 UNL     1      -8.319   5.215  12.408  1.00  0.00     0.124 C 
HETATM   19  C31 UNL     1      -6.854   5.537  12.767  1.00  0.00     0.034 C 
HETATM   20  C32 UNL     1      -5.859   4.321  12.643  1.00  0.00    -0.015 C 
HETATM   21  C33 UNL     1      -5.632   4.026  11.133  1.00  0.00     0.018 C 
HETATM   22  C34 UNL     1      -6.365   2.991  13.249  1.00  0.00     0.018 C 
ENDROOT
BRANCH   1  23
HETATM   23  O3  UNL     1      -3.881   5.725  12.473  1.00  0.00    -0.352 OA
BRANCH  23  24
HETATM   24  C4  UNL     1      -2.519   5.445  12.105  1.00  0.00     0.292 C 
HETATM   25  C3  UNL     1      -1.625   5.955  13.254  1.00  0.00     0.218 C 
HETATM   26  C37 UNL     1      -0.139   5.615  13.011  1.00  0.00     0.183 C 
HETATM   27  C36 UNL     1       0.037   4.427  12.060  1.00  0.00     0.173 C 
HETATM   28  C35 UNL     1      -1.139   3.466  12.218  1.00  0.00     0.205 C 
HETATM   29  O8  UNL     1      -2.382   4.051  11.829  1.00  0.00    -0.356 OA
BRANCH  25  30
HETATM   30  O2  UNL     1      -1.798   7.398  13.352  1.00  0.00    -0.309 OA
BRANCH  30  31
HETATM   31  C2  UNL     1      -0.923   8.170  12.668  1.00  0.00     0.255 C 
HETATM   32  C1  UNL     1      -0.025   8.917  13.604  1.00  0.00     0.126 C 
HETATM   33  O1  UNL     1      -0.898   8.288  11.450  1.00  0.00    -0.266 OA
ENDBRANCH  30  31
ENDBRANCH  25  30
BRANCH  26  34
HETATM   34  O10 UNL     1       0.484   5.281  14.266  1.00  0.00    -0.390 OA
HETATM   35  H60 UNL     1       0.302   6.033  14.877  1.00  0.00     0.210 HD
ENDBRANCH  26  34
BRANCH  27  36
HETATM   36  O9  UNL     1       0.093   4.912  10.711  1.00  0.00    -0.391 OA
HETATM   37  H58 UNL     1       0.126   4.133  10.127  1.00  0.00     0.210 HD
ENDBRANCH  27  36
ENDBRANCH  23  24
ENDBRANCH   1  23
BRANCH  18  38
HETATM   38  O7  UNL     1      -8.935   4.341  13.348  1.00  0.00    -0.395 OA
HETATM   39  H47 UNL     1      -8.760   4.704  14.232  1.00  0.00     0.210 HD
ENDBRANCH  18  38
BRANCH  11  40
HETATM   40  C16 UNL     1     -12.381   9.992  16.732  1.00  0.00     0.065 C 
HETATM   41  C17 UNL     1     -13.654   9.675  17.513  1.00  0.00     0.046 C 
HETATM   42  C18 UNL     1     -11.252  10.357  17.718  1.00  0.00     0.041 C 
HETATM   43  C19 UNL     1     -10.489  11.438  16.995  1.00  0.00     0.038 C 
HETATM   44  C20 UNL     1     -11.615  12.200  16.312  1.00  0.00     0.156 C 
HETATM   45  O5  UNL     1     -12.642  11.228  16.010  1.00  0.00    -0.372 OA
BRANCH  44  46
HETATM   46  C21 UNL     1     -11.198  12.998  15.053  1.00  0.00     0.076 C 
HETATM   47  C22 UNL     1      -9.980  13.876  15.347  1.00  0.00     0.048 C 
HETATM   48  C23 UNL     1     -12.362  13.857  14.545  1.00  0.00     0.048 C 
BRANCH  46  49
HETATM   49  O4  UNL     1     -10.822  12.094  14.003  1.00  0.00    -0.388 OA
HETATM   50  H35 UNL     1     -10.696  12.609  13.189  1.00  0.00     0.210 HD
ENDBRANCH  46  49
ENDBRANCH  44  46
ENDBRANCH  11  40
BRANCH  12  51
HETATM   51  O6  UNL     1     -12.814  10.338  13.834  1.00  0.00    -0.395 OA
HETATM   52  H37 UNL     1     -13.156  10.303  12.925  1.00  0.00     0.210 HD
ENDBRANCH  12  51
TORSDOF 11
ENDMDL
MODEL 9
REMARK minimizedAffinity -8.63017273
REMARK CNNscore 0.508432448
REMARK CNNaffinity 7.65557051
REMARK  11 active torsions:
REMARK  status: ('A' for Active; 'I' for Inactive)
REMARK    1  A    between atoms: C2_2  and  O2_4 
REMARK    2  A    between atoms: O2_4  and  C3_5 
REMARK    3  A    between atoms: C4_6  and  O3_7 
REMARK    4  A    between atoms: O3_7  and  C5_8 
REMARK    5  A    between atoms: C15_18  and  C16_19 
REMARK    6  A    between atoms: C20_23  and  C21_24 
REMARK    7  A    between atoms: C21_24  and  O4_27 
REMARK    8  A    between atoms: C24_29  and  O6_30 
REMARK    9  A    between atoms: C30_36  and  O7_37 
REMARK   10  A    between atoms: C36_44  and  O9_45 
REMARK   11  A    between atoms: C37_46  and  O10_47 
ROOT
HETATM    1  C5  UNL     1      -4.691   4.515  13.427  1.00  0.00     0.133 C 
HETATM    2  C6  UNL     1      -4.819   5.023  14.871  1.00  0.00     0.034 C 
HETATM    3  C7  UNL     1      -6.222   5.445  15.287  1.00  0.00     0.013 C 
HETATM    4  C8  UNL     1      -6.939   6.200  14.191  1.00  0.00    -0.025 A 
HETATM    5  C9  UNL     1      -6.717   7.692  14.177  1.00  0.00     0.021 A 
HETATM    6  C10 UNL     1      -8.101   7.179  14.548  1.00  0.00    -0.027 A 
HETATM    7  C11 UNL     1      -8.484   7.281  16.041  1.00  0.00     0.011 C 
HETATM    8  C12 UNL     1      -9.731   8.079  16.460  1.00  0.00     0.011 C 
HETATM    9  C13 UNL     1     -10.453   8.779  15.314  1.00  0.00    -0.028 C 
HETATM   10  C14 UNL     1      -9.628  10.043  14.939  1.00  0.00     0.016 C 
HETATM   11  C15 UNL     1     -11.961   9.131  15.579  1.00  0.00     0.057 C 
HETATM   12  C24 UNL     1     -12.556   9.228  14.149  1.00  0.00     0.126 C 
HETATM   13  C25 UNL     1     -11.577   8.496  13.202  1.00  0.00     0.042 C 
HETATM   14  C26 UNL     1     -10.587   7.751  14.125  1.00  0.00    -0.029 C 
HETATM   15  C27 UNL     1     -11.247   6.392  14.522  1.00  0.00     0.016 C 
HETATM   16  C28 UNL     1      -9.192   7.494  13.491  1.00  0.00     0.006 C 
HETATM   17  C29 UNL     1      -9.202   6.550  12.266  1.00  0.00     0.038 C 
HETATM   18  C30 UNL     1      -8.459   5.226  12.426  1.00  0.00     0.124 C 
HETATM   19  C31 UNL     1      -6.992   5.472  12.836  1.00  0.00     0.034 C 
HETATM   20  C32 UNL     1      -6.057   4.208  12.741  1.00  0.00    -0.015 C 
HETATM   21  C33 UNL     1      -5.793   3.905  11.238  1.00  0.00     0.018 C 
HETATM   22  C34 UNL     1      -6.649   2.904  13.324  1.00  0.00     0.018 C 
ENDROOT
BRANCH   1  23
HETATM   23  O3  UNL     1      -4.006   5.510  12.644  1.00  0.00    -0.352 OA
BRANCH  23  24
HETATM   24  C4  UNL     1      -2.612   5.653  12.975  1.00  0.00     0.292 C 
HETATM   25  C3  UNL     1      -1.824   4.728  12.024  1.00  0.00     0.218 C 
HETATM   26  C37 UNL     1      -0.301   4.876  12.223  1.00  0.00     0.183 C 
HETATM   27  C36 UNL     1       0.076   6.224  12.845  1.00  0.00     0.173 C 
HETATM   28  C35 UNL     1      -0.928   7.288  12.407  1.00  0.00     0.205 C 
HETATM   29  O8  UNL     1      -2.247   7.029  12.890  1.00  0.00    -0.356 OA
BRANCH  25  30
HETATM   30  O2  UNL     1      -2.232   3.355  12.292  1.00  0.00    -0.309 OA
BRANCH  30  31
HETATM   31  C2  UNL     1      -2.312   2.519  11.231  1.00  0.00     0.255 C 
HETATM   32  C1  UNL     1      -3.144   1.318  11.558  1.00  0.00     0.126 C 
HETATM   33  O1  UNL     1      -1.741   2.689  10.162  1.00  0.00    -0.266 OA
ENDBRANCH  30  31
ENDBRANCH  25  30
BRANCH  26  34
HETATM   34  O10 UNL     1       0.357   4.771  10.946  1.00  0.00    -0.390 OA
HETATM   35  H60 UNL     1       0.050   3.927  10.541  1.00  0.00     0.210 HD
ENDBRANCH  26  34
BRANCH  27  36
HETATM   36  O9  UNL     1       0.064   6.100  14.273  1.00  0.00    -0.391 OA
HETATM   37  H58 UNL     1       0.229   6.987  14.640  1.00  0.00     0.210 HD
ENDBRANCH  27  36
ENDBRANCH  23  24
ENDBRANCH   1  23
BRANCH  18  38
HETATM   38  O7  UNL     1      -9.150   4.383  13.341  1.00  0.00    -0.395 OA
HETATM   39  H47 UNL     1      -8.988   4.733  14.232  1.00  0.00     0.210 HD
ENDBRANCH  18  38
BRANCH  11  40
HETATM   40  C16 UNL     1     -12.418  10.192  16.630  1.00  0.00     0.065 C 
HETATM   41  C17 UNL     1     -13.721   9.927  17.382  1.00  0.00     0.046 C 
HETATM   42  C18 UNL     1     -11.299  10.515  17.641  1.00  0.00     0.041 C 
HETATM   43  C19 UNL     1     -10.477  11.564  16.934  1.00  0.00     0.038 C 
HETATM   44  C20 UNL     1     -11.556  12.368  16.224  1.00  0.00     0.156 C 
HETATM   45  O5  UNL     1     -12.614  11.436  15.901  1.00  0.00    -0.372 OA
BRANCH  44  46
HETATM   46  C21 UNL     1     -11.080  13.146  14.974  1.00  0.00     0.076 C 
HETATM   47  C22 UNL     1      -9.896  14.052  15.320  1.00  0.00     0.048 C 
HETATM   48  C23 UNL     1     -12.226  13.973  14.380  1.00  0.00     0.048 C 
BRANCH  46  49
HETATM   49  O4  UNL     1     -10.628  12.227  13.969  1.00  0.00    -0.388 OA
HETATM   50  H35 UNL     1     -10.463  12.726  13.152  1.00  0.00     0.210 HD
ENDBRANCH  46  49
ENDBRANCH  44  46
ENDBRANCH  11  40
BRANCH  12  51
HETATM   51  O6  UNL     1     -12.734  10.567  13.720  1.00  0.00    -0.395 OA
HETATM   52  H37 UNL     1     -13.046  10.552  12.800  1.00  0.00     0.210 HD
ENDBRANCH  12  51
TORSDOF 11
ENDMDL
