MODEL 1
REMARK minimizedAffinity -9.76547527
REMARK  5 active torsions:
REMARK  status: ('A' for Active; 'I' for Inactive)
REMARK    1  A    between atoms: C2_2  and  C25_28 
REMARK    2  A    between atoms: C3_3  and  C4_4 
REMARK    3  A    between atoms: C4_4  and  C6_6 
REMARK    4  A    between atoms: C20_20  and  O1_21 
REMARK    5  A    between atoms: C25_28  and  C27_30 
ROOT
HETATM    1  C6  UNL     1      -1.654   5.318  13.293  1.00  0.00     0.001 C 
HETATM    2  C7  UNL     1      -1.766   4.428  12.012  1.00  0.00     0.006 C 
HETATM    3  C8  UNL     1      -0.520   4.705  11.154  1.00  0.00     0.009 C 
HETATM    4  C9  UNL     1       0.346   5.553  12.072  1.00  0.00     0.036 C 
HETATM    5  C10 UNL     1      -0.665   6.448  12.848  1.00  0.00    -0.033 C 
HETATM    6  C11 UNL     1      -1.420   7.494  11.988  1.00  0.00     0.016 C 
HETATM    7  C12 UNL     1       0.067   7.222  13.973  1.00  0.00     0.010 C 
HETATM    8  C13 UNL     1       1.581   7.004  14.077  1.00  0.00     0.010 C 
HETATM    9  C14 UNL     1       2.375   6.806  12.768  1.00  0.00     0.039 C 
HETATM   10  C15 UNL     1       1.557   6.297  11.527  1.00  0.00     0.123 C 
HETATM   11  C16 UNL     1       1.286   7.301  10.423  1.00  0.00     0.014 C 
HETATM   12  C17 UNL     1       2.377   7.952   9.991  1.00  0.00     0.014 C 
HETATM   13  C18 UNL     1       3.611   7.594  10.777  1.00  0.00     0.124 C 
HETATM   14  C19 UNL     1       4.892   8.247  10.270  1.00  0.00     0.078 C 
HETATM   15  C20 UNL     1       6.126   7.739  11.030  1.00  0.00     0.121 C 
HETATM   16  C21 UNL     1       5.831   7.168  12.422  1.00  0.00     0.033 C 
HETATM   17  C22 UNL     1       4.689   7.903  13.118  1.00  0.00     0.015 C 
HETATM   18  C23 UNL     1       3.360   7.925  12.303  1.00  0.00     0.001 C 
HETATM   19  C24 UNL     1       2.743   9.334  12.517  1.00  0.00     0.019 C 
HETATM   20  O2  UNL     1       3.783   6.140  10.623  1.00  0.00    -0.223 OA
HETATM   21  O3  UNL     1       2.485   5.400  10.865  1.00  0.00    -0.224 OA
ENDROOT
BRANCH   1  22
HETATM   22  C4  UNL     1      -3.054   5.698  13.851  1.00  0.00     0.009 C 
HETATM   23  C5  UNL     1      -3.138   5.794  15.376  1.00  0.00     0.014 C 
BRANCH  22  24
HETATM   24  C3  UNL     1      -4.176   4.830  13.306  1.00  0.00    -0.019 C 
HETATM   25  C2  UNL     1      -5.491   5.089  13.135  1.00  0.00    -0.083 C 
HETATM   26  C1  UNL     1      -6.169   6.395  13.450  1.00  0.00     0.043 C 
BRANCH  25  27
HETATM   27  C25 UNL     1      -6.446   4.013  12.595  1.00  0.00     0.013 C 
HETATM   28  C26 UNL     1      -7.372   3.536  13.727  1.00  0.00     0.015 C 
BRANCH  27  29
HETATM   29  C27 UNL     1      -5.717   2.836  11.877  1.00  0.00    -0.015 C 
HETATM   30  C28 UNL     1      -6.556   1.551  11.882  1.00  0.00     0.010 C 
HETATM   31  C29 UNL     1      -5.366   3.191  10.425  1.00  0.00     0.010 C 
ENDBRANCH  27  29
ENDBRANCH  25  27
ENDBRANCH  22  24
ENDBRANCH   1  22
BRANCH  15  32
HETATM   32  O1  UNL     1       7.046   8.825  11.170  1.00  0.00    -0.395 OA
HETATM   33  H28 UNL     1       7.360   9.055  10.279  1.00  0.00     0.210 HD
ENDBRANCH  15  32
TORSDOF 5
ENDMDL
MODEL 2
REMARK minimizedAffinity -9.54348946
REMARK  5 active torsions:
REMARK  status: ('A' for Active; 'I' for Inactive)
REMARK    1  A    between atoms: C2_2  and  C25_28 
REMARK    2  A    between atoms: C3_3  and  C4_4 
REMARK    3  A    between atoms: C4_4  and  C6_6 
REMARK    4  A    between atoms: C20_20  and  O1_21 
REMARK    5  A    between atoms: C25_28  and  C27_30 
ROOT
HETATM    1  C6  UNL     1      -5.764   6.105  13.542  1.00  0.00     0.001 C 
HETATM    2  C7  UNL     1      -6.005   7.642  13.699  1.00  0.00     0.006 C 
HETATM    3  C8  UNL     1      -4.649   8.339  13.499  1.00  0.00     0.009 C 
HETATM    4  C9  UNL     1      -3.751   7.210  13.018  1.00  0.00     0.036 C 
HETATM    5  C10 UNL     1      -4.229   5.962  13.816  1.00  0.00    -0.033 C 
HETATM    6  C11 UNL     1      -3.965   6.012  15.344  1.00  0.00     0.016 C 
HETATM    7  C12 UNL     1      -3.535   4.688  13.274  1.00  0.00     0.010 C 
HETATM    8  C13 UNL     1      -2.527   4.892  12.137  1.00  0.00     0.010 C 
HETATM    9  C14 UNL     1      -1.665   6.173  12.155  1.00  0.00     0.039 C 
HETATM   10  C15 UNL     1      -2.240   7.387  12.968  1.00  0.00     0.123 C 
HETATM   11  C16 UNL     1      -1.562   7.718  14.284  1.00  0.00     0.014 C 
HETATM   12  C17 UNL     1      -0.228   7.839  14.200  1.00  0.00     0.014 C 
HETATM   13  C18 UNL     1       0.294   7.525  12.823  1.00  0.00     0.124 C 
HETATM   14  C19 UNL     1       1.796   7.729  12.656  1.00  0.00     0.078 C 
HETATM   15  C20 UNL     1       2.238   7.518  11.201  1.00  0.00     0.121 C 
HETATM   16  C21 UNL     1       1.294   6.648  10.362  1.00  0.00     0.033 C 
HETATM   17  C22 UNL     1       0.646   5.540  11.188  1.00  0.00     0.015 C 
HETATM   18  C23 UNL     1      -0.134   6.053  12.436  1.00  0.00     0.001 C 
HETATM   19  C24 UNL     1       0.145   5.030  13.571  1.00  0.00     0.019 C 
HETATM   20  O2  UNL     1      -0.369   8.472  11.911  1.00  0.00    -0.223 OA
HETATM   21  O3  UNL     1      -1.860   8.534  12.165  1.00  0.00    -0.224 OA
ENDROOT
BRANCH   1  22
HETATM   22  C4  UNL     1      -6.775   5.277  14.382  1.00  0.00     0.009 C 
HETATM   23  C5  UNL     1      -6.992   3.840  13.901  1.00  0.00     0.014 C 
BRANCH  22  24
HETATM   24  C3  UNL     1      -8.107   5.980  14.586  1.00  0.00    -0.019 C 
HETATM   25  C2  UNL     1      -9.064   6.337  13.701  1.00  0.00    -0.083 C 
HETATM   26  C1  UNL     1      -9.020   6.074  12.220  1.00  0.00     0.043 C 
BRANCH  25  27
HETATM   27  C25 UNL     1     -10.323   7.090  14.157  1.00  0.00     0.013 C 
HETATM   28  C26 UNL     1     -11.197   7.414  12.934  1.00  0.00     0.015 C 
BRANCH  27  29
HETATM   29  C27 UNL     1     -10.017   8.346  15.029  1.00  0.00    -0.015 C 
HETATM   30  C28 UNL     1      -8.516   8.661  15.078  1.00  0.00     0.010 C 
HETATM   31  C29 UNL     1     -10.764   9.585  14.515  1.00  0.00     0.010 C 
ENDBRANCH  27  29
ENDBRANCH  25  27
ENDBRANCH  22  24
ENDBRANCH   1  22
BRANCH  15  32
HETATM   32  O1  UNL     1       3.532   6.908  11.208  1.00  0.00    -0.395 OA
HETATM   33  H28 UNL     1       4.155   7.554  11.583  1.00  0.00     0.210 HD
ENDBRANCH  15  32
TORSDOF 5
ENDMDL
MODEL 3
REMARK minimizedAffinity -9.35735226
REMARK  5 active torsions:
REMARK  status: ('A' for Active; 'I' for Inactive)
REMARK    1  A    between atoms: C2_2  and  C25_28 
REMARK    2  A    between atoms: C3_3  and  C4_4 
REMARK    3  A    between atoms: C4_4  and  C6_6 
REMARK    4  A    between atoms: C20_20  and  O1_21 
REMARK    5  A    between atoms: C25_28  and  C27_30 
ROOT
HETATM    1  C6  UNL     1      -4.209   7.329  13.238  1.00  0.00     0.001 C 
HETATM    2  C7  UNL     1      -4.009   8.741  13.881  1.00  0.00     0.006 C 
HETATM    3  C8  UNL     1      -2.522   9.105  13.728  1.00  0.00     0.009 C 
HETATM    4  C9  UNL     1      -1.993   8.008  12.819  1.00  0.00     0.036 C 
HETATM    5  C10 UNL     1      -2.763   6.728  13.259  1.00  0.00    -0.033 C 
HETATM    6  C11 UNL     1      -2.432   6.212  14.684  1.00  0.00     0.016 C 
HETATM    7  C12 UNL     1      -2.472   5.569  12.274  1.00  0.00     0.010 C 
HETATM    8  C13 UNL     1      -1.495   5.873  11.132  1.00  0.00     0.010 C 
HETATM    9  C14 UNL     1      -0.313   6.822  11.425  1.00  0.00     0.039 C 
HETATM   10  C15 UNL     1      -0.495   7.809  12.632  1.00  0.00     0.123 C 
HETATM   11  C16 UNL     1       0.303   7.515  13.888  1.00  0.00     0.014 C 
HETATM   12  C17 UNL     1       1.613   7.321  13.675  1.00  0.00     0.014 C 
HETATM   13  C18 UNL     1       1.970   7.352  12.212  1.00  0.00     0.124 C 
HETATM   14  C19 UNL     1       3.462   7.219  11.924  1.00  0.00     0.078 C 
HETATM   15  C20 UNL     1       3.767   7.389  10.429  1.00  0.00     0.121 C 
HETATM   16  C21 UNL     1       2.585   7.102   9.495  1.00  0.00     0.033 C 
HETATM   17  C22 UNL     1       1.691   5.984  10.024  1.00  0.00     0.015 C 
HETATM   18  C23 UNL     1       1.136   6.240  11.458  1.00  0.00     0.001 C 
HETATM   19  C24 UNL     1       1.168   4.869  12.187  1.00  0.00     0.019 C 
HETATM   20  O2  UNL     1       1.557   8.677  11.720  1.00  0.00    -0.223 OA
HETATM   21  O3  UNL     1       0.153   9.022  12.170  1.00  0.00    -0.224 OA
ENDROOT
BRANCH   1  22
HETATM   22  C4  UNL     1      -5.374   6.553  13.912  1.00  0.00     0.009 C 
HETATM   23  C5  UNL     1      -5.261   6.407  15.431  1.00  0.00     0.014 C 
BRANCH  22  24
HETATM   24  C3  UNL     1      -5.656   5.207  13.264  1.00  0.00    -0.019 C 
HETATM   25  C2  UNL     1      -6.776   4.721  12.686  1.00  0.00    -0.083 C 
HETATM   26  C1  UNL     1      -8.071   5.473  12.531  1.00  0.00     0.043 C 
BRANCH  25  27
HETATM   27  C25 UNL     1      -6.824   3.289  12.132  1.00  0.00     0.013 C 
HETATM   28  C26 UNL     1      -7.528   2.371  13.145  1.00  0.00     0.015 C 
BRANCH  27  29
HETATM   29  C27 UNL     1      -5.431   2.744  11.692  1.00  0.00    -0.015 C 
HETATM   30  C28 UNL     1      -5.434   1.219  11.530  1.00  0.00     0.010 C 
HETATM   31  C29 UNL     1      -4.967   3.379  10.373  1.00  0.00     0.010 C 
ENDBRANCH  27  29
ENDBRANCH  25  27
ENDBRANCH  22  24
ENDBRANCH   1  22
BRANCH  15  32
HETATM   32  O1  UNL     1       4.840   6.507  10.086  1.00  0.00    -0.395 OA
HETATM   33  H28 UNL     1       5.633   6.820  10.556  1.00  0.00     0.210 HD
ENDBRANCH  15  32
TORSDOF 5
ENDMDL
MODEL 4
REMARK minimizedAffinity -8.99197769
REMARK  5 active torsions:
REMARK  status: ('A' for Active; 'I' for Inactive)
REMARK    1  A    between atoms: C2_2  and  C25_28 
REMARK    2  A    between atoms: C3_3  and  C4_4 
REMARK    3  A    between atoms: C4_4  and  C6_6 
REMARK    4  A    between atoms: C20_20  and  O1_21 
REMARK    5  A    between atoms: C25_28  and  C27_30 
ROOT
HETATM    1  C6  UNL     1      -5.072   8.210  14.204  1.00  0.00     0.001 C 
HETATM    2  C7  UNL     1      -4.993   9.320  15.303  1.00  0.00     0.006 C 
HETATM    3  C8  UNL     1      -3.505   9.532  15.631  1.00  0.00     0.009 C 
HETATM    4  C9  UNL     1      -2.799   8.714  14.561  1.00  0.00     0.036 C 
HETATM    5  C10 UNL     1      -3.705   7.463  14.362  1.00  0.00    -0.033 C 
HETATM    6  C11 UNL     1      -3.775   6.497  15.574  1.00  0.00     0.016 C 
HETATM    7  C12 UNL     1      -3.211   6.638  13.148  1.00  0.00     0.010 C 
HETATM    8  C13 UNL     1      -1.960   7.161  12.432  1.00  0.00     0.010 C 
HETATM    9  C14 UNL     1      -0.860   7.824  13.287  1.00  0.00     0.039 C 
HETATM   10  C15 UNL     1      -1.313   8.405  14.675  1.00  0.00     0.123 C 
HETATM   11  C16 UNL     1      -0.880   7.644  15.914  1.00  0.00     0.014 C 
HETATM   12  C17 UNL     1       0.432   7.369  15.961  1.00  0.00     0.014 C 
HETATM   13  C18 UNL     1       1.158   7.807  14.716  1.00  0.00     0.124 C 
HETATM   14  C19 UNL     1       2.667   7.592  14.757  1.00  0.00     0.078 C 
HETATM   15  C20 UNL     1       3.357   8.177  13.516  1.00  0.00     0.121 C 
HETATM   16  C21 UNL     1       2.448   8.336  12.291  1.00  0.00     0.033 C 
HETATM   17  C22 UNL     1       1.405   7.225  12.199  1.00  0.00     0.015 C 
HETATM   18  C23 UNL     1       0.507   7.091  13.465  1.00  0.00     0.001 C 
HETATM   19  C24 UNL     1       0.297   5.568  13.688  1.00  0.00     0.019 C 
HETATM   20  O2  UNL     1       0.937   9.259  14.605  1.00  0.00    -0.223 OA
HETATM   21  O3  UNL     1      -0.522   9.614  14.802  1.00  0.00    -0.224 OA
ENDROOT
BRANCH   1  22
HETATM   22  C4  UNL     1      -6.400   7.409  14.292  1.00  0.00     0.009 C 
HETATM   23  C5  UNL     1      -6.976   7.265  15.703  1.00  0.00     0.014 C 
BRANCH  22  24
HETATM   24  C3  UNL     1      -6.337   6.057  13.599  1.00  0.00    -0.019 C 
HETATM   25  C2  UNL     1      -7.277   5.370  12.915  1.00  0.00    -0.083 C 
HETATM   26  C1  UNL     1      -8.682   5.841  12.655  1.00  0.00     0.043 C 
BRANCH  25  27
HETATM   27  C25 UNL     1      -6.975   3.980  12.335  1.00  0.00     0.013 C 
HETATM   28  C26 UNL     1      -7.283   2.906  13.392  1.00  0.00     0.015 C 
BRANCH  27  29
HETATM   29  C27 UNL     1      -5.538   3.849  11.744  1.00  0.00    -0.015 C 
HETATM   30  C28 UNL     1      -4.552   3.249  12.755  1.00  0.00     0.010 C 
HETATM   31  C29 UNL     1      -5.526   2.988  10.473  1.00  0.00     0.010 C 
ENDBRANCH  27  29
ENDBRANCH  25  27
ENDBRANCH  22  24
ENDBRANCH   1  22
BRANCH  15  32
HETATM   32  O1  UNL     1       4.448   7.322  13.164  1.00  0.00    -0.395 OA
HETATM   33  H28 UNL     1       5.103   7.378  13.881  1.00  0.00     0.210 HD
ENDBRANCH  15  32
TORSDOF 5
ENDMDL
MODEL 5
REMARK minimizedAffinity -8.97899151
REMARK  5 active torsions:
REMARK  status: ('A' for Active; 'I' for Inactive)
REMARK    1  A    between atoms: C2_2  and  C25_28 
REMARK    2  A    between atoms: C3_3  and  C4_4 
REMARK    3  A    between atoms: C4_4  and  C6_6 
REMARK    4  A    between atoms: C20_20  and  O1_21 
REMARK    5  A    between atoms: C25_28  and  C27_30 
ROOT
HETATM    1  C6  UNL     1       1.859   7.156  10.233  1.00  0.00     0.001 C 
HETATM    2  C7  UNL     1       2.159   5.627  10.366  1.00  0.00     0.006 C 
HETATM    3  C8  UNL     1       1.144   5.049  11.367  1.00  0.00     0.009 C 
HETATM    4  C9  UNL     1       0.181   6.205  11.585  1.00  0.00     0.036 C 
HETATM    5  C10 UNL     1       1.081   7.476  11.553  1.00  0.00    -0.033 C 
HETATM    6  C11 UNL     1       2.082   7.608  12.731  1.00  0.00     0.016 C 
HETATM    7  C12 UNL     1       0.200   8.750  11.557  1.00  0.00     0.010 C 
HETATM    8  C13 UNL     1      -1.316   8.531  11.630  1.00  0.00     0.010 C 
HETATM    9  C14 UNL     1      -1.836   7.349  12.476  1.00  0.00     0.039 C 
HETATM   10  C15 UNL     1      -0.825   6.173  12.726  1.00  0.00     0.123 C 
HETATM   11  C16 UNL     1      -0.249   6.047  14.123  1.00  0.00     0.014 C 
HETATM   12  C17 UNL     1      -1.169   6.049  15.101  1.00  0.00     0.014 C 
HETATM   13  C18 UNL     1      -2.564   6.271  14.578  1.00  0.00     0.124 C 
HETATM   14  C19 UNL     1      -3.654   6.199  15.642  1.00  0.00     0.078 C 
HETATM   15  C20 UNL     1      -5.056   6.303  15.025  1.00  0.00     0.121 C 
HETATM   16  C21 UNL     1      -5.104   6.986  13.653  1.00  0.00     0.033 C 
HETATM   17  C22 UNL     1      -4.072   8.103  13.529  1.00  0.00     0.015 C 
HETATM   18  C23 UNL     1      -2.607   7.647  13.801  1.00  0.00     0.001 C 
HETATM   19  C24 UNL     1      -1.932   8.803  14.589  1.00  0.00     0.019 C 
HETATM   20  O2  UNL     1      -2.822   5.175  13.629  1.00  0.00    -0.223 OA
HETATM   21  O3  UNL     1      -1.667   4.994  12.666  1.00  0.00    -0.224 OA
ENDROOT
BRANCH   1  22
HETATM   22  C4  UNL     1       3.140   7.962   9.881  1.00  0.00     0.009 C 
HETATM   23  C5  UNL     1       3.331   8.257   8.391  1.00  0.00     0.014 C 
BRANCH  22  24
HETATM   24  C3  UNL     1       4.408   7.371  10.477  1.00  0.00    -0.019 C 
HETATM   25  C2  UNL     1       5.582   7.949  10.810  1.00  0.00    -0.083 C 
HETATM   26  C1  UNL     1       5.900   9.414  10.673  1.00  0.00     0.043 C 
BRANCH  25  27
HETATM   27  C25 UNL     1       6.746   7.115  11.366  1.00  0.00     0.013 C 
HETATM   28  C26 UNL     1       6.592   5.654  10.911  1.00  0.00     0.015 C 
BRANCH  27  29
HETATM   29  C27 UNL     1       6.929   7.249  12.909  1.00  0.00    -0.015 C 
HETATM   30  C28 UNL     1       8.035   8.248  13.273  1.00  0.00     0.010 C 
HETATM   31  C29 UNL     1       5.626   7.684  13.596  1.00  0.00     0.010 C 
ENDBRANCH  27  29
ENDBRANCH  25  27
ENDBRANCH  22  24
ENDBRANCH   1  22
BRANCH  15  32
HETATM   32  O1  UNL     1      -5.891   7.034  15.926  1.00  0.00    -0.395 OA
HETATM   33  H28 UNL     1      -5.994   6.494  16.728  1.00  0.00     0.210 HD
ENDBRANCH  15  32
TORSDOF 5
ENDMDL
MODEL 6
REMARK minimizedAffinity -8.88488102
REMARK  5 active torsions:
REMARK  status: ('A' for Active; 'I' for Inactive)
REMARK    1  A    between atoms: C2_2  and  C25_28 
REMARK    2  A    between atoms: C3_3  and  C4_4 
REMARK    3  A    between atoms: C4_4  and  C6_6 
REMARK    4  A    between atoms: C20_20  and  O1_21 
REMARK    5  A    between atoms: C25_28  and  C27_30 
ROOT
HETATM    1  C6  UNL     1      -2.860   8.889  13.205  1.00  0.00     0.001 C 
HETATM    2  C7  UNL     1      -2.436  10.020  14.199  1.00  0.00     0.006 C 
HETATM    3  C8  UNL     1      -0.899  10.066  14.209  1.00  0.00     0.009 C 
HETATM    4  C9  UNL     1      -0.521   9.132  13.071  1.00  0.00     0.036 C 
HETATM    5  C10 UNL     1      -1.579   7.991  13.131  1.00  0.00    -0.033 C 
HETATM    6  C11 UNL     1      -1.504   7.084  14.387  1.00  0.00     0.016 C 
HETATM    7  C12 UNL     1      -1.438   7.071  11.893  1.00  0.00     0.010 C 
HETATM    8  C13 UNL     1      -0.312   7.415  10.912  1.00  0.00     0.010 C 
HETATM    9  C14 UNL     1       1.006   7.973  11.490  1.00  0.00     0.039 C 
HETATM   10  C15 UNL     1       0.914   8.653  12.904  1.00  0.00     0.123 C 
HETATM   11  C16 UNL     1       1.506   7.890  14.073  1.00  0.00     0.014 C 
HETATM   12  C17 UNL     1       2.762   7.464  13.874  1.00  0.00     0.014 C 
HETATM   13  C18 UNL     1       3.260   7.768  12.485  1.00  0.00     0.124 C 
HETATM   14  C19 UNL     1       4.713   7.376  12.236  1.00  0.00     0.078 C 
HETATM   15  C20 UNL     1       5.193   7.831  10.851  1.00  0.00     0.121 C 
HETATM   16  C21 UNL     1       4.075   8.053   9.825  1.00  0.00     0.033 C 
HETATM   17  C22 UNL     1       2.921   7.071  10.008  1.00  0.00     0.015 C 
HETATM   18  C23 UNL     1       2.293   7.090  11.434  1.00  0.00     0.001 C 
HETATM   19  C24 UNL     1       1.968   5.612  11.784  1.00  0.00     0.019 C 
HETATM   20  O2  UNL     1       3.181   9.230  12.335  1.00  0.00    -0.223 OA
HETATM   21  O3  UNL     1       1.842   9.763  12.798  1.00  0.00    -0.224 OA
ENDROOT
BRANCH   1  22
HETATM   22  C4  UNL     1      -4.221   8.256  13.604  1.00  0.00     0.009 C 
HETATM   23  C5  UNL     1      -4.701   8.592  15.018  1.00  0.00     0.014 C 
BRANCH  22  24
HETATM   24  C3  UNL     1      -4.283   6.756  13.360  1.00  0.00    -0.019 C 
HETATM   25  C2  UNL     1      -5.338   5.916  13.287  1.00  0.00    -0.083 C 
HETATM   26  C1  UNL     1      -6.782   6.317  13.420  1.00  0.00     0.043 C 
BRANCH  25  27
HETATM   27  C25 UNL     1      -5.135   4.408  13.070  1.00  0.00     0.013 C 
HETATM   28  C26 UNL     1      -3.679   4.142  12.651  1.00  0.00     0.015 C 
BRANCH  27  29
HETATM   29  C27 UNL     1      -6.168   3.775  12.088  1.00  0.00    -0.015 C 
HETATM   30  C28 UNL     1      -5.485   2.994  10.958  1.00  0.00     0.010 C 
HETATM   31  C29 UNL     1      -7.140   2.838  12.819  1.00  0.00     0.010 C 
ENDBRANCH  27  29
ENDBRANCH  25  27
ENDBRANCH  22  24
ENDBRANCH   1  22
BRANCH  15  32
HETATM   32  O1  UNL     1       6.089   6.840  10.338  1.00  0.00    -0.395 OA
HETATM   33  H28 UNL     1       6.879   6.843  10.906  1.00  0.00     0.210 HD
ENDBRANCH  15  32
TORSDOF 5
ENDMDL
MODEL 7
REMARK minimizedAffinity -8.77652645
REMARK  5 active torsions:
REMARK  status: ('A' for Active; 'I' for Inactive)
REMARK    1  A    between atoms: C2_2  and  C25_28 
REMARK    2  A    between atoms: C3_3  and  C4_4 
REMARK    3  A    between atoms: C4_4  and  C6_6 
REMARK    4  A    between atoms: C20_20  and  O1_21 
REMARK    5  A    between atoms: C25_28  and  C27_30 
ROOT
HETATM    1  C6  UNL     1      -2.448   5.605  12.046  1.00  0.00     0.001 C 
HETATM    2  C7  UNL     1      -2.949   4.130  11.899  1.00  0.00     0.006 C 
HETATM    3  C8  UNL     1      -4.284   4.024  12.655  1.00  0.00     0.009 C 
HETATM    4  C9  UNL     1      -4.597   5.471  13.002  1.00  0.00     0.036 C 
HETATM    5  C10 UNL     1      -3.211   6.107  13.318  1.00  0.00    -0.033 C 
HETATM    6  C11 UNL     1      -2.511   5.569  14.593  1.00  0.00     0.016 C 
HETATM    7  C12 UNL     1      -3.358   7.639  13.488  1.00  0.00     0.010 C 
HETATM    8  C13 UNL     1      -4.776   8.207  13.361  1.00  0.00     0.010 C 
HETATM    9  C14 UNL     1      -5.947   7.355  13.895  1.00  0.00     0.039 C 
HETATM   10  C15 UNL     1      -5.690   5.809  14.005  1.00  0.00     0.123 C 
HETATM   11  C16 UNL     1      -5.519   5.238  15.400  1.00  0.00     0.014 C 
HETATM   12  C17 UNL     1      -6.491   5.582  16.259  1.00  0.00     0.014 C 
HETATM   13  C18 UNL     1      -7.483   6.540  15.653  1.00  0.00     0.124 C 
HETATM   14  C19 UNL     1      -8.653   6.896  16.564  1.00  0.00     0.078 C 
HETATM   15  C20 UNL     1      -9.689   7.768  15.841  1.00  0.00     0.121 C 
HETATM   16  C21 UNL     1      -9.145   8.546  14.636  1.00  0.00     0.033 C 
HETATM   17  C22 UNL     1      -7.702   8.997  14.845  1.00  0.00     0.015 C 
HETATM   18  C23 UNL     1      -6.715   7.834  15.167  1.00  0.00     0.001 C 
HETATM   19  C24 UNL     1      -5.732   8.384  16.236  1.00  0.00     0.019 C 
HETATM   20  O2  UNL     1      -8.050   5.851  14.481  1.00  0.00    -0.223 OA
HETATM   21  O3  UNL     1      -6.966   5.233  13.624  1.00  0.00    -0.224 OA
ENDROOT
BRANCH   1  22
HETATM   22  C4  UNL     1      -0.897   5.691  11.996  1.00  0.00     0.009 C 
HETATM   23  C5  UNL     1      -0.211   5.805  13.359  1.00  0.00     0.014 C 
BRANCH  22  24
HETATM   24  C3  UNL     1      -0.384   6.762  11.046  1.00  0.00    -0.019 C 
HETATM   25  C2  UNL     1       0.813   6.902  10.437  1.00  0.00    -0.083 C 
HETATM   26  C1  UNL     1       1.970   5.947  10.560  1.00  0.00     0.043 C 
BRANCH  25  27
HETATM   27  C25 UNL     1       1.108   8.115   9.541  1.00  0.00     0.013 C 
HETATM   28  C26 UNL     1      -0.167   8.510   8.777  1.00  0.00     0.015 C 
BRANCH  27  29
HETATM   29  C27 UNL     1       2.335   7.912   8.601  1.00  0.00    -0.015 C 
HETATM   30  C28 UNL     1       3.664   7.995   9.363  1.00  0.00     0.010 C 
HETATM   31  C29 UNL     1       2.269   6.564   7.870  1.00  0.00     0.010 C 
ENDBRANCH  27  29
ENDBRANCH  25  27
ENDBRANCH  22  24
ENDBRANCH   1  22
BRANCH  15  32
HETATM   32  O1  UNL     1     -10.225   8.703  16.781  1.00  0.00    -0.395 OA
HETATM   33  H28 UNL     1     -10.723   8.194  17.444  1.00  0.00     0.210 HD
ENDBRANCH  15  32
TORSDOF 5
ENDMDL
MODEL 8
REMARK minimizedAffinity -8.74792385
REMARK  5 active torsions:
REMARK  status: ('A' for Active; 'I' for Inactive)
REMARK    1  A    between atoms: C2_2  and  C25_28 
REMARK    2  A    between atoms: C3_3  and  C4_4 
REMARK    3  A    between atoms: C4_4  and  C6_6 
REMARK    4  A    between atoms: C20_20  and  O1_21 
REMARK    5  A    between atoms: C25_28  and  C27_30 
ROOT
HETATM    1  C6  UNL     1      -1.854   5.417  13.472  1.00  0.00     0.001 C 
HETATM    2  C7  UNL     1      -0.652   5.862  12.575  1.00  0.00     0.006 C 
HETATM    3  C8  UNL     1      -0.257   7.282  13.014  1.00  0.00     0.009 C 
HETATM    4  C9  UNL     1      -1.084   7.495  14.272  1.00  0.00     0.036 C 
HETATM    5  C10 UNL     1      -2.436   6.780  13.977  1.00  0.00    -0.033 C 
HETATM    6  C11 UNL     1      -3.297   7.426  12.861  1.00  0.00     0.016 C 
HETATM    7  C12 UNL     1      -3.305   6.740  15.259  1.00  0.00     0.010 C 
HETATM    8  C13 UNL     1      -2.716   7.415  16.503  1.00  0.00     0.010 C 
HETATM    9  C14 UNL     1      -1.870   8.690  16.303  1.00  0.00     0.039 C 
HETATM   10  C15 UNL     1      -1.224   8.881  14.884  1.00  0.00     0.123 C 
HETATM   11  C16 UNL     1      -1.826   9.949  13.992  1.00  0.00     0.014 C 
HETATM   12  C17 UNL     1      -1.955  11.149  14.579  1.00  0.00     0.014 C 
HETATM   13  C18 UNL     1      -1.551  11.126  16.030  1.00  0.00     0.124 C 
HETATM   14  C19 UNL     1      -1.601  12.486  16.719  1.00  0.00     0.078 C 
HETATM   15  C20 UNL     1      -1.055  12.415  18.152  1.00  0.00     0.121 C 
HETATM   16  C21 UNL     1      -1.098  11.020  18.787  1.00  0.00     0.033 C 
HETATM   17  C22 UNL     1      -2.317  10.219  18.338  1.00  0.00     0.015 C 
HETATM   18  C23 UNL     1      -2.436  10.061  16.792  1.00  0.00     0.001 C 
HETATM   19  C24 UNL     1      -3.948  10.188  16.458  1.00  0.00     0.019 C 
HETATM   20  O2  UNL     1      -0.146  10.688  16.054  1.00  0.00    -0.223 OA
HETATM   21  O3  UNL     1       0.069   9.467  15.184  1.00  0.00    -0.224 OA
ENDROOT
BRANCH   1  22
HETATM   22  C4  UNL     1      -2.781   4.413  12.732  1.00  0.00     0.009 C 
HETATM   23  C5  UNL     1      -2.662   4.426  11.206  1.00  0.00     0.014 C 
BRANCH  22  24
HETATM   24  C3  UNL     1      -4.237   4.510  13.157  1.00  0.00    -0.019 C 
HETATM   25  C2  UNL     1      -5.321   3.805  12.767  1.00  0.00    -0.083 C 
HETATM   26  C1  UNL     1      -5.313   2.676  11.771  1.00  0.00     0.043 C 
BRANCH  25  27
HETATM   27  C25 UNL     1      -6.717   4.127  13.322  1.00  0.00     0.013 C 
HETATM   28  C26 UNL     1      -7.709   3.038  12.878  1.00  0.00     0.015 C 
BRANCH  27  29
HETATM   29  C27 UNL     1      -7.209   5.566  12.975  1.00  0.00    -0.015 C 
HETATM   30  C28 UNL     1      -8.628   5.565  12.394  1.00  0.00     0.010 C 
HETATM   31  C29 UNL     1      -7.180   6.484  14.206  1.00  0.00     0.010 C 
ENDBRANCH  27  29
ENDBRANCH  25  27
ENDBRANCH  22  24
ENDBRANCH   1  22
BRANCH  15  32
HETATM   32  O1  UNL     1      -1.816  13.309  18.969  1.00  0.00    -0.395 OA
HETATM   33  H28 UNL     1      -1.631  14.212  18.659  1.00  0.00     0.210 HD
ENDBRANCH  15  32
TORSDOF 5
ENDMDL
MODEL 9
REMARK minimizedAffinity -8.70656681
REMARK  5 active torsions:
REMARK  status: ('A' for Active; 'I' for Inactive)
REMARK    1  A    between atoms: C2_2  and  C25_28 
REMARK    2  A    between atoms: C3_3  and  C4_4 
REMARK    3  A    between atoms: C4_4  and  C6_6 
REMARK    4  A    between atoms: C20_20  and  O1_21 
REMARK    5  A    between atoms: C25_28  and  C27_30 
ROOT
HETATM    1  C6  UNL     1      -3.030   6.830  14.257  1.00  0.00     0.001 C 
HETATM    2  C7  UNL     1      -1.887   5.832  13.874  1.00  0.00     0.006 C 
HETATM    3  C8  UNL     1      -0.575   6.404  14.436  1.00  0.00     0.009 C 
HETATM    4  C9  UNL     1      -1.048   7.565  15.296  1.00  0.00     0.036 C 
HETATM    5  C10 UNL     1      -2.255   8.165  14.516  1.00  0.00    -0.033 C 
HETATM    6  C11 UNL     1      -1.901   8.835  13.163  1.00  0.00     0.016 C 
HETATM    7  C12 UNL     1      -2.968   9.233  15.382  1.00  0.00     0.010 C 
HETATM    8  C13 UNL     1      -2.356   9.513  16.760  1.00  0.00     0.010 C 
HETATM    9  C14 UNL     1      -0.820   9.452  16.896  1.00  0.00     0.039 C 
HETATM   10  C15 UNL     1      -0.059   8.596  15.820  1.00  0.00     0.123 C 
HETATM   11  C16 UNL     1       0.734   9.354  14.774  1.00  0.00     0.014 C 
HETATM   12  C17 UNL     1       1.574  10.272  15.277  1.00  0.00     0.014 C 
HETATM   13  C18 UNL     1       1.462  10.396  16.774  1.00  0.00     0.124 C 
HETATM   14  C19 UNL     1       2.455  11.368  17.402  1.00  0.00     0.078 C 
HETATM   15  C20 UNL     1       2.374  11.348  18.935  1.00  0.00     0.121 C 
HETATM   16  C21 UNL     1       1.040  10.847  19.501  1.00  0.00     0.033 C 
HETATM   17  C22 UNL     1      -0.144  11.248  18.626  1.00  0.00     0.015 C 
HETATM   18  C23 UNL     1      -0.028  10.774  17.146  1.00  0.00     0.001 C 
HETATM   19  C24 UNL     1      -0.588  11.932  16.275  1.00  0.00     0.019 C 
HETATM   20  O2  UNL     1       1.768   9.062  17.317  1.00  0.00    -0.223 OA
HETATM   21  O3  UNL     1       1.008   7.978  16.583  1.00  0.00    -0.224 OA
ENDROOT
BRANCH   1  22
HETATM   22  C4  UNL     1      -4.187   6.801  13.220  1.00  0.00     0.009 C 
HETATM   23  C5  UNL     1      -5.044   8.069  13.172  1.00  0.00     0.014 C 
BRANCH  22  24
HETATM   24  C3  UNL     1      -5.064   5.565  13.330  1.00  0.00    -0.019 C 
HETATM   25  C2  UNL     1      -5.053   4.408  12.633  1.00  0.00    -0.083 C 
HETATM   26  C1  UNL     1      -4.083   4.063  11.535  1.00  0.00     0.043 C 
BRANCH  25  27
HETATM   27  C25 UNL     1      -6.089   3.307  12.909  1.00  0.00     0.013 C 
HETATM   28  C26 UNL     1      -6.127   2.330  11.721  1.00  0.00     0.015 C 
BRANCH  27  29
HETATM   29  C27 UNL     1      -7.499   3.858  13.281  1.00  0.00    -0.015 C 
HETATM   30  C28 UNL     1      -7.525   4.473  14.686  1.00  0.00     0.010 C 
HETATM   31  C29 UNL     1      -7.978   4.912  12.272  1.00  0.00     0.010 C 
ENDBRANCH  27  29
ENDBRANCH  25  27
ENDBRANCH  22  24
ENDBRANCH   1  22
BRANCH  15  32
HETATM   32  O1  UNL     1       2.601  12.676  19.414  1.00  0.00    -0.395 OA
HETATM   33  H28 UNL     1       3.521  12.908  19.201  1.00  0.00     0.210 HD
ENDBRANCH  15  32
TORSDOF 5
ENDMDL
