MODEL 1
REMARK minimizedAffinity -10.9462328
REMARK CNNscore 0.895771682
REMARK CNNaffinity 8.18557358
REMARK  12 active torsions:
REMARK  status: ('A' for Active; 'I' for Inactive)
REMARK    1  A    between atoms: C2_2  and  C4_4 
REMARK    2  A    between atoms: C4_4  and  C6_6 
REMARK    3  A    between atoms: C7_8  and  C8_9 
REMARK    4  A    between atoms: C8_9  and  O2_11 
REMARK    5  A    between atoms: C8_9  and  C10_12 
REMARK    6  A    between atoms: C13_15  and  O3_16 
REMARK    7  A    between atoms: C24_28  and  O5_29 
REMARK    8  A    between atoms: C25_30  and  O6_31 
REMARK    9  A    between atoms: C29_35  and  C30_36 
REMARK   10  A    between atoms: C30_36  and  C31_37 
REMARK   11  A    between atoms: C31_37  and  C32_38 
REMARK   12  A    between atoms: C36_42  and  O7_43 
ROOT
HETATM    1  C10 UNL     1      -7.038   7.248  15.480  1.00  0.00     0.034 C 
HETATM    2  C11 UNL     1      -6.761   5.938  16.290  1.00  0.00     0.012 C 
HETATM    3  C12 UNL     1      -5.368   5.426  15.878  1.00  0.00     0.044 C 
HETATM    4  C13 UNL     1      -4.774   6.599  15.100  1.00  0.00     0.090 C 
HETATM    5  C14 UNL     1      -3.545   6.468  14.242  1.00  0.00    -0.037 C 
HETATM    6  C15 UNL     1      -2.984   5.287  13.954  1.00  0.00     0.057 C 
HETATM    7  C16 UNL     1      -1.910   5.169  12.954  1.00  0.00     0.155 C 
HETATM    8  O4  UNL     1      -1.456   4.051  12.711  1.00  0.00    -0.293 OA
HETATM    9  C17 UNL     1      -1.441   6.412  12.215  1.00  0.00     0.075 C 
HETATM   10  C18 UNL     1       0.065   6.307  11.863  1.00  0.00     0.029 C 
HETATM   11  C19 UNL     1       0.571   7.581  11.134  1.00  0.00     0.008 C 
HETATM   12  C20 UNL     1      -0.545   8.537  10.742  1.00  0.00     0.001 C 
HETATM   13  C21 UNL     1      -1.494   8.888  11.899  1.00  0.00     0.011 C 
HETATM   14  C22 UNL     1      -1.661   7.749  12.965  1.00  0.00    -0.019 C 
HETATM   15  C23 UNL     1      -0.513   7.960  14.044  1.00  0.00     0.045 C 
HETATM   16  C24 UNL     1       0.303   6.711  14.390  1.00  0.00     0.148 C 
HETATM   17  C25 UNL     1       0.888   6.009  13.143  1.00  0.00     0.151 C 
HETATM   18  C26 UNL     1      -3.065   7.812  13.694  1.00  0.00     0.027 C 
HETATM   19  C27 UNL     1      -4.229   8.491  12.933  1.00  0.00     0.011 C 
HETATM   20  C28 UNL     1      -5.597   8.492  13.659  1.00  0.00     0.014 C 
HETATM   21  C29 UNL     1      -6.004   7.134  14.276  1.00  0.00     0.002 C 
ENDROOT
BRANCH   1  22
HETATM   22  C8  UNL     1      -8.564   7.502  15.247  1.00  0.00     0.087 C 
HETATM   23  C9  UNL     1      -9.010   7.047  13.848  1.00  0.00     0.049 C 
BRANCH  22  24
HETATM   24  C7  UNL     1      -8.865   8.995  15.360  1.00  0.00     0.185 A 
HETATM   25  C6  UNL     1     -10.237   9.609  15.098  1.00  0.00     0.158 A 
HETATM   26  O1  UNL     1      -9.743   9.380  16.425  1.00  0.00    -0.372 OA
BRANCH  25  27
HETATM   27  C4  UNL     1     -10.383  11.072  14.735  1.00  0.00     0.017 C 
HETATM   28  C5  UNL     1      -9.966  11.932  15.937  1.00  0.00     0.013 C 
BRANCH  27  29
HETATM   29  C2  UNL     1     -11.838  11.394  14.283  1.00  0.00    -0.016 C 
HETATM   30  C1  UNL     1     -12.669  12.014  15.415  1.00  0.00     0.010 C 
HETATM   31  C3  UNL     1     -12.569  10.152  13.758  1.00  0.00     0.010 C 
ENDBRANCH  27  29
ENDBRANCH  25  27
ENDBRANCH  22  24
BRANCH  22  32
HETATM   32  O2  UNL     1      -9.333   6.774  16.208  1.00  0.00    -0.387 OA
HETATM   33  H17 UNL     1     -10.271   6.887  15.986  1.00  0.00     0.210 HD
ENDBRANCH  22  32
ENDBRANCH   1  22
BRANCH  21  34
HETATM   34  C30 UNL     1      -6.600   6.146  13.193  1.00  0.00     0.018 C 
BRANCH  34  35
HETATM   35  C31 UNL     1      -7.079   4.719  13.514  1.00  0.00     0.039 C 
BRANCH  35  36
HETATM   36  C32 UNL     1      -6.558   3.550  12.702  1.00  0.00    -0.056 A 
HETATM   37  C33 UNL     1      -7.237   2.331  12.569  1.00  0.00     0.007 A 
HETATM   38  C34 UNL     1      -6.682   1.281  11.828  1.00  0.00     0.003 A 
HETATM   39  C35 UNL     1      -5.436   1.426  11.220  1.00  0.00     0.036 A 
HETATM   40  C36 UNL     1      -4.744   2.620  11.372  1.00  0.00     0.066 A 
HETATM   41  C37 UNL     1      -5.286   3.666  12.113  1.00  0.00     0.043 A 
BRANCH  40  42
HETATM   42  O7  UNL     1      -3.520   2.811  10.804  1.00  0.00    -0.361 OA
HETATM   43  H51 UNL     1      -3.267   1.997  10.339  1.00  0.00     0.217 HD
ENDBRANCH  40  42
ENDBRANCH  35  36
ENDBRANCH  34  35
ENDBRANCH  21  34
BRANCH   4  44
HETATM   44  O3  UNL     1      -4.403   7.560  16.114  1.00  0.00    -0.384 OA
HETATM   45  H23 UNL     1      -3.685   7.163  16.640  1.00  0.00     0.211 HD
ENDBRANCH   4  44
BRANCH  16  46
HETATM   46  O5  UNL     1       1.350   7.067  15.296  1.00  0.00    -0.393 OA
HETATM   47  H36 UNL     1       2.162   7.085  14.743  1.00  0.00     0.210 HD
ENDBRANCH  16  46
BRANCH  17  48
HETATM   48  O6  UNL     1       2.266   6.384  12.990  1.00  0.00    -0.393 OA
HETATM   49  H38 UNL     1       2.622   5.847  12.258  1.00  0.00     0.210 HD
ENDBRANCH  17  48
TORSDOF 12
ENDMDL
MODEL 2
REMARK minimizedAffinity -11.5330362
REMARK CNNscore 0.868452251
REMARK CNNaffinity 8.0947485
REMARK  12 active torsions:
REMARK  status: ('A' for Active; 'I' for Inactive)
REMARK    1  A    between atoms: C2_2  and  C4_4 
REMARK    2  A    between atoms: C4_4  and  C6_6 
REMARK    3  A    between atoms: C7_8  and  C8_9 
REMARK    4  A    between atoms: C8_9  and  O2_11 
REMARK    5  A    between atoms: C8_9  and  C10_12 
REMARK    6  A    between atoms: C13_15  and  O3_16 
REMARK    7  A    between atoms: C24_28  and  O5_29 
REMARK    8  A    between atoms: C25_30  and  O6_31 
REMARK    9  A    between atoms: C29_35  and  C30_36 
REMARK   10  A    between atoms: C30_36  and  C31_37 
REMARK   11  A    between atoms: C31_37  and  C32_38 
REMARK   12  A    between atoms: C36_42  and  O7_43 
ROOT
HETATM    1  C10 UNL     1      -3.250   8.143  14.950  1.00  0.00     0.034 C 
HETATM    2  C11 UNL     1      -2.803   6.953  15.862  1.00  0.00     0.012 C 
HETATM    3  C12 UNL     1      -1.660   6.219  15.136  1.00  0.00     0.044 C 
HETATM    4  C13 UNL     1      -1.285   7.175  14.005  1.00  0.00     0.090 C 
HETATM    5  C14 UNL     1      -0.420   6.764  12.845  1.00  0.00    -0.037 C 
HETATM    6  C15 UNL     1      -0.062   5.493  12.621  1.00  0.00     0.057 C 
HETATM    7  C16 UNL     1       0.610   5.092  11.375  1.00  0.00     0.155 C 
HETATM    8  O4  UNL     1       0.887   3.903  11.214  1.00  0.00    -0.293 OA
HETATM    9  C17 UNL     1       0.885   6.138  10.306  1.00  0.00     0.075 C 
HETATM   10  C18 UNL     1       2.180   5.799   9.524  1.00  0.00     0.029 C 
HETATM   11  C19 UNL     1       2.494   6.873   8.448  1.00  0.00     0.008 C 
HETATM   12  C20 UNL     1       1.374   7.883   8.256  1.00  0.00     0.001 C 
HETATM   13  C21 UNL     1       0.886   8.522   9.565  1.00  0.00     0.011 C 
HETATM   14  C22 UNL     1       1.010   7.593  10.823  1.00  0.00    -0.019 C 
HETATM   15  C23 UNL     1       2.462   7.830  11.426  1.00  0.00     0.045 C 
HETATM   16  C24 UNL     1       3.267   6.562  11.724  1.00  0.00     0.148 C 
HETATM   17  C25 UNL     1       3.360   5.608  10.511  1.00  0.00     0.151 C 
HETATM   18  C26 UNL     1      -0.066   7.938  11.932  1.00  0.00     0.027 C 
HETATM   19  C27 UNL     1      -1.371   8.625  11.463  1.00  0.00     0.011 C 
HETATM   20  C28 UNL     1      -2.418   8.904  12.569  1.00  0.00     0.014 C 
HETATM   21  C29 UNL     1      -2.682   7.719  13.525  1.00  0.00     0.002 C 
ENDROOT
BRANCH   1  22
HETATM   22  C8  UNL     1      -4.747   8.540  15.167  1.00  0.00     0.087 C 
HETATM   23  C9  UNL     1      -5.542   8.504  13.851  1.00  0.00     0.049 C 
BRANCH  22  24
HETATM   24  C7  UNL     1      -4.834   9.963  15.714  1.00  0.00     0.185 A 
HETATM   25  C6  UNL     1      -3.691  10.666  16.443  1.00  0.00     0.158 A 
HETATM   26  O1  UNL     1      -4.001  10.936  15.068  1.00  0.00    -0.372 OA
BRANCH  25  27
HETATM   27  C4  UNL     1      -3.957  11.827  17.377  1.00  0.00     0.017 C 
HETATM   28  C5  UNL     1      -3.464  13.125  16.721  1.00  0.00     0.013 C 
BRANCH  27  29
HETATM   29  C2  UNL     1      -3.282  11.598  18.761  1.00  0.00    -0.016 C 
HETATM   30  C1  UNL     1      -2.012  12.445  18.930  1.00  0.00     0.010 C 
HETATM   31  C3  UNL     1      -2.925  10.124  18.994  1.00  0.00     0.010 C 
ENDBRANCH  27  29
ENDBRANCH  25  27
ENDBRANCH  22  24
BRANCH  22  32
HETATM   32  O2  UNL     1      -5.368   7.628  16.076  1.00  0.00    -0.387 OA
HETATM   33  H17 UNL     1      -6.311   7.851  16.124  1.00  0.00     0.210 HD
ENDBRANCH  22  32
ENDBRANCH   1  22
BRANCH  21  34
HETATM   34  C30 UNL     1      -3.665   6.653  12.891  1.00  0.00     0.018 C 
BRANCH  34  35
HETATM   35  C31 UNL     1      -4.249   5.462  13.671  1.00  0.00     0.039 C 
BRANCH  35  36
HETATM   36  C32 UNL     1      -4.890   4.312  12.920  1.00  0.00    -0.056 A 
HETATM   37  C33 UNL     1      -4.273   3.636  11.858  1.00  0.00     0.007 A 
HETATM   38  C34 UNL     1      -4.936   2.602  11.187  1.00  0.00     0.003 A 
HETATM   39  C35 UNL     1      -6.229   2.235  11.556  1.00  0.00     0.036 A 
HETATM   40  C36 UNL     1      -6.857   2.919  12.587  1.00  0.00     0.066 A 
HETATM   41  C37 UNL     1      -6.208   3.954  13.253  1.00  0.00     0.043 A 
BRANCH  40  42
HETATM   42  O7  UNL     1      -8.124   2.604  12.983  1.00  0.00    -0.361 OA
HETATM   43  H51 UNL     1      -8.451   1.883  12.420  1.00  0.00     0.217 HD
ENDBRANCH  40  42
ENDBRANCH  35  36
ENDBRANCH  34  35
ENDBRANCH  21  34
BRANCH   4  44
HETATM   44  O3  UNL     1      -0.539   8.231  14.652  1.00  0.00    -0.384 OA
HETATM   45  H23 UNL     1       0.285   7.838  14.989  1.00  0.00     0.211 HD
ENDBRANCH   4  44
BRANCH  16  46
HETATM   46  O5  UNL     1       4.574   6.927  12.171  1.00  0.00    -0.393 OA
HETATM   47  H36 UNL     1       5.157   6.759  11.398  1.00  0.00     0.210 HD
ENDBRANCH  16  46
BRANCH  17  48
HETATM   48  O6  UNL     1       4.630   5.786   9.865  1.00  0.00    -0.393 OA
HETATM   49  H38 UNL     1       4.689   5.101   9.172  1.00  0.00     0.210 HD
ENDBRANCH  17  48
TORSDOF 12
ENDMDL
MODEL 3
REMARK minimizedAffinity -11.6263313
REMARK CNNscore 0.839421451
REMARK CNNaffinity 7.97464228
REMARK  12 active torsions:
REMARK  status: ('A' for Active; 'I' for Inactive)
REMARK    1  A    between atoms: C2_2  and  C4_4 
REMARK    2  A    between atoms: C4_4  and  C6_6 
REMARK    3  A    between atoms: C7_8  and  C8_9 
REMARK    4  A    between atoms: C8_9  and  O2_11 
REMARK    5  A    between atoms: C8_9  and  C10_12 
REMARK    6  A    between atoms: C13_15  and  O3_16 
REMARK    7  A    between atoms: C24_28  and  O5_29 
REMARK    8  A    between atoms: C25_30  and  O6_31 
REMARK    9  A    between atoms: C29_35  and  C30_36 
REMARK   10  A    between atoms: C30_36  and  C31_37 
REMARK   11  A    between atoms: C31_37  and  C32_38 
REMARK   12  A    between atoms: C36_42  and  O7_43 
ROOT
HETATM    1  C10 UNL     1      -3.122   8.487  14.726  1.00  0.00     0.034 C 
HETATM    2  C11 UNL     1      -2.614   7.439  15.771  1.00  0.00     0.012 C 
HETATM    3  C12 UNL     1      -1.434   6.683  15.130  1.00  0.00     0.044 C 
HETATM    4  C13 UNL     1      -1.110   7.515  13.891  1.00  0.00     0.090 C 
HETATM    5  C14 UNL     1      -0.226   7.013  12.782  1.00  0.00    -0.037 C 
HETATM    6  C15 UNL     1       0.198   5.744  12.710  1.00  0.00     0.057 C 
HETATM    7  C16 UNL     1       0.890   5.231  11.516  1.00  0.00     0.155 C 
HETATM    8  O4  UNL     1       1.227   4.048  11.498  1.00  0.00    -0.293 OA
HETATM    9  C17 UNL     1       1.109   6.155  10.328  1.00  0.00     0.075 C 
HETATM   10  C18 UNL     1       2.419   5.791   9.583  1.00  0.00     0.029 C 
HETATM   11  C19 UNL     1       2.678   6.743   8.385  1.00  0.00     0.008 C 
HETATM   12  C20 UNL     1       1.506   7.664   8.080  1.00  0.00     0.001 C 
HETATM   13  C21 UNL     1       0.986   8.429   9.306  1.00  0.00     0.011 C 
HETATM   14  C22 UNL     1       1.159   7.666  10.666  1.00  0.00    -0.019 C 
HETATM   15  C23 UNL     1       2.597   8.048  11.227  1.00  0.00     0.045 C 
HETATM   16  C24 UNL     1       3.466   6.867  11.669  1.00  0.00     0.148 C 
HETATM   17  C25 UNL     1       3.608   5.781  10.579  1.00  0.00     0.151 C 
HETATM   18  C26 UNL     1       0.067   8.086  11.733  1.00  0.00     0.027 C 
HETATM   19  C27 UNL     1      -1.272   8.643  11.194  1.00  0.00     0.011 C 
HETATM   20  C28 UNL     1      -2.332   8.999  12.265  1.00  0.00     0.014 C 
HETATM   21  C29 UNL     1      -2.534   7.925  13.358  1.00  0.00     0.002 C 
ENDROOT
BRANCH   1  22
HETATM   22  C8  UNL     1      -4.638   8.830  14.903  1.00  0.00     0.087 C 
HETATM   23  C9  UNL     1      -4.841  10.069  15.790  1.00  0.00     0.049 C 
BRANCH  22  24
HETATM   24  C7  UNL     1      -5.359   7.663  15.576  1.00  0.00     0.185 A 
HETATM   25  C6  UNL     1      -6.717   7.130  15.128  1.00  0.00     0.158 A 
HETATM   26  O1  UNL     1      -5.489   6.470  14.792  1.00  0.00    -0.372 OA
BRANCH  25  27
HETATM   27  C4  UNL     1      -7.601   6.348  16.077  1.00  0.00     0.017 C 
HETATM   28  C5  UNL     1      -7.454   4.848  15.781  1.00  0.00     0.013 C 
BRANCH  27  29
HETATM   29  C2  UNL     1      -9.085   6.807  15.966  1.00  0.00    -0.016 C 
HETATM   30  C1  UNL     1      -9.572   6.833  14.510  1.00  0.00     0.010 C 
HETATM   31  C3  UNL     1      -9.310   8.192  16.585  1.00  0.00     0.010 C 
ENDBRANCH  27  29
ENDBRANCH  25  27
ENDBRANCH  22  24
BRANCH  22  32
HETATM   32  O2  UNL     1      -5.230   9.102  13.631  1.00  0.00    -0.387 OA
HETATM   33  H17 UNL     1      -6.144   9.390  13.784  1.00  0.00     0.210 HD
ENDBRANCH  22  32
ENDBRANCH   1  22
BRANCH  21  34
HETATM   34  C30 UNL     1      -3.460   6.741  12.862  1.00  0.00     0.018 C 
BRANCH  34  35
HETATM   35  C31 UNL     1      -3.254   5.271  13.269  1.00  0.00     0.039 C 
BRANCH  35  36
HETATM   36  C32 UNL     1      -4.049   4.181  12.577  1.00  0.00    -0.056 A 
HETATM   37  C33 UNL     1      -5.428   4.256  12.339  1.00  0.00     0.007 A 
HETATM   38  C34 UNL     1      -6.105   3.197  11.722  1.00  0.00     0.003 A 
HETATM   39  C35 UNL     1      -5.419   2.044  11.345  1.00  0.00     0.036 A 
HETATM   40  C36 UNL     1      -4.059   1.951  11.604  1.00  0.00     0.066 A 
HETATM   41  C37 UNL     1      -3.380   2.995  12.224  1.00  0.00     0.043 A 
BRANCH  40  42
HETATM   42  O7  UNL     1      -3.343   0.842  11.261  1.00  0.00    -0.361 OA
HETATM   43  H51 UNL     1      -3.948   0.198  10.858  1.00  0.00     0.217 HD
ENDBRANCH  40  42
ENDBRANCH  35  36
ENDBRANCH  34  35
ENDBRANCH  21  34
BRANCH   4  44
HETATM   44  O3  UNL     1      -0.419   8.678  14.401  1.00  0.00    -0.384 OA
HETATM   45  H23 UNL     1       0.424   8.371  14.778  1.00  0.00     0.211 HD
ENDBRANCH   4  44
BRANCH  16  46
HETATM   46  O5  UNL     1       4.753   7.350  12.060  1.00  0.00    -0.393 OA
HETATM   47  H36 UNL     1       5.344   7.121  11.309  1.00  0.00     0.210 HD
ENDBRANCH  16  46
BRANCH  17  48
HETATM   48  O6  UNL     1       4.867   5.945   9.907  1.00  0.00    -0.393 OA
HETATM   49  H38 UNL     1       4.961   5.186   9.301  1.00  0.00     0.210 HD
ENDBRANCH  17  48
TORSDOF 12
ENDMDL
MODEL 4
REMARK minimizedAffinity -11.008028
REMARK CNNscore 0.591347694
REMARK CNNaffinity 7.23563433
REMARK  12 active torsions:
REMARK  status: ('A' for Active; 'I' for Inactive)
REMARK    1  A    between atoms: C2_2  and  C4_4 
REMARK    2  A    between atoms: C4_4  and  C6_6 
REMARK    3  A    between atoms: C7_8  and  C8_9 
REMARK    4  A    between atoms: C8_9  and  O2_11 
REMARK    5  A    between atoms: C8_9  and  C10_12 
REMARK    6  A    between atoms: C13_15  and  O3_16 
REMARK    7  A    between atoms: C24_28  and  O5_29 
REMARK    8  A    between atoms: C25_30  and  O6_31 
REMARK    9  A    between atoms: C29_35  and  C30_36 
REMARK   10  A    between atoms: C30_36  and  C31_37 
REMARK   11  A    between atoms: C31_37  and  C32_38 
REMARK   12  A    between atoms: C36_42  and  O7_43 
ROOT
HETATM    1  C10 UNL     1      -0.995   6.765  13.681  1.00  0.00     0.034 C 
HETATM    2  C11 UNL     1      -0.622   5.261  13.463  1.00  0.00     0.012 C 
HETATM    3  C12 UNL     1       0.860   5.209  13.048  1.00  0.00     0.044 C 
HETATM    4  C13 UNL     1       1.361   6.621  13.339  1.00  0.00     0.090 C 
HETATM    5  C14 UNL     1       2.673   7.144  12.818  1.00  0.00    -0.037 C 
HETATM    6  C15 UNL     1       3.413   6.481  11.920  1.00  0.00     0.057 C 
HETATM    7  C16 UNL     1       4.582   7.102  11.278  1.00  0.00     0.155 C 
HETATM    8  O4  UNL     1       5.203   6.452  10.438  1.00  0.00    -0.293 OA
HETATM    9  C17 UNL     1       4.947   8.537  11.624  1.00  0.00     0.075 C 
HETATM   10  C18 UNL     1       6.480   8.751  11.537  1.00  0.00     0.029 C 
HETATM   11  C19 UNL     1       6.877  10.202  11.917  1.00  0.00     0.008 C 
HETATM   12  C20 UNL     1       5.684  11.133  12.076  1.00  0.00     0.001 C 
HETATM   13  C21 UNL     1       4.591  10.585  13.007  1.00  0.00     0.011 C 
HETATM   14  C22 UNL     1       4.479   9.019  13.019  1.00  0.00    -0.019 C 
HETATM   15  C23 UNL     1       5.481   8.497  14.137  1.00  0.00     0.045 C 
HETATM   16  C24 UNL     1       6.422   7.369  13.703  1.00  0.00     0.148 C 
HETATM   17  C25 UNL     1       7.211   7.704  12.417  1.00  0.00     0.151 C 
HETATM   18  C26 UNL     1       3.016   8.526  13.373  1.00  0.00     0.027 C 
HETATM   19  C27 UNL     1       1.849   9.496  13.071  1.00  0.00     0.011 C 
HETATM   20  C28 UNL     1       0.431   8.960  13.387  1.00  0.00     0.014 C 
HETATM   21  C29 UNL     1       0.155   7.525  12.885  1.00  0.00     0.002 C 
ENDROOT
BRANCH   1  22
HETATM   22  C8  UNL     1      -2.512   7.052  13.432  1.00  0.00     0.087 C 
HETATM   23  C9  UNL     1      -3.281   7.238  14.751  1.00  0.00     0.049 C 
BRANCH  22  24
HETATM   24  C7  UNL     1      -3.149   5.877  12.694  1.00  0.00     0.185 A 
HETATM   25  C6  UNL     1      -4.016   4.817  13.368  1.00  0.00     0.158 A 
HETATM   26  O1  UNL     1      -4.580   5.893  12.604  1.00  0.00    -0.372 OA
BRANCH  25  27
HETATM   27  C4  UNL     1      -4.205   3.450  12.746  1.00  0.00     0.017 C 
HETATM   28  C5  UNL     1      -3.078   3.197  11.734  1.00  0.00     0.013 C 
BRANCH  27  29
HETATM   29  C2  UNL     1      -5.606   3.327  12.079  1.00  0.00    -0.016 C 
HETATM   30  C1  UNL     1      -6.742   3.374  13.112  1.00  0.00     0.010 C 
HETATM   31  C3  UNL     1      -5.744   2.041  11.254  1.00  0.00     0.010 C 
ENDBRANCH  27  29
ENDBRANCH  25  27
ENDBRANCH  22  24
BRANCH  22  32
HETATM   32  O2  UNL     1      -2.664   8.250  12.667  1.00  0.00    -0.387 OA
HETATM   33  H17 UNL     1      -3.613   8.444  12.601  1.00  0.00     0.210 HD
ENDBRANCH  22  32
ENDBRANCH   1  22
BRANCH  21  34
HETATM   34  C30 UNL     1      -0.198   7.493  11.343  1.00  0.00     0.018 C 
BRANCH  34  35
HETATM   35  C31 UNL     1       0.484   8.390  10.294  1.00  0.00     0.039 C 
BRANCH  35  36
HETATM   36  C32 UNL     1       1.083   7.768   9.048  1.00  0.00    -0.056 A 
HETATM   37  C33 UNL     1       0.744   8.158   7.745  1.00  0.00     0.007 A 
HETATM   38  C34 UNL     1       1.313   7.519   6.637  1.00  0.00     0.003 A 
HETATM   39  C35 UNL     1       2.218   6.473   6.812  1.00  0.00     0.036 A 
HETATM   40  C36 UNL     1       2.535   6.062   8.098  1.00  0.00     0.066 A 
HETATM   41  C37 UNL     1       1.968   6.687   9.205  1.00  0.00     0.043 A 
BRANCH  40  42
HETATM   42  O7  UNL     1       3.408   5.040   8.325  1.00  0.00    -0.361 OA
HETATM   43  H51 UNL     1       3.705   4.693   7.467  1.00  0.00     0.217 HD
ENDBRANCH  40  42
ENDBRANCH  35  36
ENDBRANCH  34  35
ENDBRANCH  21  34
BRANCH   4  44
HETATM   44  O3  UNL     1       1.502   6.670  14.777  1.00  0.00    -0.384 OA
HETATM   45  H23 UNL     1       2.214   6.051  15.019  1.00  0.00     0.211 HD
ENDBRANCH   4  44
BRANCH  16  46
HETATM   46  O5  UNL     1       7.320   7.066  14.773  1.00  0.00    -0.393 OA
HETATM   47  H36 UNL     1       8.171   7.479  14.507  1.00  0.00     0.210 HD
ENDBRANCH  16  46
BRANCH  17  48
HETATM   48  O6  UNL     1       8.534   8.136  12.772  1.00  0.00    -0.393 OA
HETATM   49  H38 UNL     1       9.027   8.240  11.936  1.00  0.00     0.210 HD
ENDBRANCH  17  48
TORSDOF 12
ENDMDL
MODEL 5
REMARK minimizedAffinity -10.5677767
REMARK CNNscore 0.541008532
REMARK CNNaffinity 7.11570358
REMARK  12 active torsions:
REMARK  status: ('A' for Active; 'I' for Inactive)
REMARK    1  A    between atoms: C2_2  and  C4_4 
REMARK    2  A    between atoms: C4_4  and  C6_6 
REMARK    3  A    between atoms: C7_8  and  C8_9 
REMARK    4  A    between atoms: C8_9  and  O2_11 
REMARK    5  A    between atoms: C8_9  and  C10_12 
REMARK    6  A    between atoms: C13_15  and  O3_16 
REMARK    7  A    between atoms: C24_28  and  O5_29 
REMARK    8  A    between atoms: C25_30  and  O6_31 
REMARK    9  A    between atoms: C29_35  and  C30_36 
REMARK   10  A    between atoms: C30_36  and  C31_37 
REMARK   11  A    between atoms: C31_37  and  C32_38 
REMARK   12  A    between atoms: C36_42  and  O7_43 
ROOT
HETATM    1  C10 UNL     1      -0.930   7.210  14.403  1.00  0.00     0.034 C 
HETATM    2  C11 UNL     1      -0.642   5.745  13.933  1.00  0.00     0.012 C 
HETATM    3  C12 UNL     1       0.798   5.712  13.385  1.00  0.00     0.044 C 
HETATM    4  C13 UNL     1       1.382   7.049  13.837  1.00  0.00     0.090 C 
HETATM    5  C14 UNL     1       2.667   7.604  13.286  1.00  0.00    -0.037 C 
HETATM    6  C15 UNL     1       3.301   7.062  12.238  1.00  0.00     0.057 C 
HETATM    7  C16 UNL     1       4.439   7.737  11.594  1.00  0.00     0.155 C 
HETATM    8  O4  UNL     1       4.961   7.204  10.616  1.00  0.00    -0.293 OA
HETATM    9  C17 UNL     1       4.893   9.092  12.116  1.00  0.00     0.075 C 
HETATM   10  C18 UNL     1       6.422   9.270  11.927  1.00  0.00     0.029 C 
HETATM   11  C19 UNL     1       6.910  10.635  12.481  1.00  0.00     0.008 C 
HETATM   12  C20 UNL     1       5.775  11.567  12.881  1.00  0.00     0.001 C 
HETATM   13  C21 UNL     1       4.741  10.917  13.812  1.00  0.00     0.011 C 
HETATM   14  C22 UNL     1       4.562   9.372  13.603  1.00  0.00    -0.019 C 
HETATM   15  C23 UNL     1       5.630   8.657  14.539  1.00  0.00     0.045 C 
HETATM   16  C24 UNL     1       6.482   7.580  13.862  1.00  0.00     0.148 C 
HETATM   17  C25 UNL     1       7.177   8.081  12.575  1.00  0.00     0.151 C 
HETATM   18  C26 UNL     1       3.114   8.876  14.007  1.00  0.00     0.027 C 
HETATM   19  C27 UNL     1       1.969   9.915  13.955  1.00  0.00     0.011 C 
HETATM   20  C28 UNL     1       0.560   9.380  14.312  1.00  0.00     0.014 C 
HETATM   21  C29 UNL     1       0.182   8.046  13.630  1.00  0.00     0.002 C 
ENDROOT
BRANCH   1  22
HETATM   22  C8  UNL     1      -2.449   7.577  14.333  1.00  0.00     0.087 C 
HETATM   23  C9  UNL     1      -3.186   7.200  15.629  1.00  0.00     0.049 C 
BRANCH  22  24
HETATM   24  C7  UNL     1      -3.116   6.815  13.190  1.00  0.00     0.185 A 
HETATM   25  C6  UNL     1      -3.738   5.429  13.339  1.00  0.00     0.158 A 
HETATM   26  O1  UNL     1      -4.532   6.624  13.304  1.00  0.00    -0.372 OA
BRANCH  25  27
HETATM   27  C4  UNL     1      -3.928   4.524  12.140  1.00  0.00     0.017 C 
HETATM   28  C5  UNL     1      -5.298   3.837  12.240  1.00  0.00     0.013 C 
BRANCH  27  29
HETATM   29  C2  UNL     1      -2.776   3.482  12.038  1.00  0.00    -0.016 C 
HETATM   30  C1  UNL     1      -1.793   3.821  10.907  1.00  0.00     0.010 C 
HETATM   31  C3  UNL     1      -3.301   2.057  11.823  1.00  0.00     0.010 C 
ENDBRANCH  27  29
ENDBRANCH  25  27
ENDBRANCH  22  24
BRANCH  22  32
HETATM   32  O2  UNL     1      -2.604   8.984  14.138  1.00  0.00    -0.387 OA
HETATM   33  H17 UNL     1      -3.551   9.190  14.182  1.00  0.00     0.210 HD
ENDBRANCH  22  32
ENDBRANCH   1  22
BRANCH  21  34
HETATM   34  C30 UNL     1      -0.298   8.259  12.137  1.00  0.00     0.018 C 
BRANCH  34  35
HETATM   35  C31 UNL     1      -0.290   7.146  11.073  1.00  0.00     0.039 C 
BRANCH  35  36
HETATM   36  C32 UNL     1       0.674   7.228   9.906  1.00  0.00    -0.056 A 
HETATM   37  C33 UNL     1       0.648   8.249   8.946  1.00  0.00     0.007 A 
HETATM   38  C34 UNL     1       1.551   8.246   7.875  1.00  0.00     0.003 A 
HETATM   39  C35 UNL     1       2.482   7.218   7.739  1.00  0.00     0.036 A 
HETATM   40  C36 UNL     1       2.494   6.189   8.669  1.00  0.00     0.066 A 
HETATM   41  C37 UNL     1       1.596   6.180   9.732  1.00  0.00     0.043 A 
BRANCH  40  42
HETATM   42  O7  UNL     1       3.380   5.157   8.579  1.00  0.00    -0.361 OA
HETATM   43  H51 UNL     1       3.925   5.288   7.785  1.00  0.00     0.217 HD
ENDBRANCH  40  42
ENDBRANCH  35  36
ENDBRANCH  34  35
ENDBRANCH  21  34
BRANCH   4  44
HETATM   44  O3  UNL     1       1.643   6.875  15.248  1.00  0.00    -0.384 OA
HETATM   45  H23 UNL     1       2.344   6.206  15.333  1.00  0.00     0.211 HD
ENDBRANCH   4  44
BRANCH  16  46
HETATM   46  O5  UNL     1       7.452   7.092  14.792  1.00  0.00    -0.393 OA
HETATM   47  H36 UNL     1       8.295   7.514  14.516  1.00  0.00     0.210 HD
ENDBRANCH  16  46
BRANCH  17  48
HETATM   48  O6  UNL     1       8.542   8.415  12.872  1.00  0.00    -0.393 OA
HETATM   49  H38 UNL     1       8.968   8.629  12.021  1.00  0.00     0.210 HD
ENDBRANCH  17  48
TORSDOF 12
ENDMDL
MODEL 6
REMARK minimizedAffinity -8.01046562
REMARK CNNscore 0.533992946
REMARK CNNaffinity 6.73003197
REMARK  12 active torsions:
REMARK  status: ('A' for Active; 'I' for Inactive)
REMARK    1  A    between atoms: C2_2  and  C4_4 
REMARK    2  A    between atoms: C4_4  and  C6_6 
REMARK    3  A    between atoms: C7_8  and  C8_9 
REMARK    4  A    between atoms: C8_9  and  O2_11 
REMARK    5  A    between atoms: C8_9  and  C10_12 
REMARK    6  A    between atoms: C13_15  and  O3_16 
REMARK    7  A    between atoms: C24_28  and  O5_29 
REMARK    8  A    between atoms: C25_30  and  O6_31 
REMARK    9  A    between atoms: C29_35  and  C30_36 
REMARK   10  A    between atoms: C30_36  and  C31_37 
REMARK   11  A    between atoms: C31_37  and  C32_38 
REMARK   12  A    between atoms: C36_42  and  O7_43 
ROOT
HETATM    1  C10 UNL     1      -2.919  13.805  17.191  1.00  0.00     0.034 C 
HETATM    2  C11 UNL     1      -1.444  14.288  16.987  1.00  0.00     0.012 C 
HETATM    3  C12 UNL     1      -0.630  13.082  16.480  1.00  0.00     0.044 C 
HETATM    4  C13 UNL     1      -1.701  12.056  16.119  1.00  0.00     0.090 C 
HETATM    5  C14 UNL     1      -1.388  10.607  15.860  1.00  0.00    -0.037 C 
HETATM    6  C15 UNL     1      -0.183  10.072  16.098  1.00  0.00     0.057 C 
HETATM    7  C16 UNL     1       0.040   8.619  16.030  1.00  0.00     0.155 C 
HETATM    8  O4  UNL     1       1.162   8.185  16.290  1.00  0.00    -0.293 OA
HETATM    9  C17 UNL     1      -1.127   7.701  15.703  1.00  0.00     0.075 C 
HETATM   10  C18 UNL     1      -0.642   6.448  14.930  1.00  0.00     0.029 C 
HETATM   11  C19 UNL     1      -1.824   5.512  14.560  1.00  0.00     0.008 C 
HETATM   12  C20 UNL     1      -3.139   5.912  15.211  1.00  0.00     0.001 C 
HETATM   13  C21 UNL     1      -3.505   7.391  15.009  1.00  0.00     0.011 C 
HETATM   14  C22 UNL     1      -2.270   8.351  14.885  1.00  0.00    -0.019 C 
HETATM   15  C23 UNL     1      -1.877   8.395  13.345  1.00  0.00     0.045 C 
HETATM   16  C24 UNL     1      -0.393   8.170  13.038  1.00  0.00     0.148 C 
HETATM   17  C25 UNL     1       0.166   6.879  13.679  1.00  0.00     0.151 C 
HETATM   18  C26 UNL     1      -2.604   9.821  15.369  1.00  0.00     0.027 C 
HETATM   19  C27 UNL     1      -3.757   9.988  16.387  1.00  0.00     0.011 C 
HETATM   20  C28 UNL     1      -4.022  11.434  16.871  1.00  0.00     0.014 C 
HETATM   21  C29 UNL     1      -2.756  12.224  17.275  1.00  0.00     0.002 C 
ENDROOT
BRANCH   1  22
HETATM   22  C8  UNL     1      -3.675  14.626  18.286  1.00  0.00     0.087 C 
HETATM   23  C9  UNL     1      -2.746  15.020  19.446  1.00  0.00     0.049 C 
BRANCH  22  24
HETATM   24  C7  UNL     1      -4.808  13.787  18.874  1.00  0.00     0.185 A 
HETATM   25  C6  UNL     1      -5.982  14.370  19.657  1.00  0.00     0.158 A 
HETATM   26  O1  UNL     1      -6.100  13.975  18.283  1.00  0.00    -0.372 OA
BRANCH  25  27
HETATM   27  C4  UNL     1      -6.781  13.516  20.618  1.00  0.00     0.017 C 
HETATM   28  C5  UNL     1      -8.239  13.451  20.140  1.00  0.00     0.013 C 
BRANCH  27  29
HETATM   29  C2  UNL     1      -6.683  14.067  22.071  1.00  0.00    -0.016 C 
HETATM   30  C1  UNL     1      -5.229  14.330  22.490  1.00  0.00     0.010 C 
HETATM   31  C3  UNL     1      -7.326  13.121  23.094  1.00  0.00     0.010 C 
ENDBRANCH  27  29
ENDBRANCH  25  27
ENDBRANCH  22  24
BRANCH  22  32
HETATM   32  O2  UNL     1      -4.201  15.829  17.721  1.00  0.00    -0.387 OA
HETATM   33  H17 UNL     1      -4.590  16.351  18.440  1.00  0.00     0.210 HD
ENDBRANCH  22  32
ENDBRANCH   1  22
BRANCH  21  34
HETATM   34  C30 UNL     1      -2.261  11.848  18.730  1.00  0.00     0.018 C 
BRANCH  34  35
HETATM   35  C31 UNL     1      -1.069  10.915  19.010  1.00  0.00     0.039 C 
BRANCH  35  36
HETATM   36  C32 UNL     1       0.130  11.436  19.776  1.00  0.00    -0.056 A 
HETATM   37  C33 UNL     1       1.044  10.610  20.446  1.00  0.00     0.007 A 
HETATM   38  C34 UNL     1       2.114  11.161  21.162  1.00  0.00     0.003 A 
HETATM   39  C35 UNL     1       2.280  12.543  21.232  1.00  0.00     0.036 A 
HETATM   40  C36 UNL     1       1.363  13.367  20.597  1.00  0.00     0.066 A 
HETATM   41  C37 UNL     1       0.292  12.828  19.889  1.00  0.00     0.043 A 
BRANCH  40  42
HETATM   42  O7  UNL     1       1.476  14.726  20.639  1.00  0.00    -0.361 OA
HETATM   43  H51 UNL     1       2.251  14.952  21.178  1.00  0.00     0.217 HD
ENDBRANCH  40  42
ENDBRANCH  35  36
ENDBRANCH  34  35
ENDBRANCH  21  34
BRANCH   4  44
HETATM   44  O3  UNL     1      -2.256  12.530  14.871  1.00  0.00    -0.384 OA
HETATM   45  H23 UNL     1      -1.553  12.469  14.200  1.00  0.00     0.211 HD
ENDBRANCH   4  44
BRANCH  16  46
HETATM   46  O5  UNL     1      -0.203   8.145  11.622  1.00  0.00    -0.393 OA
HETATM   47  H36 UNL     1      -0.088   7.194  11.403  1.00  0.00     0.210 HD
ENDBRANCH  16  46
BRANCH  17  48
HETATM   48  O6  UNL     1       0.211   5.839  12.689  1.00  0.00    -0.393 OA
HETATM   49  H38 UNL     1       0.659   5.078  13.103  1.00  0.00     0.210 HD
ENDBRANCH  17  48
TORSDOF 12
ENDMDL
MODEL 7
REMARK minimizedAffinity -7.88948393
REMARK CNNscore 0.525438309
REMARK CNNaffinity 6.89369535
REMARK  12 active torsions:
REMARK  status: ('A' for Active; 'I' for Inactive)
REMARK    1  A    between atoms: C2_2  and  C4_4 
REMARK    2  A    between atoms: C4_4  and  C6_6 
REMARK    3  A    between atoms: C7_8  and  C8_9 
REMARK    4  A    between atoms: C8_9  and  O2_11 
REMARK    5  A    between atoms: C8_9  and  C10_12 
REMARK    6  A    between atoms: C13_15  and  O3_16 
REMARK    7  A    between atoms: C24_28  and  O5_29 
REMARK    8  A    between atoms: C25_30  and  O6_31 
REMARK    9  A    between atoms: C29_35  and  C30_36 
REMARK   10  A    between atoms: C30_36  and  C31_37 
REMARK   11  A    between atoms: C31_37  and  C32_38 
REMARK   12  A    between atoms: C36_42  and  O7_43 
ROOT
HETATM    1  C10 UNL     1       1.898  11.088  17.658  1.00  0.00     0.034 C 
HETATM    2  C11 UNL     1       0.383  10.952  18.026  1.00  0.00     0.012 C 
HETATM    3  C12 UNL     1      -0.310  10.217  16.862  1.00  0.00     0.044 C 
HETATM    4  C13 UNL     1       0.857   9.691  16.029  1.00  0.00     0.090 C 
HETATM    5  C14 UNL     1       0.686   9.163  14.630  1.00  0.00    -0.037 C 
HETATM    6  C15 UNL     1      -0.460   9.278  13.947  1.00  0.00     0.057 C 
HETATM    7  C16 UNL     1      -0.540   8.938  12.517  1.00  0.00     0.155 C 
HETATM    8  O4  UNL     1      -1.614   9.094  11.937  1.00  0.00    -0.293 OA
HETATM    9  C17 UNL     1       0.711   8.468  11.792  1.00  0.00     0.075 C 
HETATM   10  C18 UNL     1       0.350   7.468  10.664  1.00  0.00     0.029 C 
HETATM   11  C19 UNL     1       1.618   6.951   9.932  1.00  0.00     0.008 C 
HETATM   12  C20 UNL     1       2.888   7.688  10.329  1.00  0.00     0.001 C 
HETATM   13  C21 UNL     1       3.107   7.769  11.847  1.00  0.00     0.011 C 
HETATM   14  C22 UNL     1       1.784   7.803  12.690  1.00  0.00    -0.019 C 
HETATM   15  C23 UNL     1       1.387   6.292  12.981  1.00  0.00     0.045 C 
HETATM   16  C24 UNL     1      -0.068   5.923  12.675  1.00  0.00     0.148 C 
HETATM   17  C25 UNL     1      -0.497   6.304  11.240  1.00  0.00     0.151 C 
HETATM   18  C26 UNL     1       1.972   8.556  14.070  1.00  0.00     0.027 C 
HETATM   19  C27 UNL     1       3.105   9.607  14.155  1.00  0.00     0.011 C 
HETATM   20  C28 UNL     1       3.228  10.355  15.505  1.00  0.00     0.014 C 
HETATM   21  C29 UNL     1       1.891  10.876  16.081  1.00  0.00     0.002 C 
ENDROOT
BRANCH   1  22
HETATM   22  C8  UNL     1       2.571  12.329  18.330  1.00  0.00     0.087 C 
HETATM   23  C9  UNL     1       3.731  12.877  17.481  1.00  0.00     0.049 C 
BRANCH  22  24
HETATM   24  C7  UNL     1       3.147  11.936  19.689  1.00  0.00     0.185 A 
HETATM   25  C6  UNL     1       2.439  11.013  20.678  1.00  0.00     0.158 A 
HETATM   26  O1  UNL     1       3.512  10.558  19.841  1.00  0.00    -0.372 OA
BRANCH  25  27
HETATM   27  C4  UNL     1       2.775  11.044  22.154  1.00  0.00     0.017 C 
HETATM   28  C5  UNL     1       3.479  12.369  22.482  1.00  0.00     0.013 C 
BRANCH  27  29
HETATM   29  C2  UNL     1       3.651   9.821  22.555  1.00  0.00    -0.016 C 
HETATM   30  C1  UNL     1       2.841   8.756  23.309  1.00  0.00     0.010 C 
HETATM   31  C3  UNL     1       4.853  10.227  23.416  1.00  0.00     0.010 C 
ENDBRANCH  27  29
ENDBRANCH  25  27
ENDBRANCH  22  24
BRANCH  22  32
HETATM   32  O2  UNL     1       1.615  13.379  18.490  1.00  0.00    -0.387 OA
HETATM   33  H17 UNL     1       2.081  14.159  18.831  1.00  0.00     0.210 HD
ENDBRANCH  22  32
ENDBRANCH   1  22
BRANCH  21  34
HETATM   34  C30 UNL     1       1.436  12.228  15.395  1.00  0.00     0.018 C 
BRANCH  34  35
HETATM   35  C31 UNL     1      -0.023  12.716  15.358  1.00  0.00     0.039 C 
BRANCH  35  36
HETATM   36  C32 UNL     1      -0.398  13.902  14.492  1.00  0.00    -0.056 A 
HETATM   37  C33 UNL     1       0.538  14.780  13.928  1.00  0.00     0.007 A 
HETATM   38  C34 UNL     1       0.120  15.875  13.162  1.00  0.00     0.003 A 
HETATM   39  C35 UNL     1      -1.237  16.118  12.959  1.00  0.00     0.036 A 
HETATM   40  C36 UNL     1      -2.170  15.271  13.539  1.00  0.00     0.066 A 
HETATM   41  C37 UNL     1      -1.763  14.184  14.308  1.00  0.00     0.043 A 
BRANCH  40  42
HETATM   42  O7  UNL     1      -3.510  15.467  13.376  1.00  0.00    -0.361 OA
HETATM   43  H51 UNL     1      -3.640  16.264  12.837  1.00  0.00     0.217 HD
ENDBRANCH  40  42
ENDBRANCH  35  36
ENDBRANCH  34  35
ENDBRANCH  21  34
BRANCH   4  44
HETATM   44  O3  UNL     1       1.361   8.561  16.778  1.00  0.00    -0.384 OA
HETATM   45  H23 UNL     1       0.667   7.879  16.775  1.00  0.00     0.211 HD
ENDBRANCH   4  44
BRANCH  16  46
HETATM   46  O5  UNL     1      -0.256   4.523  12.895  1.00  0.00    -0.393 OA
HETATM   47  H36 UNL     1      -0.277   4.131  11.995  1.00  0.00     0.210 HD
ENDBRANCH  16  46
BRANCH  17  48
HETATM   48  O6  UNL     1      -0.441   5.138  10.403  1.00  0.00    -0.393 OA
HETATM   49  H38 UNL     1      -0.812   5.397   9.538  1.00  0.00     0.210 HD
ENDBRANCH  17  48
TORSDOF 12
ENDMDL
MODEL 8
REMARK minimizedAffinity -7.37958574
REMARK CNNscore 0.499768525
REMARK CNNaffinity 6.25046349
REMARK  12 active torsions:
REMARK  status: ('A' for Active; 'I' for Inactive)
REMARK    1  A    between atoms: C2_2  and  C4_4 
REMARK    2  A    between atoms: C4_4  and  C6_6 
REMARK    3  A    between atoms: C7_8  and  C8_9 
REMARK    4  A    between atoms: C8_9  and  O2_11 
REMARK    5  A    between atoms: C8_9  and  C10_12 
REMARK    6  A    between atoms: C13_15  and  O3_16 
REMARK    7  A    between atoms: C24_28  and  O5_29 
REMARK    8  A    between atoms: C25_30  and  O6_31 
REMARK    9  A    between atoms: C29_35  and  C30_36 
REMARK   10  A    between atoms: C30_36  and  C31_37 
REMARK   11  A    between atoms: C31_37  and  C32_38 
REMARK   12  A    between atoms: C36_42  and  O7_43 
ROOT
HETATM    1  C10 UNL     1     -15.514  -2.777  14.675  1.00  0.00     0.034 C 
HETATM    2  C11 UNL     1     -13.958  -2.821  14.839  1.00  0.00     0.012 C 
HETATM    3  C12 UNL     1     -13.393  -3.643  13.664  1.00  0.00     0.044 C 
HETATM    4  C13 UNL     1     -14.584  -3.775  12.717  1.00  0.00     0.090 C 
HETATM    5  C14 UNL     1     -14.608  -4.748  11.570  1.00  0.00    -0.037 C 
HETATM    6  C15 UNL     1     -13.672  -5.690  11.398  1.00  0.00     0.057 C 
HETATM    7  C16 UNL     1     -13.826  -6.753  10.392  1.00  0.00     0.155 C 
HETATM    8  O4  UNL     1     -12.946  -7.608  10.303  1.00  0.00    -0.293 OA
HETATM    9  C17 UNL     1     -15.086  -6.796   9.541  1.00  0.00     0.075 C 
HETATM   10  C18 UNL     1     -14.781  -7.373   8.135  1.00  0.00     0.029 C 
HETATM   11  C19 UNL     1     -16.049  -7.397   7.241  1.00  0.00     0.008 C 
HETATM   12  C20 UNL     1     -17.327  -7.060   7.994  1.00  0.00     0.001 C 
HETATM   13  C21 UNL     1     -17.239  -5.764   8.813  1.00  0.00     0.011 C 
HETATM   14  C22 UNL     1     -15.802  -5.436   9.352  1.00  0.00    -0.019 C 
HETATM   15  C23 UNL     1     -15.070  -4.592   8.221  1.00  0.00     0.045 C 
HETATM   16  C24 UNL     1     -13.667  -5.075   7.842  1.00  0.00     0.148 C 
HETATM   17  C25 UNL     1     -13.625  -6.576   7.476  1.00  0.00     0.151 C 
HETATM   18  C26 UNL     1     -15.842  -4.579  10.683  1.00  0.00     0.027 C 
HETATM   19  C27 UNL     1     -17.112  -4.690  11.559  1.00  0.00     0.011 C 
HETATM   20  C28 UNL     1     -17.094  -3.875  12.875  1.00  0.00     0.014 C 
HETATM   21  C29 UNL     1     -15.793  -4.003  13.699  1.00  0.00     0.002 C 
ENDROOT
BRANCH   1  22
HETATM   22  C8  UNL     1     -16.260  -2.611  16.039  1.00  0.00     0.087 C 
HETATM   23  C9  UNL     1     -17.776  -2.815  15.888  1.00  0.00     0.049 C 
BRANCH  22  24
HETATM   24  C7  UNL     1     -16.040  -1.200  16.582  1.00  0.00     0.185 A 
HETATM   25  C6  UNL     1     -16.665   0.053  15.975  1.00  0.00     0.158 A 
HETATM   26  O1  UNL     1     -17.187  -0.565  17.160  1.00  0.00    -0.372 OA
BRANCH  25  27
HETATM   27  C4  UNL     1     -16.057   1.420  16.205  1.00  0.00     0.017 C 
HETATM   28  C5  UNL     1     -17.174   2.417  16.546  1.00  0.00     0.013 C 
BRANCH  27  29
HETATM   29  C2  UNL     1     -15.239   1.885  14.964  1.00  0.00    -0.016 C 
HETATM   30  C1  UNL     1     -15.312   3.406  14.764  1.00  0.00     0.010 C 
HETATM   31  C3  UNL     1     -15.702   1.196  13.675  1.00  0.00     0.010 C 
ENDBRANCH  27  29
ENDBRANCH  25  27
ENDBRANCH  22  24
BRANCH  22  32
HETATM   32  O2  UNL     1     -15.782  -3.576  16.979  1.00  0.00    -0.387 OA
HETATM   33  H17 UNL     1     -16.320  -3.501  17.783  1.00  0.00     0.210 HD
ENDBRANCH  22  32
ENDBRANCH   1  22
BRANCH  21  34
HETATM   34  C30 UNL     1     -15.758  -5.339  14.548  1.00  0.00     0.018 C 
BRANCH  34  35
HETATM   35  C31 UNL     1     -14.990  -6.601  14.119  1.00  0.00     0.039 C 
BRANCH  35  36
HETATM   36  C32 UNL     1     -13.871  -7.134  14.992  1.00  0.00    -0.056 A 
HETATM   37  C33 UNL     1     -13.681  -8.495  15.267  1.00  0.00     0.007 A 
HETATM   38  C34 UNL     1     -12.644  -8.917  16.109  1.00  0.00     0.003 A 
HETATM   39  C35 UNL     1     -11.791  -7.986  16.698  1.00  0.00     0.036 A 
HETATM   40  C36 UNL     1     -11.991  -6.634  16.454  1.00  0.00     0.066 A 
HETATM   41  C37 UNL     1     -13.024  -6.207  15.625  1.00  0.00     0.043 A 
BRANCH  40  42
HETATM   42  O7  UNL     1     -11.189  -5.683  17.011  1.00  0.00    -0.361 OA
HETATM   43  H51 UNL     1     -10.532  -6.125  17.573  1.00  0.00     0.217 HD
ENDBRANCH  40  42
ENDBRANCH  35  36
ENDBRANCH  34  35
ENDBRANCH  21  34
BRANCH   4  44
HETATM   44  O3  UNL     1     -14.696  -2.477  12.089  1.00  0.00    -0.384 OA
HETATM   45  H23 UNL     1     -13.900  -2.350  11.543  1.00  0.00     0.211 HD
ENDBRANCH   4  44
BRANCH  16  46
HETATM   46  O5  UNL     1     -13.173  -4.285   6.758  1.00  0.00    -0.393 OA
HETATM   47  H36 UNL     1     -13.263  -4.863   5.968  1.00  0.00     0.210 HD
ENDBRANCH  16  46
BRANCH  17  48
HETATM   48  O6  UNL     1     -13.629  -6.716   6.047  1.00  0.00    -0.393 OA
HETATM   49  H38 UNL     1     -13.501  -7.665   5.859  1.00  0.00     0.210 HD
ENDBRANCH  17  48
TORSDOF 12
ENDMDL
MODEL 9
REMARK minimizedAffinity -7.95271158
REMARK CNNscore 0.492777109
REMARK CNNaffinity 6.84603071
REMARK  12 active torsions:
REMARK  status: ('A' for Active; 'I' for Inactive)
REMARK    1  A    between atoms: C2_2  and  C4_4 
REMARK    2  A    between atoms: C4_4  and  C6_6 
REMARK    3  A    between atoms: C7_8  and  C8_9 
REMARK    4  A    between atoms: C8_9  and  O2_11 
REMARK    5  A    between atoms: C8_9  and  C10_12 
REMARK    6  A    between atoms: C13_15  and  O3_16 
REMARK    7  A    between atoms: C24_28  and  O5_29 
REMARK    8  A    between atoms: C25_30  and  O6_31 
REMARK    9  A    between atoms: C29_35  and  C30_36 
REMARK   10  A    between atoms: C30_36  and  C31_37 
REMARK   11  A    between atoms: C31_37  and  C32_38 
REMARK   12  A    between atoms: C36_42  and  O7_43 
ROOT
HETATM    1  C10 UNL     1       3.866  16.135  22.792  1.00  0.00     0.034 C 
HETATM    2  C11 UNL     1       4.792  16.536  23.988  1.00  0.00     0.012 C 
HETATM    3  C12 UNL     1       6.141  15.819  23.788  1.00  0.00     0.044 C 
HETATM    4  C13 UNL     1       6.056  15.294  22.357  1.00  0.00     0.090 C 
HETATM    5  C14 UNL     1       7.012  14.272  21.806  1.00  0.00    -0.037 C 
HETATM    6  C15 UNL     1       7.892  13.615  22.573  1.00  0.00     0.057 C 
HETATM    7  C16 UNL     1       8.672  12.481  22.050  1.00  0.00     0.155 C 
HETATM    8  O4  UNL     1       9.442  11.899  22.813  1.00  0.00    -0.293 OA
HETATM    9  C17 UNL     1       8.457  12.029  20.614  1.00  0.00     0.075 C 
HETATM   10  C18 UNL     1       9.768  11.458  20.016  1.00  0.00     0.029 C 
HETATM   11  C19 UNL     1       9.578  11.018  18.540  1.00  0.00     0.008 C 
HETATM   12  C20 UNL     1       8.127  11.042  18.084  1.00  0.00     0.001 C 
HETATM   13  C21 UNL     1       7.409  12.369  18.374  1.00  0.00     0.011 C 
HETATM   14  C22 UNL     1       7.930  13.120  19.650  1.00  0.00    -0.019 C 
HETATM   15  C23 UNL     1       9.130  14.048  19.176  1.00  0.00     0.045 C 
HETATM   16  C24 UNL     1      10.411  13.946  20.009  1.00  0.00     0.148 C 
HETATM   17  C25 UNL     1      10.913  12.492  20.167  1.00  0.00     0.151 C 
HETATM   18  C26 UNL     1       6.813  14.027  20.310  1.00  0.00     0.027 C 
HETATM   19  C27 UNL     1       5.338  13.633  20.055  1.00  0.00     0.011 C 
HETATM   20  C28 UNL     1       4.276  14.515  20.755  1.00  0.00     0.014 C 
HETATM   21  C29 UNL     1       4.561  14.812  22.245  1.00  0.00     0.002 C 
ENDROOT
BRANCH   1  22
HETATM   22  C8  UNL     1       2.347  16.188  23.161  1.00  0.00     0.087 C 
HETATM   23  C9  UNL     1       1.853  17.634  23.336  1.00  0.00     0.049 C 
BRANCH  22  24
HETATM   24  C7  UNL     1       2.108  15.460  24.482  1.00  0.00     0.185 A 
HETATM   25  C6  UNL     1       1.773  16.166  25.794  1.00  0.00     0.158 A 
HETATM   26  O1  UNL     1       0.771  15.517  24.997  1.00  0.00    -0.372 OA
BRANCH  25  27
HETATM   27  C4  UNL     1       2.031  15.498  27.128  1.00  0.00     0.017 C 
HETATM   28  C5  UNL     1       0.696  15.017  27.717  1.00  0.00     0.013 C 
BRANCH  27  29
HETATM   29  C2  UNL     1       2.767  16.463  28.103  1.00  0.00    -0.016 C 
HETATM   30  C1  UNL     1       4.117  16.931  27.540  1.00  0.00     0.010 C 
HETATM   31  C3  UNL     1       3.002  15.828  29.480  1.00  0.00     0.010 C 
ENDBRANCH  27  29
ENDBRANCH  25  27
ENDBRANCH  22  24
BRANCH  22  32
HETATM   32  O2  UNL     1       1.570  15.585  22.123  1.00  0.00    -0.387 OA
HETATM   33  H17 UNL     1       0.633  15.708  22.343  1.00  0.00     0.210 HD
ENDBRANCH  22  32
ENDBRANCH   1  22
BRANCH  21  34
HETATM   34  C30 UNL     1       4.147  13.605  23.181  1.00  0.00     0.018 C 
BRANCH  34  35
HETATM   35  C31 UNL     1       4.770  12.200  23.085  1.00  0.00     0.039 C 
BRANCH  35  36
HETATM   36  C32 UNL     1       3.892  11.010  22.751  1.00  0.00    -0.056 A 
HETATM   37  C33 UNL     1       3.459  10.073  23.698  1.00  0.00     0.007 A 
HETATM   38  C34 UNL     1       2.675   8.978  23.315  1.00  0.00     0.003 A 
HETATM   39  C35 UNL     1       2.323   8.795  21.979  1.00  0.00     0.036 A 
HETATM   40  C36 UNL     1       2.773   9.703  21.031  1.00  0.00     0.066 A 
HETATM   41  C37 UNL     1       3.559  10.789  21.402  1.00  0.00     0.043 A 
BRANCH  40  42
HETATM   42  O7  UNL     1       2.462   9.566  19.710  1.00  0.00    -0.361 OA
HETATM   43  H51 UNL     1       1.929   8.762  19.601  1.00  0.00     0.217 HD
ENDBRANCH  40  42
ENDBRANCH  35  36
ENDBRANCH  34  35
ENDBRANCH  21  34
BRANCH   4  44
HETATM   44  O3  UNL     1       6.262  16.461  21.527  1.00  0.00    -0.384 OA
HETATM   45  H23 UNL     1       7.175  16.763  21.675  1.00  0.00     0.211 HD
ENDBRANCH   4  44
BRANCH  16  46
HETATM   46  O5  UNL     1      11.425  14.761  19.417  1.00  0.00    -0.393 OA
HETATM   47  H36 UNL     1      12.022  14.125  18.963  1.00  0.00     0.210 HD
ENDBRANCH  16  46
BRANCH  17  48
HETATM   48  O6  UNL     1      11.975  12.253  19.230  1.00  0.00    -0.393 OA
HETATM   49  H38 UNL     1      12.328  11.366  19.429  1.00  0.00     0.210 HD
ENDBRANCH  17  48
TORSDOF 12
ENDMDL
