MODEL 1
REMARK minimizedAffinity -7.35922432
REMARK CNNscore 0.352223575
REMARK CNNaffinity 6.89842415
REMARK  8 active torsions:
REMARK  status: ('A' for Active; 'I' for Inactive)
REMARK    1  A    between atoms: C4_4  and  C5_5 
REMARK    2  A    between atoms: C5_5  and  C6_7 
REMARK    3  A    between atoms: C6_7  and  C7_8 
REMARK    4  A    between atoms: C7_8  and  C9_10 
REMARK    5  A    between atoms: C18_19  and  C20_21 
REMARK    6  A    between atoms: C20_21  and  O2_22 
REMARK    7  A    between atoms: C21_23  and  O3_24 
REMARK    8  A    between atoms: O3_24  and  S1_25 
ROOT
HETATM    1  C9  UNL     1      -2.217   5.881  12.632  1.00  0.00    -0.001 C 
HETATM    2  C10 UNL     1      -3.092   5.110  13.647  1.00  0.00     0.006 C 
HETATM    3  C11 UNL     1      -3.626   6.151  14.662  1.00  0.00     0.012 C 
HETATM    4  C12 UNL     1      -3.200   7.532  14.116  1.00  0.00    -0.016 C 
HETATM    5  C13 UNL     1      -4.331   7.989  13.144  1.00  0.00     0.018 C 
HETATM    6  C14 UNL     1      -2.949   8.622  15.195  1.00  0.00     0.089 A 
HETATM    7  C15 UNL     1      -4.224   9.171  15.855  1.00  0.00     0.121 A 
HETATM    8  C16 UNL     1      -3.863  10.165  16.963  1.00  0.00     0.026 C 
HETATM    9  C17 UNL     1      -3.249  11.445  16.368  1.00  0.00     0.009 C 
HETATM   10  C18 UNL     1      -2.812  12.526  17.437  1.00  0.00     0.009 C 
HETATM   11  C19 UNL     1      -2.140  11.887  18.680  1.00  0.00     0.020 C 
HETATM   12  C21 UNL     1      -1.852  13.587  16.784  1.00  0.00     0.155 C 
HETATM   13  C22 UNL     1      -2.060  13.712  15.272  1.00  0.00     0.035 C 
HETATM   14  C23 UNL     1      -1.772  12.407  14.534  1.00  0.00     0.013 C 
HETATM   15  C24 UNL     1      -2.139  11.166  15.347  1.00  0.00    -0.025 A 
HETATM   16  C25 UNL     1      -1.000  10.243  15.686  1.00  0.00     0.023 A 
HETATM   17  C26 UNL     1      -2.037   9.764  14.683  1.00  0.00    -0.011 A 
HETATM   18  C27 UNL     1      -1.618   9.729  13.208  1.00  0.00     0.013 C 
HETATM   19  C28 UNL     1      -1.396   8.355  12.556  1.00  0.00     0.011 C 
HETATM   20  C29 UNL     1      -1.838   7.173  13.422  1.00  0.00    -0.031 C 
HETATM   21  C30 UNL     1      -0.680   6.859  14.414  1.00  0.00     0.016 C 
HETATM   22 NA1  UNL     1      -2.032   8.061  14.856  1.00  0.00    -0.415 Na
ATOM     23  HA1 UNL     1      -1.195   7.593  14.510  1.00  0.00     0.153 HD
ENDROOT
BRANCH   1  24
HETATM   24  C7  UNL     1      -1.075   5.109  11.909  1.00  0.00    -0.007 C 
HETATM   25  C8  UNL     1      -0.047   4.593  12.928  1.00  0.00     0.011 C 
BRANCH  24  26
HETATM   26  C6  UNL     1      -0.392   5.784  10.703  1.00  0.00     0.087 C 
BRANCH  26  27
HETATM   27  C5  UNL     1       1.050   6.264  10.845  1.00  0.00     0.149 C 
HETATM   28  O1  UNL     1       1.628   6.364  11.921  1.00  0.00    -0.293 OA
BRANCH  27  29
HETATM   29  C4  UNL     1       1.748   6.549   9.543  1.00  0.00     0.052 C 
HETATM   30  C2  UNL     1       1.423   7.509   8.655  1.00  0.00    -0.084 C 
HETATM   31  C1  UNL     1       0.259   8.447   8.815  1.00  0.00     0.043 C 
HETATM   32  C3  UNL     1       2.230   7.693   7.399  1.00  0.00     0.043 C 
ENDBRANCH  27  29
ENDBRANCH  26  27
ENDBRANCH  24  26
ENDBRANCH   1  24
BRANCH  10  33
HETATM   33  C20 UNL     1      -4.078  13.259  17.976  1.00  0.00     0.176 C 
BRANCH  33  34
HETATM   34  O2  UNL     1      -4.496  12.801  19.256  1.00  0.00    -0.400 OA
HETATM   35  H33 UNL     1      -5.043  12.008  19.107  1.00  0.00     0.209 HD
ENDBRANCH  33  34
ENDBRANCH  10  33
BRANCH  12  36
HETATM   36  O3  UNL     1      -0.493  13.227  17.004  1.00  0.00    -0.251 OA
BRANCH  36  37
HETATM   37  S1  UNL     1       0.569  14.363  17.495  1.00  0.00     0.252 S 
HETATM   38  O4  UNL     1       1.249  13.722  18.618  1.00  0.00    -0.572 OA
HETATM   39  O5  UNL     1       1.407  14.585  16.318  1.00  0.00    -0.572 OA
HETATM   40  O6  UNL     1      -0.263  15.506  17.871  1.00  0.00    -0.572 OA
ENDBRANCH  36  37
ENDBRANCH  12  36
TORSDOF 8
ENDMDL
MODEL 2
REMARK minimizedAffinity -6.76733589
REMARK CNNscore 0.348044723
REMARK CNNaffinity 6.21268034
REMARK  8 active torsions:
REMARK  status: ('A' for Active; 'I' for Inactive)
REMARK    1  A    between atoms: C4_4  and  C5_5 
REMARK    2  A    between atoms: C5_5  and  C6_7 
REMARK    3  A    between atoms: C6_7  and  C7_8 
REMARK    4  A    between atoms: C7_8  and  C9_10 
REMARK    5  A    between atoms: C18_19  and  C20_21 
REMARK    6  A    between atoms: C20_21  and  O2_22 
REMARK    7  A    between atoms: C21_23  and  O3_24 
REMARK    8  A    between atoms: O3_24  and  S1_25 
ROOT
HETATM    1  C9  UNL     1     -14.069   7.189  23.529  1.00  0.00    -0.001 C 
HETATM    2  C10 UNL     1     -14.428   7.517  24.997  1.00  0.00     0.006 C 
HETATM    3  C11 UNL     1     -13.962   8.970  25.261  1.00  0.00     0.012 C 
HETATM    4  C12 UNL     1     -13.504   9.522  23.893  1.00  0.00    -0.016 C 
HETATM    5  C13 UNL     1     -14.773  10.118  23.210  1.00  0.00     0.018 C 
HETATM    6  C14 UNL     1     -12.378  10.592  23.954  1.00  0.00     0.089 A 
HETATM    7  C15 UNL     1     -12.833  11.969  24.463  1.00  0.00     0.121 A 
HETATM    8  C16 UNL     1     -11.636  12.917  24.574  1.00  0.00     0.026 C 
HETATM    9  C17 UNL     1     -11.090  13.271  23.179  1.00  0.00     0.009 C 
HETATM   10  C18 UNL     1      -9.827  14.225  23.186  1.00  0.00     0.009 C 
HETATM   11  C19 UNL     1      -8.821  13.861  24.309  1.00  0.00     0.020 C 
HETATM   12  C21 UNL     1      -9.113  14.200  21.786  1.00  0.00     0.155 C 
HETATM   13  C22 UNL     1     -10.067  13.823  20.649  1.00  0.00     0.035 C 
HETATM   14  C23 UNL     1     -10.654  12.424  20.820  1.00  0.00     0.013 C 
HETATM   15  C24 UNL     1     -10.877  12.044  22.283  1.00  0.00    -0.025 A 
HETATM   16  C25 UNL     1     -10.093  10.859  22.781  1.00  0.00     0.023 A 
HETATM   17  C26 UNL     1     -11.597  10.708  22.621  1.00  0.00    -0.011 A 
HETATM   18  C27 UNL     1     -12.094   9.875  21.434  1.00  0.00     0.013 C 
HETATM   19  C28 UNL     1     -12.707   8.496  21.730  1.00  0.00     0.011 C 
HETATM   20  C29 UNL     1     -12.940   8.221  23.217  1.00  0.00    -0.031 C 
HETATM   21  C30 UNL     1     -11.594   7.722  23.820  1.00  0.00     0.016 C 
HETATM   22 NA1  UNL     1     -12.027   9.533  23.790  1.00  0.00    -0.415 Na
ATOM     23  HA1 UNL     1     -11.713   8.585  23.585  1.00  0.00     0.153 HD
ENDROOT
BRANCH   1  24
HETATM   24  C7  UNL     1     -13.820   5.701  23.147  1.00  0.00    -0.007 C 
HETATM   25  C8  UNL     1     -14.295   5.430  21.711  1.00  0.00     0.011 C 
BRANCH  24  26
HETATM   26  C6  UNL     1     -14.303   4.610  24.123  1.00  0.00     0.087 C 
BRANCH  26  27
HETATM   27  C5  UNL     1     -13.552   3.283  24.176  1.00  0.00     0.149 C 
HETATM   28  O1  UNL     1     -13.160   2.686  23.181  1.00  0.00    -0.293 OA
BRANCH  27  29
HETATM   29  C4  UNL     1     -13.262   2.780  25.564  1.00  0.00     0.052 C 
HETATM   30  C2  UNL     1     -12.274   1.935  25.919  1.00  0.00    -0.084 C 
HETATM   31  C1  UNL     1     -11.304   1.318  24.951  1.00  0.00     0.043 C 
HETATM   32  C3  UNL     1     -12.089   1.535  27.357  1.00  0.00     0.043 C 
ENDBRANCH  27  29
ENDBRANCH  26  27
ENDBRANCH  24  26
ENDBRANCH   1  24
BRANCH  10  33
HETATM   33  C20 UNL     1     -10.286  15.683  23.491  1.00  0.00     0.176 C 
BRANCH  33  34
HETATM   34  O2  UNL     1     -11.500  16.042  22.843  1.00  0.00    -0.400 OA
HETATM   35  H33 UNL     1     -11.265  16.326  21.941  1.00  0.00     0.209 HD
ENDBRANCH  33  34
ENDBRANCH  10  33
BRANCH  12  36
HETATM   36  O3  UNL     1      -8.049  13.255  21.789  1.00  0.00    -0.251 OA
BRANCH  36  37
HETATM   37  S1  UNL     1      -6.524  13.760  21.509  1.00  0.00     0.252 S 
HETATM   38  O4  UNL     1      -6.294  13.375  20.118  1.00  0.00    -0.572 OA
HETATM   39  O5  UNL     1      -6.589  15.201  21.743  1.00  0.00    -0.572 OA
HETATM   40  O6  UNL     1      -5.710  13.025  22.477  1.00  0.00    -0.572 OA
ENDBRANCH  36  37
ENDBRANCH  12  36
TORSDOF 8
ENDMDL
MODEL 3
REMARK minimizedAffinity -6.49484062
REMARK CNNscore 0.32554251
REMARK CNNaffinity 5.36138582
REMARK  8 active torsions:
REMARK  status: ('A' for Active; 'I' for Inactive)
REMARK    1  A    between atoms: C4_4  and  C5_5 
REMARK    2  A    between atoms: C5_5  and  C6_7 
REMARK    3  A    between atoms: C6_7  and  C7_8 
REMARK    4  A    between atoms: C7_8  and  C9_10 
REMARK    5  A    between atoms: C18_19  and  C20_21 
REMARK    6  A    between atoms: C20_21  and  O2_22 
REMARK    7  A    between atoms: C21_23  and  O3_24 
REMARK    8  A    between atoms: O3_24  and  S1_25 
ROOT
HETATM    1  C9  UNL     1     -14.780  -5.597   9.838  1.00  0.00    -0.001 C 
HETATM    2  C10 UNL     1     -13.655  -6.244  10.679  1.00  0.00     0.006 C 
HETATM    3  C11 UNL     1     -13.721  -5.605  12.088  1.00  0.00     0.012 C 
HETATM    4  C12 UNL     1     -14.995  -4.732  12.097  1.00  0.00    -0.016 C 
HETATM    5  C13 UNL     1     -16.167  -5.666  12.530  1.00  0.00     0.018 C 
HETATM    6  C14 UNL     1     -14.936  -3.484  13.021  1.00  0.00     0.089 A 
HETATM    7  C15 UNL     1     -15.027  -3.797  14.523  1.00  0.00     0.121 A 
HETATM    8  C16 UNL     1     -14.865  -2.515  15.344  1.00  0.00     0.026 C 
HETATM    9  C17 UNL     1     -16.077  -1.587  15.150  1.00  0.00     0.009 C 
HETATM   10  C18 UNL     1     -15.991  -0.215  15.936  1.00  0.00     0.009 C 
HETATM   11  C19 UNL     1     -14.569   0.399  15.893  1.00  0.00     0.020 C 
HETATM   12  C21 UNL     1     -17.044   0.807  15.372  1.00  0.00     0.155 C 
HETATM   13  C22 UNL     1     -18.238   0.113  14.712  1.00  0.00     0.035 C 
HETATM   14  C23 UNL     1     -17.829  -0.738  13.513  1.00  0.00     0.013 C 
HETATM   15  C24 UNL     1     -16.453  -1.381  13.677  1.00  0.00    -0.025 A 
HETATM   16  C25 UNL     1     -15.412  -0.970  12.671  1.00  0.00     0.023 A 
HETATM   17  C26 UNL     1     -15.951  -2.390  12.606  1.00  0.00    -0.011 A 
HETATM   18  C27 UNL     1     -16.918  -2.717  11.462  1.00  0.00     0.013 C 
HETATM   19  C28 UNL     1     -16.410  -3.621  10.326  1.00  0.00     0.011 C 
HETATM   20  C29 UNL     1     -15.046  -4.260  10.599  1.00  0.00    -0.031 C 
HETATM   21  C30 UNL     1     -13.954  -3.217  10.222  1.00  0.00     0.016 C 
HETATM   22 NA1  UNL     1     -14.660  -3.298  11.944  1.00  0.00    -0.415 Na
ATOM     23  HA1 UNL     1     -14.464  -3.118  10.959  1.00  0.00     0.153 HD
ENDROOT
BRANCH   1  24
HETATM   24  C7  UNL     1     -14.600  -5.531   8.294  1.00  0.00    -0.007 C 
HETATM   25  C8  UNL     1     -15.968  -5.478   7.596  1.00  0.00     0.011 C 
BRANCH  24  26
HETATM   26  C6  UNL     1     -13.661  -6.557   7.628  1.00  0.00     0.087 C 
BRANCH  26  27
HETATM   27  C5  UNL     1     -12.974  -6.185   6.316  1.00  0.00     0.149 C 
HETATM   28  O1  UNL     1     -13.033  -5.069   5.813  1.00  0.00    -0.293 OA
BRANCH  27  29
HETATM   29  C4  UNL     1     -12.150  -7.285   5.705  1.00  0.00     0.052 C 
HETATM   30  C2  UNL     1     -11.678  -7.323   4.443  1.00  0.00    -0.084 C 
HETATM   31  C1  UNL     1     -11.938  -6.261   3.412  1.00  0.00     0.043 C 
HETATM   32  C3  UNL     1     -10.843  -8.484   3.974  1.00  0.00     0.043 C 
ENDBRANCH  27  29
ENDBRANCH  26  27
ENDBRANCH  24  26
ENDBRANCH   1  24
BRANCH  10  33
HETATM   33  C20 UNL     1     -16.293  -0.467  17.444  1.00  0.00     0.176 C 
BRANCH  33  34
HETATM   34  O2  UNL     1     -17.584  -1.017  17.679  1.00  0.00    -0.400 OA
HETATM   35  H33 UNL     1     -18.210  -0.270  17.699  1.00  0.00     0.209 HD
ENDBRANCH  33  34
ENDBRANCH  10  33
BRANCH  12  36
HETATM   36  O3  UNL     1     -16.442   1.651  14.396  1.00  0.00    -0.251 OA
BRANCH  36  37
HETATM   37  S1  UNL     1     -16.594   3.268  14.528  1.00  0.00     0.252 S 
HETATM   38  O4  UNL     1     -15.222   3.716  14.755  1.00  0.00    -0.572 OA
HETATM   39  O5  UNL     1     -17.165   3.669  13.243  1.00  0.00    -0.572 OA
HETATM   40  O6  UNL     1     -17.485   3.461  15.673  1.00  0.00    -0.572 OA
ENDBRANCH  36  37
ENDBRANCH  12  36
TORSDOF 8
ENDMDL
MODEL 4
REMARK minimizedAffinity -6.63746023
REMARK CNNscore 0.312215388
REMARK CNNaffinity 7.04435778
REMARK  8 active torsions:
REMARK  status: ('A' for Active; 'I' for Inactive)
REMARK    1  A    between atoms: C4_4  and  C5_5 
REMARK    2  A    between atoms: C5_5  and  C6_7 
REMARK    3  A    between atoms: C6_7  and  C7_8 
REMARK    4  A    between atoms: C7_8  and  C9_10 
REMARK    5  A    between atoms: C18_19  and  C20_21 
REMARK    6  A    between atoms: C20_21  and  O2_22 
REMARK    7  A    between atoms: C21_23  and  O3_24 
REMARK    8  A    between atoms: O3_24  and  S1_25 
ROOT
HETATM    1  C9  UNL     1      -4.196   7.792  15.003  1.00  0.00    -0.001 C 
HETATM    2  C10 UNL     1      -4.965   6.616  14.359  1.00  0.00     0.006 C 
HETATM    3  C11 UNL     1      -3.945   5.826  13.502  1.00  0.00     0.012 C 
HETATM    4  C12 UNL     1      -2.564   6.450  13.806  1.00  0.00    -0.016 C 
HETATM    5  C13 UNL     1      -2.007   5.699  15.054  1.00  0.00     0.018 C 
HETATM    6  C14 UNL     1      -1.538   6.387  12.641  1.00  0.00     0.089 A 
HETATM    7  C15 UNL     1      -0.954   4.989  12.381  1.00  0.00     0.121 A 
HETATM    8  C16 UNL     1      -0.030   5.017  11.160  1.00  0.00     0.026 C 
HETATM    9  C17 UNL     1       1.242   5.831  11.458  1.00  0.00     0.009 C 
HETATM   10  C18 UNL     1       2.250   5.948  10.244  1.00  0.00     0.009 C 
HETATM   11  C19 UNL     1       1.523   6.172   8.893  1.00  0.00     0.020 C 
HETATM   12  C21 UNL     1       3.288   7.101  10.501  1.00  0.00     0.155 C 
HETATM   13  C22 UNL     1       3.491   7.383  11.992  1.00  0.00     0.035 C 
HETATM   14  C23 UNL     1       2.207   7.843  12.679  1.00  0.00     0.013 C 
HETATM   15  C24 UNL     1       0.952   7.196  12.095  1.00  0.00    -0.025 A 
HETATM   16  C25 UNL     1      -0.043   8.138  11.472  1.00  0.00     0.023 A 
HETATM   17  C26 UNL     1      -0.422   7.453  12.775  1.00  0.00    -0.011 A 
HETATM   18  C27 UNL     1      -0.413   8.313  14.044  1.00  0.00     0.013 C 
HETATM   19  C28 UNL     1      -1.766   8.681  14.674  1.00  0.00     0.011 C 
HETATM   20  C29 UNL     1      -2.961   7.948  14.060  1.00  0.00    -0.031 C 
HETATM   21  C30 UNL     1      -3.379   8.723  12.776  1.00  0.00     0.016 C 
HETATM   22 NA1  UNL     1      -2.130   7.344  12.709  1.00  0.00    -0.415 Na
ATOM     23  HA1 UNL     1      -2.624   8.231  12.803  1.00  0.00     0.153 HD
ENDROOT
BRANCH   1  24
HETATM   24  C7  UNL     1      -4.992   9.076  15.377  1.00  0.00    -0.007 C 
HETATM   25  C8  UNL     1      -4.612   9.551  16.787  1.00  0.00     0.011 C 
BRANCH  24  26
HETATM   26  C6  UNL     1      -6.520   9.068  15.171  1.00  0.00     0.087 C 
BRANCH  26  27
HETATM   27  C5  UNL     1      -7.313   7.825  15.567  1.00  0.00     0.149 C 
HETATM   28  O1  UNL     1      -7.416   7.428  16.722  1.00  0.00    -0.293 OA
BRANCH  27  29
HETATM   29  C4  UNL     1      -8.026   7.146  14.431  1.00  0.00     0.052 C 
HETATM   30  C2  UNL     1      -8.138   5.817  14.238  1.00  0.00    -0.084 C 
HETATM   31  C1  UNL     1      -7.522   4.779  15.134  1.00  0.00     0.043 C 
HETATM   32  C3  UNL     1      -8.905   5.277  13.061  1.00  0.00     0.043 C 
ENDBRANCH  27  29
ENDBRANCH  26  27
ENDBRANCH  24  26
ENDBRANCH   1  24
BRANCH  10  33
HETATM   33  C20 UNL     1       3.022   4.603  10.086  1.00  0.00     0.176 C 
BRANCH  33  34
HETATM   34  O2  UNL     1       2.310   3.478  10.588  1.00  0.00    -0.400 OA
HETATM   35  H33 UNL     1       2.483   3.442  11.547  1.00  0.00     0.209 HD
ENDBRANCH  33  34
ENDBRANCH  10  33
BRANCH  12  36
HETATM   36  O3  UNL     1       2.849   8.309   9.889  1.00  0.00    -0.251 OA
BRANCH  36  37
HETATM   37  S1  UNL     1       3.150   8.562   8.306  1.00  0.00     0.252 S 
HETATM   38  O4  UNL     1       3.658   7.270   7.851  1.00  0.00    -0.572 OA
HETATM   39  O5  UNL     1       1.845   8.933   7.762  1.00  0.00    -0.572 OA
HETATM   40  O6  UNL     1       4.142   9.637   8.288  1.00  0.00    -0.572 OA
ENDBRANCH  36  37
ENDBRANCH  12  36
TORSDOF 8
ENDMDL
MODEL 5
REMARK minimizedAffinity -7.6692791
REMARK CNNscore 0.289798468
REMARK CNNaffinity 6.63889933
REMARK  8 active torsions:
REMARK  status: ('A' for Active; 'I' for Inactive)
REMARK    1  A    between atoms: C4_4  and  C5_5 
REMARK    2  A    between atoms: C5_5  and  C6_7 
REMARK    3  A    between atoms: C6_7  and  C7_8 
REMARK    4  A    between atoms: C7_8  and  C9_10 
REMARK    5  A    between atoms: C18_19  and  C20_21 
REMARK    6  A    between atoms: C20_21  and  O2_22 
REMARK    7  A    between atoms: C21_23  and  O3_24 
REMARK    8  A    between atoms: O3_24  and  S1_25 
ROOT
HETATM    1  C9  UNL     1      -2.545   8.851  15.447  1.00  0.00    -0.001 C 
HETATM    2  C10 UNL     1      -3.623   8.332  14.467  1.00  0.00     0.006 C 
HETATM    3  C11 UNL     1      -2.881   7.565  13.346  1.00  0.00     0.012 C 
HETATM    4  C12 UNL     1      -1.402   7.495  13.789  1.00  0.00    -0.016 C 
HETATM    5  C13 UNL     1      -1.266   6.216  14.672  1.00  0.00     0.018 C 
HETATM    6  C14 UNL     1      -0.366   7.458  12.631  1.00  0.00     0.089 A 
HETATM    7  C15 UNL     1      -0.300   6.121  11.876  1.00  0.00     0.121 A 
HETATM    8  C16 UNL     1       0.679   6.220  10.702  1.00  0.00     0.026 C 
HETATM    9  C17 UNL     1       2.125   6.358  11.210  1.00  0.00     0.009 C 
HETATM   10  C18 UNL     1       3.214   6.500  10.070  1.00  0.00     0.009 C 
HETATM   11  C19 UNL     1       2.740   7.419   8.914  1.00  0.00     0.020 C 
HETATM   12  C21 UNL     1       4.568   7.030  10.668  1.00  0.00     0.155 C 
HETATM   13  C22 UNL     1       4.723   6.695  12.153  1.00  0.00     0.035 C 
HETATM   14  C23 UNL     1       3.633   7.333  13.012  1.00  0.00     0.013 C 
HETATM   15  C24 UNL     1       2.287   7.430  12.294  1.00  0.00    -0.025 A 
HETATM   16  C25 UNL     1       1.756   8.822  12.081  1.00  0.00     0.023 A 
HETATM   17  C26 UNL     1       1.041   7.927  13.079  1.00  0.00    -0.011 A 
HETATM   18  C27 UNL     1       1.243   8.238  14.567  1.00  0.00     0.013 C 
HETATM   19  C28 UNL     1       0.060   8.841  15.343  1.00  0.00     0.011 C 
HETATM   20  C29 UNL     1      -1.257   8.853  14.565  1.00  0.00    -0.031 C 
HETATM   21  C30 UNL     1      -1.251  10.112  13.650  1.00  0.00     0.016 C 
HETATM   22 NA1  UNL     1      -0.579   8.481  13.053  1.00  0.00    -0.415 Na
ATOM     23  HA1 UNL     1      -0.729   9.399  13.471  1.00  0.00     0.153 HD
ENDROOT
BRANCH   1  24
HETATM   24  C7  UNL     1      -2.859  10.128  16.278  1.00  0.00    -0.007 C 
HETATM   25  C8  UNL     1      -4.036  10.896  15.658  1.00  0.00     0.011 C 
BRANCH  24  26
HETATM   26  C6  UNL     1      -1.690  11.068  16.635  1.00  0.00     0.087 C 
BRANCH  26  27
HETATM   27  C5  UNL     1      -1.455  11.431  18.099  1.00  0.00     0.149 C 
HETATM   28  O1  UNL     1      -0.907  10.685  18.902  1.00  0.00    -0.293 OA
BRANCH  27  29
HETATM   29  C4  UNL     1      -1.892  12.819  18.480  1.00  0.00     0.052 C 
HETATM   30  C2  UNL     1      -3.086  13.167  19.001  1.00  0.00    -0.084 C 
HETATM   31  C1  UNL     1      -4.209  12.201  19.256  1.00  0.00     0.043 C 
HETATM   32  C3  UNL     1      -3.377  14.599  19.357  1.00  0.00     0.043 C 
ENDBRANCH  27  29
ENDBRANCH  26  27
ENDBRANCH  24  26
ENDBRANCH   1  24
BRANCH  10  33
HETATM   33  C20 UNL     1       3.463   5.105   9.420  1.00  0.00     0.176 C 
BRANCH  33  34
HETATM   34  O2  UNL     1       3.333   5.108   8.003  1.00  0.00    -0.400 OA
HETATM   35  H33 UNL     1       2.383   5.007   7.808  1.00  0.00     0.209 HD
ENDBRANCH  33  34
ENDBRANCH  10  33
BRANCH  12  36
HETATM   36  O3  UNL     1       4.649   8.445  10.533  1.00  0.00    -0.251 OA
BRANCH  36  37
HETATM   37  S1  UNL     1       6.068   9.199  10.806  1.00  0.00     0.252 S 
HETATM   38  O4  UNL     1       5.938   9.668  12.184  1.00  0.00    -0.572 OA
HETATM   39  O5  UNL     1       7.062   8.145  10.609  1.00  0.00    -0.572 OA
HETATM   40  O6  UNL     1       6.114  10.269   9.810  1.00  0.00    -0.572 OA
ENDBRANCH  36  37
ENDBRANCH  12  36
TORSDOF 8
ENDMDL
MODEL 6
REMARK minimizedAffinity -6.925107
REMARK CNNscore 0.28254351
REMARK CNNaffinity 5.81135225
REMARK  8 active torsions:
REMARK  status: ('A' for Active; 'I' for Inactive)
REMARK    1  A    between atoms: C4_4  and  C5_5 
REMARK    2  A    between atoms: C5_5  and  C6_7 
REMARK    3  A    between atoms: C6_7  and  C7_8 
REMARK    4  A    between atoms: C7_8  and  C9_10 
REMARK    5  A    between atoms: C18_19  and  C20_21 
REMARK    6  A    between atoms: C20_21  and  O2_22 
REMARK    7  A    between atoms: C21_23  and  O3_24 
REMARK    8  A    between atoms: O3_24  and  S1_25 
ROOT
HETATM    1  C9  UNL     1     -14.981   8.142  14.187  1.00  0.00    -0.001 C 
HETATM    2  C10 UNL     1     -15.105   8.165  12.646  1.00  0.00     0.006 C 
HETATM    3  C11 UNL     1     -15.917   6.910  12.241  1.00  0.00     0.012 C 
HETATM    4  C12 UNL     1     -16.405   6.277  13.562  1.00  0.00    -0.016 C 
HETATM    5  C13 UNL     1     -17.760   6.968  13.908  1.00  0.00     0.018 C 
HETATM    6  C14 UNL     1     -16.585   4.733  13.531  1.00  0.00     0.089 A 
HETATM    7  C15 UNL     1     -17.809   4.250  12.738  1.00  0.00     0.121 A 
HETATM    8  C16 UNL     1     -17.842   2.720  12.690  1.00  0.00     0.026 C 
HETATM    9  C17 UNL     1     -18.130   2.137  14.085  1.00  0.00     0.009 C 
HETATM   10  C18 UNL     1     -18.152   0.556  14.148  1.00  0.00     0.009 C 
HETATM   11  C19 UNL     1     -17.029  -0.084  13.292  1.00  0.00     0.020 C 
HETATM   12  C21 UNL     1     -18.049   0.065  15.638  1.00  0.00     0.155 C 
HETATM   13  C22 UNL     1     -18.563   1.107  16.635  1.00  0.00     0.035 C 
HETATM   14  C23 UNL     1     -17.761   2.405  16.588  1.00  0.00     0.013 C 
HETATM   15  C24 UNL     1     -17.251   2.742  15.187  1.00  0.00    -0.025 A 
HETATM   16  C25 UNL     1     -15.756   2.802  15.030  1.00  0.00     0.023 A 
HETATM   17  C26 UNL     1     -16.538   4.102  14.945  1.00  0.00    -0.011 A 
HETATM   18  C27 UNL     1     -16.443   5.054  16.143  1.00  0.00     0.013 C 
HETATM   19  C28 UNL     1     -15.643   6.355  15.967  1.00  0.00     0.011 C 
HETATM   20  C29 UNL     1     -15.216   6.636  14.524  1.00  0.00    -0.031 C 
HETATM   21  C30 UNL     1     -13.912   5.830  14.254  1.00  0.00     0.016 C 
HETATM   22 NA1  UNL     1     -15.590   5.094  13.920  1.00  0.00    -0.415 Na
ATOM     23  HA1 UNL     1     -14.712   5.420  14.324  1.00  0.00     0.153 HD
ENDROOT
BRANCH   1  24
HETATM   24  C7  UNL     1     -13.759   8.851  14.838  1.00  0.00    -0.007 C 
HETATM   25  C8  UNL     1     -14.205   9.689  16.046  1.00  0.00     0.011 C 
BRANCH  24  26
HETATM   26  C6  UNL     1     -12.802   9.639  13.920  1.00  0.00     0.087 C 
BRANCH  26  27
HETATM   27  C5  UNL     1     -11.767   8.872  13.101  1.00  0.00     0.149 C 
HETATM   28  O1  UNL     1     -11.586   9.050  11.902  1.00  0.00    -0.293 OA
BRANCH  27  29
HETATM   29  C4  UNL     1     -10.925   7.911  13.894  1.00  0.00     0.052 C 
HETATM   30  C2  UNL     1      -9.981   8.234  14.799  1.00  0.00    -0.084 C 
HETATM   31  C1  UNL     1      -9.587   9.644  15.141  1.00  0.00     0.043 C 
HETATM   32  C3  UNL     1      -9.229   7.160  15.538  1.00  0.00     0.043 C 
ENDBRANCH  27  29
ENDBRANCH  26  27
ENDBRANCH  24  26
ENDBRANCH   1  24
BRANCH  10  33
HETATM   33  C20 UNL     1     -19.490   0.036  13.540  1.00  0.00     0.176 C 
BRANCH  33  34
HETATM   34  O2  UNL     1     -19.854  -1.261  13.997  1.00  0.00    -0.400 OA
HETATM   35  H33 UNL     1     -19.375  -1.901  13.439  1.00  0.00     0.209 HD
ENDBRANCH  33  34
ENDBRANCH  10  33
BRANCH  12  36
HETATM   36  O3  UNL     1     -16.694  -0.221  15.973  1.00  0.00    -0.251 OA
BRANCH  36  37
HETATM   37  S1  UNL     1     -16.341  -1.578  16.804  1.00  0.00     0.252 S 
HETATM   38  O4  UNL     1     -17.468  -2.458  16.503  1.00  0.00    -0.572 OA
HETATM   39  O5  UNL     1     -15.062  -2.005  16.242  1.00  0.00    -0.572 OA
HETATM   40  O6  UNL     1     -16.274  -1.146  18.201  1.00  0.00    -0.572 OA
ENDBRANCH  36  37
ENDBRANCH  12  36
TORSDOF 8
ENDMDL
MODEL 7
REMARK minimizedAffinity -7.48339605
REMARK CNNscore 0.254965931
REMARK CNNaffinity 5.56128263
REMARK  8 active torsions:
REMARK  status: ('A' for Active; 'I' for Inactive)
REMARK    1  A    between atoms: C4_4  and  C5_5 
REMARK    2  A    between atoms: C5_5  and  C6_7 
REMARK    3  A    between atoms: C6_7  and  C7_8 
REMARK    4  A    between atoms: C7_8  and  C9_10 
REMARK    5  A    between atoms: C18_19  and  C20_21 
REMARK    6  A    between atoms: C20_21  and  O2_22 
REMARK    7  A    between atoms: C21_23  and  O3_24 
REMARK    8  A    between atoms: O3_24  and  S1_25 
ROOT
HETATM    1  C9  UNL     1       6.615   9.171  13.512  1.00  0.00    -0.001 C 
HETATM    2  C10 UNL     1       6.141  10.431  12.752  1.00  0.00     0.006 C 
HETATM    3  C11 UNL     1       6.654  11.657  13.548  1.00  0.00     0.012 C 
HETATM    4  C12 UNL     1       7.570  11.089  14.655  1.00  0.00    -0.016 C 
HETATM    5  C13 UNL     1       8.995  10.972  14.031  1.00  0.00     0.018 C 
HETATM    6  C14 UNL     1       7.625  11.927  15.963  1.00  0.00     0.089 A 
HETATM    7  C15 UNL     1       8.420  13.237  15.848  1.00  0.00     0.121 A 
HETATM    8  C16 UNL     1       8.334  14.028  17.156  1.00  0.00     0.026 C 
HETATM    9  C17 UNL     1       9.095  13.305  18.281  1.00  0.00     0.009 C 
HETATM   10  C18 UNL     1       9.040  14.028  19.687  1.00  0.00     0.009 C 
HETATM   11  C19 UNL     1       7.636  14.611  19.995  1.00  0.00     0.020 C 
HETATM   12  C21 UNL     1       9.483  13.042  20.829  1.00  0.00     0.155 C 
HETATM   13  C22 UNL     1      10.405  11.932  20.319  1.00  0.00     0.035 C 
HETATM   14  C23 UNL     1       9.731  11.049  19.271  1.00  0.00     0.013 C 
HETATM   15  C24 UNL     1       8.747  11.815  18.388  1.00  0.00    -0.025 A 
HETATM   16  C25 UNL     1       7.311  11.367  18.464  1.00  0.00     0.023 A 
HETATM   17  C26 UNL     1       8.082  11.090  17.184  1.00  0.00    -0.011 A 
HETATM   18  C27 UNL     1       8.514   9.641  16.928  1.00  0.00     0.013 C 
HETATM   19  C28 UNL     1       7.792   8.860  15.818  1.00  0.00     0.011 C 
HETATM   20  C29 UNL     1       6.865   9.717  14.953  1.00  0.00    -0.031 C 
HETATM   21  C30 UNL     1       5.508   9.848  15.705  1.00  0.00     0.016 C 
HETATM   22 NA1  UNL     1       6.880  11.080  15.965  1.00  0.00    -0.415 Na
ATOM     23  HA1 UNL     1       6.246  10.282  15.988  1.00  0.00     0.153 HD
ENDROOT
BRANCH   1  24
HETATM   24  C7  UNL     1       5.783   7.865  13.363  1.00  0.00    -0.007 C 
HETATM   25  C8  UNL     1       6.709   6.640  13.326  1.00  0.00     0.011 C 
BRANCH  24  26
HETATM   26  C6  UNL     1       4.715   7.806  12.252  1.00  0.00     0.087 C 
BRANCH  26  27
HETATM   27  C5  UNL     1       5.166   7.628  10.804  1.00  0.00     0.149 C 
HETATM   28  O1  UNL     1       6.145   6.969  10.477  1.00  0.00    -0.293 OA
BRANCH  27  29
HETATM   29  C4  UNL     1       4.271   8.275   9.784  1.00  0.00     0.052 C 
HETATM   30  C2  UNL     1       3.357   7.653   9.013  1.00  0.00    -0.084 C 
HETATM   31  C1  UNL     1       3.109   6.171   9.028  1.00  0.00     0.043 C 
HETATM   32  C3  UNL     1       2.511   8.436   8.046  1.00  0.00     0.043 C 
ENDBRANCH  27  29
ENDBRANCH  26  27
ENDBRANCH  24  26
ENDBRANCH   1  24
BRANCH  10  33
HETATM   33  C20 UNL     1      10.007  15.250  19.676  1.00  0.00     0.176 C 
BRANCH  33  34
HETATM   34  O2  UNL     1      10.374  15.696  20.976  1.00  0.00    -0.400 OA
HETATM   35  H33 UNL     1       9.662  16.287  21.282  1.00  0.00     0.209 HD
ENDBRANCH  33  34
ENDBRANCH  10  33
BRANCH  12  36
HETATM   36  O3  UNL     1       8.345  12.422  21.418  1.00  0.00    -0.251 OA
BRANCH  36  37
HETATM   37  S1  UNL     1       8.217  12.351  23.041  1.00  0.00     0.252 S 
HETATM   38  O4  UNL     1       8.774  11.039  23.364  1.00  0.00    -0.572 OA
HETATM   39  O5  UNL     1       9.017  13.486  23.501  1.00  0.00    -0.572 OA
HETATM   40  O6  UNL     1       6.783  12.475  23.303  1.00  0.00    -0.572 OA
ENDBRANCH  36  37
ENDBRANCH  12  36
TORSDOF 8
ENDMDL
MODEL 8
REMARK minimizedAffinity -6.9839673
REMARK CNNscore 0.245663032
REMARK CNNaffinity 5.68920946
REMARK  8 active torsions:
REMARK  status: ('A' for Active; 'I' for Inactive)
REMARK    1  A    between atoms: C4_4  and  C5_5 
REMARK    2  A    between atoms: C5_5  and  C6_7 
REMARK    3  A    between atoms: C6_7  and  C7_8 
REMARK    4  A    between atoms: C7_8  and  C9_10 
REMARK    5  A    between atoms: C18_19  and  C20_21 
REMARK    6  A    between atoms: C20_21  and  O2_22 
REMARK    7  A    between atoms: C21_23  and  O3_24 
REMARK    8  A    between atoms: O3_24  and  S1_25 
ROOT
HETATM    1  C9  UNL     1     -16.801  -0.456  15.040  1.00  0.00    -0.001 C 
HETATM    2  C10 UNL     1     -18.248  -0.499  14.495  1.00  0.00     0.006 C 
HETATM    3  C11 UNL     1     -18.523   0.878  13.843  1.00  0.00     0.012 C 
HETATM    4  C12 UNL     1     -17.175   1.632  13.860  1.00  0.00    -0.016 C 
HETATM    5  C13 UNL     1     -16.428   1.229  12.551  1.00  0.00     0.018 C 
HETATM    6  C14 UNL     1     -17.283   3.179  13.959  1.00  0.00     0.089 A 
HETATM    7  C15 UNL     1     -17.760   3.870  12.672  1.00  0.00     0.121 A 
HETATM    8  C16 UNL     1     -17.921   5.375  12.903  1.00  0.00     0.026 C 
HETATM    9  C17 UNL     1     -16.552   6.042  13.121  1.00  0.00     0.009 C 
HETATM   10  C18 UNL     1     -16.613   7.599  13.402  1.00  0.00     0.009 C 
HETATM   11  C19 UNL     1     -17.786   7.982  14.342  1.00  0.00     0.020 C 
HETATM   12  C21 UNL     1     -15.249   8.103  13.999  1.00  0.00     0.155 C 
HETATM   13  C22 UNL     1     -14.071   7.211  13.601  1.00  0.00     0.035 C 
HETATM   14  C23 UNL     1     -14.223   5.780  14.111  1.00  0.00     0.013 C 
HETATM   15  C24 UNL     1     -15.676   5.309  14.145  1.00  0.00    -0.025 A 
HETATM   16  C25 UNL     1     -16.220   4.955  15.504  1.00  0.00     0.023 A 
HETATM   17  C26 UNL     1     -15.989   3.830  14.508  1.00  0.00    -0.011 A 
HETATM   18  C27 UNL     1     -14.785   2.913  14.756  1.00  0.00     0.013 C 
HETATM   19  C28 UNL     1     -15.061   1.476  15.228  1.00  0.00     0.011 C 
HETATM   20  C29 UNL     1     -16.537   1.076  15.183  1.00  0.00    -0.031 C 
HETATM   21  C30 UNL     1     -17.208   1.603  16.485  1.00  0.00     0.016 C 
HETATM   22 NA1  UNL     1     -17.143   2.643  14.941  1.00  0.00    -0.415 Na
ATOM     23  HA1 UNL     1     -16.961   2.164  15.823  1.00  0.00     0.153 HD
ENDROOT
BRANCH   1  24
HETATM   24  C7  UNL     1     -16.442  -1.372  16.247  1.00  0.00    -0.007 C 
HETATM   25  C8  UNL     1     -15.405  -2.426  15.830  1.00  0.00     0.011 C 
BRANCH  24  26
HETATM   26  C6  UNL     1     -17.598  -1.997  17.053  1.00  0.00     0.087 C 
BRANCH  26  27
HETATM   27  C5  UNL     1     -17.269  -2.834  18.287  1.00  0.00     0.149 C 
HETATM   28  O1  UNL     1     -16.504  -2.465  19.171  1.00  0.00    -0.293 OA
BRANCH  27  29
HETATM   29  C4  UNL     1     -18.011  -4.138  18.377  1.00  0.00     0.052 C 
HETATM   30  C2  UNL     1     -17.548  -5.349  18.009  1.00  0.00    -0.084 C 
HETATM   31  C1  UNL     1     -16.194  -5.585  17.402  1.00  0.00     0.043 C 
HETATM   32  C3  UNL     1     -18.399  -6.578  18.179  1.00  0.00     0.043 C 
ENDBRANCH  27  29
ENDBRANCH  26  27
ENDBRANCH  24  26
ENDBRANCH   1  24
BRANCH  10  33
HETATM   33  C20 UNL     1     -16.885   8.352  12.065  1.00  0.00     0.176 C 
BRANCH  33  34
HETATM   34  O2  UNL     1     -16.044   7.933  10.997  1.00  0.00    -0.400 OA
HETATM   35  H33 UNL     1     -15.210   8.429  11.084  1.00  0.00     0.209 HD
ENDBRANCH  33  34
ENDBRANCH  10  33
BRANCH  12  36
HETATM   36  O3  UNL     1     -15.310   8.128  15.422  1.00  0.00    -0.251 OA
BRANCH  36  37
HETATM   37  S1  UNL     1     -14.804   9.454  16.224  1.00  0.00     0.252 S 
HETATM   38  O4  UNL     1     -14.352   8.917  17.506  1.00  0.00    -0.572 OA
HETATM   39  O5  UNL     1     -13.742   9.988  15.374  1.00  0.00    -0.572 OA
HETATM   40  O6  UNL     1     -15.993  10.303  16.315  1.00  0.00    -0.572 OA
ENDBRANCH  36  37
ENDBRANCH  12  36
TORSDOF 8
ENDMDL
MODEL 9
REMARK minimizedAffinity -7.7238512
REMARK CNNscore 0.243398339
REMARK CNNaffinity 6.62943459
REMARK  8 active torsions:
REMARK  status: ('A' for Active; 'I' for Inactive)
REMARK    1  A    between atoms: C4_4  and  C5_5 
REMARK    2  A    between atoms: C5_5  and  C6_7 
REMARK    3  A    between atoms: C6_7  and  C7_8 
REMARK    4  A    between atoms: C7_8  and  C9_10 
REMARK    5  A    between atoms: C18_19  and  C20_21 
REMARK    6  A    between atoms: C20_21  and  O2_22 
REMARK    7  A    between atoms: C21_23  and  O3_24 
REMARK    8  A    between atoms: O3_24  and  S1_25 
ROOT
HETATM    1  C9  UNL     1       0.903   8.379  12.965  1.00  0.00    -0.001 C 
HETATM    2  C10 UNL     1       0.925   9.675  13.808  1.00  0.00     0.006 C 
HETATM    3  C11 UNL     1      -0.380   9.692  14.641  1.00  0.00     0.012 C 
HETATM    4  C12 UNL     1      -1.051   8.321  14.405  1.00  0.00    -0.016 C 
HETATM    5  C13 UNL     1      -0.455   7.349  15.469  1.00  0.00     0.018 C 
HETATM    6  C14 UNL     1      -2.603   8.320  14.490  1.00  0.00     0.089 A 
HETATM    7  C15 UNL     1      -3.164   8.454  15.914  1.00  0.00     0.121 A 
HETATM    8  C16 UNL     1      -4.693   8.537  15.878  1.00  0.00     0.026 C 
HETATM    9  C17 UNL     1      -5.301   7.196  15.433  1.00  0.00     0.009 C 
HETATM   10  C18 UNL     1      -6.881   7.188  15.333  1.00  0.00     0.009 C 
HETATM   11  C19 UNL     1      -7.438   8.497  14.718  1.00  0.00     0.020 C 
HETATM   12  C21 UNL     1      -7.371   5.945  14.504  1.00  0.00     0.155 C 
HETATM   13  C22 UNL     1      -6.372   4.786  14.540  1.00  0.00     0.035 C 
HETATM   14  C23 UNL     1      -5.022   5.160  13.934  1.00  0.00     0.013 C 
HETATM   15  C24 UNL     1      -4.644   6.621  14.172  1.00  0.00    -0.025 A 
HETATM   16  C25 UNL     1      -4.482   7.467  12.938  1.00  0.00     0.023 A 
HETATM   17  C26 UNL     1      -3.237   7.123  13.739  1.00  0.00    -0.011 A 
HETATM   18  C27 UNL     1      -2.288   6.079  13.140  1.00  0.00     0.013 C 
HETATM   19  C28 UNL     1      -0.934   6.566  12.596  1.00  0.00     0.011 C 
HETATM   20  C29 UNL     1      -0.618   8.026  12.924  1.00  0.00    -0.031 C 
HETATM   21  C30 UNL     1      -1.332   8.913  11.862  1.00  0.00     0.016 C 
HETATM   22 NA1  UNL     1      -2.178   8.437  13.452  1.00  0.00    -0.415 Na
ATOM     23  HA1 UNL     1      -1.796   8.486  12.508  1.00  0.00     0.153 HD
ENDROOT
BRANCH   1  24
HETATM   24  C7  UNL     1       1.689   8.361  11.622  1.00  0.00    -0.007 C 
HETATM   25  C8  UNL     1       0.719   8.334  10.432  1.00  0.00     0.011 C 
BRANCH  24  26
HETATM   26  C6  UNL     1       2.821   7.327  11.458  1.00  0.00     0.087 C 
BRANCH  26  27
HETATM   27  C5  UNL     1       4.173   7.792  10.922  1.00  0.00     0.149 C 
HETATM   28  O1  UNL     1       4.381   8.055   9.744  1.00  0.00    -0.293 OA
BRANCH  27  29
HETATM   29  C4  UNL     1       5.236   7.970  11.971  1.00  0.00     0.052 C 
HETATM   30  C2  UNL     1       6.390   7.279  12.066  1.00  0.00    -0.084 C 
HETATM   31  C1  UNL     1       6.787   6.168  11.135  1.00  0.00     0.043 C 
HETATM   32  C3  UNL     1       7.375   7.583  13.162  1.00  0.00     0.043 C 
ENDBRANCH  27  29
ENDBRANCH  26  27
ENDBRANCH  24  26
ENDBRANCH   1  24
BRANCH  10  33
HETATM   33  C20 UNL     1      -7.486   7.106  16.766  1.00  0.00     0.176 C 
BRANCH  33  34
HETATM   34  O2  UNL     1      -8.822   7.592  16.846  1.00  0.00    -0.400 OA
HETATM   35  H33 UNL     1      -8.764   8.560  16.947  1.00  0.00     0.209 HD
ENDBRANCH  33  34
ENDBRANCH  10  33
BRANCH  12  36
HETATM   36  O3  UNL     1      -7.566   6.304  13.140  1.00  0.00    -0.251 OA
BRANCH  36  37
HETATM   37  S1  UNL     1      -8.424   5.319  12.165  1.00  0.00     0.252 S 
HETATM   38  O4  UNL     1      -7.399   4.476  11.555  1.00  0.00    -0.572 OA
HETATM   39  O5  UNL     1      -9.325   4.623  13.081  1.00  0.00    -0.572 OA
HETATM   40  O6  UNL     1      -9.093   6.223  11.227  1.00  0.00    -0.572 OA
ENDBRANCH  36  37
ENDBRANCH  12  36
TORSDOF 8
ENDMDL
