MODEL 1
REMARK minimizedAffinity -9.50274181
REMARK  10 active torsions:
REMARK  status: ('A' for Active; 'I' for Inactive)
REMARK    1  A    between atoms: C2_2  and  C3_3 
REMARK    2  A    between atoms: C3_3  and  N1_4 
REMARK    3  A    between atoms: N1_4  and  C4_5 
REMARK    4  A    between atoms: C9_12  and  C11_14 
REMARK    5  A    between atoms: C11_14  and  O1_15 
REMARK    6  A    between atoms: C12_16  and  O2_17 
REMARK    7  A    between atoms: C17_22  and  C18_23 
REMARK    8  A    between atoms: C18_23  and  C19_24 
REMARK       I    between atoms: C19_24  and  N3_26 
REMARK    9  A    between atoms: N3_26  and  C20_27 
REMARK   10  A    between atoms: C20_27  and  C22_29 
ROOT
HETATM    1  C4  UNL     1       1.908   6.852  10.568  1.00  0.00     0.145 A 
HETATM    2  N2  UNL     1       0.945   5.978  10.757  1.00  0.00    -0.339 N 
ATOM      3  H2  UNL     1       0.845   5.102  10.243  1.00  0.00     0.168 HD
HETATM    4  C5  UNL     1       0.087   6.413  11.748  1.00  0.00     0.030 A 
HETATM    5  C6  UNL     1       0.398   7.650  12.278  1.00  0.00     0.009 A 
HETATM    6  C7  UNL     1      -0.371   8.369  13.341  1.00  0.00     0.054 C 
HETATM    7  C8  UNL     1      -1.776   7.721  13.467  1.00  0.00     0.012 C 
HETATM    8  C9  UNL     1      -2.827   8.436  14.419  1.00  0.00     0.008 C 
HETATM    9  C10 UNL     1      -4.098   8.752  13.571  1.00  0.00     0.020 C 
HETATM   10  C12 UNL     1      -3.276   7.534  15.601  1.00  0.00     0.128 C 
HETATM   11  C13 UNL     1      -3.692   6.116  15.200  1.00  0.00     0.033 C 
HETATM   12  C14 UNL     1      -3.041   5.568  13.926  1.00  0.00     0.013 C 
HETATM   13  C15 UNL     1      -1.649   6.139  13.597  1.00  0.00    -0.030 C 
HETATM   14  C16 UNL     1      -0.642   5.699  14.696  1.00  0.00     0.016 C 
HETATM   15  C17 UNL     1      -1.127   5.597  12.173  1.00  0.00     0.054 C 
HETATM   16  S1  UNL     1       1.815   8.261  11.563  1.00  0.00    -0.057 SA
ENDROOT
BRANCH  15  17
HETATM   17  C18 UNL     1      -0.830   4.082  12.112  1.00  0.00     0.114 C 
BRANCH  17  18
HETATM   18  C19 UNL     1      -1.803   3.302  11.250  1.00  0.00     0.218 C 
HETATM   19  O3  UNL     1      -1.472   2.386  10.506  1.00  0.00    -0.274 OA
HETATM   20  N3  UNL     1      -3.106   3.724  11.410  1.00  0.00    -0.353 N 
HETATM   21  H28 UNL     1      -3.316   4.286  12.224  1.00  0.00     0.163 HD
BRANCH  20  22
HETATM   22  C20 UNL     1      -4.220   3.015  10.798  1.00  0.00     0.113 C 
HETATM   23  C21 UNL     1      -4.511   3.599   9.415  1.00  0.00     0.037 C 
BRANCH  22  24
HETATM   24  C22 UNL     1      -5.412   3.036  11.740  1.00  0.00    -0.036 A 
HETATM   25  C23 UNL     1      -5.606   4.154  12.569  1.00  0.00     0.009 A 
HETATM   26  C24 UNL     1      -6.696   4.224  13.439  1.00  0.00     0.001 A 
HETATM   27  C25 UNL     1      -7.617   3.183  13.484  1.00  0.00     0.000 A 
HETATM   28  C26 UNL     1      -7.453   2.075  12.654  1.00  0.00     0.001 A 
HETATM   29  C27 UNL     1      -6.362   2.004  11.785  1.00  0.00     0.009 A 
ENDBRANCH  22  24
ENDBRANCH  20  22
ENDBRANCH  17  18
ENDBRANCH  15  17
BRANCH   1  30
HETATM   30  N1  UNL     1       2.914   6.723   9.675  1.00  0.00    -0.367 N 
HETATM   31  H6  UNL     1       3.584   7.481   9.657  1.00  0.00     0.161 HD
BRANCH  30  32
HETATM   32  C3  UNL     1       2.597   6.172   8.377  1.00  0.00     0.148 C 
BRANCH  32  33
HETATM   33  C2  UNL     1       2.145   7.316   7.519  1.00  0.00    -0.018 C 
HETATM   34  C1  UNL     1       1.663   7.196   6.274  1.00  0.00     0.008 C 
ENDBRANCH  32  33
ENDBRANCH  30  32
ENDBRANCH   1  30
BRANCH   8  35
HETATM   35  C11 UNL     1      -2.358   9.817  14.954  1.00  0.00     0.176 C 
BRANCH  35  36
HETATM   36  O1  UNL     1      -2.103  10.730  13.894  1.00  0.00    -0.400 OA
HETATM   37  H15 UNL     1      -1.827  11.572  14.304  1.00  0.00     0.209 HD
ENDBRANCH  35  36
ENDBRANCH   8  35
BRANCH  10  38
HETATM   38  O2  UNL     1      -2.291   7.423  16.629  1.00  0.00    -0.395 OA
HETATM   39  H17 UNL     1      -1.715   8.215  16.582  1.00  0.00     0.210 HD
ENDBRANCH  10  38
TORSDOF 10
ENDMDL
MODEL 2
REMARK minimizedAffinity -8.65701389
REMARK  10 active torsions:
REMARK  status: ('A' for Active; 'I' for Inactive)
REMARK    1  A    between atoms: C2_2  and  C3_3 
REMARK    2  A    between atoms: C3_3  and  N1_4 
REMARK    3  A    between atoms: N1_4  and  C4_5 
REMARK    4  A    between atoms: C9_12  and  C11_14 
REMARK    5  A    between atoms: C11_14  and  O1_15 
REMARK    6  A    between atoms: C12_16  and  O2_17 
REMARK    7  A    between atoms: C17_22  and  C18_23 
REMARK    8  A    between atoms: C18_23  and  C19_24 
REMARK       I    between atoms: C19_24  and  N3_26 
REMARK    9  A    between atoms: N3_26  and  C20_27 
REMARK   10  A    between atoms: C20_27  and  C22_29 
ROOT
HETATM    1  C4  UNL     1      -0.411   7.590  15.512  1.00  0.00     0.145 A 
HETATM    2  N2  UNL     1      -0.274   6.521  14.760  1.00  0.00    -0.339 N 
ATOM      3  H2  UNL     1      -0.773   5.642  14.900  1.00  0.00     0.168 HD
HETATM    4  C5  UNL     1       0.642   6.755  13.753  1.00  0.00     0.030 A 
HETATM    5  C6  UNL     1       1.223   8.008  13.782  1.00  0.00     0.009 A 
HETATM    6  C7  UNL     1       2.260   8.518  12.831  1.00  0.00     0.054 C 
HETATM    7  C8  UNL     1       2.879   7.313  12.073  1.00  0.00     0.012 C 
HETATM    8  C9  UNL     1       4.125   7.604  11.133  1.00  0.00     0.008 C 
HETATM    9  C10 UNL     1       5.298   6.687  11.602  1.00  0.00     0.020 C 
HETATM   10  C12 UNL     1       3.845   7.266   9.643  1.00  0.00     0.128 C 
HETATM   11  C13 UNL     1       3.220   5.887   9.408  1.00  0.00     0.033 C 
HETATM   12  C14 UNL     1       2.389   5.328  10.566  1.00  0.00     0.013 C 
HETATM   13  C15 UNL     1       1.731   6.382  11.477  1.00  0.00    -0.030 C 
HETATM   14  C16 UNL     1       0.670   7.173  10.662  1.00  0.00     0.016 C 
HETATM   15  C17 UNL     1       1.001   5.684  12.732  1.00  0.00     0.054 C 
HETATM   16  S1  UNL     1       0.579   8.930  15.058  1.00  0.00    -0.057 SA
ENDROOT
BRANCH  15  17
HETATM   17  C18 UNL     1      -0.225   4.813  12.381  1.00  0.00     0.114 C 
BRANCH  17  18
HETATM   18  C19 UNL     1      -1.548   5.546  12.492  1.00  0.00     0.218 C 
HETATM   19  O3  UNL     1      -1.702   6.725  12.194  1.00  0.00    -0.274 OA
HETATM   20  N3  UNL     1      -2.566   4.734  12.947  1.00  0.00    -0.353 N 
HETATM   21  H28 UNL     1      -2.415   3.735  12.910  1.00  0.00     0.163 HD
BRANCH  20  22
HETATM   22  C20 UNL     1      -3.948   5.187  12.982  1.00  0.00     0.113 C 
HETATM   23  C21 UNL     1      -4.257   5.807  14.346  1.00  0.00     0.037 C 
BRANCH  22  24
HETATM   24  C22 UNL     1      -4.867   4.038  12.603  1.00  0.00    -0.036 A 
HETATM   25  C23 UNL     1      -6.181   4.024  13.102  1.00  0.00     0.009 A 
HETATM   26  C24 UNL     1      -7.065   2.996  12.768  1.00  0.00     0.001 A 
HETATM   27  C25 UNL     1      -6.654   1.974  11.919  1.00  0.00     0.000 A 
HETATM   28  C26 UNL     1      -5.361   1.982  11.398  1.00  0.00     0.001 A 
HETATM   29  C27 UNL     1      -4.476   3.009  11.734  1.00  0.00     0.009 A 
ENDBRANCH  22  24
ENDBRANCH  20  22
ENDBRANCH  17  18
ENDBRANCH  15  17
BRANCH   1  30
HETATM   30  N1  UNL     1      -1.236   7.692  16.578  1.00  0.00    -0.367 N 
HETATM   31  H6  UNL     1      -1.416   6.830  17.078  1.00  0.00     0.161 HD
BRANCH  30  32
HETATM   32  C3  UNL     1      -2.380   8.567  16.464  1.00  0.00     0.148 C 
BRANCH  32  33
HETATM   33  C2  UNL     1      -2.169   9.689  17.436  1.00  0.00    -0.018 C 
HETATM   34  C1  UNL     1      -3.144  10.312  18.112  1.00  0.00     0.008 C 
ENDBRANCH  32  33
ENDBRANCH  30  32
ENDBRANCH   1  30
BRANCH   8  35
HETATM   35  C11 UNL     1       4.684   9.048  11.253  1.00  0.00     0.176 C 
BRANCH  35  36
HETATM   36  O1  UNL     1       5.330   9.459  10.054  1.00  0.00    -0.400 OA
HETATM   37  H15 UNL     1       5.641  10.374  10.198  1.00  0.00     0.209 HD
ENDBRANCH  35  36
ENDBRANCH   8  35
BRANCH  10  38
HETATM   38  O2  UNL     1       3.020   8.232   8.992  1.00  0.00    -0.395 OA
HETATM   39  H17 UNL     1       3.115   9.082   9.472  1.00  0.00     0.210 HD
ENDBRANCH  10  38
TORSDOF 10
ENDMDL
MODEL 3
REMARK minimizedAffinity -8.60841751
REMARK  10 active torsions:
REMARK  status: ('A' for Active; 'I' for Inactive)
REMARK    1  A    between atoms: C2_2  and  C3_3 
REMARK    2  A    between atoms: C3_3  and  N1_4 
REMARK    3  A    between atoms: N1_4  and  C4_5 
REMARK    4  A    between atoms: C9_12  and  C11_14 
REMARK    5  A    between atoms: C11_14  and  O1_15 
REMARK    6  A    between atoms: C12_16  and  O2_17 
REMARK    7  A    between atoms: C17_22  and  C18_23 
REMARK    8  A    between atoms: C18_23  and  C19_24 
REMARK       I    between atoms: C19_24  and  N3_26 
REMARK    9  A    between atoms: N3_26  and  C20_27 
REMARK   10  A    between atoms: C20_27  and  C22_29 
ROOT
HETATM    1  C4  UNL     1      -2.402   3.533  12.083  1.00  0.00     0.145 A 
HETATM    2  N2  UNL     1      -2.391   4.809  12.397  1.00  0.00    -0.339 N 
ATOM      3  H2  UNL     1      -3.187   5.322  12.774  1.00  0.00     0.168 HD
HETATM    4  C5  UNL     1      -1.148   5.355  12.144  1.00  0.00     0.030 A 
HETATM    5  C6  UNL     1      -0.232   4.478  11.598  1.00  0.00     0.009 A 
HETATM    6  C7  UNL     1       1.174   4.808  11.204  1.00  0.00     0.054 C 
HETATM    7  C8  UNL     1       1.320   6.351  11.116  1.00  0.00     0.012 C 
HETATM    8  C9  UNL     1       2.686   6.923  10.546  1.00  0.00     0.008 C 
HETATM    9  C10 UNL     1       2.347   7.843   9.332  1.00  0.00     0.020 C 
HETATM   10  C12 UNL     1       3.451   7.793  11.581  1.00  0.00     0.128 C 
HETATM   11  C13 UNL     1       2.596   8.855  12.278  1.00  0.00     0.033 C 
HETATM   12  C14 UNL     1       1.102   8.537  12.390  1.00  0.00     0.013 C 
HETATM   13  C15 UNL     1       0.746   7.039  12.434  1.00  0.00    -0.030 C 
HETATM   14  C16 UNL     1       1.314   6.416  13.740  1.00  0.00     0.016 C 
HETATM   15  C17 UNL     1      -0.849   6.825  12.413  1.00  0.00     0.054 C 
HETATM   16  S1  UNL     1      -0.916   2.930  11.441  1.00  0.00    -0.057 SA
ENDROOT
BRANCH  15  17
HETATM   17  C18 UNL     1      -1.600   7.327  13.665  1.00  0.00     0.114 C 
BRANCH  17  18
HETATM   18  C19 UNL     1      -2.917   8.012  13.356  1.00  0.00     0.218 C 
HETATM   19  O3  UNL     1      -3.074   8.806  12.436  1.00  0.00    -0.274 OA
HETATM   20  N3  UNL     1      -3.927   7.627  14.214  1.00  0.00    -0.353 N 
HETATM   21  H28 UNL     1      -3.780   6.786  14.757  1.00  0.00     0.163 HD
BRANCH  20  22
HETATM   22  C20 UNL     1      -5.306   8.040  14.005  1.00  0.00     0.113 C 
HETATM   23  C21 UNL     1      -5.751   8.960  15.143  1.00  0.00     0.037 C 
BRANCH  22  24
HETATM   24  C22 UNL     1      -6.181   6.810  13.828  1.00  0.00    -0.036 A 
HETATM   25  C23 UNL     1      -7.570   6.929  14.014  1.00  0.00     0.009 A 
HETATM   26  C24 UNL     1      -8.413   5.830  13.847  1.00  0.00     0.001 A 
HETATM   27  C25 UNL     1      -7.885   4.597  13.478  1.00  0.00     0.000 A 
HETATM   28  C26 UNL     1      -6.514   4.465  13.269  1.00  0.00     0.001 A 
HETATM   29  C27 UNL     1      -5.668   5.564  13.438  1.00  0.00     0.009 A 
ENDBRANCH  22  24
ENDBRANCH  20  22
ENDBRANCH  17  18
ENDBRANCH  15  17
BRANCH   1  30
HETATM   30  N1  UNL     1      -3.463   2.706  12.218  1.00  0.00    -0.367 N 
HETATM   31  H6  UNL     1      -3.273   1.818  12.664  1.00  0.00     0.161 HD
BRANCH  30  32
HETATM   32  C3  UNL     1      -4.408   2.637  11.126  1.00  0.00     0.148 C 
BRANCH  32  33
HETATM   33  C2  UNL     1      -5.179   1.363  11.299  1.00  0.00    -0.018 C 
HETATM   34  C1  UNL     1      -6.474   1.290  11.633  1.00  0.00     0.008 C 
ENDBRANCH  32  33
ENDBRANCH  30  32
ENDBRANCH   1  30
BRANCH   8  35
HETATM   35  C11 UNL     1       3.633   5.838   9.964  1.00  0.00     0.176 C 
BRANCH  35  36
HETATM   36  O1  UNL     1       3.462   5.694   8.559  1.00  0.00    -0.400 OA
HETATM   37  H15 UNL     1       4.093   5.010   8.265  1.00  0.00     0.209 HD
ENDBRANCH  35  36
ENDBRANCH   8  35
BRANCH  10  38
HETATM   38  O2  UNL     1       4.098   7.023  12.594  1.00  0.00    -0.395 OA
HETATM   39  H17 UNL     1       4.261   6.126  12.234  1.00  0.00     0.210 HD
ENDBRANCH  10  38
TORSDOF 10
ENDMDL
MODEL 4
REMARK minimizedAffinity -8.53790092
REMARK  10 active torsions:
REMARK  status: ('A' for Active; 'I' for Inactive)
REMARK    1  A    between atoms: C2_2  and  C3_3 
REMARK    2  A    between atoms: C3_3  and  N1_4 
REMARK    3  A    between atoms: N1_4  and  C4_5 
REMARK    4  A    between atoms: C9_12  and  C11_14 
REMARK    5  A    between atoms: C11_14  and  O1_15 
REMARK    6  A    between atoms: C12_16  and  O2_17 
REMARK    7  A    between atoms: C17_22  and  C18_23 
REMARK    8  A    between atoms: C18_23  and  C19_24 
REMARK       I    between atoms: C19_24  and  N3_26 
REMARK    9  A    between atoms: N3_26  and  C20_27 
REMARK   10  A    between atoms: C20_27  and  C22_29 
ROOT
HETATM    1  C4  UNL     1      -3.015   2.686  11.741  1.00  0.00     0.145 A 
HETATM    2  N2  UNL     1      -3.169   3.848  12.336  1.00  0.00    -0.339 N 
ATOM      3  H2  UNL     1      -4.005   4.134  12.846  1.00  0.00     0.168 HD
HETATM    4  C5  UNL     1      -2.039   4.626  12.173  1.00  0.00     0.030 A 
HETATM    5  C6  UNL     1      -1.044   4.045  11.412  1.00  0.00     0.009 A 
HETATM    6  C7  UNL     1       0.269   4.670  11.057  1.00  0.00     0.054 C 
HETATM    7  C8  UNL     1       0.181   6.198  11.317  1.00  0.00     0.012 C 
HETATM    8  C9  UNL     1       1.408   7.090  10.847  1.00  0.00     0.008 C 
HETATM    9  C10 UNL     1       0.856   8.188   9.885  1.00  0.00     0.020 C 
HETATM   10  C12 UNL     1       2.105   7.821  12.027  1.00  0.00     0.128 C 
HETATM   11  C13 UNL     1       1.153   8.556  12.975  1.00  0.00     0.033 C 
HETATM   12  C14 UNL     1      -0.268   7.990  13.060  1.00  0.00     0.013 C 
HETATM   13  C15 UNL     1      -0.397   6.482  12.775  1.00  0.00    -0.030 C 
HETATM   14  C16 UNL     1       0.342   5.685  13.886  1.00  0.00     0.016 C 
HETATM   15  C17 UNL     1      -1.942   6.029  12.758  1.00  0.00     0.054 C 
HETATM   16  S1  UNL     1      -1.504   2.481  10.930  1.00  0.00    -0.057 SA
ENDROOT
BRANCH  15  17
HETATM   17  C18 UNL     1      -2.671   6.120  14.116  1.00  0.00     0.114 C 
BRANCH  17  18
HETATM   18  C19 UNL     1      -4.061   6.719  14.025  1.00  0.00     0.218 C 
HETATM   19  O3  UNL     1      -4.400   7.528  13.169  1.00  0.00    -0.274 OA
HETATM   20  N3  UNL     1      -4.909   6.239  15.001  1.00  0.00    -0.353 N 
HETATM   21  H28 UNL     1      -4.631   5.395  15.484  1.00  0.00     0.163 HD
BRANCH  20  22
HETATM   22  C20 UNL     1      -6.328   6.560  15.007  1.00  0.00     0.113 C 
HETATM   23  C21 UNL     1      -6.851   6.575  16.445  1.00  0.00     0.037 C 
BRANCH  22  24
HETATM   24  C22 UNL     1      -7.069   5.601  14.092  1.00  0.00    -0.036 A 
HETATM   25  C23 UNL     1      -7.032   4.224  14.373  1.00  0.00     0.009 A 
HETATM   26  C24 UNL     1      -7.710   3.308  13.568  1.00  0.00     0.001 A 
HETATM   27  C25 UNL     1      -8.448   3.753  12.476  1.00  0.00     0.000 A 
HETATM   28  C26 UNL     1      -8.513   5.116  12.193  1.00  0.00     0.001 A 
HETATM   29  C27 UNL     1      -7.833   6.034  12.997  1.00  0.00     0.009 A 
ENDBRANCH  22  24
ENDBRANCH  20  22
ENDBRANCH  17  18
ENDBRANCH  15  17
BRANCH   1  30
HETATM   30  N1  UNL     1      -3.932   1.694  11.719  1.00  0.00    -0.367 N 
HETATM   31  H6  UNL     1      -3.603   0.800  11.377  1.00  0.00     0.161 HD
BRANCH  30  32
HETATM   32  C3  UNL     1      -5.280   2.029  11.318  1.00  0.00     0.148 C 
BRANCH  32  33
HETATM   33  C2  UNL     1      -5.178   3.204  10.393  1.00  0.00    -0.018 C 
HETATM   34  C1  UNL     1      -5.511   3.188   9.095  1.00  0.00     0.008 C 
ENDBRANCH  32  33
ENDBRANCH  30  32
ENDBRANCH   1  30
BRANCH   8  35
HETATM   35  C11 UNL     1       2.462   6.322  10.003  1.00  0.00     0.176 C 
BRANCH  35  36
HETATM   36  O1  UNL     1       2.681   6.947   8.745  1.00  0.00    -0.400 OA
HETATM   37  H15 UNL     1       3.358   6.420   8.279  1.00  0.00     0.209 HD
ENDBRANCH  35  36
ENDBRANCH   8  35
BRANCH  10  38
HETATM   38  O2  UNL     1       2.925   6.960  12.818  1.00  0.00    -0.395 OA
HETATM   39  H17 UNL     1       3.192   6.201  12.258  1.00  0.00     0.210 HD
ENDBRANCH  10  38
TORSDOF 10
ENDMDL
MODEL 5
REMARK minimizedAffinity -8.42579651
REMARK  10 active torsions:
REMARK  status: ('A' for Active; 'I' for Inactive)
REMARK    1  A    between atoms: C2_2  and  C3_3 
REMARK    2  A    between atoms: C3_3  and  N1_4 
REMARK    3  A    between atoms: N1_4  and  C4_5 
REMARK    4  A    between atoms: C9_12  and  C11_14 
REMARK    5  A    between atoms: C11_14  and  O1_15 
REMARK    6  A    between atoms: C12_16  and  O2_17 
REMARK    7  A    between atoms: C17_22  and  C18_23 
REMARK    8  A    between atoms: C18_23  and  C19_24 
REMARK       I    between atoms: C19_24  and  N3_26 
REMARK    9  A    between atoms: N3_26  and  C20_27 
REMARK   10  A    between atoms: C20_27  and  C22_29 
ROOT
HETATM    1  C4  UNL     1      -2.594   4.646  12.441  1.00  0.00     0.145 A 
HETATM    2  N2  UNL     1      -2.228   5.900  12.585  1.00  0.00    -0.339 N 
ATOM      3  H2  UNL     1      -2.817   6.638  12.969  1.00  0.00     0.168 HD
HETATM    4  C5  UNL     1      -0.932   6.076  12.140  1.00  0.00     0.030 A 
HETATM    5  C6  UNL     1      -0.339   4.941  11.624  1.00  0.00     0.009 A 
HETATM    6  C7  UNL     1       1.042   4.852  11.053  1.00  0.00     0.054 C 
HETATM    7  C8  UNL     1       1.551   6.288  10.752  1.00  0.00     0.012 C 
HETATM    8  C9  UNL     1       2.931   6.425   9.979  1.00  0.00     0.008 C 
HETATM    9  C10 UNL     1       2.675   7.274   8.695  1.00  0.00     0.020 C 
HETATM   10  C12 UNL     1       4.014   7.165  10.811  1.00  0.00     0.128 C 
HETATM   11  C13 UNL     1       3.544   8.477  11.446  1.00  0.00     0.033 C 
HETATM   12  C14 UNL     1       2.045   8.572  11.746  1.00  0.00     0.013 C 
HETATM   13  C15 UNL     1       1.340   7.230  12.019  1.00  0.00    -0.030 C 
HETATM   14  C16 UNL     1       1.900   6.615  13.332  1.00  0.00     0.016 C 
HETATM   15  C17 UNL     1      -0.248   7.437  12.184  1.00  0.00     0.054 C 
HETATM   16  S1  UNL     1      -1.398   3.616  11.739  1.00  0.00    -0.057 SA
ENDROOT
BRANCH  15  17
HETATM   17  C18 UNL     1      -0.683   8.240  13.429  1.00  0.00     0.114 C 
BRANCH  17  18
HETATM   18  C19 UNL     1      -2.036   8.910  13.284  1.00  0.00     0.218 C 
HETATM   19  O3  UNL     1      -2.549   9.184  12.205  1.00  0.00    -0.274 OA
HETATM   20  N3  UNL     1      -2.636   9.159  14.500  1.00  0.00    -0.353 N 
HETATM   21  H28 UNL     1      -2.274   8.667  15.306  1.00  0.00     0.163 HD
BRANCH  20  22
HETATM   22  C20 UNL     1      -4.002   9.653  14.592  1.00  0.00     0.113 C 
HETATM   23  C21 UNL     1      -4.058  10.851  15.542  1.00  0.00     0.037 C 
BRANCH  22  24
HETATM   24  C22 UNL     1      -4.927   8.513  14.983  1.00  0.00    -0.036 A 
HETATM   25  C23 UNL     1      -4.380   7.238  15.211  1.00  0.00     0.009 A 
HETATM   26  C24 UNL     1      -5.190   6.166  15.587  1.00  0.00     0.001 A 
HETATM   27  C25 UNL     1      -6.559   6.352  15.753  1.00  0.00     0.000 A 
HETATM   28  C26 UNL     1      -7.116   7.613  15.551  1.00  0.00     0.001 A 
HETATM   29  C27 UNL     1      -6.307   8.687  15.173  1.00  0.00     0.009 A 
ENDBRANCH  22  24
ENDBRANCH  20  22
ENDBRANCH  17  18
ENDBRANCH  15  17
BRANCH   1  30
HETATM   30  N1  UNL     1      -3.799   4.142  12.787  1.00  0.00    -0.367 N 
HETATM   31  H6  UNL     1      -3.920   3.930  13.770  1.00  0.00     0.161 HD
BRANCH  30  32
HETATM   32  C3  UNL     1      -4.416   3.192  11.889  1.00  0.00     0.148 C 
BRANCH  32  33
HETATM   33  C2  UNL     1      -5.889   3.220  12.173  1.00  0.00    -0.018 C 
HETATM   34  C1  UNL     1      -6.547   4.260  12.702  1.00  0.00     0.008 C 
ENDBRANCH  32  33
ENDBRANCH  30  32
ENDBRANCH   1  30
BRANCH   8  35
HETATM   35  C11 UNL     1       3.498   5.078   9.452  1.00  0.00     0.176 C 
BRANCH  35  36
HETATM   36  O1  UNL     1       3.324   4.952   8.046  1.00  0.00    -0.400 OA
HETATM   37  H15 UNL     1       3.712   4.094   7.787  1.00  0.00     0.209 HD
ENDBRANCH  35  36
ENDBRANCH   8  35
BRANCH  10  38
HETATM   38  O2  UNL     1       4.576   6.359  11.847  1.00  0.00    -0.395 OA
HETATM   39  H17 UNL     1       4.465   5.419  11.591  1.00  0.00     0.210 HD
ENDBRANCH  10  38
TORSDOF 10
ENDMDL
MODEL 6
REMARK minimizedAffinity -8.25592995
REMARK  10 active torsions:
REMARK  status: ('A' for Active; 'I' for Inactive)
REMARK    1  A    between atoms: C2_2  and  C3_3 
REMARK    2  A    between atoms: C3_3  and  N1_4 
REMARK    3  A    between atoms: N1_4  and  C4_5 
REMARK    4  A    between atoms: C9_12  and  C11_14 
REMARK    5  A    between atoms: C11_14  and  O1_15 
REMARK    6  A    between atoms: C12_16  and  O2_17 
REMARK    7  A    between atoms: C17_22  and  C18_23 
REMARK    8  A    between atoms: C18_23  and  C19_24 
REMARK       I    between atoms: C19_24  and  N3_26 
REMARK    9  A    between atoms: N3_26  and  C20_27 
REMARK   10  A    between atoms: C20_27  and  C22_29 
ROOT
HETATM    1  C4  UNL     1      -3.995   3.814  12.458  1.00  0.00     0.145 A 
HETATM    2  N2  UNL     1      -3.665   4.857  13.186  1.00  0.00    -0.339 N 
ATOM      3  H2  UNL     1      -4.223   5.231  13.953  1.00  0.00     0.168 HD
HETATM    4  C5  UNL     1      -2.457   5.376  12.763  1.00  0.00     0.030 A 
HETATM    5  C6  UNL     1      -1.899   4.728  11.678  1.00  0.00     0.009 A 
HETATM    6  C7  UNL     1      -0.614   5.092  11.003  1.00  0.00     0.054 C 
HETATM    7  C8  UNL     1      -0.215   6.531  11.430  1.00  0.00     0.012 C 
HETATM    8  C9  UNL     1       1.030   7.190  10.698  1.00  0.00     0.008 C 
HETATM    9  C10 UNL     1       0.553   8.535  10.067  1.00  0.00     0.020 C 
HETATM   10  C12 UNL     1       2.191   7.526  11.674  1.00  0.00     0.128 C 
HETATM   11  C13 UNL     1       1.765   8.280  12.937  1.00  0.00     0.033 C 
HETATM   12  C14 UNL     1       0.323   8.043  13.397  1.00  0.00     0.013 C 
HETATM   13  C15 UNL     1      -0.278   6.677  13.015  1.00  0.00    -0.030 C 
HETATM   14  C16 UNL     1       0.494   5.552  13.760  1.00  0.00     0.016 C 
HETATM   15  C17 UNL     1      -1.832   6.596  13.428  1.00  0.00     0.054 C 
HETATM   16  S1  UNL     1      -2.873   3.417  11.207  1.00  0.00    -0.057 SA
ENDROOT
BRANCH  15  17
HETATM   17  C18 UNL     1      -2.114   6.610  14.946  1.00  0.00     0.114 C 
BRANCH  17  18
HETATM   18  C19 UNL     1      -3.089   7.687  15.377  1.00  0.00     0.218 C 
HETATM   19  O3  UNL     1      -2.900   8.439  16.327  1.00  0.00    -0.274 OA
HETATM   20  N3  UNL     1      -4.206   7.743  14.570  1.00  0.00    -0.353 N 
HETATM   21  H28 UNL     1      -4.154   7.281  13.672  1.00  0.00     0.163 HD
BRANCH  20  22
HETATM   22  C20 UNL     1      -5.196   8.801  14.707  1.00  0.00     0.113 C 
HETATM   23  C21 UNL     1      -4.643   9.918  15.594  1.00  0.00     0.037 C 
BRANCH  22  24
HETATM   24  C22 UNL     1      -6.504   8.209  15.203  1.00  0.00    -0.036 A 
HETATM   25  C23 UNL     1      -6.498   6.925  15.775  1.00  0.00     0.009 A 
HETATM   26  C24 UNL     1      -7.674   6.349  16.258  1.00  0.00     0.001 A 
HETATM   27  C25 UNL     1      -8.873   7.051  16.190  1.00  0.00     0.000 A 
HETATM   28  C26 UNL     1      -8.895   8.334  15.646  1.00  0.00     0.001 A 
HETATM   29  C27 UNL     1      -7.719   8.911  15.160  1.00  0.00     0.009 A 
ENDBRANCH  22  24
ENDBRANCH  20  22
ENDBRANCH  17  18
ENDBRANCH  15  17
BRANCH   1  30
HETATM   30  N1  UNL     1      -5.115   3.074  12.619  1.00  0.00    -0.367 N 
HETATM   31  H6  UNL     1      -4.983   2.070  12.601  1.00  0.00     0.161 HD
BRANCH  30  32
HETATM   32  C3  UNL     1      -6.324   3.531  11.975  1.00  0.00     0.148 C 
BRANCH  32  33
HETATM   33  C2  UNL     1      -7.191   4.121  13.046  1.00  0.00    -0.018 C 
HETATM   34  C1  UNL     1      -8.169   5.014  12.836  1.00  0.00     0.008 C 
ENDBRANCH  32  33
ENDBRANCH  30  32
ENDBRANCH   1  30
BRANCH   8  35
HETATM   35  C11 UNL     1       1.570   6.363   9.498  1.00  0.00     0.176 C 
BRANCH  35  36
HETATM   36  O1  UNL     1       2.253   5.195   9.934  1.00  0.00    -0.400 OA
HETATM   37  H15 UNL     1       2.550   4.723   9.132  1.00  0.00     0.209 HD
ENDBRANCH  35  36
ENDBRANCH   8  35
BRANCH  10  38
HETATM   38  O2  UNL     1       2.932   6.377  12.084  1.00  0.00    -0.395 OA
HETATM   39  H17 UNL     1       2.825   5.687  11.396  1.00  0.00     0.210 HD
ENDBRANCH  10  38
TORSDOF 10
ENDMDL
MODEL 7
REMARK minimizedAffinity -8.1760025
REMARK  10 active torsions:
REMARK  status: ('A' for Active; 'I' for Inactive)
REMARK    1  A    between atoms: C2_2  and  C3_3 
REMARK    2  A    between atoms: C3_3  and  N1_4 
REMARK    3  A    between atoms: N1_4  and  C4_5 
REMARK    4  A    between atoms: C9_12  and  C11_14 
REMARK    5  A    between atoms: C11_14  and  O1_15 
REMARK    6  A    between atoms: C12_16  and  O2_17 
REMARK    7  A    between atoms: C17_22  and  C18_23 
REMARK    8  A    between atoms: C18_23  and  C19_24 
REMARK       I    between atoms: C19_24  and  N3_26 
REMARK    9  A    between atoms: N3_26  and  C20_27 
REMARK   10  A    between atoms: C20_27  and  C22_29 
ROOT
HETATM    1  C4  UNL     1      -2.533   4.980  12.558  1.00  0.00     0.145 A 
HETATM    2  N2  UNL     1      -2.095   6.214  12.455  1.00  0.00    -0.339 N 
ATOM      3  H2  UNL     1      -2.629   7.045  12.708  1.00  0.00     0.168 HD
HETATM    4  C5  UNL     1      -0.807   6.226  11.953  1.00  0.00     0.030 A 
HETATM    5  C6  UNL     1      -0.297   4.981  11.645  1.00  0.00     0.009 A 
HETATM    6  C7  UNL     1       1.056   4.704  11.067  1.00  0.00     0.054 C 
HETATM    7  C8  UNL     1       1.632   6.025  10.489  1.00  0.00     0.012 C 
HETATM    8  C9  UNL     1       2.990   5.933   9.670  1.00  0.00     0.008 C 
HETATM    9  C10 UNL     1       2.734   6.543   8.257  1.00  0.00     0.020 C 
HETATM   10  C12 UNL     1       4.140   6.748  10.322  1.00  0.00     0.128 C 
HETATM   11  C13 UNL     1       3.766   8.181  10.711  1.00  0.00     0.033 C 
HETATM   12  C14 UNL     1       2.286   8.420  11.024  1.00  0.00     0.013 C 
HETATM   13  C15 UNL     1       1.518   7.197  11.562  1.00  0.00    -0.030 C 
HETATM   14  C16 UNL     1       2.090   6.805  12.953  1.00  0.00     0.016 C 
HETATM   15  C17 UNL     1      -0.049   7.528  11.725  1.00  0.00     0.054 C 
HETATM   16  S1  UNL     1      -1.422   3.767  12.032  1.00  0.00    -0.057 SA
ENDROOT
BRANCH  15  17
HETATM   17  C18 UNL     1      -0.395   8.573  12.807  1.00  0.00     0.114 C 
BRANCH  17  18
HETATM   18  C19 UNL     1      -0.992   7.976  14.067  1.00  0.00     0.218 C 
HETATM   19  O3  UNL     1      -0.430   7.129  14.753  1.00  0.00    -0.274 OA
HETATM   20  N3  UNL     1      -2.230   8.504  14.367  1.00  0.00    -0.353 N 
HETATM   21  H28 UNL     1      -2.489   9.368  13.911  1.00  0.00     0.163 HD
BRANCH  20  22
HETATM   22  C20 UNL     1      -2.914   8.189  15.612  1.00  0.00     0.113 C 
HETATM   23  C21 UNL     1      -4.203   7.420  15.316  1.00  0.00     0.037 C 
BRANCH  22  24
HETATM   24  C22 UNL     1      -3.126   9.464  16.410  1.00  0.00    -0.036 A 
HETATM   25  C23 UNL     1      -3.957  10.468  15.884  1.00  0.00     0.009 A 
HETATM   26  C24 UNL     1      -4.193  11.648  16.590  1.00  0.00     0.001 A 
HETATM   27  C25 UNL     1      -3.612  11.840  17.839  1.00  0.00     0.000 A 
HETATM   28  C26 UNL     1      -2.802  10.848  18.387  1.00  0.00     0.001 A 
HETATM   29  C27 UNL     1      -2.564   9.666  17.680  1.00  0.00     0.009 A 
ENDBRANCH  22  24
ENDBRANCH  20  22
ENDBRANCH  17  18
ENDBRANCH  15  17
BRANCH   1  30
HETATM   30  N1  UNL     1      -3.752   4.622  13.022  1.00  0.00    -0.367 N 
HETATM   31  H6  UNL     1      -3.796   4.392  14.007  1.00  0.00     0.161 HD
BRANCH  30  32
HETATM   32  C3  UNL     1      -4.580   3.794  12.176  1.00  0.00     0.148 C 
BRANCH  32  33
HETATM   33  C2  UNL     1      -5.950   3.783  12.785  1.00  0.00    -0.018 C 
HETATM   34  C1  UNL     1      -6.452   4.755  13.560  1.00  0.00     0.008 C 
ENDBRANCH  32  33
ENDBRANCH  30  32
ENDBRANCH   1  30
BRANCH   8  35
HETATM   35  C11 UNL     1       3.462   4.479   9.392  1.00  0.00     0.176 C 
BRANCH  35  36
HETATM   36  O1  UNL     1       2.846   3.551  10.275  1.00  0.00    -0.400 OA
HETATM   37  H15 UNL     1       3.179   2.665  10.034  1.00  0.00     0.209 HD
ENDBRANCH  35  36
ENDBRANCH   8  35
BRANCH  10  38
HETATM   38  O2  UNL     1       4.694   6.116  11.476  1.00  0.00    -0.395 OA
HETATM   39  H17 UNL     1       4.522   5.153  11.405  1.00  0.00     0.210 HD
ENDBRANCH  10  38
TORSDOF 10
ENDMDL
MODEL 8
REMARK minimizedAffinity -8.05082893
REMARK  10 active torsions:
REMARK  status: ('A' for Active; 'I' for Inactive)
REMARK    1  A    between atoms: C2_2  and  C3_3 
REMARK    2  A    between atoms: C3_3  and  N1_4 
REMARK    3  A    between atoms: N1_4  and  C4_5 
REMARK    4  A    between atoms: C9_12  and  C11_14 
REMARK    5  A    between atoms: C11_14  and  O1_15 
REMARK    6  A    between atoms: C12_16  and  O2_17 
REMARK    7  A    between atoms: C17_22  and  C18_23 
REMARK    8  A    between atoms: C18_23  and  C19_24 
REMARK       I    between atoms: C19_24  and  N3_26 
REMARK    9  A    between atoms: N3_26  and  C20_27 
REMARK   10  A    between atoms: C20_27  and  C22_29 
ROOT
HETATM    1  C4  UNL     1      -2.971   4.165  12.347  1.00  0.00     0.145 A 
HETATM    2  N2  UNL     1      -2.744   5.411  12.697  1.00  0.00    -0.339 N 
ATOM      3  H2  UNL     1      -3.411   6.010  13.183  1.00  0.00     0.168 HD
HETATM    4  C5  UNL     1      -1.472   5.793  12.315  1.00  0.00     0.030 A 
HETATM    5  C6  UNL     1      -0.759   4.825  11.636  1.00  0.00     0.009 A 
HETATM    6  C7  UNL     1       0.625   4.977  11.087  1.00  0.00     0.054 C 
HETATM    7  C8  UNL     1       0.978   6.488  11.031  1.00  0.00     0.012 C 
HETATM    8  C9  UNL     1       2.338   6.893  10.320  1.00  0.00     0.008 C 
HETATM    9  C10 UNL     1       1.997   7.907   9.184  1.00  0.00     0.020 C 
HETATM   10  C12 UNL     1       3.332   7.599  11.283  1.00  0.00     0.128 C 
HETATM   11  C13 UNL     1       2.721   8.734  12.110  1.00  0.00     0.033 C 
HETATM   12  C14 UNL     1       1.219   8.620  12.389  1.00  0.00     0.013 C 
HETATM   13  C15 UNL     1       0.662   7.184  12.429  1.00  0.00    -0.030 C 
HETATM   14  C16 UNL     1       1.280   6.428  13.638  1.00  0.00     0.016 C 
HETATM   15  C17 UNL     1      -0.940   7.193  12.591  1.00  0.00     0.054 C 
HETATM   16  S1  UNL     1      -1.669   3.394  11.514  1.00  0.00    -0.057 SA
ENDROOT
BRANCH  15  17
HETATM   17  C18 UNL     1      -1.464   7.733  13.940  1.00  0.00     0.114 C 
BRANCH  17  18
HETATM   18  C19 UNL     1      -1.523   9.246  14.011  1.00  0.00     0.218 C 
HETATM   19  O3  UNL     1      -1.993   9.953  13.127  1.00  0.00    -0.274 OA
HETATM   20  N3  UNL     1      -1.008   9.741  15.192  1.00  0.00    -0.353 N 
HETATM   21  H28 UNL     1      -0.896   9.090  15.958  1.00  0.00     0.163 HD
BRANCH  20  22
HETATM   22  C20 UNL     1      -1.106  11.151  15.538  1.00  0.00     0.113 C 
HETATM   23  C21 UNL     1       0.293  11.732  15.750  1.00  0.00     0.037 C 
BRANCH  22  24
HETATM   24  C22 UNL     1      -2.030  11.316  16.732  1.00  0.00    -0.036 A 
HETATM   25  C23 UNL     1      -2.649  12.559  16.949  1.00  0.00     0.009 A 
HETATM   26  C24 UNL     1      -3.518  12.751  18.025  1.00  0.00     0.001 A 
HETATM   27  C25 UNL     1      -3.792  11.700  18.894  1.00  0.00     0.000 A 
HETATM   28  C26 UNL     1      -3.205  10.454  18.683  1.00  0.00     0.001 A 
HETATM   29  C27 UNL     1      -2.334  10.262  17.608  1.00  0.00     0.009 A 
ENDBRANCH  22  24
ENDBRANCH  20  22
ENDBRANCH  17  18
ENDBRANCH  15  17
BRANCH   1  30
HETATM   30  N1  UNL     1      -4.117   3.486  12.582  1.00  0.00    -0.367 N 
HETATM   31  H6  UNL     1      -4.321   2.734  11.935  1.00  0.00     0.161 HD
BRANCH  30  32
HETATM   32  C3  UNL     1      -5.274   4.241  13.006  1.00  0.00     0.148 C 
BRANCH  32  33
HETATM   33  C2  UNL     1      -6.478   3.535  12.460  1.00  0.00    -0.018 C 
HETATM   34  C1  UNL     1      -7.430   2.956  13.205  1.00  0.00     0.008 C 
ENDBRANCH  32  33
ENDBRANCH  30  32
ENDBRANCH   1  30
BRANCH   8  35
HETATM   35  C11 UNL     1       3.049   5.717   9.595  1.00  0.00     0.176 C 
BRANCH  35  36
HETATM   36  O1  UNL     1       2.661   5.633   8.229  1.00  0.00    -0.400 OA
HETATM   37  H15 UNL     1       3.152   4.886   7.839  1.00  0.00     0.209 HD
ENDBRANCH  35  36
ENDBRANCH   8  35
BRANCH  10  38
HETATM   38  O2  UNL     1       3.974   6.701  12.187  1.00  0.00    -0.395 OA
HETATM   39  H17 UNL     1       3.966   5.808  11.782  1.00  0.00     0.210 HD
ENDBRANCH  10  38
TORSDOF 10
ENDMDL
MODEL 9
REMARK minimizedAffinity -8.03632545
REMARK  10 active torsions:
REMARK  status: ('A' for Active; 'I' for Inactive)
REMARK    1  A    between atoms: C2_2  and  C3_3 
REMARK    2  A    between atoms: C3_3  and  N1_4 
REMARK    3  A    between atoms: N1_4  and  C4_5 
REMARK    4  A    between atoms: C9_12  and  C11_14 
REMARK    5  A    between atoms: C11_14  and  O1_15 
REMARK    6  A    between atoms: C12_16  and  O2_17 
REMARK    7  A    between atoms: C17_22  and  C18_23 
REMARK    8  A    between atoms: C18_23  and  C19_24 
REMARK       I    between atoms: C19_24  and  N3_26 
REMARK    9  A    between atoms: N3_26  and  C20_27 
REMARK   10  A    between atoms: C20_27  and  C22_29 
ROOT
HETATM    1  C4  UNL     1      -3.066   4.358  12.548  1.00  0.00     0.145 A 
HETATM    2  N2  UNL     1      -2.789   5.594  12.899  1.00  0.00    -0.339 N 
ATOM      3  H2  UNL     1      -3.416   6.204  13.423  1.00  0.00     0.168 HD
HETATM    4  C5  UNL     1      -1.529   5.948  12.458  1.00  0.00     0.030 A 
HETATM    5  C6  UNL     1      -0.875   4.970  11.735  1.00  0.00     0.009 A 
HETATM    6  C7  UNL     1       0.484   5.093  11.120  1.00  0.00     0.054 C 
HETATM    7  C8  UNL     1       0.872   6.596  11.061  1.00  0.00     0.012 C 
HETATM    8  C9  UNL     1       2.205   6.975  10.287  1.00  0.00     0.008 C 
HETATM    9  C10 UNL     1       1.834   8.010   9.179  1.00  0.00     0.020 C 
HETATM   10  C12 UNL     1       3.263   7.646  11.206  1.00  0.00     0.128 C 
HETATM   11  C13 UNL     1       2.723   8.786  12.074  1.00  0.00     0.033 C 
HETATM   12  C14 UNL     1       1.234   8.706  12.426  1.00  0.00     0.013 C 
HETATM   13  C15 UNL     1       0.643   7.285  12.479  1.00  0.00    -0.030 C 
HETATM   14  C16 UNL     1       1.301   6.500  13.648  1.00  0.00     0.016 C 
HETATM   15  C17 UNL     1      -0.948   7.331  12.721  1.00  0.00     0.054 C 
HETATM   16  S1  UNL     1      -1.826   3.564  11.644  1.00  0.00    -0.057 SA
ENDROOT
BRANCH  15  17
HETATM   17  C18 UNL     1      -1.391   7.870  14.099  1.00  0.00     0.114 C 
BRANCH  17  18
HETATM   18  C19 UNL     1      -0.241   8.123  15.055  1.00  0.00     0.218 C 
HETATM   19  O3  UNL     1       0.320   7.242  15.697  1.00  0.00    -0.274 OA
HETATM   20  N3  UNL     1       0.117   9.454  15.109  1.00  0.00    -0.353 N 
HETATM   21  H28 UNL     1      -0.209  10.054  14.364  1.00  0.00     0.163 HD
BRANCH  20  22
HETATM   22  C20 UNL     1       1.293   9.900  15.842  1.00  0.00     0.113 C 
HETATM   23  C21 UNL     1       2.364   8.807  15.820  1.00  0.00     0.037 C 
BRANCH  22  24
HETATM   24  C22 UNL     1       0.884  10.336  17.238  1.00  0.00    -0.036 A 
HETATM   25  C23 UNL     1      -0.473  10.585  17.505  1.00  0.00     0.009 A 
HETATM   26  C24 UNL     1      -0.896  10.972  18.778  1.00  0.00     0.001 A 
HETATM   27  C25 UNL     1       0.029  11.103  19.808  1.00  0.00     0.000 A 
HETATM   28  C26 UNL     1       1.376  10.840  19.568  1.00  0.00     0.001 A 
HETATM   29  C27 UNL     1       1.801  10.454  18.295  1.00  0.00     0.009 A 
ENDBRANCH  22  24
ENDBRANCH  20  22
ENDBRANCH  17  18
ENDBRANCH  15  17
BRANCH   1  30
HETATM   30  N1  UNL     1      -4.215   3.706  12.833  1.00  0.00    -0.367 N 
HETATM   31  H6  UNL     1      -4.390   2.869  12.291  1.00  0.00     0.161 HD
BRANCH  30  32
HETATM   32  C3  UNL     1      -5.391   4.499  13.106  1.00  0.00     0.148 C 
BRANCH  32  33
HETATM   33  C2  UNL     1      -6.570   3.710  12.620  1.00  0.00    -0.018 C 
HETATM   34  C1  UNL     1      -7.516   3.182  13.409  1.00  0.00     0.008 C 
ENDBRANCH  32  33
ENDBRANCH  30  32
ENDBRANCH   1  30
BRANCH   8  35
HETATM   35  C11 UNL     1       2.849   5.790   9.516  1.00  0.00     0.176 C 
BRANCH  35  36
HETATM   36  O1  UNL     1       2.483   5.799   8.142  1.00  0.00    -0.400 OA
HETATM   37  H15 UNL     1       2.931   5.039   7.723  1.00  0.00     0.209 HD
ENDBRANCH  35  36
ENDBRANCH   8  35
BRANCH  10  38
HETATM   38  O2  UNL     1       3.926   6.721  12.069  1.00  0.00    -0.395 OA
HETATM   39  H17 UNL     1       3.875   5.833  11.656  1.00  0.00     0.210 HD
ENDBRANCH  10  38
TORSDOF 10
ENDMDL
