MODEL 1
REMARK minimizedAffinity -10.0067186
REMARK  7 active torsions:
REMARK  status: ('A' for Active; 'I' for Inactive)
REMARK    1  A    between atoms: C2_2  and  C30_32 
REMARK    2  A    between atoms: C3_3  and  C4_4 
REMARK    3  A    between atoms: C4_4  and  C5_5 
REMARK    4  A    between atoms: C5_5  and  C6_6 
REMARK    5  A    between atoms: C6_6  and  C8_8 
REMARK    6  A    between atoms: C10_10  and  O1_11 
REMARK    7  A    between atoms: C30_32  and  O4_34 
ROOT
HETATM    1  C8  UNL     1      -5.753  48.856 -22.136  1.00  0.00     0.001 C 
HETATM    2  C9  UNL     1      -5.926  47.791 -23.248  1.00  0.00     0.038 C 
HETATM    3  C10 UNL     1      -4.881  48.107 -24.342  1.00  0.00     0.128 C 
HETATM    4  C11 UNL     1      -3.888  49.094 -23.678  1.00  0.00    -0.006 C 
HETATM    5  C12 UNL     1      -2.877  48.212 -22.869  1.00  0.00     0.019 C 
HETATM    6  C13 UNL     1      -3.101  50.034 -24.633  1.00  0.00     0.006 C 
HETATM    7  C14 UNL     1      -2.037  49.311 -25.473  1.00  0.00     0.007 C 
HETATM    8  C15 UNL     1      -1.360  50.287 -26.431  1.00  0.00     0.007 C 
HETATM    9  C16 UNL     1      -0.501  51.293 -25.649  1.00  0.00     0.010 C 
HETATM   10  C17 UNL     1       0.255  52.358 -26.516  1.00  0.00     0.018 C 
HETATM   11  C18 UNL     1       1.720  51.919 -26.705  1.00  0.00     0.023 C 
HETATM   12  C19 UNL     1      -0.371  52.553 -27.913  1.00  0.00     0.023 C 
HETATM   13  C20 UNL     1       0.294  53.736 -25.825  1.00  0.00     0.135 C 
HETATM   14  O2  UNL     1       0.330  54.787 -26.471  1.00  0.00    -0.297 OA
HETATM   15  C21 UNL     1       0.410  53.811 -24.316  1.00  0.00     0.080 C 
HETATM   16  C22 UNL     1      -0.256  52.662 -23.581  1.00  0.00     0.018 C 
HETATM   17  C23 UNL     1      -1.239  51.940 -24.478  1.00  0.00    -0.026 A 
HETATM   18  C24 UNL     1      -2.583  52.581 -24.681  1.00  0.00     0.021 A 
HETATM   19  C25 UNL     1      -2.512  51.272 -23.897  1.00  0.00    -0.027 A 
HETATM   20  C26 UNL     1      -2.730  51.369 -22.381  1.00  0.00     0.011 C 
HETATM   21  C27 UNL     1      -3.995  50.738 -21.778  1.00  0.00     0.011 C 
HETATM   22  C28 UNL     1      -4.853  49.957 -22.780  1.00  0.00    -0.030 C 
HETATM   23  C29 UNL     1      -5.712  50.988 -23.555  1.00  0.00     0.016 C 
ENDROOT
BRANCH   1  24
HETATM   24  C6  UNL     1      -7.002  49.212 -21.276  1.00  0.00    -0.013 C 
HETATM   25  C7  UNL     1      -6.601  49.241 -19.787  1.00  0.00     0.010 C 
BRANCH  24  26
HETATM   26  C5  UNL     1      -8.342  48.450 -21.424  1.00  0.00     0.008 C 
BRANCH  26  27
HETATM   27  C4  UNL     1      -8.512  47.532 -22.634  1.00  0.00     0.028 C 
BRANCH  27  28
HETATM   28  C3  UNL     1      -8.678  48.331 -23.900  1.00  0.00    -0.013 C 
HETATM   29  C2  UNL     1      -9.347  47.984 -25.019  1.00  0.00     0.008 C 
HETATM   30  C1  UNL     1     -10.063  46.685 -25.252  1.00  0.00     0.055 C 
BRANCH  29  31
HETATM   31  C30 UNL     1      -9.420  48.914 -26.178  1.00  0.00     0.171 C 
HETATM   32  O3  UNL     1      -9.192  48.616 -27.338  1.00  0.00    -0.646 OA
BRANCH  31  33
HETATM   33  O4  UNL     1      -9.780  50.168 -25.855  1.00  0.00    -0.773 OA
HETATM   34  H46 UNL     1      -9.773  50.639 -26.716  1.00  0.00     0.167 HD
ENDBRANCH  31  33
ENDBRANCH  29  31
ENDBRANCH  27  28
ENDBRANCH  26  27
ENDBRANCH  24  26
ENDBRANCH   1  24
BRANCH   3  35
HETATM   35  O1  UNL     1      -5.528  48.678 -25.473  1.00  0.00    -0.395 OA
HETATM   36  H17 UNL     1      -6.174  48.032 -25.803  1.00  0.00     0.210 HD
ENDBRANCH   3  35
TORSDOF 7
ENDMDL
MODEL 2
REMARK minimizedAffinity -9.90720081
REMARK  7 active torsions:
REMARK  status: ('A' for Active; 'I' for Inactive)
REMARK    1  A    between atoms: C2_2  and  C30_32 
REMARK    2  A    between atoms: C3_3  and  C4_4 
REMARK    3  A    between atoms: C4_4  and  C5_5 
REMARK    4  A    between atoms: C5_5  and  C6_6 
REMARK    5  A    between atoms: C6_6  and  C8_8 
REMARK    6  A    between atoms: C10_10  and  O1_11 
REMARK    7  A    between atoms: C30_32  and  O4_34 
ROOT
HETATM    1  C8  UNL     1      -0.326  50.573 -21.298  1.00  0.00     0.001 C 
HETATM    2  C9  UNL     1      -0.484  50.080 -19.838  1.00  0.00     0.038 C 
HETATM    3  C10 UNL     1      -1.826  49.317 -19.762  1.00  0.00     0.128 C 
HETATM    4  C11 UNL     1      -2.225  49.055 -21.236  1.00  0.00    -0.006 C 
HETATM    5  C12 UNL     1      -1.440  47.773 -21.676  1.00  0.00     0.019 C 
HETATM    6  C13 UNL     1      -3.739  48.853 -21.519  1.00  0.00     0.006 C 
HETATM    7  C14 UNL     1      -4.297  47.525 -20.987  1.00  0.00     0.007 C 
HETATM    8  C15 UNL     1      -5.798  47.435 -21.243  1.00  0.00     0.007 C 
HETATM    9  C16 UNL     1      -6.077  47.302 -22.748  1.00  0.00     0.010 C 
HETATM   10  C17 UNL     1      -7.588  47.200 -23.152  1.00  0.00     0.018 C 
HETATM   11  C18 UNL     1      -7.953  45.723 -23.399  1.00  0.00     0.023 C 
HETATM   12  C19 UNL     1      -8.540  47.755 -22.072  1.00  0.00     0.023 C 
HETATM   13  C20 UNL     1      -7.881  47.951 -24.466  1.00  0.00     0.135 C 
HETATM   14  O2  UNL     1      -8.984  48.457 -24.694  1.00  0.00    -0.297 OA
HETATM   15  C21 UNL     1      -6.835  47.976 -25.562  1.00  0.00     0.080 C 
HETATM   16  C22 UNL     1      -5.404  47.950 -25.058  1.00  0.00     0.018 C 
HETATM   17  C23 UNL     1      -5.335  48.335 -23.596  1.00  0.00    -0.026 A 
HETATM   18  C24 UNL     1      -5.418  49.799 -23.264  1.00  0.00     0.021 A 
HETATM   19  C25 UNL     1      -4.099  49.071 -23.018  1.00  0.00    -0.027 A 
HETATM   20  C26 UNL     1      -2.950  49.387 -23.986  1.00  0.00     0.011 C 
HETATM   21  C27 UNL     1      -1.722  50.139 -23.449  1.00  0.00     0.011 C 
HETATM   22  C28 UNL     1      -1.738  50.381 -21.935  1.00  0.00    -0.030 C 
HETATM   23  C29 UNL     1      -2.634  51.618 -21.675  1.00  0.00     0.016 C 
ENDROOT
BRANCH   1  24
HETATM   24  C6  UNL     1       0.518  51.859 -21.540  1.00  0.00    -0.013 C 
HETATM   25  C7  UNL     1       0.503  52.723 -20.262  1.00  0.00     0.010 C 
BRANCH  24  26
HETATM   26  C5  UNL     1       0.288  52.771 -22.770  1.00  0.00     0.008 C 
BRANCH  26  27
HETATM   27  C4  UNL     1       0.874  52.325 -24.109  1.00  0.00     0.028 C 
BRANCH  27  28
HETATM   28  C3  UNL     1       0.337  53.162 -25.240  1.00  0.00    -0.013 C 
HETATM   29  C2  UNL     1       0.438  52.930 -26.565  1.00  0.00     0.008 C 
HETATM   30  C1  UNL     1       1.147  51.772 -27.207  1.00  0.00     0.055 C 
BRANCH  29  31
HETATM   31  C30 UNL     1      -0.173  53.865 -27.548  1.00  0.00     0.171 C 
HETATM   32  O3  UNL     1      -0.322  55.064 -27.383  1.00  0.00    -0.646 OA
BRANCH  31  33
HETATM   33  O4  UNL     1      -0.563  53.281 -28.693  1.00  0.00    -0.773 OA
HETATM   34  H46 UNL     1      -0.940  54.023 -29.214  1.00  0.00     0.167 HD
ENDBRANCH  31  33
ENDBRANCH  29  31
ENDBRANCH  27  28
ENDBRANCH  26  27
ENDBRANCH  24  26
ENDBRANCH   1  24
BRANCH   3  35
HETATM   35  O1  UNL     1      -2.790  50.108 -19.079  1.00  0.00    -0.395 OA
HETATM   36  H17 UNL     1      -2.452  50.282 -18.184  1.00  0.00     0.210 HD
ENDBRANCH   3  35
TORSDOF 7
ENDMDL
MODEL 3
REMARK minimizedAffinity -9.79732895
REMARK  7 active torsions:
REMARK  status: ('A' for Active; 'I' for Inactive)
REMARK    1  A    between atoms: C2_2  and  C30_32 
REMARK    2  A    between atoms: C3_3  and  C4_4 
REMARK    3  A    between atoms: C4_4  and  C5_5 
REMARK    4  A    between atoms: C5_5  and  C6_6 
REMARK    5  A    between atoms: C6_6  and  C8_8 
REMARK    6  A    between atoms: C10_10  and  O1_11 
REMARK    7  A    between atoms: C30_32  and  O4_34 
ROOT
HETATM    1  C8  UNL     1      -4.116  49.917 -24.446  1.00  0.00     0.001 C 
HETATM    2  C9  UNL     1      -5.510  49.357 -24.066  1.00  0.00     0.038 C 
HETATM    3  C10 UNL     1      -5.502  49.122 -22.539  1.00  0.00     0.128 C 
HETATM    4  C11 UNL     1      -4.265  49.898 -22.019  1.00  0.00    -0.006 C 
HETATM    5  C12 UNL     1      -4.723  51.387 -21.858  1.00  0.00     0.019 C 
HETATM    6  C13 UNL     1      -3.647  49.402 -20.682  1.00  0.00     0.006 C 
HETATM    7  C14 UNL     1      -4.520  49.694 -19.452  1.00  0.00     0.007 C 
HETATM    8  C15 UNL     1      -3.880  49.116 -18.194  1.00  0.00     0.007 C 
HETATM    9  C16 UNL     1      -2.596  49.886 -17.847  1.00  0.00     0.010 C 
HETATM   10  C17 UNL     1      -1.833  49.393 -16.568  1.00  0.00     0.018 C 
HETATM   11  C18 UNL     1      -2.183  50.310 -15.379  1.00  0.00     0.023 C 
HETATM   12  C19 UNL     1      -2.187  47.944 -16.176  1.00  0.00     0.023 C 
HETATM   13  C20 UNL     1      -0.304  49.471 -16.748  1.00  0.00     0.135 C 
HETATM   14  O2  UNL     1       0.459  48.694 -16.167  1.00  0.00    -0.297 OA
HETATM   15  C21 UNL     1       0.296  50.598 -17.564  1.00  0.00     0.080 C 
HETATM   16  C22 UNL     1      -0.583  51.078 -18.705  1.00  0.00     0.018 C 
HETATM   17  C23 UNL     1      -1.651  50.058 -19.035  1.00  0.00    -0.026 A 
HETATM   18  C24 UNL     1      -1.238  48.872 -19.862  1.00  0.00     0.021 A 
HETATM   19  C25 UNL     1      -2.185  49.897 -20.482  1.00  0.00    -0.027 A 
HETATM   20  C26 UNL     1      -1.591  50.814 -21.559  1.00  0.00     0.011 C 
HETATM   21  C27 UNL     1      -2.082  50.662 -23.008  1.00  0.00     0.011 C 
HETATM   22  C28 UNL     1      -3.232  49.663 -23.186  1.00  0.00    -0.030 C 
HETATM   23  C29 UNL     1      -2.609  48.244 -23.226  1.00  0.00     0.016 C 
ENDROOT
BRANCH   1  24
HETATM   24  C6  UNL     1      -3.595  49.643 -25.888  1.00  0.00    -0.013 C 
HETATM   25  C7  UNL     1      -4.272  48.371 -26.438  1.00  0.00     0.010 C 
BRANCH  24  26
HETATM   26  C5  UNL     1      -2.083  49.592 -26.215  1.00  0.00     0.008 C 
BRANCH  26  27
HETATM   27  C4  UNL     1      -1.422  50.866 -26.740  1.00  0.00     0.028 C 
BRANCH  27  28
HETATM   28  C3  UNL     1       0.059  50.859 -26.470  1.00  0.00    -0.013 C 
HETATM   29  C2  UNL     1       1.037  51.444 -27.191  1.00  0.00     0.008 C 
HETATM   30  C1  UNL     1       0.852  52.224 -28.460  1.00  0.00     0.055 C 
BRANCH  29  31
HETATM   31  C30 UNL     1       2.459  51.345 -26.762  1.00  0.00     0.171 C 
HETATM   32  O3  UNL     1       2.882  50.609 -25.887  1.00  0.00    -0.646 OA
BRANCH  31  33
HETATM   33  O4  UNL     1       3.294  52.153 -27.437  1.00  0.00    -0.773 OA
HETATM   34  H46 UNL     1       4.169  51.968 -27.033  1.00  0.00     0.167 HD
ENDBRANCH  31  33
ENDBRANCH  29  31
ENDBRANCH  27  28
ENDBRANCH  26  27
ENDBRANCH  24  26
ENDBRANCH   1  24
BRANCH   3  35
HETATM   35  O1  UNL     1      -5.413  47.729 -22.268  1.00  0.00    -0.395 OA
HETATM   36  H17 UNL     1      -6.187  47.298 -22.669  1.00  0.00     0.210 HD
ENDBRANCH   3  35
TORSDOF 7
ENDMDL
MODEL 4
REMARK minimizedAffinity -9.75829506
REMARK  7 active torsions:
REMARK  status: ('A' for Active; 'I' for Inactive)
REMARK    1  A    between atoms: C2_2  and  C30_32 
REMARK    2  A    between atoms: C3_3  and  C4_4 
REMARK    3  A    between atoms: C4_4  and  C5_5 
REMARK    4  A    between atoms: C5_5  and  C6_6 
REMARK    5  A    between atoms: C6_6  and  C8_8 
REMARK    6  A    between atoms: C10_10  and  O1_11 
REMARK    7  A    between atoms: C30_32  and  O4_34 
ROOT
HETATM    1  C8  UNL     1      -5.447  48.828 -21.482  1.00  0.00     0.001 C 
HETATM    2  C9  UNL     1      -5.894  47.914 -22.652  1.00  0.00     0.038 C 
HETATM    3  C10 UNL     1      -5.027  48.290 -23.874  1.00  0.00     0.128 C 
HETATM    4  C11 UNL     1      -3.857  49.127 -23.297  1.00  0.00    -0.006 C 
HETATM    5  C12 UNL     1      -2.800  48.094 -22.778  1.00  0.00     0.019 C 
HETATM    6  C13 UNL     1      -3.168  50.121 -24.273  1.00  0.00     0.006 C 
HETATM    7  C14 UNL     1      -2.325  49.437 -25.360  1.00  0.00     0.007 C 
HETATM    8  C15 UNL     1      -1.742  50.474 -26.314  1.00  0.00     0.007 C 
HETATM    9  C16 UNL     1      -0.682  51.324 -25.597  1.00  0.00     0.010 C 
HETATM   10  C17 UNL     1       0.001  52.435 -26.467  1.00  0.00     0.018 C 
HETATM   11  C18 UNL     1       1.372  51.929 -26.959  1.00  0.00     0.023 C 
HETATM   12  C19 UNL     1      -0.834  52.832 -27.703  1.00  0.00     0.023 C 
HETATM   13  C20 UNL     1       0.271  53.715 -25.653  1.00  0.00     0.135 C 
HETATM   14  O2  UNL     1       0.284  54.831 -26.181  1.00  0.00    -0.297 OA
HETATM   15  C21 UNL     1       0.647  53.605 -24.189  1.00  0.00     0.080 C 
HETATM   16  C22 UNL     1       0.022  52.422 -23.473  1.00  0.00     0.018 C 
HETATM   17  C23 UNL     1      -1.155  51.874 -24.251  1.00  0.00    -0.026 A 
HETATM   18  C24 UNL     1      -2.457  52.618 -24.144  1.00  0.00     0.021 A 
HETATM   19  C25 UNL     1      -2.362  51.224 -23.527  1.00  0.00    -0.027 A 
HETATM   20  C26 UNL     1      -2.311  51.155 -21.995  1.00  0.00     0.011 C 
HETATM   21  C27 UNL     1      -3.504  50.539 -21.246  1.00  0.00     0.011 C 
HETATM   22  C28 UNL     1      -4.581  49.938 -22.156  1.00  0.00    -0.030 C 
HETATM   23  C29 UNL     1      -5.470  51.105 -22.654  1.00  0.00     0.016 C 
ENDROOT
BRANCH   1  24
HETATM   24  C6  UNL     1      -6.498  49.158 -20.382  1.00  0.00    -0.013 C 
HETATM   25  C7  UNL     1      -5.943  48.734 -19.006  1.00  0.00     0.010 C 
BRANCH  24  26
HETATM   26  C5  UNL     1      -7.973  48.699 -20.494  1.00  0.00     0.008 C 
BRANCH  26  27
HETATM   27  C4  UNL     1      -8.337  47.322 -19.938  1.00  0.00     0.028 C 
BRANCH  27  28
HETATM   28  C3  UNL     1      -9.080  47.444 -18.634  1.00  0.00    -0.013 C 
HETATM   29  C2  UNL     1     -10.402  47.639 -18.446  1.00  0.00     0.008 C 
HETATM   30  C1  UNL     1     -11.431  47.805 -19.527  1.00  0.00     0.055 C 
BRANCH  29  31
HETATM   31  C30 UNL     1     -10.969  47.720 -17.073  1.00  0.00     0.171 C 
HETATM   32  O3  UNL     1     -12.092  47.371 -16.752  1.00  0.00    -0.646 OA
BRANCH  31  33
HETATM   33  O4  UNL     1     -10.122  48.218 -16.157  1.00  0.00    -0.773 OA
HETATM   34  H46 UNL     1     -10.647  48.207 -15.328  1.00  0.00     0.167 HD
ENDBRANCH  31  33
ENDBRANCH  29  31
ENDBRANCH  27  28
ENDBRANCH  26  27
ENDBRANCH  24  26
ENDBRANCH   1  24
BRANCH   3  35
HETATM   35  O1  UNL     1      -5.806  49.031 -24.806  1.00  0.00    -0.395 OA
HETATM   36  H17 UNL     1      -6.550  48.470 -25.082  1.00  0.00     0.210 HD
ENDBRANCH   3  35
TORSDOF 7
ENDMDL
MODEL 5
REMARK minimizedAffinity -9.55228519
REMARK  7 active torsions:
REMARK  status: ('A' for Active; 'I' for Inactive)
REMARK    1  A    between atoms: C2_2  and  C30_32 
REMARK    2  A    between atoms: C3_3  and  C4_4 
REMARK    3  A    between atoms: C4_4  and  C5_5 
REMARK    4  A    between atoms: C5_5  and  C6_6 
REMARK    5  A    between atoms: C6_6  and  C8_8 
REMARK    6  A    between atoms: C10_10  and  O1_11 
REMARK    7  A    between atoms: C30_32  and  O4_34 
ROOT
HETATM    1  C8  UNL     1      -0.071  51.090 -20.877  1.00  0.00     0.001 C 
HETATM    2  C9  UNL     1      -0.115  51.529 -19.392  1.00  0.00     0.038 C 
HETATM    3  C10 UNL     1      -1.430  50.978 -18.797  1.00  0.00     0.128 C 
HETATM    4  C11 UNL     1      -1.926  49.926 -19.821  1.00  0.00    -0.006 C 
HETATM    5  C12 UNL     1      -1.147  48.606 -19.499  1.00  0.00     0.019 C 
HETATM    6  C13 UNL     1      -3.452  49.633 -19.830  1.00  0.00     0.006 C 
HETATM    7  C14 UNL     1      -3.941  48.863 -18.594  1.00  0.00     0.007 C 
HETATM    8  C15 UNL     1      -5.454  48.677 -18.645  1.00  0.00     0.007 C 
HETATM    9  C16 UNL     1      -5.835  47.710 -19.777  1.00  0.00     0.010 C 
HETATM   10  C17 UNL     1      -7.369  47.429 -19.942  1.00  0.00     0.018 C 
HETATM   11  C18 UNL     1      -7.718  46.086 -19.269  1.00  0.00     0.023 C 
HETATM   12  C19 UNL     1      -8.255  48.524 -19.313  1.00  0.00     0.023 C 
HETATM   13  C20 UNL     1      -7.770  47.295 -21.424  1.00  0.00     0.135 C 
HETATM   14  O2  UNL     1      -8.897  47.603 -21.823  1.00  0.00    -0.297 OA
HETATM   15  C21 UNL     1      -6.805  46.662 -22.406  1.00  0.00     0.080 C 
HETATM   16  C22 UNL     1      -5.341  46.899 -22.080  1.00  0.00     0.018 C 
HETATM   17  C23 UNL     1      -5.178  48.051 -21.113  1.00  0.00    -0.026 A 
HETATM   18  C24 UNL     1      -5.270  49.442 -21.678  1.00  0.00     0.021 A 
HETATM   19  C25 UNL     1      -3.921  48.958 -21.152  1.00  0.00    -0.027 A 
HETATM   20  C26 UNL     1      -2.851  48.635 -22.204  1.00  0.00     0.011 C 
HETATM   21  C27 UNL     1      -1.604  49.531 -22.284  1.00  0.00     0.011 C 
HETATM   22  C28 UNL     1      -1.519  50.599 -21.187  1.00  0.00    -0.030 C 
HETATM   23  C29 UNL     1      -2.421  51.781 -21.623  1.00  0.00     0.016 C 
ENDROOT
BRANCH   1  24
HETATM   24  C6  UNL     1       0.726  51.985 -21.872  1.00  0.00    -0.013 C 
HETATM   25  C7  UNL     1       1.012  53.348 -21.211  1.00  0.00     0.010 C 
BRANCH  24  26
HETATM   26  C5  UNL     1       0.248  52.219 -23.326  1.00  0.00     0.008 C 
BRANCH  26  27
HETATM   27  C4  UNL     1       0.674  53.513 -24.018  1.00  0.00     0.028 C 
BRANCH  27  28
HETATM   28  C3  UNL     1      -0.039  53.685 -25.333  1.00  0.00    -0.013 C 
HETATM   29  C2  UNL     1       0.226  53.075 -26.507  1.00  0.00     0.008 C 
HETATM   30  C1  UNL     1       1.332  52.092 -26.761  1.00  0.00     0.055 C 
BRANCH  29  31
HETATM   31  C30 UNL     1      -0.601  53.357 -27.712  1.00  0.00     0.171 C 
HETATM   32  O3  UNL     1      -1.655  53.971 -27.717  1.00  0.00    -0.646 OA
BRANCH  31  33
HETATM   33  O4  UNL     1      -0.086  52.877 -28.856  1.00  0.00    -0.773 OA
HETATM   34  H46 UNL     1      -0.745  53.141 -29.534  1.00  0.00     0.167 HD
ENDBRANCH  31  33
ENDBRANCH  29  31
ENDBRANCH  27  28
ENDBRANCH  26  27
ENDBRANCH  24  26
ENDBRANCH   1  24
BRANCH   3  35
HETATM   35  O1  UNL     1      -2.361  52.040 -18.627  1.00  0.00    -0.395 OA
HETATM   36  H17 UNL     1      -1.965  52.688 -18.021  1.00  0.00     0.210 HD
ENDBRANCH   3  35
TORSDOF 7
ENDMDL
MODEL 6
REMARK minimizedAffinity -9.49204636
REMARK  7 active torsions:
REMARK  status: ('A' for Active; 'I' for Inactive)
REMARK    1  A    between atoms: C2_2  and  C30_32 
REMARK    2  A    between atoms: C3_3  and  C4_4 
REMARK    3  A    between atoms: C4_4  and  C5_5 
REMARK    4  A    between atoms: C5_5  and  C6_6 
REMARK    5  A    between atoms: C6_6  and  C8_8 
REMARK    6  A    between atoms: C10_10  and  O1_11 
REMARK    7  A    between atoms: C30_32  and  O4_34 
ROOT
HETATM    1  C8  UNL     1      -2.653  48.609 -18.793  1.00  0.00     0.001 C 
HETATM    2  C9  UNL     1      -3.817  47.783 -19.397  1.00  0.00     0.038 C 
HETATM    3  C10 UNL     1      -3.872  48.115 -20.904  1.00  0.00     0.128 C 
HETATM    4  C11 UNL     1      -2.524  48.815 -21.213  1.00  0.00    -0.006 C 
HETATM    5  C12 UNL     1      -1.480  47.668 -21.433  1.00  0.00     0.019 C 
HETATM    6  C13 UNL     1      -2.503  49.771 -22.437  1.00  0.00     0.006 C 
HETATM    7  C14 UNL     1      -2.595  49.047 -23.789  1.00  0.00     0.007 C 
HETATM    8  C15 UNL     1      -2.638  50.055 -24.933  1.00  0.00     0.007 C 
HETATM    9  C16 UNL     1      -1.287  50.774 -25.063  1.00  0.00     0.010 C 
HETATM   10  C17 UNL     1      -1.193  51.843 -26.206  1.00  0.00     0.018 C 
HETATM   11  C18 UNL     1      -0.486  51.224 -27.428  1.00  0.00     0.023 C 
HETATM   12  C19 UNL     1      -2.573  52.361 -26.662  1.00  0.00     0.023 C 
HETATM   13  C20 UNL     1      -0.352  53.063 -25.783  1.00  0.00     0.135 C 
HETATM   14  O2  UNL     1      -0.564  54.189 -26.240  1.00  0.00    -0.297 OA
HETATM   15  C21 UNL     1       0.843  52.866 -24.871  1.00  0.00     0.080 C 
HETATM   16  C22 UNL     1       0.691  51.725 -23.882  1.00  0.00     0.018 C 
HETATM   17  C23 UNL     1      -0.760  51.321 -23.737  1.00  0.00    -0.026 A 
HETATM   18  C24 UNL     1      -1.630  52.182 -22.865  1.00  0.00     0.021 A 
HETATM   19  C25 UNL     1      -1.306  50.765 -22.396  1.00  0.00    -0.027 A 
HETATM   20  C26 UNL     1      -0.317  50.639 -21.230  1.00  0.00     0.011 C 
HETATM   21  C27 UNL     1      -0.834  50.116 -19.880  1.00  0.00     0.011 C 
HETATM   22  C28 UNL     1      -2.295  49.653 -19.897  1.00  0.00    -0.030 C 
HETATM   23  C29 UNL     1      -3.182  50.917 -19.770  1.00  0.00     0.016 C 
ENDROOT
BRANCH   1  24
HETATM   24  C6  UNL     1      -2.748  49.001 -17.289  1.00  0.00    -0.013 C 
HETATM   25  C7  UNL     1      -2.959  50.524 -17.174  1.00  0.00     0.010 C 
BRANCH  24  26
HETATM   26  C5  UNL     1      -1.680  48.559 -16.258  1.00  0.00     0.008 C 
BRANCH  26  27
HETATM   27  C4  UNL     1      -0.222  48.917 -16.544  1.00  0.00     0.028 C 
BRANCH  27  28
HETATM   28  C3  UNL     1       0.263  49.999 -15.616  1.00  0.00    -0.013 C 
HETATM   29  C2  UNL     1       0.653  51.251 -15.933  1.00  0.00     0.008 C 
HETATM   30  C1  UNL     1       0.712  51.834 -17.316  1.00  0.00     0.055 C 
BRANCH  29  31
HETATM   31  C30 UNL     1       1.091  52.200 -14.874  1.00  0.00     0.171 C 
HETATM   32  O3  UNL     1       0.383  52.642 -13.986  1.00  0.00    -0.646 OA
BRANCH  31  33
HETATM   33  O4  UNL     1       2.386  52.551 -14.953  1.00  0.00    -0.773 OA
HETATM   34  H46 UNL     1       2.502  53.170 -14.200  1.00  0.00     0.167 HD
ENDBRANCH  31  33
ENDBRANCH  29  31
ENDBRANCH  27  28
ENDBRANCH  26  27
ENDBRANCH  24  26
ENDBRANCH   1  24
BRANCH   3  35
HETATM   35  O1  UNL     1      -4.986  48.959 -21.170  1.00  0.00    -0.395 OA
HETATM   36  H17 UNL     1      -5.790  48.483 -20.902  1.00  0.00     0.210 HD
ENDBRANCH   3  35
TORSDOF 7
ENDMDL
MODEL 7
REMARK minimizedAffinity -9.33582211
REMARK  7 active torsions:
REMARK  status: ('A' for Active; 'I' for Inactive)
REMARK    1  A    between atoms: C2_2  and  C30_32 
REMARK    2  A    between atoms: C3_3  and  C4_4 
REMARK    3  A    between atoms: C4_4  and  C5_5 
REMARK    4  A    between atoms: C5_5  and  C6_6 
REMARK    5  A    between atoms: C6_6  and  C8_8 
REMARK    6  A    between atoms: C10_10  and  O1_11 
REMARK    7  A    between atoms: C30_32  and  O4_34 
ROOT
HETATM    1  C8  UNL     1      -5.419  48.708 -21.737  1.00  0.00     0.001 C 
HETATM    2  C9  UNL     1      -5.776  47.769 -22.917  1.00  0.00     0.038 C 
HETATM    3  C10 UNL     1      -4.866  48.166 -24.101  1.00  0.00     0.128 C 
HETATM    4  C11 UNL     1      -3.756  49.049 -23.477  1.00  0.00    -0.006 C 
HETATM    5  C12 UNL     1      -2.689  48.060 -22.899  1.00  0.00     0.019 C 
HETATM    6  C13 UNL     1      -3.058  50.060 -24.429  1.00  0.00     0.006 C 
HETATM    7  C14 UNL     1      -2.140  49.399 -25.468  1.00  0.00     0.007 C 
HETATM    8  C15 UNL     1      -1.550  50.449 -26.404  1.00  0.00     0.007 C 
HETATM    9  C16 UNL     1      -0.557  51.343 -25.645  1.00  0.00     0.010 C 
HETATM   10  C17 UNL     1       0.127  52.470 -26.493  1.00  0.00     0.018 C 
HETATM   11  C18 UNL     1       1.537  52.011 -26.914  1.00  0.00     0.023 C 
HETATM   12  C19 UNL     1      -0.662  52.827 -27.771  1.00  0.00     0.023 C 
HETATM   13  C20 UNL     1       0.312  53.766 -25.680  1.00  0.00     0.135 C 
HETATM   14  O2  UNL     1       0.310  54.878 -26.217  1.00  0.00    -0.297 OA
HETATM   15  C21 UNL     1       0.621  53.681 -24.199  1.00  0.00     0.080 C 
HETATM   16  C22 UNL     1       0.006  52.482 -23.502  1.00  0.00     0.018 C 
HETATM   17  C23 UNL     1      -1.112  51.886 -24.329  1.00  0.00    -0.026 A 
HETATM   18  C24 UNL     1      -2.444  52.583 -24.291  1.00  0.00     0.021 A 
HETATM   19  C25 UNL     1      -2.328  51.198 -23.657  1.00  0.00    -0.027 A 
HETATM   20  C26 UNL     1      -2.348  51.143 -22.123  1.00  0.00     0.011 C 
HETATM   21  C27 UNL     1      -3.553  50.490 -21.426  1.00  0.00     0.011 C 
HETATM   22  C28 UNL     1      -4.563  49.843 -22.380  1.00  0.00    -0.030 C 
HETATM   23  C29 UNL     1      -5.469  50.973 -22.931  1.00  0.00     0.016 C 
ENDROOT
BRANCH   1  24
HETATM   24  C6  UNL     1      -6.533  49.008 -20.691  1.00  0.00    -0.013 C 
HETATM   25  C7  UNL     1      -6.563  50.523 -20.402  1.00  0.00     0.010 C 
BRANCH  24  26
HETATM   26  C5  UNL     1      -6.627  48.237 -19.351  1.00  0.00     0.008 C 
BRANCH  26  27
HETATM   27  C4  UNL     1      -5.328  47.729 -18.727  1.00  0.00     0.028 C 
BRANCH  27  28
HETATM   28  C3  UNL     1      -4.568  48.850 -18.069  1.00  0.00    -0.013 C 
HETATM   29  C2  UNL     1      -3.247  49.114 -18.145  1.00  0.00     0.008 C 
HETATM   30  C1  UNL     1      -2.228  48.310 -18.900  1.00  0.00     0.055 C 
BRANCH  29  31
HETATM   31  C30 UNL     1      -2.666  50.286 -17.435  1.00  0.00     0.171 C 
HETATM   32  O3  UNL     1      -2.000  50.234 -16.415  1.00  0.00    -0.646 OA
BRANCH  31  33
HETATM   33  O4  UNL     1      -2.925  51.467 -18.021  1.00  0.00    -0.773 OA
HETATM   34  H46 UNL     1      -2.483  52.117 -17.434  1.00  0.00     0.167 HD
ENDBRANCH  31  33
ENDBRANCH  29  31
ENDBRANCH  27  28
ENDBRANCH  26  27
ENDBRANCH  24  26
ENDBRANCH   1  24
BRANCH   3  35
HETATM   35  O1  UNL     1      -5.626  48.871 -25.076  1.00  0.00    -0.395 OA
HETATM   36  H17 UNL     1      -6.336  48.281 -25.381  1.00  0.00     0.210 HD
ENDBRANCH   3  35
TORSDOF 7
ENDMDL
MODEL 8
REMARK minimizedAffinity -9.14655113
REMARK  7 active torsions:
REMARK  status: ('A' for Active; 'I' for Inactive)
REMARK    1  A    between atoms: C2_2  and  C30_32 
REMARK    2  A    between atoms: C3_3  and  C4_4 
REMARK    3  A    between atoms: C4_4  and  C5_5 
REMARK    4  A    between atoms: C5_5  and  C6_6 
REMARK    5  A    between atoms: C6_6  and  C8_8 
REMARK    6  A    between atoms: C10_10  and  O1_11 
REMARK    7  A    between atoms: C30_32  and  O4_34 
ROOT
HETATM    1  C8  UNL     1      -5.552  48.756 -21.896  1.00  0.00     0.001 C 
HETATM    2  C9  UNL     1      -5.930  47.867 -23.108  1.00  0.00     0.038 C 
HETATM    3  C10 UNL     1      -5.009  48.282 -24.277  1.00  0.00     0.128 C 
HETATM    4  C11 UNL     1      -3.878  49.116 -23.622  1.00  0.00    -0.006 C 
HETATM    5  C12 UNL     1      -2.836  48.082 -23.078  1.00  0.00     0.019 C 
HETATM    6  C13 UNL     1      -3.154  50.142 -24.539  1.00  0.00     0.006 C 
HETATM    7  C14 UNL     1      -2.251  49.494 -25.600  1.00  0.00     0.007 C 
HETATM    8  C15 UNL     1      -1.635  50.561 -26.499  1.00  0.00     0.007 C 
HETATM    9  C16 UNL     1      -0.621  51.404 -25.709  1.00  0.00     0.010 C 
HETATM   10  C17 UNL     1       0.091  52.543 -26.518  1.00  0.00     0.018 C 
HETATM   11  C18 UNL     1       1.489  52.064 -26.954  1.00  0.00     0.023 C 
HETATM   12  C19 UNL     1      -0.687  52.962 -27.783  1.00  0.00     0.023 C 
HETATM   13  C20 UNL     1       0.306  53.805 -25.661  1.00  0.00     0.135 C 
HETATM   14  O2  UNL     1       0.332  54.934 -26.160  1.00  0.00    -0.297 OA
HETATM   15  C21 UNL     1       0.611  53.662 -24.183  1.00  0.00     0.080 C 
HETATM   16  C22 UNL     1      -0.034  52.455 -23.528  1.00  0.00     0.018 C 
HETATM   17  C23 UNL     1      -1.165  51.915 -24.376  1.00  0.00    -0.026 A 
HETATM   18  C24 UNL     1      -2.479  52.642 -24.314  1.00  0.00     0.021 A 
HETATM   19  C25 UNL     1      -2.398  51.234 -23.728  1.00  0.00    -0.027 A 
HETATM   20  C26 UNL     1      -2.422  51.128 -22.197  1.00  0.00     0.011 C 
HETATM   21  C27 UNL     1      -3.642  50.481 -21.523  1.00  0.00     0.011 C 
HETATM   22  C28 UNL     1      -4.667  49.891 -22.499  1.00  0.00    -0.030 C 
HETATM   23  C29 UNL     1      -5.544  51.061 -23.011  1.00  0.00     0.016 C 
ENDROOT
BRANCH   1  24
HETATM   24  C6  UNL     1      -6.659  49.047 -20.840  1.00  0.00    -0.013 C 
HETATM   25  C7  UNL     1      -6.068  48.882 -19.425  1.00  0.00     0.010 C 
BRANCH  24  26
HETATM   26  C5  UNL     1      -8.043  48.354 -20.893  1.00  0.00     0.008 C 
BRANCH  26  27
HETATM   27  C4  UNL     1      -8.221  47.055 -20.109  1.00  0.00     0.028 C 
BRANCH  27  28
HETATM   28  C3  UNL     1      -8.020  45.855 -20.996  1.00  0.00    -0.013 C 
HETATM   29  C2  UNL     1      -6.917  45.087 -21.117  1.00  0.00     0.008 C 
HETATM   30  C1  UNL     1      -5.618  45.289 -20.391  1.00  0.00     0.055 C 
BRANCH  29  31
HETATM   31  C30 UNL     1      -6.902  43.921 -22.041  1.00  0.00     0.171 C 
HETATM   32  O3  UNL     1      -7.634  43.775 -23.005  1.00  0.00    -0.646 OA
BRANCH  31  33
HETATM   33  O4  UNL     1      -5.979  42.992 -21.738  1.00  0.00    -0.773 OA
HETATM   34  H46 UNL     1      -6.108  42.307 -22.429  1.00  0.00     0.167 HD
ENDBRANCH  31  33
ENDBRANCH  29  31
ENDBRANCH  27  28
ENDBRANCH  26  27
ENDBRANCH  24  26
ENDBRANCH   1  24
BRANCH   3  35
HETATM   35  O1  UNL     1      -5.750  49.038 -25.227  1.00  0.00    -0.395 OA
HETATM   36  H17 UNL     1      -6.474  48.476 -25.553  1.00  0.00     0.210 HD
ENDBRANCH   3  35
TORSDOF 7
ENDMDL
MODEL 9
REMARK minimizedAffinity -9.12724018
REMARK  7 active torsions:
REMARK  status: ('A' for Active; 'I' for Inactive)
REMARK    1  A    between atoms: C2_2  and  C30_32 
REMARK    2  A    between atoms: C3_3  and  C4_4 
REMARK    3  A    between atoms: C4_4  and  C5_5 
REMARK    4  A    between atoms: C5_5  and  C6_6 
REMARK    5  A    between atoms: C6_6  and  C8_8 
REMARK    6  A    between atoms: C10_10  and  O1_11 
REMARK    7  A    between atoms: C30_32  and  O4_34 
ROOT
HETATM    1  C8  UNL     1      -2.625  51.456 -24.409  1.00  0.00     0.001 C 
HETATM    2  C9  UNL     1      -3.560  52.621 -23.997  1.00  0.00     0.038 C 
HETATM    3  C10 UNL     1      -4.514  52.072 -22.913  1.00  0.00     0.128 C 
HETATM    4  C11 UNL     1      -3.874  50.739 -22.450  1.00  0.00    -0.006 C 
HETATM    5  C12 UNL     1      -2.785  51.124 -21.394  1.00  0.00     0.019 C 
HETATM    6  C13 UNL     1      -4.837  49.685 -21.835  1.00  0.00     0.006 C 
HETATM    7  C14 UNL     1      -5.371  50.071 -20.448  1.00  0.00     0.007 C 
HETATM    8  C15 UNL     1      -6.359  49.022 -19.946  1.00  0.00     0.007 C 
HETATM    9  C16 UNL     1      -5.629  47.706 -19.637  1.00  0.00     0.010 C 
HETATM   10  C17 UNL     1      -6.531  46.537 -19.109  1.00  0.00     0.018 C 
HETATM   11  C18 UNL     1      -6.415  46.453 -17.575  1.00  0.00     0.023 C 
HETATM   12  C19 UNL     1      -8.021  46.716 -19.467  1.00  0.00     0.023 C 
HETATM   13  C20 UNL     1      -6.078  45.170 -19.660  1.00  0.00     0.135 C 
HETATM   14  O2  UNL     1      -6.874  44.244 -19.837  1.00  0.00    -0.297 OA
HETATM   15  C21 UNL     1      -4.602  44.907 -19.883  1.00  0.00     0.080 C 
HETATM   16  C22 UNL     1      -3.802  46.136 -20.274  1.00  0.00     0.018 C 
HETATM   17  C23 UNL     1      -4.709  47.242 -20.766  1.00  0.00    -0.026 A 
HETATM   18  C24 UNL     1      -5.222  47.136 -22.175  1.00  0.00     0.021 A 
HETATM   19  C25 UNL     1      -4.232  48.251 -21.842  1.00  0.00    -0.027 A 
HETATM   20  C26 UNL     1      -2.805  48.083 -22.382  1.00  0.00     0.011 C 
HETATM   21  C27 UNL     1      -2.311  49.052 -23.468  1.00  0.00     0.011 C 
HETATM   22  C28 UNL     1      -3.292  50.181 -23.805  1.00  0.00    -0.030 C 
HETATM   23  C29 UNL     1      -4.351  49.599 -24.776  1.00  0.00     0.016 C 
ENDROOT
BRANCH   1  24
HETATM   24  C6  UNL     1      -2.040  51.474 -25.852  1.00  0.00    -0.013 C 
HETATM   25  C7  UNL     1      -3.197  51.405 -26.870  1.00  0.00     0.010 C 
BRANCH  24  26
HETATM   26  C5  UNL     1      -0.920  50.500 -26.294  1.00  0.00     0.008 C 
BRANCH  26  27
HETATM   27  C4  UNL     1       0.530  50.943 -26.103  1.00  0.00     0.028 C 
BRANCH  27  28
HETATM   28  C3  UNL     1       0.618  52.433 -25.900  1.00  0.00    -0.013 C 
HETATM   29  C2  UNL     1       0.659  53.111 -24.735  1.00  0.00     0.008 C 
HETATM   30  C1  UNL     1       0.599  52.508 -23.361  1.00  0.00     0.055 C 
BRANCH  29  31
HETATM   31  C30 UNL     1       0.763  54.595 -24.724  1.00  0.00     0.171 C 
HETATM   32  O3  UNL     1       0.199  55.348 -25.500  1.00  0.00    -0.646 OA
BRANCH  31  33
HETATM   33  O4  UNL     1       1.549  55.084 -23.750  1.00  0.00    -0.773 OA
HETATM   34  H46 UNL     1       1.511  56.055 -23.888  1.00  0.00     0.167 HD
ENDBRANCH  31  33
ENDBRANCH  29  31
ENDBRANCH  27  28
ENDBRANCH  26  27
ENDBRANCH  24  26
ENDBRANCH   1  24
BRANCH   3  35
HETATM   35  O1  UNL     1      -5.810  51.880 -23.467  1.00  0.00    -0.395 OA
HETATM   36  H17 UNL     1      -6.126  52.742 -23.788  1.00  0.00     0.210 HD
ENDBRANCH   3  35
TORSDOF 7
ENDMDL
