MODEL 1
REMARK minimizedAffinity -9.24442768
REMARK  4 active torsions:
REMARK  status: ('A' for Active; 'I' for Inactive)
REMARK    1  A    between atoms: C2_2  and  C4_4 
REMARK    2  A    between atoms: C4_4  and  O1_5 
REMARK    3  A    between atoms: C8_10  and  O2_11 
REMARK    4  A    between atoms: C21_27  and  O6_28 
ROOT
HETATM    1  C4  UNL     1       1.495   6.881  10.756  1.00  0.00     0.106 C 
HETATM    2  C5  UNL     1       0.636   8.101  11.169  1.00  0.00     0.126 C 
HETATM    3 CL1  UNL     1       1.490   9.209  12.305  1.00  0.00    -0.121 Cl
HETATM    4  C6  UNL     1      -0.803   7.711  11.657  1.00  0.00     0.041 C 
HETATM    5  C7  UNL     1      -1.543   9.042  11.947  1.00  0.00     0.015 C 
HETATM    6  C8  UNL     1      -0.806   6.639  12.824  1.00  0.00     0.107 C 
HETATM    7  C9  UNL     1       0.210   5.510  12.472  1.00  0.00     0.148 A 
HETATM    8  O3  UNL     1       0.338   4.486  13.480  1.00  0.00    -0.363 OA
HETATM    9  C10 UNL     1      -0.244   4.076  12.239  1.00  0.00     0.164 A 
HETATM   10  C11 UNL     1      -1.664   3.654  12.346  1.00  0.00     0.045 C 
HETATM   11  C12 UNL     1      -2.610   4.846  12.189  1.00  0.00     0.031 C 
HETATM   12  C13 UNL     1      -4.054   4.424  12.270  1.00  0.00    -0.038 A 
HETATM   13  C14 UNL     1      -4.997   5.134  12.884  1.00  0.00     0.022 A 
HETATM   14  C15 UNL     1      -4.811   6.445  13.545  1.00  0.00     0.046 C 
HETATM   15  C16 UNL     1      -3.438   7.028  13.153  1.00  0.00     0.018 C 
HETATM   16  C17 UNL     1      -2.254   6.004  13.206  1.00  0.00    -0.002 C 
HETATM   17  C18 UNL     1      -2.233   5.485  14.686  1.00  0.00     0.019 C 
HETATM   18  C19 UNL     1      -6.263   4.427  12.712  1.00  0.00     0.289 A 
HETATM   19  O4  UNL     1      -7.342   4.789  13.143  1.00  0.00    -0.260 OA
HETATM   20  O5  UNL     1      -6.033   3.301  11.981  1.00  0.00    -0.313 OA
HETATM   21  C20 UNL     1      -4.642   3.220  11.652  1.00  0.00     0.214 A 
HETATM   22  C21 UNL     1       1.573   5.885  11.934  1.00  0.00     0.194 C 
ENDROOT
BRANCH   1  23
HETATM   23  C2  UNL     1       2.931   7.263  10.230  1.00  0.00     0.016 C 
HETATM   24  C1  UNL     1       2.919   8.019   8.891  1.00  0.00     0.012 C 
HETATM   25  C3  UNL     1       3.851   6.041  10.066  1.00  0.00     0.012 C 
ENDBRANCH   1  23
BRANCH   1  26
HETATM   26  O1  UNL     1       0.794   6.190   9.689  1.00  0.00    -0.385 OA
HETATM   27  H8  UNL     1       0.783   6.766   8.904  1.00  0.00     0.210 HD
ENDBRANCH   1  26
BRANCH  22  28
HETATM   28  O6  UNL     1       2.385   6.332  13.016  1.00  0.00    -0.389 OA
HETATM   29  H29 UNL     1       2.459   5.576  13.628  1.00  0.00     0.210 HD
ENDBRANCH  22  28
BRANCH   6  30
HETATM   30  O2  UNL     1      -0.345   7.326  13.997  1.00  0.00    -0.385 OA
HETATM   31  H14 UNL     1       0.438   6.846  14.342  1.00  0.00     0.210 HD
ENDBRANCH   6  30
TORSDOF 4
ENDMDL
MODEL 2
REMARK minimizedAffinity -8.66257763
REMARK  4 active torsions:
REMARK  status: ('A' for Active; 'I' for Inactive)
REMARK    1  A    between atoms: C2_2  and  C4_4 
REMARK    2  A    between atoms: C4_4  and  O1_5 
REMARK    3  A    between atoms: C8_10  and  O2_11 
REMARK    4  A    between atoms: C21_27  and  O6_28 
ROOT
HETATM    1  C4  UNL     1      -5.942   7.019  14.096  1.00  0.00     0.106 C 
HETATM    2  C5  UNL     1      -5.819   5.661  13.363  1.00  0.00     0.126 C 
HETATM    3 CL1  UNL     1      -6.306   4.262  14.389  1.00  0.00    -0.121 Cl
HETATM    4  C6  UNL     1      -4.430   5.456  12.664  1.00  0.00     0.041 C 
HETATM    5  C7  UNL     1      -4.510   4.098  11.920  1.00  0.00     0.015 C 
HETATM    6  C8  UNL     1      -3.197   5.646  13.642  1.00  0.00     0.107 C 
HETATM    7  C9  UNL     1      -3.433   6.922  14.506  1.00  0.00     0.148 A 
HETATM    8  O3  UNL     1      -2.398   7.189  15.475  1.00  0.00    -0.363 OA
HETATM    9  C10 UNL     1      -2.514   8.132  14.406  1.00  0.00     0.164 A 
HETATM   10  C11 UNL     1      -1.335   8.174  13.505  1.00  0.00     0.045 C 
HETATM   11  C12 UNL     1      -1.463   7.151  12.374  1.00  0.00     0.031 C 
HETATM   12  C13 UNL     1      -0.283   7.204  11.440  1.00  0.00    -0.038 A 
HETATM   13  C14 UNL     1       0.279   6.126  10.899  1.00  0.00     0.022 A 
HETATM   14  C15 UNL     1      -0.164   4.726  11.082  1.00  0.00     0.046 C 
HETATM   15  C16 UNL     1      -1.561   4.710  11.736  1.00  0.00     0.018 C 
HETATM   16  C17 UNL     1      -1.731   5.698  12.939  1.00  0.00    -0.002 C 
HETATM   17  C18 UNL     1      -0.630   5.269  13.972  1.00  0.00     0.019 C 
HETATM   18  C19 UNL     1       1.356   6.582  10.025  1.00  0.00     0.289 A 
HETATM   19  O4  UNL     1       2.085   5.866   9.365  1.00  0.00    -0.260 OA
HETATM   20  O5  UNL     1       1.398   7.943  10.066  1.00  0.00    -0.313 OA
HETATM   21  C20 UNL     1       0.380   8.427  10.948  1.00  0.00     0.214 A 
HETATM   22  C21 UNL     1      -4.795   7.156  15.120  1.00  0.00     0.194 C 
ENDROOT
BRANCH   1  23
HETATM   23  C2  UNL     1      -7.347   7.252  14.771  1.00  0.00     0.016 C 
HETATM   24  C1  UNL     1      -7.418   6.781  16.234  1.00  0.00     0.012 C 
HETATM   25  C3  UNL     1      -8.496   6.569  14.007  1.00  0.00     0.012 C 
ENDBRANCH   1  23
BRANCH   1  26
HETATM   26  O1  UNL     1      -5.735   8.069  13.115  1.00  0.00    -0.385 OA
HETATM   27  H8  UNL     1      -6.479   8.055  12.487  1.00  0.00     0.210 HD
ENDBRANCH   1  26
BRANCH  22  28
HETATM   28  O6  UNL     1      -4.934   6.312  16.259  1.00  0.00    -0.389 OA
HETATM   29  H29 UNL     1      -4.231   6.580  16.881  1.00  0.00     0.210 HD
ENDBRANCH  22  28
BRANCH   6  30
HETATM   30  O2  UNL     1      -3.191   4.500  14.504  1.00  0.00    -0.385 OA
HETATM   31  H14 UNL     1      -3.233   4.816  15.432  1.00  0.00     0.210 HD
ENDBRANCH   6  30
TORSDOF 4
ENDMDL
MODEL 3
REMARK minimizedAffinity -8.46818352
REMARK  4 active torsions:
REMARK  status: ('A' for Active; 'I' for Inactive)
REMARK    1  A    between atoms: C2_2  and  C4_4 
REMARK    2  A    between atoms: C4_4  and  O1_5 
REMARK    3  A    between atoms: C8_10  and  O2_11 
REMARK    4  A    between atoms: C21_27  and  O6_28 
ROOT
HETATM    1  C4  UNL     1      -4.031   8.270  13.992  1.00  0.00     0.106 C 
HETATM    2  C5  UNL     1      -4.002   6.725  13.881  1.00  0.00     0.126 C 
HETATM    3 CL1  UNL     1      -4.276   5.902  15.460  1.00  0.00    -0.121 Cl
HETATM    4  C6  UNL     1      -2.747   6.181  13.114  1.00  0.00     0.041 C 
HETATM    5  C7  UNL     1      -2.920   4.643  13.026  1.00  0.00     0.015 C 
HETATM    6  C8  UNL     1      -1.371   6.698  13.708  1.00  0.00     0.107 C 
HETATM    7  C9  UNL     1      -1.487   8.227  13.989  1.00  0.00     0.148 A 
HETATM    8  O3  UNL     1      -0.309   8.818  14.576  1.00  0.00    -0.363 OA
HETATM    9  C10 UNL     1      -0.626   9.240  13.246  1.00  0.00     0.164 A 
HETATM   10  C11 UNL     1       0.382   8.847  12.230  1.00  0.00     0.045 C 
HETATM   11  C12 UNL     1       0.089   7.456  11.665  1.00  0.00     0.031 C 
HETATM   12  C13 UNL     1       1.092   7.058  10.615  1.00  0.00    -0.038 A 
HETATM   13  C14 UNL     1       1.579   5.827  10.487  1.00  0.00     0.022 A 
HETATM   14  C15 UNL     1       1.206   4.652  11.305  1.00  0.00     0.046 C 
HETATM   15  C16 UNL     1      -0.060   4.977  12.125  1.00  0.00     0.018 C 
HETATM   16  C17 UNL     1      -0.046   6.381  12.818  1.00  0.00    -0.002 C 
HETATM   17  C18 UNL     1       1.223   6.365  13.742  1.00  0.00     0.019 C 
HETATM   18  C19 UNL     1       2.482   5.826   9.340  1.00  0.00     0.289 A 
HETATM   19  O4  UNL     1       3.106   4.867   8.928  1.00  0.00    -0.260 OA
HETATM   20  O5  UNL     1       2.499   7.079   8.804  1.00  0.00    -0.313 OA
HETATM   21  C20 UNL     1       1.634   7.934   9.557  1.00  0.00     0.214 A 
HETATM   22  C21 UNL     1      -2.730   8.761  14.664  1.00  0.00     0.194 C 
ENDROOT
BRANCH   1  23
HETATM   23  C2  UNL     1      -5.307   8.830  14.728  1.00  0.00     0.016 C 
HETATM   24  C1  UNL     1      -4.988   9.868  15.818  1.00  0.00     0.012 C 
HETATM   25  C3  UNL     1      -6.155   7.722  15.376  1.00  0.00     0.012 C 
ENDBRANCH   1  23
BRANCH   1  26
HETATM   26  O1  UNL     1      -4.017   8.808  12.643  1.00  0.00    -0.385 OA
HETATM   27  H8  UNL     1      -4.856   8.572  12.209  1.00  0.00     0.210 HD
ENDBRANCH   1  26
BRANCH  22  28
HETATM   28  O6  UNL     1      -2.655   8.472  16.056  1.00  0.00    -0.389 OA
HETATM   29  H29 UNL     1      -1.864   8.937  16.386  1.00  0.00     0.210 HD
ENDBRANCH  22  28
BRANCH   6  30
HETATM   30  O2  UNL     1      -1.192   6.012  14.955  1.00  0.00    -0.385 OA
HETATM   31  H14 UNL     1      -1.085   6.685  15.661  1.00  0.00     0.210 HD
ENDBRANCH   6  30
TORSDOF 4
ENDMDL
MODEL 4
REMARK minimizedAffinity -8.45780563
REMARK  4 active torsions:
REMARK  status: ('A' for Active; 'I' for Inactive)
REMARK    1  A    between atoms: C2_2  and  C4_4 
REMARK    2  A    between atoms: C4_4  and  O1_5 
REMARK    3  A    between atoms: C8_10  and  O2_11 
REMARK    4  A    between atoms: C21_27  and  O6_28 
ROOT
HETATM    1  C4  UNL     1       1.450   7.143   9.918  1.00  0.00     0.106 C 
HETATM    2  C5  UNL     1       1.481   8.217  11.032  1.00  0.00     0.126 C 
HETATM    3 CL1  UNL     1       3.096   8.366  11.819  1.00  0.00    -0.121 Cl
HETATM    4  C6  UNL     1       0.307   8.078  12.063  1.00  0.00     0.041 C 
HETATM    5  C7  UNL     1       0.444   9.268  13.047  1.00  0.00     0.015 C 
HETATM    6  C8  UNL     1       0.206   6.637  12.716  1.00  0.00     0.107 C 
HETATM    7  C9  UNL     1       0.365   5.566  11.595  1.00  0.00     0.148 A 
HETATM    8  O3  UNL     1       0.337   4.201  12.063  1.00  0.00    -0.363 OA
HETATM    9  C10 UNL     1      -0.764   4.607  11.244  1.00  0.00     0.164 A 
HETATM   10  C11 UNL     1      -2.072   4.614  11.947  1.00  0.00     0.045 C 
HETATM   11  C12 UNL     1      -2.325   5.956  12.636  1.00  0.00     0.031 C 
HETATM   12  C13 UNL     1      -3.661   5.981  13.331  1.00  0.00    -0.038 A 
HETATM   13  C14 UNL     1      -3.869   6.559  14.511  1.00  0.00     0.022 A 
HETATM   14  C15 UNL     1      -2.864   7.292  15.312  1.00  0.00     0.046 C 
HETATM   15  C16 UNL     1      -1.617   7.567  14.447  1.00  0.00     0.018 C 
HETATM   16  C17 UNL     1      -1.130   6.346  13.597  1.00  0.00    -0.002 C 
HETATM   17  C18 UNL     1      -0.839   5.213  14.644  1.00  0.00     0.019 C 
HETATM   18  C19 UNL     1      -5.286   6.414  14.830  1.00  0.00     0.289 A 
HETATM   19  O4  UNL     1      -5.833   6.826  15.836  1.00  0.00    -0.260 OA
HETATM   20  O5  UNL     1      -5.893   5.748  13.808  1.00  0.00    -0.313 OA
HETATM   21  C20 UNL     1      -4.925   5.434  12.801  1.00  0.00     0.214 A 
HETATM   22  C21 UNL     1       1.454   5.738  10.559  1.00  0.00     0.194 C 
ENDROOT
BRANCH   1  23
HETATM   23  C2  UNL     1       2.604   7.295   8.856  1.00  0.00     0.016 C 
HETATM   24  C1  UNL     1       2.537   8.604   8.051  1.00  0.00     0.012 C 
HETATM   25  C3  UNL     1       2.646   6.132   7.850  1.00  0.00     0.012 C 
ENDBRANCH   1  23
BRANCH   1  26
HETATM   26  O1  UNL     1       0.180   7.266   9.223  1.00  0.00    -0.385 OA
HETATM   27  H8  UNL     1       0.169   8.118   8.751  1.00  0.00     0.210 HD
ENDBRANCH   1  26
BRANCH  22  28
HETATM   28  O6  UNL     1       2.701   5.372  11.140  1.00  0.00    -0.389 OA
HETATM   29  H29 UNL     1       2.617   4.433  11.390  1.00  0.00     0.210 HD
ENDBRANCH  22  28
BRANCH   6  30
HETATM   30  O2  UNL     1       1.316   6.530  13.618  1.00  0.00    -0.385 OA
HETATM   31  H14 UNL     1       1.842   5.743  13.362  1.00  0.00     0.210 HD
ENDBRANCH   6  30
TORSDOF 4
ENDMDL
MODEL 5
REMARK minimizedAffinity -8.42432308
REMARK  4 active torsions:
REMARK  status: ('A' for Active; 'I' for Inactive)
REMARK    1  A    between atoms: C2_2  and  C4_4 
REMARK    2  A    between atoms: C4_4  and  O1_5 
REMARK    3  A    between atoms: C8_10  and  O2_11 
REMARK    4  A    between atoms: C21_27  and  O6_28 
ROOT
HETATM    1  C4  UNL     1      -0.878   7.615  13.449  1.00  0.00     0.106 C 
HETATM    2  C5  UNL     1      -1.609   8.821  14.089  1.00  0.00     0.126 C 
HETATM    3 CL1  UNL     1      -0.844   9.371  15.625  1.00  0.00    -0.121 Cl
HETATM    4  C6  UNL     1      -3.159   8.613  14.215  1.00  0.00     0.041 C 
HETATM    5  C7  UNL     1      -3.732   9.932  14.793  1.00  0.00     0.015 C 
HETATM    6  C8  UNL     1      -3.557   7.282  14.979  1.00  0.00     0.107 C 
HETATM    7  C9  UNL     1      -2.674   6.113  14.447  1.00  0.00     0.148 A 
HETATM    8  O3  UNL     1      -2.906   4.845  15.094  1.00  0.00    -0.363 OA
HETATM    9  C10 UNL     1      -3.282   4.925  13.716  1.00  0.00     0.164 A 
HETATM   10  C11 UNL     1      -4.741   4.788  13.478  1.00  0.00     0.045 C 
HETATM   11  C12 UNL     1      -5.447   6.143  13.561  1.00  0.00     0.031 C 
HETATM   12  C13 UNL     1      -6.924   6.019  13.295  1.00  0.00    -0.038 A 
HETATM   13  C14 UNL     1      -7.853   6.707  13.954  1.00  0.00     0.022 A 
HETATM   14  C15 UNL     1      -7.608   7.715  15.008  1.00  0.00     0.046 C 
HETATM   15  C16 UNL     1      -6.112   8.092  15.022  1.00  0.00     0.018 C 
HETATM   16  C17 UNL     1      -5.132   6.875  14.928  1.00  0.00    -0.002 C 
HETATM   17  C18 UNL     1      -5.487   5.971  16.160  1.00  0.00     0.019 C 
HETATM   18  C19 UNL     1      -9.151   6.349  13.388  1.00  0.00     0.289 A 
HETATM   19  O4  UNL     1     -10.227   6.789  13.746  1.00  0.00    -0.260 OA
HETATM   20  O5  UNL     1      -8.951   5.449  12.385  1.00  0.00    -0.313 OA
HETATM   21  C20 UNL     1      -7.551   5.181  12.255  1.00  0.00     0.214 A 
HETATM   22  C21 UNL     1      -1.190   6.337  14.258  1.00  0.00     0.194 C 
ENDROOT
BRANCH   1  23
HETATM   23  C2  UNL     1       0.674   7.828  13.283  1.00  0.00     0.016 C 
HETATM   24  C1  UNL     1       1.049   8.812  12.162  1.00  0.00     0.012 C 
HETATM   25  C3  UNL     1       1.432   6.514  13.022  1.00  0.00     0.012 C 
ENDBRANCH   1  23
BRANCH   1  26
HETATM   26  O1  UNL     1      -1.447   7.406  12.129  1.00  0.00    -0.385 OA
HETATM   27  H8  UNL     1      -1.213   8.168  11.569  1.00  0.00     0.210 HD
ENDBRANCH   1  26
BRANCH  22  28
HETATM   28  O6  UNL     1      -0.553   6.290  15.531  1.00  0.00    -0.389 OA
HETATM   29  H29 UNL     1      -0.719   5.395  15.882  1.00  0.00     0.210 HD
ENDBRANCH  22  28
BRANCH   6  30
HETATM   30  O2  UNL     1      -3.243   7.506  16.361  1.00  0.00    -0.385 OA
HETATM   31  H14 UNL     1      -2.627   6.801  16.651  1.00  0.00     0.210 HD
ENDBRANCH   6  30
TORSDOF 4
ENDMDL
MODEL 6
REMARK minimizedAffinity -8.29284
REMARK  4 active torsions:
REMARK  status: ('A' for Active; 'I' for Inactive)
REMARK    1  A    between atoms: C2_2  and  C4_4 
REMARK    2  A    between atoms: C4_4  and  O1_5 
REMARK    3  A    between atoms: C8_10  and  O2_11 
REMARK    4  A    between atoms: C21_27  and  O6_28 
ROOT
HETATM    1  C4  UNL     1       2.500   5.908  10.331  1.00  0.00     0.106 C 
HETATM    2  C5  UNL     1       1.734   7.023   9.577  1.00  0.00     0.126 C 
HETATM    3 CL1  UNL     1       2.774   8.436   9.167  1.00  0.00    -0.121 Cl
HETATM    4  C6  UNL     1       0.388   7.432  10.271  1.00  0.00     0.041 C 
HETATM    5  C7  UNL     1      -0.278   8.485   9.350  1.00  0.00     0.015 C 
HETATM    6  C8  UNL     1       0.562   7.841  11.793  1.00  0.00     0.107 C 
HETATM    7  C9  UNL     1       1.492   6.803  12.490  1.00  0.00     0.148 A 
HETATM    8  O3  UNL     1       1.770   7.085  13.877  1.00  0.00    -0.363 OA
HETATM    9  C10 UNL     1       0.989   5.915  13.618  1.00  0.00     0.164 A 
HETATM   10  C11 UNL     1      -0.400   5.985  14.139  1.00  0.00     0.045 C 
HETATM   11  C12 UNL     1      -1.345   6.621  13.118  1.00  0.00     0.031 C 
HETATM   12  C13 UNL     1      -2.761   6.674  13.628  1.00  0.00    -0.038 A 
HETATM   13  C14 UNL     1      -3.583   7.699  13.417  1.00  0.00     0.022 A 
HETATM   14  C15 UNL     1      -3.276   8.918  12.637  1.00  0.00     0.046 C 
HETATM   15  C16 UNL     1      -1.977   8.701  11.834  1.00  0.00     0.018 C 
HETATM   16  C17 UNL     1      -0.814   8.033  12.641  1.00  0.00    -0.002 C 
HETATM   17  C18 UNL     1      -0.559   8.993  13.855  1.00  0.00     0.019 C 
HETATM   18  C19 UNL     1      -4.869   7.364  14.022  1.00  0.00     0.289 A 
HETATM   19  O4  UNL     1      -5.859   8.071  14.022  1.00  0.00    -0.260 OA
HETATM   20  O5  UNL     1      -4.774   6.123  14.577  1.00  0.00    -0.313 OA
HETATM   21  C20 UNL     1      -3.457   5.605  14.369  1.00  0.00     0.214 A 
HETATM   22  C21 UNL     1       2.754   6.355  11.787  1.00  0.00     0.194 C 
ENDROOT
BRANCH   1  23
HETATM   23  C2  UNL     1       3.835   5.463   9.623  1.00  0.00     0.016 C 
HETATM   24  C1  UNL     1       3.833   3.997   9.159  1.00  0.00     0.012 C 
HETATM   25  C3  UNL     1       5.076   5.668  10.508  1.00  0.00     0.012 C 
ENDBRANCH   1  23
BRANCH   1  26
HETATM   26  O1  UNL     1       1.626   4.751  10.411  1.00  0.00    -0.385 OA
HETATM   27  H8  UNL     1       1.495   4.401   9.512  1.00  0.00     0.210 HD
ENDBRANCH   1  26
BRANCH  22  28
HETATM   28  O6  UNL     1       3.737   7.378  11.913  1.00  0.00    -0.389 OA
HETATM   29  H29 UNL     1       3.899   7.480  12.869  1.00  0.00     0.210 HD
ENDBRANCH  22  28
BRANCH   6  30
HETATM   30  O2  UNL     1       1.215   9.118  11.790  1.00  0.00    -0.385 OA
HETATM   31  H14 UNL     1       2.038   9.041  12.318  1.00  0.00     0.210 HD
ENDBRANCH   6  30
TORSDOF 4
ENDMDL
MODEL 7
REMARK minimizedAffinity -8.25722027
REMARK  4 active torsions:
REMARK  status: ('A' for Active; 'I' for Inactive)
REMARK    1  A    between atoms: C2_2  and  C4_4 
REMARK    2  A    between atoms: C4_4  and  O1_5 
REMARK    3  A    between atoms: C8_10  and  O2_11 
REMARK    4  A    between atoms: C21_27  and  O6_28 
ROOT
HETATM    1  C4  UNL     1      -1.705  10.589  14.565  1.00  0.00     0.106 C 
HETATM    2  C5  UNL     1      -3.229  10.345  14.701  1.00  0.00     0.126 C 
HETATM    3 CL1  UNL     1      -3.860  10.745  16.341  1.00  0.00    -0.121 Cl
HETATM    4  C6  UNL     1      -3.679   8.929  14.199  1.00  0.00     0.041 C 
HETATM    5  C7  UNL     1      -5.223   8.887  14.330  1.00  0.00     0.015 C 
HETATM    6  C8  UNL     1      -2.886   7.736  14.879  1.00  0.00     0.107 C 
HETATM    7  C9  UNL     1      -1.368   8.089  14.899  1.00  0.00     0.148 A 
HETATM    8  O3  UNL     1      -0.532   7.100  15.535  1.00  0.00    -0.363 OA
HETATM    9  C10 UNL     1      -0.348   7.264  14.126  1.00  0.00     0.164 A 
HETATM   10  C11 UNL     1      -0.721   6.072  13.323  1.00  0.00     0.045 C 
HETATM   11  C12 UNL     1      -2.204   6.095  12.950  1.00  0.00     0.031 C 
HETATM   12  C13 UNL     1      -2.586   4.902  12.114  1.00  0.00    -0.038 A 
HETATM   13  C14 UNL     1      -3.737   4.247  12.244  1.00  0.00     0.022 A 
HETATM   14  C15 UNL     1      -4.832   4.585  13.181  1.00  0.00     0.046 C 
HETATM   15  C16 UNL     1      -4.591   5.991  13.768  1.00  0.00     0.018 C 
HETATM   16  C17 UNL     1      -3.119   6.263  14.229  1.00  0.00    -0.002 C 
HETATM   17  C18 UNL     1      -2.820   5.156  15.301  1.00  0.00     0.019 C 
HETATM   18  C19 UNL     1      -3.759   3.189  11.239  1.00  0.00     0.289 A 
HETATM   19  O4  UNL     1      -4.661   2.392  11.066  1.00  0.00    -0.260 OA
HETATM   20  O5  UNL     1      -2.603   3.253  10.520  1.00  0.00    -0.313 OA
HETATM   21  C20 UNL     1      -1.792   4.325  11.012  1.00  0.00     0.214 A 
HETATM   22  C21 UNL     1      -0.939   9.478  15.316  1.00  0.00     0.194 C 
ENDROOT
BRANCH   1  23
HETATM   23  C2  UNL     1      -1.248  12.022  15.033  1.00  0.00     0.016 C 
HETATM   24  C1  UNL     1      -1.120  12.165  16.559  1.00  0.00     0.012 C 
HETATM   25  C3  UNL     1      -2.185  13.138  14.538  1.00  0.00     0.012 C 
ENDBRANCH   1  23
BRANCH   1  26
HETATM   26  O1  UNL     1      -1.360  10.442  13.162  1.00  0.00    -0.385 OA
HETATM   27  H8  UNL     1      -1.776  11.168  12.665  1.00  0.00     0.210 HD
ENDBRANCH   1  26
BRANCH  22  28
HETATM   28  O6  UNL     1      -1.021   9.577  16.734  1.00  0.00    -0.389 OA
HETATM   29  H29 UNL     1      -0.401   8.911  17.087  1.00  0.00     0.210 HD
ENDBRANCH  22  28
BRANCH   6  30
HETATM   30  O2  UNL     1      -3.361   7.661  16.230  1.00  0.00    -0.385 OA
HETATM   31  H14 UNL     1      -2.589   7.748  16.829  1.00  0.00     0.210 HD
ENDBRANCH   6  30
TORSDOF 4
ENDMDL
MODEL 8
REMARK minimizedAffinity -8.19451618
REMARK  4 active torsions:
REMARK  status: ('A' for Active; 'I' for Inactive)
REMARK    1  A    between atoms: C2_2  and  C4_4 
REMARK    2  A    between atoms: C4_4  and  O1_5 
REMARK    3  A    between atoms: C8_10  and  O2_11 
REMARK    4  A    between atoms: C21_27  and  O6_28 
ROOT
HETATM    1  C4  UNL     1       0.777   7.533  15.354  1.00  0.00     0.106 C 
HETATM    2  C5  UNL     1       0.643   6.580  14.140  1.00  0.00     0.126 C 
HETATM    3 CL1  UNL     1       1.517   7.175  12.681  1.00  0.00    -0.121 Cl
HETATM    4  C6  UNL     1      -0.838   6.160  13.841  1.00  0.00     0.041 C 
HETATM    5  C7  UNL     1      -0.778   5.154  12.662  1.00  0.00     0.015 C 
HETATM    6  C8  UNL     1      -1.820   7.391  13.661  1.00  0.00     0.107 C 
HETATM    7  C9  UNL     1      -1.537   8.428  14.790  1.00  0.00     0.148 A 
HETATM    8  O3  UNL     1      -2.338   9.626  14.717  1.00  0.00    -0.363 OA
HETATM    9  C10 UNL     1      -2.587   8.771  15.837  1.00  0.00     0.164 A 
HETATM   10  C11 UNL     1      -3.942   8.164  15.846  1.00  0.00     0.045 C 
HETATM   11  C12 UNL     1      -3.966   6.847  15.067  1.00  0.00     0.031 C 
HETATM   12  C13 UNL     1      -5.331   6.211  15.092  1.00  0.00    -0.038 A 
HETATM   13  C14 UNL     1      -5.875   5.591  14.048  1.00  0.00     0.022 A 
HETATM   14  C15 UNL     1      -5.242   5.388  12.726  1.00  0.00     0.046 C 
HETATM   15  C16 UNL     1      -3.738   5.718  12.820  1.00  0.00     0.018 C 
HETATM   16  C17 UNL     1      -3.406   7.035  13.599  1.00  0.00    -0.002 C 
HETATM   17  C18 UNL     1      -4.175   8.166  12.830  1.00  0.00     0.019 C 
HETATM   18  C19 UNL     1      -7.173   5.072  14.471  1.00  0.00     0.289 A 
HETATM   19  O4  UNL     1      -7.949   4.448  13.773  1.00  0.00    -0.260 OA
HETATM   20  O5  UNL     1      -7.362   5.398  15.780  1.00  0.00    -0.313 OA
HETATM   21  C20 UNL     1      -6.228   6.128  16.260  1.00  0.00     0.214 A 
HETATM   22  C21 UNL     1      -0.105   8.780  15.127  1.00  0.00     0.194 C 
ENDROOT
BRANCH   1  23
HETATM   23  C2  UNL     1       2.265   7.932  15.686  1.00  0.00     0.016 C 
HETATM   24  C1  UNL     1       2.391   9.226  16.509  1.00  0.00     0.012 C 
HETATM   25  C3  UNL     1       3.134   8.095  14.427  1.00  0.00     0.012 C 
ENDBRANCH   1  23
BRANCH   1  26
HETATM   26  O1  UNL     1       0.225   6.851  16.511  1.00  0.00    -0.385 OA
HETATM   27  H8  UNL     1       0.796   6.092  16.723  1.00  0.00     0.210 HD
ENDBRANCH   1  26
BRANCH  22  28
HETATM   28  O6  UNL     1       0.395   9.668  14.133  1.00  0.00    -0.389 OA
HETATM   29  H29 UNL     1      -0.168  10.464  14.174  1.00  0.00     0.210 HD
ENDBRANCH  22  28
BRANCH   6  30
HETATM   30  O2  UNL     1      -1.490   7.984  12.397  1.00  0.00    -0.385 OA
HETATM   31  H14 UNL     1      -1.267   8.926  12.551  1.00  0.00     0.210 HD
ENDBRANCH   6  30
TORSDOF 4
ENDMDL
MODEL 9
REMARK minimizedAffinity -8.07134628
REMARK  4 active torsions:
REMARK  status: ('A' for Active; 'I' for Inactive)
REMARK    1  A    between atoms: C2_2  and  C4_4 
REMARK    2  A    between atoms: C4_4  and  O1_5 
REMARK    3  A    between atoms: C8_10  and  O2_11 
REMARK    4  A    between atoms: C21_27  and  O6_28 
ROOT
HETATM    1  C4  UNL     1       2.058   7.730  10.226  1.00  0.00     0.106 C 
HETATM    2  C5  UNL     1       2.735   8.550  11.353  1.00  0.00     0.126 C 
HETATM    3 CL1  UNL     1       4.319   7.861  11.867  1.00  0.00    -0.121 Cl
HETATM    4  C6  UNL     1       1.780   8.858  12.557  1.00  0.00     0.041 C 
HETATM    5  C7  UNL     1       2.586   9.744  13.541  1.00  0.00     0.015 C 
HETATM    6  C8  UNL     1       1.102   7.564  13.174  1.00  0.00     0.107 C 
HETATM    7  C9  UNL     1       0.592   6.661  12.010  1.00  0.00     0.148 A 
HETATM    8  O3  UNL     1      -0.010   5.421  12.435  1.00  0.00    -0.363 OA
HETATM    9  C10 UNL     1      -0.889   6.367  11.821  1.00  0.00     0.164 A 
HETATM   10  C11 UNL     1      -1.937   6.900  12.729  1.00  0.00     0.045 C 
HETATM   11  C12 UNL     1      -1.439   8.129  13.491  1.00  0.00     0.031 C 
HETATM   12  C13 UNL     1      -2.504   8.691  14.397  1.00  0.00    -0.038 A 
HETATM   13  C14 UNL     1      -2.259   9.175  15.612  1.00  0.00     0.022 A 
HETATM   14  C15 UNL     1      -0.932   9.279  16.259  1.00  0.00     0.046 C 
HETATM   15  C16 UNL     1       0.172   9.041  15.209  1.00  0.00     0.018 C 
HETATM   16  C17 UNL     1      -0.086   7.827  14.254  1.00  0.00    -0.002 C 
HETATM   17  C18 UNL     1      -0.225   6.586  15.204  1.00  0.00     0.019 C 
HETATM   18  C19 UNL     1      -3.523   9.662  16.155  1.00  0.00     0.289 A 
HETATM   19  O4  UNL     1      -3.677  10.172  17.248  1.00  0.00    -0.260 OA
HETATM   20  O5  UNL     1      -4.499   9.458  15.226  1.00  0.00    -0.313 OA
HETATM   21  C20 UNL     1      -3.933   8.841  14.065  1.00  0.00     0.214 A 
HETATM   22  C21 UNL     1       1.488   6.422  10.815  1.00  0.00     0.194 C 
ENDROOT
BRANCH   1  23
HETATM   23  C2  UNL     1       2.999   7.446   8.994  1.00  0.00     0.016 C 
HETATM   24  C1  UNL     1       3.258   8.681   8.114  1.00  0.00     0.012 C 
HETATM   25  C3  UNL     1       2.464   6.329   8.081  1.00  0.00     0.012 C 
ENDBRANCH   1  23
BRANCH   1  26
HETATM   26  O1  UNL     1       0.916   8.493   9.754  1.00  0.00    -0.385 OA
HETATM   27  H8  UNL     1       1.243   9.298   9.316  1.00  0.00     0.210 HD
ENDBRANCH   1  26
BRANCH  22  28
HETATM   28  O6  UNL     1       2.483   5.467  11.172  1.00  0.00    -0.389 OA
HETATM   29  H29 UNL     1       2.002   4.651  11.404  1.00  0.00     0.210 HD
ENDBRANCH  22  28
BRANCH   6  30
HETATM   30  O2  UNL     1       2.140   6.868  13.878  1.00  0.00    -0.385 OA
HETATM   31  H14 UNL     1       2.197   5.958  13.515  1.00  0.00     0.210 HD
ENDBRANCH   6  30
TORSDOF 4
ENDMDL
