MODEL 1
REMARK minimizedAffinity -5.0345192
REMARK  12 active torsions:
REMARK  status: ('A' for Active; 'I' for Inactive)
REMARK    1  A    between atoms: C2_2  and  C3_3 
REMARK    2  A    between atoms: C3_3  and  C4_4 
REMARK    3  A    between atoms: C3_3  and  C13_17 
REMARK    4  A    between atoms: C4_4  and  O2_6 
REMARK    5  A    between atoms: O2_6  and  C5_7 
REMARK    6  A    between atoms: C5_7  and  C6_8 
REMARK    7  A    between atoms: C6_8  and  O3_9 
REMARK    8  A    between atoms: O3_9  and  C7_10 
REMARK    9  A    between atoms: C7_10  and  C8_11 
REMARK   10  A    between atoms: C8_11  and  N1_12 
REMARK   11  A    between atoms: N1_12  and  C9_13 
REMARK   12  A    between atoms: N1_12  and  C11_15 
ROOT
HETATM    1  C4  UNL     1      11.227  33.590  20.840  1.00  0.00     0.267 C 
HETATM    2  O1  UNL     1      11.459  32.661  21.604  1.00  0.00    -0.265 OA
ENDROOT
BRANCH   1   3
HETATM    3  C3  UNL     1      10.538  34.896  21.228  1.00  0.00     0.118 C 
BRANCH   3   4
HETATM    4  C2  UNL     1      10.431  35.076  22.757  1.00  0.00     0.015 C 
HETATM    5  C1  UNL     1       9.422  34.179  23.465  1.00  0.00     0.006 C 
ENDBRANCH   3   4
BRANCH   3   6
HETATM    6  C13 UNL     1       9.222  35.137  20.504  1.00  0.00    -0.044 A 
HETATM    7  C14 UNL     1       9.110  36.214  19.611  1.00  0.00     0.008 A 
HETATM    8  C15 UNL     1       7.909  36.466  18.945  1.00  0.00     0.001 A 
HETATM    9  C16 UNL     1       6.804  35.649  19.166  1.00  0.00     0.000 A 
HETATM   10  C17 UNL     1       6.896  34.581  20.056  1.00  0.00     0.001 A 
HETATM   11  C18 UNL     1       8.097  34.326  20.723  1.00  0.00     0.008 A 
ENDBRANCH   3   6
ENDBRANCH   1   3
BRANCH   1  12
HETATM   12  O2  UNL     1      11.543  33.613  19.512  1.00  0.00    -0.319 OA
BRANCH  12  13
HETATM   13  C5  UNL     1      12.929  33.817  19.183  1.00  0.00     0.205 C 
BRANCH  13  14
HETATM   14  C6  UNL     1      13.038  34.237  17.720  1.00  0.00     0.194 C 
BRANCH  14  15
HETATM   15  O3  UNL     1      11.934  35.082  17.383  1.00  0.00    -0.387 OA
BRANCH  15  16
HETATM   16  C7  UNL     1      12.350  36.227  16.634  1.00  0.00     0.198 C 
BRANCH  16  17
HETATM   17  C8  UNL     1      13.848  36.086  16.314  1.00  0.00     0.298 C 
BRANCH  17  18
HETATM   18  N1  UNL     1      14.597  37.357  16.391  1.00  0.00     0.089 N 
BRANCH  18  19
HETATM   19  C9  UNL     1      15.877  37.273  15.668  1.00  0.00     0.268 C 
HETATM   20  C10 UNL     1      16.153  35.898  15.066  1.00  0.00     0.037 C 
ENDBRANCH  18  19
BRANCH  18  21
HETATM   21  C11 UNL     1      14.728  37.809  17.788  1.00  0.00     0.268 C 
HETATM   22  C12 UNL     1      15.509  36.896  18.728  1.00  0.00     0.037 C 
ENDBRANCH  18  21
ENDBRANCH  17  18
ENDBRANCH  16  17
ENDBRANCH  15  16
ENDBRANCH  14  15
ENDBRANCH  13  14
ENDBRANCH  12  13
ENDBRANCH   1  12
TORSDOF 12
ENDMDL
MODEL 2
REMARK minimizedAffinity -4.95839214
REMARK  12 active torsions:
REMARK  status: ('A' for Active; 'I' for Inactive)
REMARK    1  A    between atoms: C2_2  and  C3_3 
REMARK    2  A    between atoms: C3_3  and  C4_4 
REMARK    3  A    between atoms: C3_3  and  C13_17 
REMARK    4  A    between atoms: C4_4  and  O2_6 
REMARK    5  A    between atoms: O2_6  and  C5_7 
REMARK    6  A    between atoms: C5_7  and  C6_8 
REMARK    7  A    between atoms: C6_8  and  O3_9 
REMARK    8  A    between atoms: O3_9  and  C7_10 
REMARK    9  A    between atoms: C7_10  and  C8_11 
REMARK   10  A    between atoms: C8_11  and  N1_12 
REMARK   11  A    between atoms: N1_12  and  C9_13 
REMARK   12  A    between atoms: N1_12  and  C11_15 
ROOT
HETATM    1  C4  UNL     1      12.049  35.319  18.485  1.00  0.00     0.267 C 
HETATM    2  O1  UNL     1      11.684  34.398  17.766  1.00  0.00    -0.265 OA
ENDROOT
BRANCH   1   3
HETATM    3  C3  UNL     1      11.349  35.764  19.767  1.00  0.00     0.118 C 
BRANCH   3   4
HETATM    4  C2  UNL     1      11.698  34.865  20.973  1.00  0.00     0.015 C 
HETATM    5  C1  UNL     1      11.526  33.366  20.759  1.00  0.00     0.006 C 
ENDBRANCH   3   4
BRANCH   3   6
HETATM    6  C13 UNL     1       9.853  35.993  19.604  1.00  0.00    -0.044 A 
HETATM    7  C14 UNL     1       8.983  35.648  20.650  1.00  0.00     0.008 A 
HETATM    8  C15 UNL     1       7.605  35.834  20.520  1.00  0.00     0.001 A 
HETATM    9  C16 UNL     1       7.080  36.361  19.344  1.00  0.00     0.000 A 
HETATM   10  C17 UNL     1       7.930  36.700  18.294  1.00  0.00     0.001 A 
HETATM   11  C18 UNL     1       9.309  36.515  18.421  1.00  0.00     0.008 A 
ENDBRANCH   3   6
ENDBRANCH   1   3
BRANCH   1  12
HETATM   12  O2  UNL     1      13.143  36.106  18.261  1.00  0.00    -0.319 OA
BRANCH  12  13
HETATM   13  C5  UNL     1      13.381  36.505  16.899  1.00  0.00     0.205 C 
BRANCH  13  14
HETATM   14  C6  UNL     1      14.886  36.554  16.650  1.00  0.00     0.194 C 
BRANCH  14  15
HETATM   15  O3  UNL     1      15.273  35.430  15.855  1.00  0.00    -0.387 OA
BRANCH  15  16
HETATM   16  C7  UNL     1      16.176  35.803  14.810  1.00  0.00     0.198 C 
BRANCH  16  17
HETATM   17  C8  UNL     1      15.797  35.030  13.536  1.00  0.00     0.298 C 
BRANCH  17  18
HETATM   18  N1  UNL     1      16.933  34.796  12.620  1.00  0.00     0.089 N 
BRANCH  18  19
HETATM   19  C9  UNL     1      17.654  33.559  12.961  1.00  0.00     0.268 C 
HETATM   20  C10 UNL     1      17.615  32.502  11.860  1.00  0.00     0.037 C 
ENDBRANCH  18  19
BRANCH  18  21
HETATM   21  C11 UNL     1      17.796  35.988  12.535  1.00  0.00     0.268 C 
HETATM   22  C12 UNL     1      17.940  36.627  11.156  1.00  0.00     0.037 C 
ENDBRANCH  18  21
ENDBRANCH  17  18
ENDBRANCH  16  17
ENDBRANCH  15  16
ENDBRANCH  14  15
ENDBRANCH  13  14
ENDBRANCH  12  13
ENDBRANCH   1  12
TORSDOF 12
ENDMDL
MODEL 3
REMARK minimizedAffinity -4.88621092
REMARK  12 active torsions:
REMARK  status: ('A' for Active; 'I' for Inactive)
REMARK    1  A    between atoms: C2_2  and  C3_3 
REMARK    2  A    between atoms: C3_3  and  C4_4 
REMARK    3  A    between atoms: C3_3  and  C13_17 
REMARK    4  A    between atoms: C4_4  and  O2_6 
REMARK    5  A    between atoms: O2_6  and  C5_7 
REMARK    6  A    between atoms: C5_7  and  C6_8 
REMARK    7  A    between atoms: C6_8  and  O3_9 
REMARK    8  A    between atoms: O3_9  and  C7_10 
REMARK    9  A    between atoms: C7_10  and  C8_11 
REMARK   10  A    between atoms: C8_11  and  N1_12 
REMARK   11  A    between atoms: N1_12  and  C9_13 
REMARK   12  A    between atoms: N1_12  and  C11_15 
ROOT
HETATM    1  C4  UNL     1      10.847  36.150  22.679  1.00  0.00     0.267 C 
HETATM    2  O1  UNL     1      11.141  37.304  22.965  1.00  0.00    -0.265 OA
ENDROOT
BRANCH   1   3
HETATM    3  C3  UNL     1       9.433  35.649  22.391  1.00  0.00     0.118 C 
BRANCH   3   4
HETATM    4  C2  UNL     1       9.243  34.166  22.773  1.00  0.00     0.015 C 
HETATM    5  C1  UNL     1       8.233  33.887  23.880  1.00  0.00     0.006 C 
ENDBRANCH   3   4
BRANCH   3   6
HETATM    6  C13 UNL     1       8.938  35.975  20.990  1.00  0.00    -0.044 A 
HETATM    7  C14 UNL     1       7.578  35.814  20.682  1.00  0.00     0.008 A 
HETATM    8  C15 UNL     1       7.100  36.092  19.399  1.00  0.00     0.001 A 
HETATM    9  C16 UNL     1       7.975  36.527  18.408  1.00  0.00     0.000 A 
HETATM   10  C17 UNL     1       9.329  36.683  18.696  1.00  0.00     0.001 A 
HETATM   11  C18 UNL     1       9.809  36.406  19.978  1.00  0.00     0.008 A 
ENDBRANCH   3   6
ENDBRANCH   1   3
BRANCH   1  12
HETATM   12  O2  UNL     1      11.732  35.116  22.572  1.00  0.00    -0.319 OA
BRANCH  12  13
HETATM   13  C5  UNL     1      12.996  35.413  21.952  1.00  0.00     0.205 C 
BRANCH  13  14
HETATM   14  C6  UNL     1      13.379  34.262  21.024  1.00  0.00     0.194 C 
BRANCH  14  15
HETATM   15  O3  UNL     1      12.216  33.802  20.331  1.00  0.00    -0.387 OA
BRANCH  15  16
HETATM   16  C7  UNL     1      12.329  33.993  18.918  1.00  0.00     0.198 C 
BRANCH  16  17
HETATM   17  C8  UNL     1      13.547  34.889  18.641  1.00  0.00     0.298 C 
BRANCH  17  18
HETATM   18  N1  UNL     1      13.195  36.247  18.174  1.00  0.00     0.089 N 
BRANCH  18  19
HETATM   19  C9  UNL     1      12.788  36.241  16.759  1.00  0.00     0.268 C 
HETATM   20  C10 UNL     1      13.931  36.526  15.789  1.00  0.00     0.037 C 
ENDBRANCH  18  19
BRANCH  18  21
HETATM   21  C11 UNL     1      14.270  37.206  18.484  1.00  0.00     0.268 C 
HETATM   22  C12 UNL     1      15.526  36.634  19.136  1.00  0.00     0.037 C 
ENDBRANCH  18  21
ENDBRANCH  17  18
ENDBRANCH  16  17
ENDBRANCH  15  16
ENDBRANCH  14  15
ENDBRANCH  13  14
ENDBRANCH  12  13
ENDBRANCH   1  12
TORSDOF 12
ENDMDL
MODEL 4
REMARK minimizedAffinity -4.87162018
REMARK  12 active torsions:
REMARK  status: ('A' for Active; 'I' for Inactive)
REMARK    1  A    between atoms: C2_2  and  C3_3 
REMARK    2  A    between atoms: C3_3  and  C4_4 
REMARK    3  A    between atoms: C3_3  and  C13_17 
REMARK    4  A    between atoms: C4_4  and  O2_6 
REMARK    5  A    between atoms: O2_6  and  C5_7 
REMARK    6  A    between atoms: C5_7  and  C6_8 
REMARK    7  A    between atoms: C6_8  and  O3_9 
REMARK    8  A    between atoms: O3_9  and  C7_10 
REMARK    9  A    between atoms: C7_10  and  C8_11 
REMARK   10  A    between atoms: C8_11  and  N1_12 
REMARK   11  A    between atoms: N1_12  and  C9_13 
REMARK   12  A    between atoms: N1_12  and  C11_15 
ROOT
HETATM    1  C4  UNL     1      18.047  53.637   6.182  1.00  0.00     0.267 C 
HETATM    2  O1  UNL     1      18.097  54.502   7.048  1.00  0.00    -0.265 OA
ENDROOT
BRANCH   1   3
HETATM    3  C3  UNL     1      17.720  53.884   4.711  1.00  0.00     0.118 C 
BRANCH   3   4
HETATM    4  C2  UNL     1      18.823  54.686   3.987  1.00  0.00     0.015 C 
HETATM    5  C1  UNL     1      19.865  53.861   3.241  1.00  0.00     0.006 C 
ENDBRANCH   3   4
BRANCH   3   6
HETATM    6  C13 UNL     1      16.324  54.440   4.475  1.00  0.00    -0.044 A 
HETATM    7  C14 UNL     1      16.158  55.578   3.670  1.00  0.00     0.008 A 
HETATM    8  C15 UNL     1      14.889  56.118   3.450  1.00  0.00     0.001 A 
HETATM    9  C16 UNL     1      13.771  55.531   4.036  1.00  0.00     0.000 A 
HETATM   10  C17 UNL     1      13.920  54.406   4.845  1.00  0.00     0.001 A 
HETATM   11  C18 UNL     1      15.188  53.865   5.066  1.00  0.00     0.008 A 
ENDBRANCH   3   6
ENDBRANCH   1   3
BRANCH   1  12
HETATM   12  O2  UNL     1      18.272  52.306   6.387  1.00  0.00    -0.319 OA
BRANCH  12  13
HETATM   13  C5  UNL     1      17.768  51.406   5.384  1.00  0.00     0.205 C 
BRANCH  13  14
HETATM   14  C6  UNL     1      18.720  50.221   5.253  1.00  0.00     0.194 C 
BRANCH  14  15
HETATM   15  O3  UNL     1      18.058  49.150   4.575  1.00  0.00    -0.387 OA
BRANCH  15  16
HETATM   16  C7  UNL     1      18.070  47.945   5.345  1.00  0.00     0.198 C 
BRANCH  16  17
HETATM   17  C8  UNL     1      17.728  46.767   4.417  1.00  0.00     0.298 C 
BRANCH  17  18
HETATM   18  N1  UNL     1      16.451  46.100   4.745  1.00  0.00     0.089 N 
BRANCH  18  19
HETATM   19  C9  UNL     1      15.368  46.541   3.850  1.00  0.00     0.268 C 
HETATM   20  C10 UNL     1      15.342  45.810   2.510  1.00  0.00     0.037 C 
ENDBRANCH  18  19
BRANCH  18  21
HETATM   21  C11 UNL     1      16.136  46.238   6.178  1.00  0.00     0.268 C 
HETATM   22  C12 UNL     1      14.748  46.771   6.521  1.00  0.00     0.037 C 
ENDBRANCH  18  21
ENDBRANCH  17  18
ENDBRANCH  16  17
ENDBRANCH  15  16
ENDBRANCH  14  15
ENDBRANCH  13  14
ENDBRANCH  12  13
ENDBRANCH   1  12
TORSDOF 12
ENDMDL
MODEL 5
REMARK minimizedAffinity -4.86210632
REMARK  12 active torsions:
REMARK  status: ('A' for Active; 'I' for Inactive)
REMARK    1  A    between atoms: C2_2  and  C3_3 
REMARK    2  A    between atoms: C3_3  and  C4_4 
REMARK    3  A    between atoms: C3_3  and  C13_17 
REMARK    4  A    between atoms: C4_4  and  O2_6 
REMARK    5  A    between atoms: O2_6  and  C5_7 
REMARK    6  A    between atoms: C5_7  and  C6_8 
REMARK    7  A    between atoms: C6_8  and  O3_9 
REMARK    8  A    between atoms: O3_9  and  C7_10 
REMARK    9  A    between atoms: C7_10  and  C8_11 
REMARK   10  A    between atoms: C8_11  and  N1_12 
REMARK   11  A    between atoms: N1_12  and  C9_13 
REMARK   12  A    between atoms: N1_12  and  C11_15 
ROOT
HETATM    1  C4  UNL     1      18.041  53.500   6.170  1.00  0.00     0.267 C 
HETATM    2  O1  UNL     1      18.274  54.347   7.023  1.00  0.00    -0.265 OA
ENDROOT
BRANCH   1   3
HETATM    3  C3  UNL     1      17.712  53.793   4.708  1.00  0.00     0.118 C 
BRANCH   3   4
HETATM    4  C2  UNL     1      18.819  54.608   4.006  1.00  0.00     0.015 C 
HETATM    5  C1  UNL     1      20.000  53.806   3.472  1.00  0.00     0.006 C 
ENDBRANCH   3   4
BRANCH   3   6
HETATM    6  C13 UNL     1      16.319  54.364   4.492  1.00  0.00    -0.044 A 
HETATM    7  C14 UNL     1      15.222  53.779   5.143  1.00  0.00     0.008 A 
HETATM    8  C15 UNL     1      13.931  54.275   4.951  1.00  0.00     0.001 A 
HETATM    9  C16 UNL     1      13.719  55.358   4.101  1.00  0.00     0.000 A 
HETATM   10  C17 UNL     1      14.797  55.944   3.441  1.00  0.00     0.001 A 
HETATM   11  C18 UNL     1      16.089  55.450   3.632  1.00  0.00     0.008 A 
ENDBRANCH   3   6
ENDBRANCH   1   3
BRANCH   1  12
HETATM   12  O2  UNL     1      18.032  52.151   6.383  1.00  0.00    -0.319 OA
BRANCH  12  13
HETATM   13  C5  UNL     1      19.261  51.564   6.847  1.00  0.00     0.205 C 
BRANCH  13  14
HETATM   14  C6  UNL     1      19.025  50.086   7.149  1.00  0.00     0.194 C 
BRANCH  14  15
HETATM   15  O3  UNL     1      17.738  49.700   6.659  1.00  0.00    -0.387 OA
BRANCH  15  16
HETATM   16  C7  UNL     1      17.784  48.443   5.979  1.00  0.00     0.198 C 
BRANCH  16  17
HETATM   17  C8  UNL     1      16.896  48.531   4.726  1.00  0.00     0.298 C 
BRANCH  17  18
HETATM   18  N1  UNL     1      16.010  47.363   4.538  1.00  0.00     0.089 N 
BRANCH  18  19
HETATM   19  C9  UNL     1      15.907  46.563   5.769  1.00  0.00     0.268 C 
HETATM   20  C10 UNL     1      14.577  46.729   6.501  1.00  0.00     0.037 C 
ENDBRANCH  18  19
BRANCH  18  21
HETATM   21  C11 UNL     1      16.405  46.586   3.350  1.00  0.00     0.268 C 
HETATM   22  C12 UNL     1      15.275  46.104   2.446  1.00  0.00     0.037 C 
ENDBRANCH  18  21
ENDBRANCH  17  18
ENDBRANCH  16  17
ENDBRANCH  15  16
ENDBRANCH  14  15
ENDBRANCH  13  14
ENDBRANCH  12  13
ENDBRANCH   1  12
TORSDOF 12
ENDMDL
MODEL 6
REMARK minimizedAffinity -4.75469017
REMARK  12 active torsions:
REMARK  status: ('A' for Active; 'I' for Inactive)
REMARK    1  A    between atoms: C2_2  and  C3_3 
REMARK    2  A    between atoms: C3_3  and  C4_4 
REMARK    3  A    between atoms: C3_3  and  C13_17 
REMARK    4  A    between atoms: C4_4  and  O2_6 
REMARK    5  A    between atoms: O2_6  and  C5_7 
REMARK    6  A    between atoms: C5_7  and  C6_8 
REMARK    7  A    between atoms: C6_8  and  O3_9 
REMARK    8  A    between atoms: O3_9  and  C7_10 
REMARK    9  A    between atoms: C7_10  and  C8_11 
REMARK   10  A    between atoms: C8_11  and  N1_12 
REMARK   11  A    between atoms: N1_12  and  C9_13 
REMARK   12  A    between atoms: N1_12  and  C11_15 
ROOT
HETATM    1  C4  UNL     1      14.154  58.413   2.002  1.00  0.00     0.267 C 
HETATM    2  O1  UNL     1      13.198  59.049   1.577  1.00  0.00    -0.265 OA
ENDROOT
BRANCH   1   3
HETATM    3  C3  UNL     1      14.464  56.958   1.659  1.00  0.00     0.118 C 
BRANCH   3   4
HETATM    4  C2  UNL     1      13.417  56.338   0.709  1.00  0.00     0.015 C 
HETATM    5  C1  UNL     1      13.954  55.792  -0.608  1.00  0.00     0.006 C 
ENDBRANCH   3   4
BRANCH   3   6
HETATM    6  C13 UNL     1      14.760  56.089   2.873  1.00  0.00    -0.044 A 
HETATM    7  C14 UNL     1      13.697  55.599   3.648  1.00  0.00     0.008 A 
HETATM    8  C15 UNL     1      13.942  54.813   4.776  1.00  0.00     0.001 A 
HETATM    9  C16 UNL     1      15.249  54.510   5.145  1.00  0.00     0.000 A 
HETATM   10  C17 UNL     1      16.315  54.996   4.390  1.00  0.00     0.001 A 
HETATM   11  C18 UNL     1      16.073  55.783   3.262  1.00  0.00     0.008 A 
ENDBRANCH   3   6
ENDBRANCH   1   3
BRANCH   1  12
HETATM   12  O2  UNL     1      15.103  58.898   2.855  1.00  0.00    -0.319 OA
BRANCH  12  13
HETATM   13  C5  UNL     1      14.637  59.391   4.124  1.00  0.00     0.205 C 
BRANCH  13  14
HETATM   14  C6  UNL     1      13.122  59.224   4.198  1.00  0.00     0.194 C 
BRANCH  14  15
HETATM   15  O3  UNL     1      12.740  58.938   5.546  1.00  0.00    -0.387 OA
BRANCH  15  16
HETATM   16  C7  UNL     1      13.667  59.483   6.489  1.00  0.00     0.198 C 
BRANCH  16  17
HETATM   17  C8  UNL     1      13.605  58.647   7.778  1.00  0.00     0.298 C 
BRANCH  17  18
HETATM   18  N1  UNL     1      12.862  59.299   8.877  1.00  0.00     0.089 N 
BRANCH  18  19
HETATM   19  C9  UNL     1      13.559  59.145  10.164  1.00  0.00     0.268 C 
HETATM   20  C10 UNL     1      13.329  57.791  10.830  1.00  0.00     0.037 C 
ENDBRANCH  18  19
BRANCH  18  21
HETATM   21  C11 UNL     1      11.457  58.854   8.900  1.00  0.00     0.268 C 
HETATM   22  C12 UNL     1      10.438  59.786   8.250  1.00  0.00     0.037 C 
ENDBRANCH  18  21
ENDBRANCH  17  18
ENDBRANCH  16  17
ENDBRANCH  15  16
ENDBRANCH  14  15
ENDBRANCH  13  14
ENDBRANCH  12  13
ENDBRANCH   1  12
TORSDOF 12
ENDMDL
MODEL 7
REMARK minimizedAffinity -4.74990368
REMARK  12 active torsions:
REMARK  status: ('A' for Active; 'I' for Inactive)
REMARK    1  A    between atoms: C2_2  and  C3_3 
REMARK    2  A    between atoms: C3_3  and  C4_4 
REMARK    3  A    between atoms: C3_3  and  C13_17 
REMARK    4  A    between atoms: C4_4  and  O2_6 
REMARK    5  A    between atoms: O2_6  and  C5_7 
REMARK    6  A    between atoms: C5_7  and  C6_8 
REMARK    7  A    between atoms: C6_8  and  O3_9 
REMARK    8  A    between atoms: O3_9  and  C7_10 
REMARK    9  A    between atoms: C7_10  and  C8_11 
REMARK   10  A    between atoms: C8_11  and  N1_12 
REMARK   11  A    between atoms: N1_12  and  C9_13 
REMARK   12  A    between atoms: N1_12  and  C11_15 
ROOT
HETATM    1  C4  UNL     1      13.278  58.258   1.933  1.00  0.00     0.267 C 
HETATM    2  O1  UNL     1      12.503  58.832   1.177  1.00  0.00    -0.265 OA
ENDROOT
BRANCH   1   3
HETATM    3  C3  UNL     1      14.045  56.980   1.600  1.00  0.00     0.118 C 
BRANCH   3   4
HETATM    4  C2  UNL     1      13.333  56.126   0.529  1.00  0.00     0.015 C 
HETATM    5  C1  UNL     1      14.071  55.968  -0.795  1.00  0.00     0.006 C 
ENDBRANCH   3   4
BRANCH   3   6
HETATM    6  C13 UNL     1      14.465  56.178   2.823  1.00  0.00    -0.044 A 
HETATM    7  C14 UNL     1      15.828  56.052   3.133  1.00  0.00     0.008 A 
HETATM    8  C15 UNL     1      16.241  55.309   4.241  1.00  0.00     0.001 A 
HETATM    9  C16 UNL     1      15.299  54.679   5.049  1.00  0.00     0.000 A 
HETATM   10  C17 UNL     1      13.943  54.788   4.750  1.00  0.00     0.001 A 
HETATM   11  C18 UNL     1      13.527  55.531   3.642  1.00  0.00     0.008 A 
ENDBRANCH   3   6
ENDBRANCH   1   3
BRANCH   1  12
HETATM   12  O2  UNL     1      13.584  58.662   3.200  1.00  0.00    -0.319 OA
BRANCH  12  13
HETATM   13  C5  UNL     1      13.510  60.075   3.461  1.00  0.00     0.205 C 
BRANCH  13  14
HETATM   14  C6  UNL     1      12.851  60.298   4.820  1.00  0.00     0.194 C 
BRANCH  14  15
HETATM   15  O3  UNL     1      13.756  60.992   5.681  1.00  0.00    -0.387 OA
BRANCH  15  16
HETATM   16  C7  UNL     1      13.448  60.778   7.061  1.00  0.00     0.198 C 
BRANCH  16  17
HETATM   17  C8  UNL     1      13.109  59.291   7.263  1.00  0.00     0.298 C 
BRANCH  17  18
HETATM   18  N1  UNL     1      12.158  59.040   8.366  1.00  0.00     0.089 N 
BRANCH  18  19
HETATM   19  C9  UNL     1      10.897  59.773   8.168  1.00  0.00     0.268 C 
HETATM   20  C10 UNL     1      10.320  60.361   9.453  1.00  0.00     0.037 C 
ENDBRANCH  18  19
BRANCH  18  21
HETATM   21  C11 UNL     1      12.793  59.281   9.674  1.00  0.00     0.268 C 
HETATM   22  C12 UNL     1      13.161  58.045  10.490  1.00  0.00     0.037 C 
ENDBRANCH  18  21
ENDBRANCH  17  18
ENDBRANCH  16  17
ENDBRANCH  15  16
ENDBRANCH  14  15
ENDBRANCH  13  14
ENDBRANCH  12  13
ENDBRANCH   1  12
TORSDOF 12
ENDMDL
MODEL 8
REMARK minimizedAffinity -4.64105082
REMARK  12 active torsions:
REMARK  status: ('A' for Active; 'I' for Inactive)
REMARK    1  A    between atoms: C2_2  and  C3_3 
REMARK    2  A    between atoms: C3_3  and  C4_4 
REMARK    3  A    between atoms: C3_3  and  C13_17 
REMARK    4  A    between atoms: C4_4  and  O2_6 
REMARK    5  A    between atoms: O2_6  and  C5_7 
REMARK    6  A    between atoms: C5_7  and  C6_8 
REMARK    7  A    between atoms: C6_8  and  O3_9 
REMARK    8  A    between atoms: O3_9  and  C7_10 
REMARK    9  A    between atoms: C7_10  and  C8_11 
REMARK   10  A    between atoms: C8_11  and  N1_12 
REMARK   11  A    between atoms: N1_12  and  C9_13 
REMARK   12  A    between atoms: N1_12  and  C11_15 
ROOT
HETATM    1  C4  UNL     1      18.112  53.394   6.271  1.00  0.00     0.267 C 
HETATM    2  O1  UNL     1      18.260  54.274   7.109  1.00  0.00    -0.265 OA
ENDROOT
BRANCH   1   3
HETATM    3  C3  UNL     1      17.783  53.628   4.798  1.00  0.00     0.118 C 
BRANCH   3   4
HETATM    4  C2  UNL     1      18.918  54.356   4.048  1.00  0.00     0.015 C 
HETATM    5  C1  UNL     1      19.445  55.625   4.706  1.00  0.00     0.006 C 
ENDBRANCH   3   4
BRANCH   3   6
HETATM    6  C13 UNL     1      16.415  54.252   4.564  1.00  0.00    -0.044 A 
HETATM    7  C14 UNL     1      15.288  53.705   5.197  1.00  0.00     0.008 A 
HETATM    8  C15 UNL     1      14.019  54.249   4.988  1.00  0.00     0.001 A 
HETATM    9  C16 UNL     1      13.860  55.342   4.140  1.00  0.00     0.000 A 
HETATM   10  C17 UNL     1      14.968  55.890   3.498  1.00  0.00     0.001 A 
HETATM   11  C18 UNL     1      16.238  55.348   3.706  1.00  0.00     0.008 A 
ENDBRANCH   3   6
ENDBRANCH   1   3
BRANCH   1  12
HETATM   12  O2  UNL     1      18.214  52.053   6.512  1.00  0.00    -0.319 OA
BRANCH  12  13
HETATM   13  C5  UNL     1      17.995  51.178   5.392  1.00  0.00     0.205 C 
BRANCH  13  14
HETATM   14  C6  UNL     1      17.572  49.805   5.906  1.00  0.00     0.194 C 
BRANCH  14  15
HETATM   15  O3  UNL     1      18.732  48.995   6.113  1.00  0.00    -0.387 OA
BRANCH  15  16
HETATM   16  C7  UNL     1      18.388  47.662   6.501  1.00  0.00     0.198 C 
BRANCH  16  17
HETATM   17  C8  UNL     1      18.102  46.840   5.233  1.00  0.00     0.298 C 
BRANCH  17  18
HETATM   18  N1  UNL     1      16.889  46.002   5.326  1.00  0.00     0.089 N 
BRANCH  18  19
HETATM   19  C9  UNL     1      16.124  46.295   6.549  1.00  0.00     0.268 C 
HETATM   20  C10 UNL     1      14.717  46.823   6.282  1.00  0.00     0.037 C 
ENDBRANCH  18  19
BRANCH  18  21
HETATM   21  C11 UNL     1      17.218  44.576   5.153  1.00  0.00     0.268 C 
HETATM   22  C12 UNL     1      17.464  43.775   6.429  1.00  0.00     0.037 C 
ENDBRANCH  18  21
ENDBRANCH  17  18
ENDBRANCH  16  17
ENDBRANCH  15  16
ENDBRANCH  14  15
ENDBRANCH  13  14
ENDBRANCH  12  13
ENDBRANCH   1  12
TORSDOF 12
ENDMDL
MODEL 9
REMARK minimizedAffinity -4.63732576
REMARK  12 active torsions:
REMARK  status: ('A' for Active; 'I' for Inactive)
REMARK    1  A    between atoms: C2_2  and  C3_3 
REMARK    2  A    between atoms: C3_3  and  C4_4 
REMARK    3  A    between atoms: C3_3  and  C13_17 
REMARK    4  A    between atoms: C4_4  and  O2_6 
REMARK    5  A    between atoms: O2_6  and  C5_7 
REMARK    6  A    between atoms: C5_7  and  C6_8 
REMARK    7  A    between atoms: C6_8  and  O3_9 
REMARK    8  A    between atoms: O3_9  and  C7_10 
REMARK    9  A    between atoms: C7_10  and  C8_11 
REMARK   10  A    between atoms: C8_11  and  N1_12 
REMARK   11  A    between atoms: N1_12  and  C9_13 
REMARK   12  A    between atoms: N1_12  and  C11_15 
ROOT
HETATM    1  C4  UNL     1      13.883  46.889  -1.910  1.00  0.00     0.267 C 
HETATM    2  O1  UNL     1      13.817  45.821  -2.506  1.00  0.00    -0.265 OA
ENDROOT
BRANCH   1   3
HETATM    3  C3  UNL     1      12.841  48.003  -1.983  1.00  0.00     0.118 C 
BRANCH   3   4
HETATM    4  C2  UNL     1      13.427  49.384  -1.622  1.00  0.00     0.015 C 
HETATM    5  C1  UNL     1      13.443  50.416  -2.744  1.00  0.00     0.006 C 
ENDBRANCH   3   4
BRANCH   3   6
HETATM    6  C13 UNL     1      11.550  47.688  -1.243  1.00  0.00    -0.044 A 
HETATM    7  C14 UNL     1      11.299  46.374  -0.817  1.00  0.00     0.008 A 
HETATM    8  C15 UNL     1      10.115  46.055  -0.149  1.00  0.00     0.001 A 
HETATM    9  C16 UNL     1       9.165  47.043   0.096  1.00  0.00     0.000 A 
HETATM   10  C17 UNL     1       9.395  48.349  -0.329  1.00  0.00     0.001 A 
HETATM   11  C18 UNL     1      10.579  48.671  -0.996  1.00  0.00     0.008 A 
ENDBRANCH   3   6
ENDBRANCH   1   3
BRANCH   1  12
HETATM   12  O2  UNL     1      14.901  47.264  -1.080  1.00  0.00    -0.319 OA
BRANCH  12  13
HETATM   13  C5  UNL     1      16.234  46.918  -1.497  1.00  0.00     0.205 C 
BRANCH  13  14
HETATM   14  C6  UNL     1      16.872  46.025  -0.437  1.00  0.00     0.194 C 
BRANCH  14  15
HETATM   15  O3  UNL     1      15.912  45.735   0.583  1.00  0.00    -0.387 OA
BRANCH  15  16
HETATM   16  C7  UNL     1      16.469  45.872   1.893  1.00  0.00     0.198 C 
BRANCH  16  17
HETATM   17  C8  UNL     1      15.318  46.034   2.901  1.00  0.00     0.298 C 
BRANCH  17  18
HETATM   18  N1  UNL     1      15.729  45.856   4.309  1.00  0.00     0.089 N 
BRANCH  18  19
HETATM   19  C9  UNL     1      15.302  46.992   5.142  1.00  0.00     0.268 C 
HETATM   20  C10 UNL     1      14.948  46.604   6.575  1.00  0.00     0.037 C 
ENDBRANCH  18  19
BRANCH  18  21
HETATM   21  C11 UNL     1      17.168  45.551   4.404  1.00  0.00     0.268 C 
HETATM   22  C12 UNL     1      17.542  44.241   5.092  1.00  0.00     0.037 C 
ENDBRANCH  18  21
ENDBRANCH  17  18
ENDBRANCH  16  17
ENDBRANCH  15  16
ENDBRANCH  14  15
ENDBRANCH  13  14
ENDBRANCH  12  13
ENDBRANCH   1  12
TORSDOF 12
ENDMDL
