MODEL 1
REMARK minimizedAffinity -9.36214066
REMARK  4 active torsions:
REMARK  status: ('A' for Active; 'I' for Inactive)
REMARK    1  A    between atoms: C2_2  and  C3_3 
REMARK    2  A    between atoms: C2_2  and  C9_9 
REMARK    3  A    between atoms: C3_3  and  C4_4 
REMARK    4  A    between atoms: C4_4  and  C5_5 
ROOT
HETATM    1  C9  UNL     1      -6.482   6.978  15.291  1.00  0.00     0.018 C 
HETATM    2  C10 UNL     1      -6.415   8.529  15.340  1.00  0.00     0.010 C 
HETATM    3  C11 UNL     1      -4.925   8.882  15.188  1.00  0.00     0.011 C 
HETATM    4  C12 UNL     1      -4.382   7.810  14.216  1.00  0.00    -0.032 C 
HETATM    5  C13 UNL     1      -4.937   8.170  12.801  1.00  0.00     0.016 C 
HETATM    6  C14 UNL     1      -5.065   6.547  14.812  1.00  0.00     0.002 C 
HETATM    7  C15 UNL     1      -4.849   5.327  13.931  1.00  0.00     0.006 C 
HETATM    8  C16 UNL     1      -3.341   5.051  13.764  1.00  0.00     0.006 C 
HETATM    9  C17 UNL     1      -2.519   6.282  13.288  1.00  0.00     0.003 C 
HETATM   10  C18 UNL     1      -0.991   5.992  12.944  1.00  0.00    -0.035 C 
HETATM   11  C19 UNL     1      -0.206   5.499  14.181  1.00  0.00     0.016 C 
HETATM   12  C20 UNL     1      -0.924   4.874  11.857  1.00  0.00     0.017 C 
HETATM   13  C21 UNL     1       0.455   4.671  11.242  1.00  0.00     0.080 C 
HETATM   14  C22 UNL     1       1.033   5.962  10.717  1.00  0.00     0.135 C 
HETATM   15  O1  UNL     1       1.570   5.984   9.607  1.00  0.00    -0.297 OA
HETATM   16  C23 UNL     1       1.023   7.183  11.653  1.00  0.00     0.017 C 
HETATM   17  C24 UNL     1       1.322   8.437  10.792  1.00  0.00     0.023 C 
HETATM   18  C25 UNL     1       2.177   7.040  12.654  1.00  0.00     0.023 C 
HETATM   19  C26 UNL     1      -0.404   7.304  12.292  1.00  0.00     0.009 C 
HETATM   20  C27 UNL     1      -0.584   8.529  13.214  1.00  0.00     0.007 C 
HETATM   21  C28 UNL     1      -2.062   8.782  13.539  1.00  0.00     0.011 C 
HETATM   22  C29 UNL     1      -2.796   7.573  14.175  1.00  0.00    -0.032 C 
HETATM   23  C30 UNL     1      -2.234   7.415  15.618  1.00  0.00     0.016 C 
ENDROOT
BRANCH   1  24
HETATM   24  C2  UNL     1      -7.695   6.314  14.644  1.00  0.00    -0.084 C 
HETATM   25  C1  UNL     1      -8.850   6.952  14.390  1.00  0.00     0.014 C 
BRANCH  24  26
HETATM   26  C3  UNL     1      -7.503   4.821  14.370  1.00  0.00     0.037 C 
BRANCH  26  27
HETATM   27  C4  UNL     1      -7.979   4.275  13.016  1.00  0.00     0.031 C 
BRANCH  27  28
HETATM   28  C5  UNL     1      -7.428   2.897  12.755  1.00  0.00    -0.024 C 
HETATM   29  C6  UNL     1      -6.470   2.549  11.874  1.00  0.00    -0.091 C 
HETATM   30  C7  UNL     1      -5.784   3.493  10.925  1.00  0.00     0.042 C 
HETATM   31  C8  UNL     1      -6.008   1.119  11.768  1.00  0.00     0.042 C 
ENDBRANCH  27  28
ENDBRANCH  26  27
ENDBRANCH  24  26
ENDBRANCH   1  24
TORSDOF 4
ENDMDL
MODEL 2
REMARK minimizedAffinity -9.09019947
REMARK  4 active torsions:
REMARK  status: ('A' for Active; 'I' for Inactive)
REMARK    1  A    between atoms: C2_2  and  C3_3 
REMARK    2  A    between atoms: C2_2  and  C9_9 
REMARK    3  A    between atoms: C3_3  and  C4_4 
REMARK    4  A    between atoms: C4_4  and  C5_5 
ROOT
HETATM    1  C9  UNL     1      -5.353   7.511  15.761  1.00  0.00     0.018 C 
HETATM    2  C10 UNL     1      -5.596   8.958  15.255  1.00  0.00     0.010 C 
HETATM    3  C11 UNL     1      -4.243   9.433  14.698  1.00  0.00     0.011 C 
HETATM    4  C12 UNL     1      -3.628   8.162  14.070  1.00  0.00    -0.032 C 
HETATM    5  C13 UNL     1      -4.429   7.880  12.759  1.00  0.00     0.016 C 
HETATM    6  C14 UNL     1      -3.955   7.134  15.190  1.00  0.00     0.002 C 
HETATM    7  C15 UNL     1      -3.615   5.714  14.762  1.00  0.00     0.006 C 
HETATM    8  C16 UNL     1      -2.119   5.610  14.404  1.00  0.00     0.006 C 
HETATM    9  C17 UNL     1      -1.636   6.673  13.378  1.00  0.00     0.003 C 
HETATM   10  C18 UNL     1      -0.140   6.491  12.859  1.00  0.00    -0.035 C 
HETATM   11  C19 UNL     1       0.887   6.615  14.007  1.00  0.00     0.016 C 
HETATM   12  C20 UNL     1       0.006   5.068  12.236  1.00  0.00     0.017 C 
HETATM   13  C21 UNL     1       1.302   4.843  11.468  1.00  0.00     0.080 C 
HETATM   14  C22 UNL     1       1.531   5.909  10.425  1.00  0.00     0.135 C 
HETATM   15  O1  UNL     1       1.899   5.586   9.293  1.00  0.00    -0.297 OA
HETATM   16  C23 UNL     1       1.399   7.377  10.862  1.00  0.00     0.017 C 
HETATM   17  C24 UNL     1       1.318   8.244   9.579  1.00  0.00     0.023 C 
HETATM   18  C25 UNL     1       2.681   7.785  11.600  1.00  0.00     0.023 C 
HETATM   19  C26 UNL     1       0.075   7.529  11.690  1.00  0.00     0.009 C 
HETATM   20  C27 UNL     1      -0.225   8.973  12.147  1.00  0.00     0.007 C 
HETATM   21  C28 UNL     1      -1.667   9.121  12.651  1.00  0.00     0.011 C 
HETATM   22  C29 UNL     1      -2.047   8.151  13.798  1.00  0.00    -0.032 C 
HETATM   23  C30 UNL     1      -1.277   8.628  15.064  1.00  0.00     0.016 C 
ENDROOT
BRANCH   1  24
HETATM   24  C2  UNL     1      -6.481   6.490  15.639  1.00  0.00    -0.084 C 
HETATM   25  C1  UNL     1      -7.530   6.430  16.478  1.00  0.00     0.014 C 
BRANCH  24  26
HETATM   26  C3  UNL     1      -6.275   5.481  14.508  1.00  0.00     0.037 C 
BRANCH  26  27
HETATM   27  C4  UNL     1      -7.477   4.620  14.089  1.00  0.00     0.031 C 
BRANCH  27  28
HETATM   28  C5  UNL     1      -7.989   5.016  12.729  1.00  0.00    -0.024 C 
HETATM   29  C6  UNL     1      -8.978   5.886  12.443  1.00  0.00    -0.091 C 
HETATM   30  C7  UNL     1      -9.812   6.611  13.464  1.00  0.00     0.042 C 
HETATM   31  C8  UNL     1      -9.340   6.196  11.014  1.00  0.00     0.042 C 
ENDBRANCH  27  28
ENDBRANCH  26  27
ENDBRANCH  24  26
ENDBRANCH   1  24
TORSDOF 4
ENDMDL
MODEL 3
REMARK minimizedAffinity -8.98420811
REMARK  4 active torsions:
REMARK  status: ('A' for Active; 'I' for Inactive)
REMARK    1  A    between atoms: C2_2  and  C3_3 
REMARK    2  A    between atoms: C2_2  and  C9_9 
REMARK    3  A    between atoms: C3_3  and  C4_4 
REMARK    4  A    between atoms: C4_4  and  C5_5 
ROOT
HETATM    1  C9  UNL     1      -7.111   5.764  14.605  1.00  0.00     0.018 C 
HETATM    2  C10 UNL     1      -7.143   7.164  15.277  1.00  0.00     0.010 C 
HETATM    3  C11 UNL     1      -5.670   7.557  15.480  1.00  0.00     0.011 C 
HETATM    4  C12 UNL     1      -4.951   6.973  14.243  1.00  0.00    -0.032 C 
HETATM    5  C13 UNL     1      -5.353   7.869  13.029  1.00  0.00     0.016 C 
HETATM    6  C14 UNL     1      -5.624   5.572  14.189  1.00  0.00     0.002 C 
HETATM    7  C15 UNL     1      -5.231   4.812  12.930  1.00  0.00     0.006 C 
HETATM    8  C16 UNL     1      -3.700   4.637  12.871  1.00  0.00     0.006 C 
HETATM    9  C17 UNL     1      -2.903   5.962  13.040  1.00  0.00     0.003 C 
HETATM   10  C18 UNL     1      -1.329   5.844  12.817  1.00  0.00    -0.035 C 
HETATM   11  C19 UNL     1      -0.670   4.899  13.847  1.00  0.00     0.016 C 
HETATM   12  C20 UNL     1      -1.066   5.261  11.394  1.00  0.00     0.017 C 
HETATM   13  C21 UNL     1       0.386   5.332  10.939  1.00  0.00     0.080 C 
HETATM   14  C22 UNL     1       0.945   6.729  11.056  1.00  0.00     0.135 C 
HETATM   15  O1  UNL     1       1.609   7.200  10.130  1.00  0.00    -0.297 OA
HETATM   16  C23 UNL     1       0.750   7.468  12.390  1.00  0.00     0.017 C 
HETATM   17  C24 UNL     1       1.073   8.965  12.150  1.00  0.00     0.023 C 
HETATM   18  C25 UNL     1       1.782   6.941  13.396  1.00  0.00     0.023 C 
HETATM   19  C26 UNL     1      -0.749   7.312  12.828  1.00  0.00     0.009 C 
HETATM   20  C27 UNL     1      -1.111   8.059  14.129  1.00  0.00     0.007 C 
HETATM   21  C28 UNL     1      -2.630   8.150  14.328  1.00  0.00     0.011 C 
HETATM   22  C29 UNL     1      -3.360   6.783  14.323  1.00  0.00    -0.032 C 
HETATM   23  C30 UNL     1      -2.967   6.059  15.644  1.00  0.00     0.016 C 
ENDROOT
BRANCH   1  24
HETATM   24  C2  UNL     1      -8.196   5.410  13.591  1.00  0.00    -0.084 C 
HETATM   25  C1  UNL     1      -8.286   4.218  12.976  1.00  0.00     0.014 C 
BRANCH  24  26
HETATM   26  C3  UNL     1      -9.144   6.570  13.277  1.00  0.00     0.037 C 
BRANCH  26  27
HETATM   27  C4  UNL     1     -10.117   7.016  14.379  1.00  0.00     0.031 C 
BRANCH  27  28
HETATM   28  C5  UNL     1     -11.548   6.757  13.985  1.00  0.00    -0.024 C 
HETATM   29  C6  UNL     1     -12.335   7.517  13.198  1.00  0.00    -0.091 C 
HETATM   30  C7  UNL     1     -11.933   8.831  12.586  1.00  0.00     0.042 C 
HETATM   31  C8  UNL     1     -13.742   7.087  12.874  1.00  0.00     0.042 C 
ENDBRANCH  27  28
ENDBRANCH  26  27
ENDBRANCH  24  26
ENDBRANCH   1  24
TORSDOF 4
ENDMDL
MODEL 4
REMARK minimizedAffinity -8.97976685
REMARK  4 active torsions:
REMARK  status: ('A' for Active; 'I' for Inactive)
REMARK    1  A    between atoms: C2_2  and  C3_3 
REMARK    2  A    between atoms: C2_2  and  C9_9 
REMARK    3  A    between atoms: C3_3  and  C4_4 
REMARK    4  A    between atoms: C4_4  and  C5_5 
ROOT
HETATM    1  C9  UNL     1       0.815   6.508  12.097  1.00  0.00     0.018 C 
HETATM    2  C10 UNL     1       0.970   5.019  11.685  1.00  0.00     0.010 C 
HETATM    3  C11 UNL     1      -0.219   4.287  12.331  1.00  0.00     0.011 C 
HETATM    4  C12 UNL     1      -1.375   5.310  12.259  1.00  0.00    -0.032 C 
HETATM    5  C13 UNL     1      -1.820   5.376  10.763  1.00  0.00     0.016 C 
HETATM    6  C14 UNL     1      -0.616   6.592  12.703  1.00  0.00     0.002 C 
HETATM    7  C15 UNL     1      -1.482   7.834  12.555  1.00  0.00     0.006 C 
HETATM    8  C16 UNL     1      -2.765   7.692  13.398  1.00  0.00     0.006 C 
HETATM    9  C17 UNL     1      -3.556   6.380  13.135  1.00  0.00     0.003 C 
HETATM   10  C18 UNL     1      -4.969   6.277  13.862  1.00  0.00    -0.035 C 
HETATM   11  C19 UNL     1      -4.828   6.303  15.401  1.00  0.00     0.016 C 
HETATM   12  C20 UNL     1      -5.842   7.499  13.440  1.00  0.00     0.017 C 
HETATM   13  C21 UNL     1      -7.306   7.404  13.850  1.00  0.00     0.080 C 
HETATM   14  C22 UNL     1      -7.937   6.112  13.389  1.00  0.00     0.135 C 
HETATM   15  O1  UNL     1      -9.053   6.131  12.867  1.00  0.00    -0.297 OA
HETATM   16  C23 UNL     1      -7.193   4.803  13.699  1.00  0.00     0.017 C 
HETATM   17  C24 UNL     1      -7.830   3.684  12.835  1.00  0.00     0.023 C 
HETATM   18  C25 UNL     1      -7.443   4.434  15.167  1.00  0.00     0.023 C 
HETATM   19  C26 UNL     1      -5.685   4.985  13.304  1.00  0.00     0.009 C 
HETATM   20  C27 UNL     1      -4.820   3.722  13.504  1.00  0.00     0.007 C 
HETATM   21  C28 UNL     1      -3.461   3.849  12.803  1.00  0.00     0.011 C 
HETATM   22  C29 UNL     1      -2.632   5.088  13.230  1.00  0.00    -0.032 C 
HETATM   23  C30 UNL     1      -2.152   4.826  14.687  1.00  0.00     0.016 C 
ENDROOT
BRANCH   1  24
HETATM   24  C2  UNL     1       1.247   7.592  11.113  1.00  0.00    -0.084 C 
HETATM   25  C1  UNL     1       0.389   8.340  10.398  1.00  0.00     0.014 C 
BRANCH  24  26
HETATM   26  C3  UNL     1       2.765   7.708  10.956  1.00  0.00     0.037 C 
BRANCH  26  27
HETATM   27  C4  UNL     1       3.471   6.685  10.055  1.00  0.00     0.031 C 
BRANCH  27  28
HETATM   28  C5  UNL     1       2.737   6.501   8.752  1.00  0.00    -0.024 C 
HETATM   29  C6  UNL     1       2.575   7.403   7.765  1.00  0.00    -0.091 C 
HETATM   30  C7  UNL     1       3.073   8.822   7.801  1.00  0.00     0.042 C 
HETATM   31  C8  UNL     1       1.839   7.037   6.502  1.00  0.00     0.042 C 
ENDBRANCH  27  28
ENDBRANCH  26  27
ENDBRANCH  24  26
ENDBRANCH   1  24
TORSDOF 4
ENDMDL
MODEL 5
REMARK minimizedAffinity -8.8029747
REMARK  4 active torsions:
REMARK  status: ('A' for Active; 'I' for Inactive)
REMARK    1  A    between atoms: C2_2  and  C3_3 
REMARK    2  A    between atoms: C2_2  and  C9_9 
REMARK    3  A    between atoms: C3_3  and  C4_4 
REMARK    4  A    between atoms: C4_4  and  C5_5 
ROOT
HETATM    1  C9  UNL     1      -2.937   7.497  15.439  1.00  0.00     0.018 C 
HETATM    2  C10 UNL     1      -2.016   8.124  16.520  1.00  0.00     0.010 C 
HETATM    3  C11 UNL     1      -0.578   7.863  16.040  1.00  0.00     0.011 C 
HETATM    4  C12 UNL     1      -0.669   7.982  14.501  1.00  0.00    -0.032 C 
HETATM    5  C13 UNL     1      -0.837   9.501  14.180  1.00  0.00     0.016 C 
HETATM    6  C14 UNL     1      -1.978   7.180  14.255  1.00  0.00     0.002 C 
HETATM    7  C15 UNL     1      -2.428   7.277  12.805  1.00  0.00     0.006 C 
HETATM    8  C16 UNL     1      -1.327   6.741  11.869  1.00  0.00     0.006 C 
HETATM    9  C17 UNL     1       0.072   7.380  12.102  1.00  0.00     0.003 C 
HETATM   10  C18 UNL     1       1.193   6.975  11.045  1.00  0.00    -0.035 C 
HETATM   11  C19 UNL     1       1.488   5.458  11.071  1.00  0.00     0.016 C 
HETATM   12  C20 UNL     1       0.690   7.340   9.614  1.00  0.00     0.017 C 
HETATM   13  C21 UNL     1       1.753   7.250   8.527  1.00  0.00     0.080 C 
HETATM   14  C22 UNL     1       2.987   8.044   8.879  1.00  0.00     0.135 C 
HETATM   15  O1  UNL     1       3.512   8.765   8.028  1.00  0.00    -0.297 OA
HETATM   16  C23 UNL     1       3.604   7.827  10.271  1.00  0.00     0.017 C 
HETATM   17  C24 UNL     1       4.607   8.982  10.525  1.00  0.00     0.023 C 
HETATM   18  C25 UNL     1       4.415   6.525  10.248  1.00  0.00     0.023 C 
HETATM   19  C26 UNL     1       2.453   7.879  11.335  1.00  0.00     0.009 C 
HETATM   20  C27 UNL     1       2.933   7.737  12.796  1.00  0.00     0.007 C 
HETATM   21  C28 UNL     1       1.834   8.123  13.795  1.00  0.00     0.011 C 
HETATM   22  C29 UNL     1       0.511   7.331  13.630  1.00  0.00    -0.032 C 
HETATM   23  C30 UNL     1       0.797   5.877  14.104  1.00  0.00     0.016 C 
ENDROOT
BRANCH   1  24
HETATM   24  C2  UNL     1      -4.270   8.172  15.127  1.00  0.00    -0.084 C 
HETATM   25  C1  UNL     1      -4.426   9.502  15.007  1.00  0.00     0.014 C 
BRANCH  24  26
HETATM   26  C3  UNL     1      -5.443   7.195  15.031  1.00  0.00     0.037 C 
BRANCH  26  27
HETATM   27  C4  UNL     1      -5.840   6.689  13.636  1.00  0.00     0.031 C 
BRANCH  27  28
HETATM   28  C5  UNL     1      -6.174   5.220  13.659  1.00  0.00    -0.024 C 
HETATM   29  C6  UNL     1      -7.334   4.634  13.302  1.00  0.00    -0.091 C 
HETATM   30  C7  UNL     1      -8.566   5.366  12.844  1.00  0.00     0.042 C 
HETATM   31  C8  UNL     1      -7.486   3.136  13.351  1.00  0.00     0.042 C 
ENDBRANCH  27  28
ENDBRANCH  26  27
ENDBRANCH  24  26
ENDBRANCH   1  24
TORSDOF 4
ENDMDL
MODEL 6
REMARK minimizedAffinity -8.55511951
REMARK  4 active torsions:
REMARK  status: ('A' for Active; 'I' for Inactive)
REMARK    1  A    between atoms: C2_2  and  C3_3 
REMARK    2  A    between atoms: C2_2  and  C9_9 
REMARK    3  A    between atoms: C3_3  and  C4_4 
REMARK    4  A    between atoms: C4_4  and  C5_5 
ROOT
HETATM    1  C9  UNL     1      -1.248   5.186  11.833  1.00  0.00     0.018 C 
HETATM    2  C10 UNL     1       0.006   4.663  12.584  1.00  0.00     0.010 C 
HETATM    3  C11 UNL     1       0.494   5.844  13.442  1.00  0.00     0.011 C 
HETATM    4  C12 UNL     1      -0.808   6.551  13.882  1.00  0.00    -0.032 C 
HETATM    5  C13 UNL     1      -1.473   5.633  14.956  1.00  0.00     0.016 C 
HETATM    6  C14 UNL     1      -1.581   6.535  12.534  1.00  0.00     0.002 C 
HETATM    7  C15 UNL     1      -3.012   7.022  12.704  1.00  0.00     0.006 C 
HETATM    8  C16 UNL     1      -3.022   8.456  13.272  1.00  0.00     0.006 C 
HETATM    9  C17 UNL     1      -2.174   8.633  14.564  1.00  0.00     0.003 C 
HETATM   10  C18 UNL     1      -2.296  10.056  15.270  1.00  0.00    -0.035 C 
HETATM   11  C19 UNL     1      -1.793  11.197  14.357  1.00  0.00     0.016 C 
HETATM   12  C20 UNL     1      -3.797  10.329  15.596  1.00  0.00     0.017 C 
HETATM   13  C21 UNL     1      -4.041  11.529  16.501  1.00  0.00     0.080 C 
HETATM   14  C22 UNL     1      -3.224  11.455  17.768  1.00  0.00     0.135 C 
HETATM   15  O1  UNL     1      -3.753  11.712  18.852  1.00  0.00    -0.297 OA
HETATM   16  C23 UNL     1      -1.720  11.164  17.633  1.00  0.00     0.017 C 
HETATM   17  C24 UNL     1      -1.186  10.784  19.038  1.00  0.00     0.023 C 
HETATM   18  C25 UNL     1      -1.007  12.458  17.217  1.00  0.00     0.023 C 
HETATM   19  C26 UNL     1      -1.536   9.955  16.650  1.00  0.00     0.009 C 
HETATM   20  C27 UNL     1      -0.070   9.507  16.463  1.00  0.00     0.007 C 
HETATM   21  C28 UNL     1       0.021   8.140  15.771  1.00  0.00     0.011 C 
HETATM   22  C29 UNL     1      -0.697   8.066  14.400  1.00  0.00    -0.032 C 
HETATM   23  C30 UNL     1       0.143   8.918  13.406  1.00  0.00     0.016 C 
ENDROOT
BRANCH   1  24
HETATM   24  C2  UNL     1      -2.394   4.217  11.552  1.00  0.00    -0.084 C 
HETATM   25  C1  UNL     1      -2.638   3.676  10.345  1.00  0.00     0.014 C 
BRANCH  24  26
HETATM   26  C3  UNL     1      -3.295   3.965  12.762  1.00  0.00     0.037 C 
BRANCH  26  27
HETATM   27  C4  UNL     1      -4.752   3.560  12.497  1.00  0.00     0.031 C 
BRANCH  27  28
HETATM   28  C5  UNL     1      -5.716   4.563  13.076  1.00  0.00    -0.024 C 
HETATM   29  C6  UNL     1      -7.012   4.373  13.388  1.00  0.00    -0.091 C 
HETATM   30  C7  UNL     1      -7.776   3.096  13.165  1.00  0.00     0.042 C 
HETATM   31  C8  UNL     1      -7.827   5.484  13.998  1.00  0.00     0.042 C 
ENDBRANCH  27  28
ENDBRANCH  26  27
ENDBRANCH  24  26
ENDBRANCH   1  24
TORSDOF 4
ENDMDL
MODEL 7
REMARK minimizedAffinity -8.36600876
REMARK  4 active torsions:
REMARK  status: ('A' for Active; 'I' for Inactive)
REMARK    1  A    between atoms: C2_2  and  C3_3 
REMARK    2  A    between atoms: C2_2  and  C9_9 
REMARK    3  A    between atoms: C3_3  and  C4_4 
REMARK    4  A    between atoms: C4_4  and  C5_5 
ROOT
HETATM    1  C9  UNL     1       3.351   6.993  10.553  1.00  0.00     0.018 C 
HETATM    2  C10 UNL     1       2.996   5.617   9.926  1.00  0.00     0.010 C 
HETATM    3  C11 UNL     1       1.847   5.058  10.784  1.00  0.00     0.011 C 
HETATM    4  C12 UNL     1       1.026   6.308  11.173  1.00  0.00    -0.032 C 
HETATM    5  C13 UNL     1       0.268   6.763   9.886  1.00  0.00     0.016 C 
HETATM    6  C14 UNL     1       2.186   7.276  11.545  1.00  0.00     0.002 C 
HETATM    7  C15 UNL     1       1.675   8.685  11.808  1.00  0.00     0.006 C 
HETATM    8  C16 UNL     1       0.645   8.672  12.954  1.00  0.00     0.006 C 
HETATM    9  C17 UNL     1      -0.509   7.647  12.760  1.00  0.00     0.003 C 
HETATM   10  C18 UNL     1      -1.679   7.723  13.839  1.00  0.00    -0.035 C 
HETATM   11  C19 UNL     1      -1.168   7.416  15.265  1.00  0.00     0.016 C 
HETATM   12  C20 UNL     1      -2.267   9.169  13.841  1.00  0.00     0.017 C 
HETATM   13  C21 UNL     1      -3.558   9.326  14.633  1.00  0.00     0.080 C 
HETATM   14  C22 UNL     1      -4.604   8.324  14.209  1.00  0.00     0.135 C 
HETATM   15  O1  UNL     1      -5.767   8.694  14.030  1.00  0.00    -0.297 OA
HETATM   16  C23 UNL     1      -4.187   6.846  14.124  1.00  0.00     0.017 C 
HETATM   17  C24 UNL     1      -5.290   6.090  13.340  1.00  0.00     0.023 C 
HETATM   18  C25 UNL     1      -4.165   6.263  15.544  1.00  0.00     0.023 C 
HETATM   19  C26 UNL     1      -2.828   6.760  13.346  1.00  0.00     0.009 C 
HETATM   20  C27 UNL     1      -2.311   5.321  13.128  1.00  0.00     0.007 C 
HETATM   21  C28 UNL     1      -1.179   5.275  12.094  1.00  0.00     0.011 C 
HETATM   22  C29 UNL     1       0.029   6.188  12.424  1.00  0.00    -0.032 C 
HETATM   23  C30 UNL     1       0.758   5.546  13.639  1.00  0.00     0.016 C 
ENDROOT
BRANCH   1  24
HETATM   24  C2  UNL     1       3.807   8.124   9.634  1.00  0.00    -0.084 C 
HETATM   25  C1  UNL     1       3.252   8.386   8.438  1.00  0.00     0.014 C 
BRANCH  24  26
HETATM   26  C3  UNL     1       5.013   8.899  10.168  1.00  0.00     0.037 C 
BRANCH  26  27
HETATM   27  C4  UNL     1       6.034   8.133  11.022  1.00  0.00     0.031 C 
BRANCH  27  28
HETATM   28  C5  UNL     1       5.661   8.161  12.482  1.00  0.00    -0.024 C 
HETATM   29  C6  UNL     1       6.479   8.021  13.543  1.00  0.00    -0.091 C 
HETATM   30  C7  UNL     1       7.958   7.755  13.465  1.00  0.00     0.042 C 
HETATM   31  C8  UNL     1       5.939   8.114  14.947  1.00  0.00     0.042 C 
ENDBRANCH  27  28
ENDBRANCH  26  27
ENDBRANCH  24  26
ENDBRANCH   1  24
TORSDOF 4
ENDMDL
MODEL 8
REMARK minimizedAffinity -8.26851654
REMARK  4 active torsions:
REMARK  status: ('A' for Active; 'I' for Inactive)
REMARK    1  A    between atoms: C2_2  and  C3_3 
REMARK    2  A    between atoms: C2_2  and  C9_9 
REMARK    3  A    between atoms: C3_3  and  C4_4 
REMARK    4  A    between atoms: C4_4  and  C5_5 
ROOT
HETATM    1  C9  UNL     1      -5.603   5.908  13.551  1.00  0.00     0.018 C 
HETATM    2  C10 UNL     1      -4.796   4.864  12.734  1.00  0.00     0.010 C 
HETATM    3  C11 UNL     1      -3.408   5.494  12.518  1.00  0.00     0.011 C 
HETATM    4  C12 UNL     1      -3.144   6.278  13.823  1.00  0.00    -0.032 C 
HETATM    5  C13 UNL     1      -2.841   5.216  14.927  1.00  0.00     0.016 C 
HETATM    6  C14 UNL     1      -4.537   6.942  14.014  1.00  0.00     0.002 C 
HETATM    7  C15 UNL     1      -4.636   7.658  15.353  1.00  0.00     0.006 C 
HETATM    8  C16 UNL     1      -3.543   8.740  15.460  1.00  0.00     0.006 C 
HETATM    9  C17 UNL     1      -2.107   8.223  15.166  1.00  0.00     0.003 C 
HETATM   10  C18 UNL     1      -0.936   9.272  15.430  1.00  0.00    -0.035 C 
HETATM   11  C19 UNL     1      -1.060  10.515  14.519  1.00  0.00     0.016 C 
HETATM   12  C20 UNL     1      -1.019   9.754  16.912  1.00  0.00     0.017 C 
HETATM   13  C21 UNL     1       0.185  10.559  17.384  1.00  0.00     0.080 C 
HETATM   14  C22 UNL     1       1.483   9.832  17.130  1.00  0.00     0.135 C 
HETATM   15  O1  UNL     1       2.343   9.790  18.013  1.00  0.00    -0.297 OA
HETATM   16  C23 UNL     1       1.720   9.263  15.721  1.00  0.00     0.017 C 
HETATM   17  C24 UNL     1       2.915   8.278  15.806  1.00  0.00     0.023 C 
HETATM   18  C25 UNL     1       2.149  10.410  14.796  1.00  0.00     0.023 C 
HETATM   19  C26 UNL     1       0.428   8.494  15.274  1.00  0.00     0.009 C 
HETATM   20  C27 UNL     1       0.541   7.812  13.894  1.00  0.00     0.007 C 
HETATM   21  C28 UNL     1      -0.602   6.815  13.658  1.00  0.00     0.011 C 
HETATM   22  C29 UNL     1      -2.021   7.423  13.794  1.00  0.00    -0.032 C 
HETATM   23  C30 UNL     1      -2.230   8.355  12.566  1.00  0.00     0.016 C 
ENDROOT
BRANCH   1  24
HETATM   24  C2  UNL     1      -6.620   5.411  14.577  1.00  0.00    -0.084 C 
HETATM   25  C1  UNL     1      -7.661   4.616  14.275  1.00  0.00     0.014 C 
BRANCH  24  26
HETATM   26  C3  UNL     1      -6.389   5.963  15.985  1.00  0.00     0.037 C 
BRANCH  26  27
HETATM   27  C4  UNL     1      -7.456   6.901  16.569  1.00  0.00     0.031 C 
BRANCH  27  28
HETATM   28  C5  UNL     1      -8.771   6.755  15.848  1.00  0.00    -0.024 C 
HETATM   29  C6  UNL     1      -9.493   7.723  15.252  1.00  0.00    -0.091 C 
HETATM   30  C7  UNL     1      -9.134   9.183  15.235  1.00  0.00     0.042 C 
HETATM   31  C8  UNL     1     -10.778   7.392  14.538  1.00  0.00     0.042 C 
ENDBRANCH  27  28
ENDBRANCH  26  27
ENDBRANCH  24  26
ENDBRANCH   1  24
TORSDOF 4
ENDMDL
MODEL 9
REMARK minimizedAffinity -8.21483994
REMARK  4 active torsions:
REMARK  status: ('A' for Active; 'I' for Inactive)
REMARK    1  A    between atoms: C2_2  and  C3_3 
REMARK    2  A    between atoms: C2_2  and  C9_9 
REMARK    3  A    between atoms: C3_3  and  C4_4 
REMARK    4  A    between atoms: C4_4  and  C5_5 
ROOT
HETATM    1  C9  UNL     1      -2.955   6.118  14.771  1.00  0.00     0.018 C 
HETATM    2  C10 UNL     1      -3.137   5.110  13.605  1.00  0.00     0.010 C 
HETATM    3  C11 UNL     1      -4.652   4.857  13.511  1.00  0.00     0.011 C 
HETATM    4  C12 UNL     1      -5.283   6.223  13.862  1.00  0.00    -0.032 C 
HETATM    5  C13 UNL     1      -5.042   7.155  12.632  1.00  0.00     0.016 C 
HETATM    6  C14 UNL     1      -4.398   6.614  15.079  1.00  0.00     0.002 C 
HETATM    7  C15 UNL     1      -4.680   8.036  15.541  1.00  0.00     0.006 C 
HETATM    8  C16 UNL     1      -6.164   8.184  15.931  1.00  0.00     0.006 C 
HETATM    9  C17 UNL     1      -7.159   7.705  14.837  1.00  0.00     0.003 C 
HETATM   10  C18 UNL     1      -8.697   7.998  15.136  1.00  0.00    -0.035 C 
HETATM   11  C19 UNL     1      -9.186   7.264  16.406  1.00  0.00     0.016 C 
HETATM   12  C20 UNL     1      -8.881   9.530  15.367  1.00  0.00     0.017 C 
HETATM   13  C21 UNL     1     -10.331   9.994  15.409  1.00  0.00     0.080 C 
HETATM   14  C22 UNL     1     -11.103   9.540  14.194  1.00  0.00     0.135 C 
HETATM   15  O1  UNL     1     -11.843  10.334  13.610  1.00  0.00    -0.297 OA
HETATM   16  C23 UNL     1     -11.011   8.056  13.802  1.00  0.00     0.017 C 
HETATM   17  C24 UNL     1     -11.571   7.914  12.363  1.00  0.00     0.023 C 
HETATM   18  C25 UNL     1     -11.935   7.250  14.725  1.00  0.00     0.023 C 
HETATM   19  C26 UNL     1      -9.502   7.629  13.830  1.00  0.00     0.009 C 
HETATM   20  C27 UNL     1      -9.248   6.169  13.396  1.00  0.00     0.007 C 
HETATM   21  C28 UNL     1      -7.760   5.909  13.123  1.00  0.00     0.011 C 
HETATM   22  C29 UNL     1      -6.823   6.241  14.312  1.00  0.00    -0.032 C 
HETATM   23  C30 UNL     1      -7.082   5.162  15.403  1.00  0.00     0.016 C 
ENDROOT
BRANCH   1  24
HETATM   24  C2  UNL     1      -1.839   7.157  14.678  1.00  0.00    -0.084 C 
HETATM   25  C1  UNL     1      -1.112   7.569  15.731  1.00  0.00     0.014 C 
BRANCH  24  26
HETATM   26  C3  UNL     1      -1.667   7.747  13.278  1.00  0.00     0.037 C 
BRANCH  26  27
HETATM   27  C4  UNL     1      -0.236   8.000  12.780  1.00  0.00     0.031 C 
BRANCH  27  28
HETATM   28  C5  UNL     1      -0.229   8.489  11.354  1.00  0.00    -0.024 C 
HETATM   29  C6  UNL     1       0.153   7.811  10.254  1.00  0.00    -0.091 C 
HETATM   30  C7  UNL     1       0.704   6.411  10.250  1.00  0.00     0.042 C 
HETATM   31  C8  UNL     1       0.059   8.444   8.891  1.00  0.00     0.042 C 
ENDBRANCH  27  28
ENDBRANCH  26  27
ENDBRANCH  24  26
ENDBRANCH   1  24
TORSDOF 4
ENDMDL
