MODEL 1
REMARK minimizedAffinity -8.37108707
REMARK  11 active torsions:
REMARK  status: ('A' for Active; 'I' for Inactive)
REMARK    1  A    between atoms: C2_2  and  O1_3 
REMARK    2  A    between atoms: C2_2  and  C3_4 
REMARK    3  A    between atoms: C4_5  and  C5_6 
REMARK    4  A    between atoms: C5_6  and  O2_7 
REMARK    5  A    between atoms: C9_11  and  O3_12 
REMARK    6  A    between atoms: O3_12  and  C10_13 
REMARK    7  A    between atoms: C11_15  and  C12_16 
REMARK    8  A    between atoms: C12_16  and  O5_17 
REMARK    9  A    between atoms: C13_18  and  O6_19 
REMARK   10  A    between atoms: C14_20  and  O7_21 
REMARK   11  A    between atoms: C15_22  and  O8_23 
ROOT
HETATM    1  C5  UNL     1      -7.545   5.614  14.027  1.00  0.00     0.086 C 
HETATM    2  C6  UNL     1      -6.965   4.679  12.900  1.00  0.00     0.023 C 
HETATM    3  C7  UNL     1      -7.743   3.365  12.720  1.00  0.00     0.013 C 
HETATM    4  C8  UNL     1      -5.489   4.350  13.157  1.00  0.00     0.039 C 
HETATM    5  C9  UNL     1      -4.609   5.598  13.076  1.00  0.00     0.126 C 
HETATM    6  C16 UNL     1      -5.377   6.883  13.424  1.00  0.00     0.044 C 
HETATM    7  C17 UNL     1      -6.471   6.702  14.509  1.00  0.00    -0.010 C 
HETATM    8  C18 UNL     1      -5.802   6.311  15.853  1.00  0.00     0.018 C 
HETATM    9  C19 UNL     1      -7.088   8.104  14.757  1.00  0.00     0.018 C 
ENDROOT
BRANCH   5  10
HETATM   10  O3  UNL     1      -3.477   5.506  13.950  1.00  0.00    -0.353 OA
BRANCH  10  11
HETATM   11  C10 UNL     1      -2.618   6.650  13.924  1.00  0.00     0.292 C 
HETATM   12  O4  UNL     1      -1.883   6.788  12.709  1.00  0.00    -0.348 OA
HETATM   13  C11 UNL     1      -0.569   6.196  12.671  1.00  0.00     0.179 C 
HETATM   14  C13 UNL     1       0.334   6.727  13.810  1.00  0.00     0.180 C 
HETATM   15  C14 UNL     1      -0.470   7.401  14.926  1.00  0.00     0.183 C 
HETATM   16  C15 UNL     1      -1.731   6.591  15.183  1.00  0.00     0.204 C 
BRANCH  13  17
HETATM   17  C12 UNL     1      -0.625   4.662  12.551  1.00  0.00     0.198 C 
BRANCH  17  18
HETATM   18  O5  UNL     1      -0.372   4.274  11.198  1.00  0.00    -0.398 OA
HETATM   19  H20 UNL     1      -0.692   3.361  11.100  1.00  0.00     0.209 HD
ENDBRANCH  17  18
ENDBRANCH  13  17
BRANCH  14  20
HETATM   20  O6  UNL     1       1.136   5.686  14.385  1.00  0.00    -0.390 OA
HETATM   21  H22 UNL     1       1.442   6.056  15.243  1.00  0.00     0.210 HD
ENDBRANCH  14  20
BRANCH  15  22
HETATM   22  O7  UNL     1       0.332   7.461  16.119  1.00  0.00    -0.390 OA
HETATM   23  H24 UNL     1      -0.305   7.659  16.836  1.00  0.00     0.210 HD
ENDBRANCH  15  22
BRANCH  16  24
HETATM   24  O8  UNL     1      -2.415   7.122  16.334  1.00  0.00    -0.388 OA
HETATM   25  H26 UNL     1      -3.205   6.561  16.452  1.00  0.00     0.210 HD
ENDBRANCH  16  24
ENDBRANCH  10  11
ENDBRANCH   5  10
BRANCH   1  26
HETATM   26  C4  UNL     1      -8.888   6.237  13.655  1.00  0.00     0.010 C 
HETATM   27  C3  UNL     1      -9.821   6.794  14.450  1.00  0.00     0.003 C 
BRANCH  27  28
HETATM   28  C2  UNL     1     -11.129   7.401  14.008  1.00  0.00     0.136 C 
HETATM   29  C1  UNL     1     -12.303   6.478  14.312  1.00  0.00     0.043 C 
BRANCH  28  30
HETATM   30  O1  UNL     1     -11.118   7.687  12.616  1.00  0.00    -0.392 OA
HETATM   31  H5  UNL     1     -11.060   6.836  12.149  1.00  0.00     0.210 HD
ENDBRANCH  28  30
ENDBRANCH  27  28
ENDBRANCH   1  26
BRANCH   1  32
HETATM   32  O2  UNL     1      -7.856   4.787  15.162  1.00  0.00    -0.385 OA
HETATM   33  H8  UNL     1      -8.651   4.268  14.945  1.00  0.00     0.211 HD
ENDBRANCH   1  32
TORSDOF 11
ENDMDL
MODEL 2
REMARK minimizedAffinity -8.08973503
REMARK  11 active torsions:
REMARK  status: ('A' for Active; 'I' for Inactive)
REMARK    1  A    between atoms: C2_2  and  O1_3 
REMARK    2  A    between atoms: C2_2  and  C3_4 
REMARK    3  A    between atoms: C4_5  and  C5_6 
REMARK    4  A    between atoms: C5_6  and  O2_7 
REMARK    5  A    between atoms: C9_11  and  O3_12 
REMARK    6  A    between atoms: O3_12  and  C10_13 
REMARK    7  A    between atoms: C11_15  and  C12_16 
REMARK    8  A    between atoms: C12_16  and  O5_17 
REMARK    9  A    between atoms: C13_18  and  O6_19 
REMARK   10  A    between atoms: C14_20  and  O7_21 
REMARK   11  A    between atoms: C15_22  and  O8_23 
ROOT
HETATM    1  C5  UNL     1      -3.917   4.607  12.785  1.00  0.00     0.086 C 
HETATM    2  C6  UNL     1      -3.064   4.228  11.517  1.00  0.00     0.023 C 
HETATM    3  C7  UNL     1      -3.328   2.808  10.992  1.00  0.00     0.013 C 
HETATM    4  C8  UNL     1      -1.563   4.384  11.790  1.00  0.00     0.039 C 
HETATM    5  C9  UNL     1      -1.185   5.843  12.054  1.00  0.00     0.126 C 
HETATM    6  C16 UNL     1      -2.353   6.658  12.632  1.00  0.00     0.044 C 
HETATM    7  C17 UNL     1      -3.290   5.856  13.572  1.00  0.00    -0.010 C 
HETATM    8  C18 UNL     1      -2.501   5.418  14.834  1.00  0.00     0.018 C 
HETATM    9  C19 UNL     1      -4.361   6.854  14.090  1.00  0.00     0.018 C 
ENDROOT
BRANCH   5  10
HETATM   10  O3  UNL     1      -0.078   5.948  12.957  1.00  0.00    -0.353 OA
BRANCH  10  11
HETATM   11  C10 UNL     1       1.161   6.302  12.333  1.00  0.00     0.292 C 
HETATM   12  O4  UNL     1       1.457   7.696  12.396  1.00  0.00    -0.348 OA
HETATM   13  C11 UNL     1       1.031   8.504  11.281  1.00  0.00     0.179 C 
HETATM   14  C13 UNL     1       1.599   7.979   9.941  1.00  0.00     0.180 C 
HETATM   15  C14 UNL     1       2.105   6.537  10.046  1.00  0.00     0.183 C 
HETATM   16  C15 UNL     1       1.135   5.735  10.900  1.00  0.00     0.204 C 
BRANCH  13  17
HETATM   17  C12 UNL     1      -0.488   8.750  11.288  1.00  0.00     0.198 C 
BRANCH  17  18
HETATM   18  O5  UNL     1      -0.828   9.645  12.351  1.00  0.00    -0.398 OA
HETATM   19  H20 UNL     1      -1.783   9.552  12.506  1.00  0.00     0.209 HD
ENDBRANCH  17  18
ENDBRANCH  13  17
BRANCH  14  20
HETATM   20  O6  UNL     1       0.630   8.051   8.885  1.00  0.00    -0.390 OA
HETATM   21  H22 UNL     1       0.984   7.458   8.185  1.00  0.00     0.210 HD
ENDBRANCH  14  20
BRANCH  15  22
HETATM   22  O7  UNL     1       2.191   5.967   8.727  1.00  0.00    -0.390 OA
HETATM   23  H24 UNL     1       2.269   5.003   8.880  1.00  0.00     0.210 HD
ENDBRANCH  15  22
BRANCH  16  24
HETATM   24  O8  UNL     1       1.512   4.347  10.876  1.00  0.00    -0.388 OA
HETATM   25  H26 UNL     1       0.854   3.886  11.431  1.00  0.00     0.210 HD
ENDBRANCH  16  24
ENDBRANCH  10  11
ENDBRANCH   5  10
BRANCH   1  26
HETATM   26  C4  UNL     1      -5.400   4.791  12.475  1.00  0.00     0.010 C 
HETATM   27  C3  UNL     1      -6.447   4.014  12.813  1.00  0.00     0.003 C 
BRANCH  27  28
HETATM   28  C2  UNL     1      -7.895   4.264  12.477  1.00  0.00     0.136 C 
HETATM   29  C1  UNL     1      -8.286   5.714  12.736  1.00  0.00     0.043 C 
BRANCH  28  30
HETATM   30  O1  UNL     1      -8.751   3.416  13.231  1.00  0.00    -0.392 OA
HETATM   31  H5  UNL     1      -8.656   3.671  14.164  1.00  0.00     0.210 HD
ENDBRANCH  28  30
ENDBRANCH  27  28
ENDBRANCH   1  26
BRANCH   1  32
HETATM   32  O2  UNL     1      -3.893   3.481  13.679  1.00  0.00    -0.385 OA
HETATM   33  H8  UNL     1      -4.455   2.785  13.298  1.00  0.00     0.211 HD
ENDBRANCH   1  32
TORSDOF 11
ENDMDL
MODEL 3
REMARK minimizedAffinity -7.85239506
REMARK  11 active torsions:
REMARK  status: ('A' for Active; 'I' for Inactive)
REMARK    1  A    between atoms: C2_2  and  O1_3 
REMARK    2  A    between atoms: C2_2  and  C3_4 
REMARK    3  A    between atoms: C4_5  and  C5_6 
REMARK    4  A    between atoms: C5_6  and  O2_7 
REMARK    5  A    between atoms: C9_11  and  O3_12 
REMARK    6  A    between atoms: O3_12  and  C10_13 
REMARK    7  A    between atoms: C11_15  and  C12_16 
REMARK    8  A    between atoms: C12_16  and  O5_17 
REMARK    9  A    between atoms: C13_18  and  O6_19 
REMARK   10  A    between atoms: C14_20  and  O7_21 
REMARK   11  A    between atoms: C15_22  and  O8_23 
ROOT
HETATM    1  C5  UNL     1      -4.284   5.999  13.612  1.00  0.00     0.086 C 
HETATM    2  C6  UNL     1      -3.150   5.279  12.789  1.00  0.00     0.023 C 
HETATM    3  C7  UNL     1      -3.164   3.747  12.918  1.00  0.00     0.013 C 
HETATM    4  C8  UNL     1      -1.762   5.797  13.185  1.00  0.00     0.039 C 
HETATM    5  C9  UNL     1      -1.586   7.273  12.824  1.00  0.00     0.126 C 
HETATM    6  C16 UNL     1      -2.920   8.036  12.797  1.00  0.00     0.044 C 
HETATM    7  C17 UNL     1      -3.957   7.551  13.844  1.00  0.00    -0.010 C 
HETATM    8  C18 UNL     1      -3.415   7.829  15.271  1.00  0.00     0.018 C 
HETATM    9  C19 UNL     1      -5.201   8.468  13.697  1.00  0.00     0.018 C 
ENDROOT
BRANCH   5  10
HETATM   10  O3  UNL     1      -0.710   7.941  13.741  1.00  0.00    -0.353 OA
BRANCH  10  11
HETATM   11  C10 UNL     1       0.671   7.912  13.364  1.00  0.00     0.292 C 
HETATM   12  O4  UNL     1       1.043   8.959  12.470  1.00  0.00    -0.348 OA
HETATM   13  C11 UNL     1       0.981   8.666  11.060  1.00  0.00     0.179 C 
HETATM   14  C13 UNL     1       1.835   7.429  10.692  1.00  0.00     0.180 C 
HETATM   15  C14 UNL     1       2.188   6.578  11.916  1.00  0.00     0.183 C 
HETATM   16  C15 UNL     1       0.975   6.499  12.828  1.00  0.00     0.204 C 
BRANCH  13  17
HETATM   17  C12 UNL     1      -0.466   8.631  10.537  1.00  0.00     0.198 C 
BRANCH  17  18
HETATM   18  O5  UNL     1      -0.490   9.008   9.157  1.00  0.00    -0.398 OA
HETATM   19  H20 UNL     1      -1.408   9.252   8.946  1.00  0.00     0.209 HD
ENDBRANCH  17  18
ENDBRANCH  13  17
BRANCH  14  20
HETATM   20  O6  UNL     1       1.180   6.595   9.725  1.00  0.00    -0.390 OA
HETATM   21  H22 UNL     1       1.657   5.737   9.776  1.00  0.00     0.210 HD
ENDBRANCH  14  20
BRANCH  15  22
HETATM   22  O7  UNL     1       2.570   5.260  11.483  1.00  0.00    -0.390 OA
HETATM   23  H24 UNL     1       2.534   4.714  12.296  1.00  0.00     0.210 HD
ENDBRANCH  15  22
BRANCH  16  24
HETATM   24  O8  UNL     1       1.241   5.576  13.900  1.00  0.00    -0.388 OA
HETATM   25  H26 UNL     1       0.429   5.562  14.442  1.00  0.00     0.210 HD
ENDBRANCH  16  24
ENDBRANCH  10  11
ENDBRANCH   5  10
BRANCH   1  26
HETATM   26  C4  UNL     1      -5.678   5.771  13.035  1.00  0.00     0.010 C 
HETATM   27  C3  UNL     1      -6.490   4.702  13.155  1.00  0.00     0.003 C 
BRANCH  27  28
HETATM   28  C2  UNL     1      -7.867   4.550  12.560  1.00  0.00     0.136 C 
HETATM   29  C1  UNL     1      -8.640   5.862  12.601  1.00  0.00     0.043 C 
BRANCH  28  30
HETATM   30  O1  UNL     1      -8.615   3.554  13.246  1.00  0.00    -0.392 OA
HETATM   31  H5  UNL     1      -8.761   3.879  14.151  1.00  0.00     0.210 HD
ENDBRANCH  28  30
ENDBRANCH  27  28
ENDBRANCH   1  26
BRANCH   1  32
HETATM   32  O2  UNL     1      -4.345   5.375  14.907  1.00  0.00    -0.385 OA
HETATM   33  H8  UNL     1      -4.747   4.496  14.795  1.00  0.00     0.211 HD
ENDBRANCH   1  32
TORSDOF 11
ENDMDL
MODEL 4
REMARK minimizedAffinity -7.73199129
REMARK  11 active torsions:
REMARK  status: ('A' for Active; 'I' for Inactive)
REMARK    1  A    between atoms: C2_2  and  O1_3 
REMARK    2  A    between atoms: C2_2  and  C3_4 
REMARK    3  A    between atoms: C4_5  and  C5_6 
REMARK    4  A    between atoms: C5_6  and  O2_7 
REMARK    5  A    between atoms: C9_11  and  O3_12 
REMARK    6  A    between atoms: O3_12  and  C10_13 
REMARK    7  A    between atoms: C11_15  and  C12_16 
REMARK    8  A    between atoms: C12_16  and  O5_17 
REMARK    9  A    between atoms: C13_18  and  O6_19 
REMARK   10  A    between atoms: C14_20  and  O7_21 
REMARK   11  A    between atoms: C15_22  and  O8_23 
ROOT
HETATM    1  C5  UNL     1      -3.826   4.772  12.778  1.00  0.00     0.086 C 
HETATM    2  C6  UNL     1      -3.023   4.672  11.427  1.00  0.00     0.023 C 
HETATM    3  C7  UNL     1      -3.254   3.358  10.662  1.00  0.00     0.013 C 
HETATM    4  C8  UNL     1      -1.518   4.851  11.661  1.00  0.00     0.039 C 
HETATM    5  C9  UNL     1      -1.189   6.256  12.171  1.00  0.00     0.126 C 
HETATM    6  C16 UNL     1      -2.360   6.893  12.937  1.00  0.00     0.044 C 
HETATM    7  C17 UNL     1      -3.213   5.887  13.754  1.00  0.00    -0.010 C 
HETATM    8  C18 UNL     1      -2.344   5.268  14.879  1.00  0.00     0.018 C 
HETATM    9  C19 UNL     1      -4.297   6.719  14.490  1.00  0.00     0.018 C 
ENDROOT
BRANCH   5  10
HETATM   10  O3  UNL     1      -0.043   6.251  13.031  1.00  0.00    -0.353 OA
BRANCH  10  11
HETATM   11  C10 UNL     1       0.845   7.357  12.835  1.00  0.00     0.292 C 
HETATM   12  O4  UNL     1       1.074   7.672  11.463  1.00  0.00    -0.348 OA
HETATM   13  C11 UNL     1       2.216   7.054  10.834  1.00  0.00     0.179 C 
HETATM   14  C13 UNL     1       3.527   7.359  11.596  1.00  0.00     0.180 C 
HETATM   15  C14 UNL     1       3.272   7.863  13.020  1.00  0.00     0.183 C 
HETATM   16  C15 UNL     1       2.132   7.062  13.629  1.00  0.00     0.204 C 
BRANCH  13  17
HETATM   17  C12 UNL     1       1.975   5.564  10.530  1.00  0.00     0.198 C 
BRANCH  17  18
HETATM   18  O5  UNL     1       2.694   5.190   9.352  1.00  0.00    -0.398 OA
HETATM   19  H20 UNL     1       2.304   4.358   9.034  1.00  0.00     0.209 HD
ENDBRANCH  17  18
ENDBRANCH  13  17
BRANCH  14  20
HETATM   20  O6  UNL     1       4.387   6.213  11.661  1.00  0.00    -0.390 OA
HETATM   21  H22 UNL     1       5.028   6.426  12.375  1.00  0.00     0.210 HD
ENDBRANCH  14  20
BRANCH  15  22
HETATM   22  O7  UNL     1       4.468   7.700  13.803  1.00  0.00    -0.390 OA
HETATM   23  H24 UNL     1       4.170   7.796  14.731  1.00  0.00     0.210 HD
ENDBRANCH  15  22
BRANCH  16  24
HETATM   24  O8  UNL     1       1.988   7.416  15.017  1.00  0.00    -0.388 OA
HETATM   25  H26 UNL     1       1.253   6.867  15.353  1.00  0.00     0.210 HD
ENDBRANCH  16  24
ENDBRANCH  10  11
ENDBRANCH   5  10
BRANCH   1  26
HETATM   26  C4  UNL     1      -5.330   4.933  12.570  1.00  0.00     0.010 C 
HETATM   27  C3  UNL     1      -6.322   4.048  12.781  1.00  0.00     0.003 C 
BRANCH  27  28
HETATM   28  C2  UNL     1      -7.795   4.281  12.560  1.00  0.00     0.136 C 
HETATM   29  C1  UNL     1      -8.222   5.658  13.054  1.00  0.00     0.043 C 
BRANCH  28  30
HETATM   30  O1  UNL     1      -8.576   3.294  13.220  1.00  0.00    -0.392 OA
HETATM   31  H5  UNL     1      -8.439   3.412  14.175  1.00  0.00     0.210 HD
ENDBRANCH  28  30
ENDBRANCH  27  28
ENDBRANCH   1  26
BRANCH   1  32
HETATM   32  O2  UNL     1      -3.709   3.505  13.449  1.00  0.00    -0.385 OA
HETATM   33  H8  UNL     1      -4.261   2.862  12.970  1.00  0.00     0.211 HD
ENDBRANCH   1  32
TORSDOF 11
ENDMDL
MODEL 5
REMARK minimizedAffinity -7.68052483
REMARK  11 active torsions:
REMARK  status: ('A' for Active; 'I' for Inactive)
REMARK    1  A    between atoms: C2_2  and  O1_3 
REMARK    2  A    between atoms: C2_2  and  C3_4 
REMARK    3  A    between atoms: C4_5  and  C5_6 
REMARK    4  A    between atoms: C5_6  and  O2_7 
REMARK    5  A    between atoms: C9_11  and  O3_12 
REMARK    6  A    between atoms: O3_12  and  C10_13 
REMARK    7  A    between atoms: C11_15  and  C12_16 
REMARK    8  A    between atoms: C12_16  and  O5_17 
REMARK    9  A    between atoms: C13_18  and  O6_19 
REMARK   10  A    between atoms: C14_20  and  O7_21 
REMARK   11  A    between atoms: C15_22  and  O8_23 
ROOT
HETATM    1  C5  UNL     1      -0.818   6.288  12.475  1.00  0.00     0.086 C 
HETATM    2  C6  UNL     1      -0.232   5.160  11.545  1.00  0.00     0.023 C 
HETATM    3  C7  UNL     1      -0.306   3.751  12.155  1.00  0.00     0.013 C 
HETATM    4  C8  UNL     1       1.222   5.458  11.160  1.00  0.00     0.039 C 
HETATM    5  C9  UNL     1       1.333   6.721  10.305  1.00  0.00     0.126 C 
HETATM    6  C16 UNL     1       0.191   7.715  10.572  1.00  0.00     0.044 C 
HETATM    7  C17 UNL     1      -0.302   7.744  12.043  1.00  0.00    -0.010 C 
HETATM    8  C18 UNL     1       0.840   8.256  12.959  1.00  0.00     0.018 C 
HETATM    9  C19 UNL     1      -1.405   8.833  12.122  1.00  0.00     0.018 C 
ENDROOT
BRANCH   5  10
HETATM   10  O3  UNL     1       2.575   7.401  10.523  1.00  0.00    -0.353 OA
BRANCH  10  11
HETATM   11  C10 UNL     1       3.509   6.676  11.329  1.00  0.00     0.292 C 
HETATM   12  O4  UNL     1       3.991   7.413  12.451  1.00  0.00    -0.348 OA
HETATM   13  C11 UNL     1       5.212   8.157  12.267  1.00  0.00     0.179 C 
HETATM   14  C13 UNL     1       6.371   7.250  11.787  1.00  0.00     0.180 C 
HETATM   15  C14 UNL     1       5.874   5.915  11.227  1.00  0.00     0.183 C 
HETATM   16  C15 UNL     1       4.624   6.163  10.396  1.00  0.00     0.204 C 
BRANCH  13  17
HETATM   17  C12 UNL     1       4.997   9.430  11.428  1.00  0.00     0.198 C 
BRANCH  17  18
HETATM   18  O5  UNL     1       4.940   9.089  10.040  1.00  0.00    -0.398 OA
HETATM   19  H20 UNL     1       5.092   9.910   9.541  1.00  0.00     0.209 HD
ENDBRANCH  17  18
ENDBRANCH  13  17
BRANCH  14  20
HETATM   20  O6  UNL     1       7.178   7.896  10.792  1.00  0.00    -0.390 OA
HETATM   21  H22 UNL     1       7.683   7.165  10.373  1.00  0.00     0.210 HD
ENDBRANCH  14  20
BRANCH  15  22
HETATM   22  O7  UNL     1       6.904   5.330  10.410  1.00  0.00    -0.390 OA
HETATM   23  H24 UNL     1       6.445   4.634   9.894  1.00  0.00     0.210 HD
ENDBRANCH  15  22
BRANCH  16  24
HETATM   24  O8  UNL     1       4.239   4.944   9.735  1.00  0.00    -0.388 OA
HETATM   25  H26 UNL     1       3.443   5.167   9.216  1.00  0.00     0.210 HD
ENDBRANCH  16  24
ENDBRANCH  10  11
ENDBRANCH   5  10
BRANCH   1  26
HETATM   26  C4  UNL     1      -2.337   6.219  12.615  1.00  0.00     0.010 C 
HETATM   27  C3  UNL     1      -3.083   5.546  13.511  1.00  0.00     0.003 C 
BRANCH  27  28
HETATM   28  C2  UNL     1      -4.589   5.531  13.594  1.00  0.00     0.136 C 
HETATM   29  C1  UNL     1      -5.182   4.395  12.769  1.00  0.00     0.043 C 
BRANCH  28  30
HETATM   30  O1  UNL     1      -5.140   6.762  13.143  1.00  0.00    -0.392 OA
HETATM   31  H5  UNL     1      -4.936   6.837  12.195  1.00  0.00     0.210 HD
ENDBRANCH  28  30
ENDBRANCH  27  28
ENDBRANCH   1  26
BRANCH   1  32
HETATM   32  O2  UNL     1      -0.342   6.043  13.810  1.00  0.00    -0.385 OA
HETATM   33  H8  UNL     1      -0.819   5.270  14.160  1.00  0.00     0.211 HD
ENDBRANCH   1  32
TORSDOF 11
ENDMDL
MODEL 6
REMARK minimizedAffinity -7.57704496
REMARK  11 active torsions:
REMARK  status: ('A' for Active; 'I' for Inactive)
REMARK    1  A    between atoms: C2_2  and  O1_3 
REMARK    2  A    between atoms: C2_2  and  C3_4 
REMARK    3  A    between atoms: C4_5  and  C5_6 
REMARK    4  A    between atoms: C5_6  and  O2_7 
REMARK    5  A    between atoms: C9_11  and  O3_12 
REMARK    6  A    between atoms: O3_12  and  C10_13 
REMARK    7  A    between atoms: C11_15  and  C12_16 
REMARK    8  A    between atoms: C12_16  and  O5_17 
REMARK    9  A    between atoms: C13_18  and  O6_19 
REMARK   10  A    between atoms: C14_20  and  O7_21 
REMARK   11  A    between atoms: C15_22  and  O8_23 
ROOT
HETATM    1  C5  UNL     1      -5.599   6.792  13.963  1.00  0.00     0.086 C 
HETATM    2  C6  UNL     1      -5.762   7.681  15.252  1.00  0.00     0.023 C 
HETATM    3  C7  UNL     1      -7.000   8.592  15.228  1.00  0.00     0.013 C 
HETATM    4  C8  UNL     1      -4.517   8.545  15.492  1.00  0.00     0.039 C 
HETATM    5  C9  UNL     1      -3.286   7.689  15.800  1.00  0.00     0.126 C 
HETATM    6  C16 UNL     1      -3.374   6.287  15.174  1.00  0.00     0.044 C 
HETATM    7  C17 UNL     1      -4.102   6.241  13.805  1.00  0.00    -0.010 C 
HETATM    8  C18 UNL     1      -3.287   7.048  12.761  1.00  0.00     0.018 C 
HETATM    9  C19 UNL     1      -4.039   4.768  13.318  1.00  0.00     0.018 C 
ENDROOT
BRANCH   5  10
HETATM   10  O3  UNL     1      -2.081   8.309  15.336  1.00  0.00    -0.353 OA
BRANCH  10  11
HETATM   11  C10 UNL     1      -0.949   8.109  16.189  1.00  0.00     0.292 C 
HETATM   12  O4  UNL     1      -0.459   9.310  16.782  1.00  0.00    -0.348 OA
HETATM   13  C11 UNL     1       0.594  10.001  16.080  1.00  0.00     0.179 C 
HETATM   14  C13 UNL     1       1.816   9.085  15.829  1.00  0.00     0.180 C 
HETATM   15  C14 UNL     1       1.476   7.600  15.992  1.00  0.00     0.183 C 
HETATM   16  C15 UNL     1       0.110   7.337  15.377  1.00  0.00     0.204 C 
BRANCH  13  17
HETATM   17  C12 UNL     1       0.073  10.740  14.834  1.00  0.00     0.198 C 
BRANCH  17  18
HETATM   18  O5  UNL     1      -0.127   9.808  13.768  1.00  0.00    -0.398 OA
HETATM   19  H20 UNL     1      -0.172  10.323  12.945  1.00  0.00     0.209 HD
ENDBRANCH  17  18
ENDBRANCH  13  17
BRANCH  14  20
HETATM   20  O6  UNL     1       2.379   9.289  14.525  1.00  0.00    -0.390 OA
HETATM   21  H22 UNL     1       2.940   8.496  14.373  1.00  0.00     0.210 HD
ENDBRANCH  14  20
BRANCH  15  22
HETATM   22  O7  UNL     1       2.479   6.809  15.329  1.00  0.00    -0.390 OA
HETATM   23  H24 UNL     1       2.078   5.918  15.252  1.00  0.00     0.210 HD
ENDBRANCH  15  22
BRANCH  16  24
HETATM   24  O8  UNL     1      -0.151   5.922  15.381  1.00  0.00    -0.388 OA
HETATM   25  H26 UNL     1      -1.031   5.816  14.970  1.00  0.00     0.210 HD
ENDBRANCH  16  24
ENDBRANCH  10  11
ENDBRANCH   5  10
BRANCH   1  26
HETATM   26  C4  UNL     1      -6.647   5.686  13.863  1.00  0.00     0.010 C 
HETATM   27  C3  UNL     1      -6.477   4.358  13.722  1.00  0.00     0.003 C 
BRANCH  27  28
HETATM   28  C2  UNL     1      -7.566   3.318  13.639  1.00  0.00     0.136 C 
HETATM   29  C1  UNL     1      -7.249   2.261  12.587  1.00  0.00     0.043 C 
BRANCH  28  30
HETATM   30  O1  UNL     1      -8.820   3.912  13.329  1.00  0.00    -0.392 OA
HETATM   31  H5  UNL     1      -8.749   4.280  12.432  1.00  0.00     0.210 HD
ENDBRANCH  28  30
ENDBRANCH  27  28
ENDBRANCH   1  26
BRANCH   1  32
HETATM   32  O2  UNL     1      -5.872   7.624  12.822  1.00  0.00    -0.385 OA
HETATM   33  H8  UNL     1      -6.831   7.789  12.796  1.00  0.00     0.211 HD
ENDBRANCH   1  32
TORSDOF 11
ENDMDL
MODEL 7
REMARK minimizedAffinity -7.57013464
REMARK  11 active torsions:
REMARK  status: ('A' for Active; 'I' for Inactive)
REMARK    1  A    between atoms: C2_2  and  O1_3 
REMARK    2  A    between atoms: C2_2  and  C3_4 
REMARK    3  A    between atoms: C4_5  and  C5_6 
REMARK    4  A    between atoms: C5_6  and  O2_7 
REMARK    5  A    between atoms: C9_11  and  O3_12 
REMARK    6  A    between atoms: O3_12  and  C10_13 
REMARK    7  A    between atoms: C11_15  and  C12_16 
REMARK    8  A    between atoms: C12_16  and  O5_17 
REMARK    9  A    between atoms: C13_18  and  O6_19 
REMARK   10  A    between atoms: C14_20  and  O7_21 
REMARK   11  A    between atoms: C15_22  and  O8_23 
ROOT
HETATM    1  C5  UNL     1      -2.486   5.410  12.950  1.00  0.00     0.086 C 
HETATM    2  C6  UNL     1      -1.712   5.696  14.291  1.00  0.00     0.023 C 
HETATM    3  C7  UNL     1      -2.525   6.498  15.320  1.00  0.00     0.013 C 
HETATM    4  C8  UNL     1      -0.391   6.427  14.025  1.00  0.00     0.039 C 
HETATM    5  C9  UNL     1       0.585   5.560  13.226  1.00  0.00     0.126 C 
HETATM    6  C16 UNL     1      -0.135   4.530  12.340  1.00  0.00     0.044 C 
HETATM    7  C17 UNL     1      -1.487   5.018  11.758  1.00  0.00    -0.010 C 
HETATM    8  C18 UNL     1      -1.234   6.205  10.792  1.00  0.00     0.018 C 
HETATM    9  C19 UNL     1      -2.025   3.872  10.860  1.00  0.00     0.018 C 
ENDROOT
BRANCH   5  10
HETATM   10  O3  UNL     1       1.432   6.354  12.387  1.00  0.00    -0.353 OA
BRANCH  10  11
HETATM   11  C10 UNL     1       1.076   6.333  11.000  1.00  0.00     0.292 C 
HETATM   12  O4  UNL     1       1.824   5.394  10.230  1.00  0.00    -0.348 OA
HETATM   13  C11 UNL     1       3.019   5.883   9.588  1.00  0.00     0.179 C 
HETATM   14  C13 UNL     1       2.724   7.093   8.669  1.00  0.00     0.180 C 
HETATM   15  C14 UNL     1       1.368   7.739   8.971  1.00  0.00     0.183 C 
HETATM   16  C15 UNL     1       1.167   7.780  10.478  1.00  0.00     0.204 C 
BRANCH  13  17
HETATM   17  C12 UNL     1       4.171   6.095  10.587  1.00  0.00     0.198 C 
BRANCH  17  18
HETATM   18  O5  UNL     1       5.204   5.137  10.344  1.00  0.00    -0.398 OA
HETATM   19  H20 UNL     1       5.758   5.108  11.143  1.00  0.00     0.209 HD
ENDBRANCH  17  18
ENDBRANCH  13  17
BRANCH  14  20
HETATM   20  O6  UNL     1       3.744   8.097   8.764  1.00  0.00    -0.390 OA
HETATM   21  H22 UNL     1       3.333   8.903   8.378  1.00  0.00     0.210 HD
ENDBRANCH  14  20
BRANCH  15  22
HETATM   22  O7  UNL     1       1.348   9.072   8.431  1.00  0.00    -0.390 OA
HETATM   23  H24 UNL     1       0.583   9.503   8.867  1.00  0.00     0.210 HD
ENDBRANCH  15  22
BRANCH  16  24
HETATM   24  O8  UNL     1      -0.027   8.525  10.780  1.00  0.00    -0.388 OA
HETATM   25  H26 UNL     1      -0.098   8.524  11.754  1.00  0.00     0.210 HD
ENDBRANCH  16  24
ENDBRANCH  10  11
ENDBRANCH   5  10
BRANCH   1  26
HETATM   26  C4  UNL     1      -3.624   4.407  13.119  1.00  0.00     0.010 C 
HETATM   27  C3  UNL     1      -4.945   4.570  12.912  1.00  0.00     0.003 C 
BRANCH  27  28
HETATM   28  C2  UNL     1      -6.017   3.524  13.092  1.00  0.00     0.136 C 
HETATM   29  C1  UNL     1      -6.133   2.628  11.865  1.00  0.00     0.043 C 
BRANCH  28  30
HETATM   30  O1  UNL     1      -7.281   4.124  13.344  1.00  0.00    -0.392 OA
HETATM   31  H5  UNL     1      -7.531   4.612  12.542  1.00  0.00     0.210 HD
ENDBRANCH  28  30
ENDBRANCH  27  28
ENDBRANCH   1  26
BRANCH   1  32
HETATM   32  O2  UNL     1      -3.156   6.624  12.567  1.00  0.00    -0.385 OA
HETATM   33  H8  UNL     1      -3.906   6.754  13.172  1.00  0.00     0.211 HD
ENDBRANCH   1  32
TORSDOF 11
ENDMDL
MODEL 8
REMARK minimizedAffinity -7.5615778
REMARK  11 active torsions:
REMARK  status: ('A' for Active; 'I' for Inactive)
REMARK    1  A    between atoms: C2_2  and  O1_3 
REMARK    2  A    between atoms: C2_2  and  C3_4 
REMARK    3  A    between atoms: C4_5  and  C5_6 
REMARK    4  A    between atoms: C5_6  and  O2_7 
REMARK    5  A    between atoms: C9_11  and  O3_12 
REMARK    6  A    between atoms: O3_12  and  C10_13 
REMARK    7  A    between atoms: C11_15  and  C12_16 
REMARK    8  A    between atoms: C12_16  and  O5_17 
REMARK    9  A    between atoms: C13_18  and  O6_19 
REMARK   10  A    between atoms: C14_20  and  O7_21 
REMARK   11  A    between atoms: C15_22  and  O8_23 
ROOT
HETATM    1  C5  UNL     1      -2.743   6.080  13.969  1.00  0.00     0.086 C 
HETATM    2  C6  UNL     1      -2.724   5.216  12.652  1.00  0.00     0.023 C 
HETATM    3  C7  UNL     1      -3.506   3.897  12.763  1.00  0.00     0.013 C 
HETATM    4  C8  UNL     1      -1.289   4.906  12.212  1.00  0.00     0.039 C 
HETATM    5  C9  UNL     1      -0.531   6.176  11.818  1.00  0.00     0.126 C 
HETATM    6  C16 UNL     1      -1.063   7.425  12.540  1.00  0.00     0.044 C 
HETATM    7  C17 UNL     1      -1.563   7.166  13.985  1.00  0.00    -0.010 C 
HETATM    8  C18 UNL     1      -0.370   6.722  14.871  1.00  0.00     0.018 C 
HETATM    9  C19 UNL     1      -2.003   8.540  14.557  1.00  0.00     0.018 C 
ENDROOT
BRANCH   5  10
HETATM   10  O3  UNL     1       0.870   6.064  12.095  1.00  0.00    -0.353 OA
BRANCH  10  11
HETATM   11  C10 UNL     1       1.628   7.237  11.782  1.00  0.00     0.292 C 
HETATM   12  O4  UNL     1       1.676   7.534  10.388  1.00  0.00    -0.348 OA
HETATM   13  C11 UNL     1       2.792   7.002   9.646  1.00  0.00     0.179 C 
HETATM   14  C13 UNL     1       4.147   7.441  10.252  1.00  0.00     0.180 C 
HETATM   15  C14 UNL     1       4.005   7.959  11.686  1.00  0.00     0.183 C 
HETATM   16  C15 UNL     1       3.016   7.078  12.433  1.00  0.00     0.204 C 
BRANCH  13  17
HETATM   17  C12 UNL     1       2.656   5.489   9.397  1.00  0.00     0.198 C 
BRANCH  17  18
HETATM   18  O5  UNL     1       3.338   5.135   8.191  1.00  0.00    -0.398 OA
HETATM   19  H20 UNL     1       2.999   4.266   7.917  1.00  0.00     0.209 HD
ENDBRANCH  17  18
ENDBRANCH  13  17
BRANCH  14  20
HETATM   20  O6  UNL     1       5.109   6.377  10.240  1.00  0.00    -0.390 OA
HETATM   21  H22 UNL     1       5.802   6.664  10.874  1.00  0.00     0.210 HD
ENDBRANCH  14  20
BRANCH  15  22
HETATM   22  O7  UNL     1       5.290   7.922  12.333  1.00  0.00    -0.390 OA
HETATM   23  H24 UNL     1       5.088   8.017  13.287  1.00  0.00     0.210 HD
ENDBRANCH  15  22
BRANCH  16  24
HETATM   24  O8  UNL     1       2.994   7.455  13.822  1.00  0.00    -0.388 OA
HETATM   25  H26 UNL     1       2.352   6.853  14.247  1.00  0.00     0.210 HD
ENDBRANCH  16  24
ENDBRANCH  10  11
ENDBRANCH   5  10
BRANCH   1  26
HETATM   26  C4  UNL     1      -4.110   6.692  14.263  1.00  0.00     0.010 C 
HETATM   27  C3  UNL     1      -4.991   6.388  15.235  1.00  0.00     0.003 C 
BRANCH  27  28
HETATM   28  C2  UNL     1      -6.328   7.045  15.472  1.00  0.00     0.136 C 
HETATM   29  C1  UNL     1      -6.274   8.540  15.181  1.00  0.00     0.043 C 
BRANCH  28  30
HETATM   30  O1  UNL     1      -6.763   6.854  16.812  1.00  0.00    -0.392 OA
HETATM   31  H5  UNL     1      -6.139   7.328  17.386  1.00  0.00     0.210 HD
ENDBRANCH  28  30
ENDBRANCH  27  28
ENDBRANCH   1  26
BRANCH   1  32
HETATM   32  O2  UNL     1      -2.522   5.190  15.077  1.00  0.00    -0.385 OA
HETATM   33  H8  UNL     1      -3.332   4.667  15.205  1.00  0.00     0.211 HD
ENDBRANCH   1  32
TORSDOF 11
ENDMDL
MODEL 9
REMARK minimizedAffinity -7.53820562
REMARK  11 active torsions:
REMARK  status: ('A' for Active; 'I' for Inactive)
REMARK    1  A    between atoms: C2_2  and  O1_3 
REMARK    2  A    between atoms: C2_2  and  C3_4 
REMARK    3  A    between atoms: C4_5  and  C5_6 
REMARK    4  A    between atoms: C5_6  and  O2_7 
REMARK    5  A    between atoms: C9_11  and  O3_12 
REMARK    6  A    between atoms: O3_12  and  C10_13 
REMARK    7  A    between atoms: C11_15  and  C12_16 
REMARK    8  A    between atoms: C12_16  and  O5_17 
REMARK    9  A    between atoms: C13_18  and  O6_19 
REMARK   10  A    between atoms: C14_20  and  O7_21 
REMARK   11  A    between atoms: C15_22  and  O8_23 
ROOT
HETATM    1  C5  UNL     1      -2.537   6.483  14.478  1.00  0.00     0.086 C 
HETATM    2  C6  UNL     1      -2.781   5.929  13.024  1.00  0.00     0.023 C 
HETATM    3  C7  UNL     1      -3.295   4.480  12.989  1.00  0.00     0.013 C 
HETATM    4  C8  UNL     1      -1.509   6.024  12.173  1.00  0.00     0.039 C 
HETATM    5  C9  UNL     1      -1.093   7.477  11.938  1.00  0.00     0.126 C 
HETATM    6  C16 UNL     1      -1.565   8.413  13.063  1.00  0.00     0.044 C 
HETATM    7  C17 UNL     1      -1.575   7.766  14.473  1.00  0.00    -0.010 C 
HETATM    8  C18 UNL     1      -0.123   7.411  14.887  1.00  0.00     0.018 C 
HETATM    9  C19 UNL     1      -2.022   8.871  15.467  1.00  0.00     0.018 C 
ENDROOT
BRANCH   5  10
HETATM   10  O3  UNL     1       0.328   7.608  11.816  1.00  0.00    -0.353 OA
BRANCH  10  11
HETATM   11  C10 UNL     1       0.871   7.044  10.618  1.00  0.00     0.292 C 
HETATM   12  O4  UNL     1       1.916   6.101  10.851  1.00  0.00    -0.348 OA
HETATM   13  C11 UNL     1       3.266   6.609  10.845  1.00  0.00     0.179 C 
HETATM   14  C13 UNL     1       3.599   7.340   9.522  1.00  0.00     0.180 C 
HETATM   15  C14 UNL     1       2.343   7.718   8.731  1.00  0.00     0.183 C 
HETATM   16  C15 UNL     1       1.281   8.213   9.700  1.00  0.00     0.204 C 
BRANCH  13  17
HETATM   17  C12 UNL     1       3.594   7.402  12.123  1.00  0.00     0.198 C 
BRANCH  17  18
HETATM   18  O5  UNL     1       2.865   6.861  13.227  1.00  0.00    -0.398 OA
HETATM   19  H20 UNL     1       2.866   7.537  13.927  1.00  0.00     0.209 HD
ENDBRANCH  17  18
ENDBRANCH  13  17
BRANCH  14  20
HETATM   20  O6  UNL     1       4.376   8.524   9.747  1.00  0.00    -0.390 OA
HETATM   21  H22 UNL     1       4.291   9.037   8.912  1.00  0.00     0.210 HD
ENDBRANCH  14  20
BRANCH  15  22
HETATM   22  O7  UNL     1       2.671   8.751   7.785  1.00  0.00    -0.390 OA
HETATM   23  H24 UNL     1       1.805   9.114   7.505  1.00  0.00     0.210 HD
ENDBRANCH  15  22
BRANCH  16  24
HETATM   24  O8  UNL     1       0.156   8.720   8.959  1.00  0.00    -0.388 OA
HETATM   25  H26 UNL     1      -0.484   9.027   9.630  1.00  0.00     0.210 HD
ENDBRANCH  16  24
ENDBRANCH  10  11
ENDBRANCH   5  10
BRANCH   1  26
HETATM   26  C4  UNL     1      -3.831   6.720  15.253  1.00  0.00     0.010 C 
HETATM   27  C3  UNL     1      -5.051   7.061  14.795  1.00  0.00     0.003 C 
BRANCH  27  28
HETATM   28  C2  UNL     1      -6.293   7.272  15.623  1.00  0.00     0.136 C 
HETATM   29  C1  UNL     1      -6.769   5.970  16.256  1.00  0.00     0.043 C 
BRANCH  28  30
HETATM   30  O1  UNL     1      -7.348   7.812  14.838  1.00  0.00    -0.392 OA
HETATM   31  H5  UNL     1      -7.589   7.139  14.180  1.00  0.00     0.210 HD
ENDBRANCH  28  30
ENDBRANCH  27  28
ENDBRANCH   1  26
BRANCH   1  32
HETATM   32  O2  UNL     1      -1.873   5.453  15.231  1.00  0.00    -0.385 OA
HETATM   33  H8  UNL     1      -2.525   4.755  15.422  1.00  0.00     0.211 HD
ENDBRANCH   1  32
TORSDOF 11
ENDMDL
