MODEL 1
REMARK minimizedAffinity -9.21231461
REMARK  8 active torsions:
REMARK  status: ('A' for Active; 'I' for Inactive)
REMARK    1  A    between atoms: C2_2  and  C3_3 
REMARK    2  A    between atoms: C2_2  and  C9_11 
REMARK    3  A    between atoms: C3_3  and  C4_4 
REMARK    4  A    between atoms: C4_4  and  C5_5 
REMARK    5  A    between atoms: C6_6  and  C7_7 
REMARK    6  A    between atoms: C6_6  and  C8_9 
REMARK    7  A    between atoms: C7_7  and  O1_8 
REMARK    8  A    between atoms: C8_9  and  O2_10 
ROOT
HETATM    1  C9  UNL     1      -7.109   5.527  14.423  1.00  0.00     0.018 C 
HETATM    2  C10 UNL     1      -7.253   6.886  15.152  1.00  0.00     0.010 C 
HETATM    3  C11 UNL     1      -5.811   7.359  15.430  1.00  0.00     0.011 C 
HETATM    4  C12 UNL     1      -5.004   6.865  14.205  1.00  0.00    -0.032 C 
HETATM    5  C13 UNL     1      -5.387   7.802  13.017  1.00  0.00     0.016 C 
HETATM    6  C14 UNL     1      -5.604   5.439  14.062  1.00  0.00     0.002 C 
HETATM    7  C15 UNL     1      -5.121   4.719  12.815  1.00  0.00     0.006 C 
HETATM    8  C16 UNL     1      -3.583   4.610  12.842  1.00  0.00     0.006 C 
HETATM    9  C17 UNL     1      -2.868   5.974  13.067  1.00  0.00     0.003 C 
HETATM   10  C18 UNL     1      -1.292   5.934  12.866  1.00  0.00    -0.035 C 
HETATM   11  C19 UNL     1      -0.601   4.918  13.803  1.00  0.00     0.016 C 
HETATM   12  C20 UNL     1      -0.999   5.458  11.400  1.00  0.00     0.017 C 
HETATM   13  C21 UNL     1       0.238   6.057  10.739  1.00  0.00     0.080 C 
HETATM   14  C22 UNL     1       1.272   6.494  11.743  1.00  0.00     0.135 C 
HETATM   15  O3  UNL     1       2.433   6.093  11.663  1.00  0.00    -0.297 OA
HETATM   16  C23 UNL     1       0.825   7.523  12.789  1.00  0.00     0.017 C 
HETATM   17  C24 UNL     1       1.679   7.354  14.060  1.00  0.00     0.023 C 
HETATM   18  C25 UNL     1       1.144   8.914  12.199  1.00  0.00     0.023 C 
HETATM   19  C26 UNL     1      -0.724   7.391  13.027  1.00  0.00     0.009 C 
HETATM   20  C27 UNL     1      -1.199   8.079  14.322  1.00  0.00     0.007 C 
HETATM   21  C28 UNL     1      -2.727   8.128  14.420  1.00  0.00     0.011 C 
HETATM   22  C29 UNL     1      -3.407   6.735  14.352  1.00  0.00    -0.032 C 
HETATM   23  C30 UNL     1      -3.042   5.988  15.667  1.00  0.00     0.016 C 
ENDROOT
BRANCH   1  24
HETATM   24  C2  UNL     1      -8.148   5.163  13.365  1.00  0.00    -0.084 C 
HETATM   25  C1  UNL     1      -8.146   3.909  12.873  1.00  0.00     0.014 C 
BRANCH  24  26
HETATM   26  C3  UNL     1      -9.124   6.236  12.899  1.00  0.00     0.037 C 
BRANCH  26  27
HETATM   27  C4  UNL     1     -10.348   6.582  13.773  1.00  0.00     0.032 C 
BRANCH  27  28
HETATM   28  C5  UNL     1     -10.896   7.959  13.487  1.00  0.00    -0.019 C 
HETATM   29  C6  UNL     1     -12.151   8.291  13.116  1.00  0.00    -0.037 C 
BRANCH  29  30
HETATM   30  C7  UNL     1     -12.507   9.727  12.828  1.00  0.00     0.200 C 
BRANCH  30  31
HETATM   31  O1  UNL     1     -12.379   9.947  11.427  1.00  0.00    -0.397 OA
HETATM   32  H10 UNL     1     -12.471  10.906  11.291  1.00  0.00     0.209 HD
ENDBRANCH  30  31
ENDBRANCH  29  30
BRANCH  29  33
HETATM   33  C8  UNL     1     -13.295   7.323  12.963  1.00  0.00     0.200 C 
BRANCH  33  34
HETATM   34  O2  UNL     1     -14.380   7.964  12.309  1.00  0.00    -0.397 OA
HETATM   35  H13 UNL     1     -14.404   8.874  12.671  1.00  0.00     0.209 HD
ENDBRANCH  33  34
ENDBRANCH  29  33
ENDBRANCH  27  28
ENDBRANCH  26  27
ENDBRANCH  24  26
ENDBRANCH   1  24
TORSDOF 8
ENDMDL
MODEL 2
REMARK minimizedAffinity -8.92597198
REMARK  8 active torsions:
REMARK  status: ('A' for Active; 'I' for Inactive)
REMARK    1  A    between atoms: C2_2  and  C3_3 
REMARK    2  A    between atoms: C2_2  and  C9_11 
REMARK    3  A    between atoms: C3_3  and  C4_4 
REMARK    4  A    between atoms: C4_4  and  C5_5 
REMARK    5  A    between atoms: C6_6  and  C7_7 
REMARK    6  A    between atoms: C6_6  and  C8_9 
REMARK    7  A    between atoms: C7_7  and  O1_8 
REMARK    8  A    between atoms: C8_9  and  O2_10 
ROOT
HETATM    1  C9  UNL     1      -6.233   6.961  15.622  1.00  0.00     0.018 C 
HETATM    2  C10 UNL     1      -6.388   8.497  15.496  1.00  0.00     0.010 C 
HETATM    3  C11 UNL     1      -4.973   9.028  15.184  1.00  0.00     0.011 C 
HETATM    4  C12 UNL     1      -4.335   7.926  14.304  1.00  0.00    -0.032 C 
HETATM    5  C13 UNL     1      -5.001   8.045  12.898  1.00  0.00     0.016 C 
HETATM    6  C14 UNL     1      -4.808   6.670  15.087  1.00  0.00     0.002 C 
HETATM    7  C15 UNL     1      -4.469   5.371  14.376  1.00  0.00     0.006 C 
HETATM    8  C16 UNL     1      -2.946   5.278  14.162  1.00  0.00     0.006 C 
HETATM    9  C17 UNL     1      -2.341   6.528  13.458  1.00  0.00     0.003 C 
HETATM   10  C18 UNL     1      -0.824   6.365  13.012  1.00  0.00    -0.035 C 
HETATM   11  C19 UNL     1       0.110   6.037  14.200  1.00  0.00     0.016 C 
HETATM   12  C20 UNL     1      -0.733   5.149  12.025  1.00  0.00     0.017 C 
HETATM   13  C21 UNL     1       0.312   5.263  10.921  1.00  0.00     0.080 C 
HETATM   14  C22 UNL     1       1.451   6.175  11.298  1.00  0.00     0.135 C 
HETATM   15  O3  UNL     1       2.616   5.785  11.230  1.00  0.00    -0.297 OA
HETATM   16  C23 UNL     1       1.085   7.618  11.669  1.00  0.00     0.017 C 
HETATM   17  C24 UNL     1       2.150   8.177  12.631  1.00  0.00     0.023 C 
HETATM   18  C25 UNL     1       1.163   8.438  10.364  1.00  0.00     0.023 C 
HETATM   19  C26 UNL     1      -0.383   7.658  12.233  1.00  0.00     0.009 C 
HETATM   20  C27 UNL     1      -0.702   8.956  13.000  1.00  0.00     0.007 C 
HETATM   21  C28 UNL     1      -2.190   9.068  13.347  1.00  0.00     0.011 C 
HETATM   22  C29 UNL     1      -2.732   7.883  14.188  1.00  0.00    -0.032 C 
HETATM   23  C30 UNL     1      -2.081   7.993  15.597  1.00  0.00     0.016 C 
ENDROOT
BRANCH   1  24
HETATM   24  C2  UNL     1      -7.393   6.080  15.162  1.00  0.00    -0.084 C 
HETATM   25  C1  UNL     1      -8.649   6.525  15.357  1.00  0.00     0.014 C 
BRANCH  24  26
HETATM   26  C3  UNL     1      -7.079   4.733  14.525  1.00  0.00     0.037 C 
BRANCH  26  27
HETATM   27  C4  UNL     1      -7.429   4.493  13.041  1.00  0.00     0.032 C 
BRANCH  27  28
HETATM   28  C5  UNL     1      -7.055   3.108  12.572  1.00  0.00    -0.019 C 
HETATM   29  C6  UNL     1      -6.048   2.757  11.744  1.00  0.00    -0.037 C 
BRANCH  29  30
HETATM   30  C7  UNL     1      -5.852   1.316  11.347  1.00  0.00     0.200 C 
BRANCH  30  31
HETATM   31  O1  UNL     1      -4.463   1.016  11.422  1.00  0.00    -0.397 OA
HETATM   32  H10 UNL     1      -4.351   0.135  11.024  1.00  0.00     0.209 HD
ENDBRANCH  30  31
ENDBRANCH  29  30
BRANCH  29  33
HETATM   33  C8  UNL     1      -5.039   3.708  11.152  1.00  0.00     0.200 C 
BRANCH  33  34
HETATM   34  O2  UNL     1      -4.640   3.245   9.872  1.00  0.00    -0.397 OA
HETATM   35  H13 UNL     1      -4.575   2.270   9.952  1.00  0.00     0.209 HD
ENDBRANCH  33  34
ENDBRANCH  29  33
ENDBRANCH  27  28
ENDBRANCH  26  27
ENDBRANCH  24  26
ENDBRANCH   1  24
TORSDOF 8
ENDMDL
MODEL 3
REMARK minimizedAffinity -8.6518383
REMARK  8 active torsions:
REMARK  status: ('A' for Active; 'I' for Inactive)
REMARK    1  A    between atoms: C2_2  and  C3_3 
REMARK    2  A    between atoms: C2_2  and  C9_11 
REMARK    3  A    between atoms: C3_3  and  C4_4 
REMARK    4  A    between atoms: C4_4  and  C5_5 
REMARK    5  A    between atoms: C6_6  and  C7_7 
REMARK    6  A    between atoms: C6_6  and  C8_9 
REMARK    7  A    between atoms: C7_7  and  O1_8 
REMARK    8  A    between atoms: C8_9  and  O2_10 
ROOT
HETATM    1  C9  UNL     1      -2.866   8.009  15.678  1.00  0.00     0.018 C 
HETATM    2  C10 UNL     1      -1.899   8.778  16.613  1.00  0.00     0.010 C 
HETATM    3  C11 UNL     1      -0.482   8.443  16.102  1.00  0.00     0.011 C 
HETATM    4  C12 UNL     1      -0.645   8.328  14.568  1.00  0.00    -0.032 C 
HETATM    5  C13 UNL     1      -0.804   9.784  14.030  1.00  0.00     0.016 C 
HETATM    6  C14 UNL     1      -1.970   7.519  14.512  1.00  0.00     0.002 C 
HETATM    7  C15 UNL     1      -2.508   7.366  13.099  1.00  0.00     0.006 C 
HETATM    8  C16 UNL     1      -1.458   6.659  12.219  1.00  0.00     0.006 C 
HETATM    9  C17 UNL     1      -0.057   7.334  12.261  1.00  0.00     0.003 C 
HETATM   10  C18 UNL     1       0.978   6.777  11.191  1.00  0.00    -0.035 C 
HETATM   11  C19 UNL     1       1.219   5.257  11.337  1.00  0.00     0.016 C 
HETATM   12  C20 UNL     1       0.367   6.996   9.762  1.00  0.00     0.017 C 
HETATM   13  C21 UNL     1       1.366   7.293   8.649  1.00  0.00     0.080 C 
HETATM   14  C22 UNL     1       2.736   6.742   8.943  1.00  0.00     0.135 C 
HETATM   15  O3  UNL     1       3.304   6.007   8.134  1.00  0.00    -0.297 OA
HETATM   16  C23 UNL     1       3.409   7.219  10.237  1.00  0.00     0.017 C 
HETATM   17  C24 UNL     1       4.390   6.136  10.724  1.00  0.00     0.023 C 
HETATM   18  C25 UNL     1       4.241   8.464   9.863  1.00  0.00     0.023 C 
HETATM   19  C26 UNL     1       2.306   7.614  11.286  1.00  0.00     0.009 C 
HETATM   20  C27 UNL     1       2.847   7.715  12.725  1.00  0.00     0.007 C 
HETATM   21  C28 UNL     1       1.815   8.311  13.687  1.00  0.00     0.011 C 
HETATM   22  C29 UNL     1       0.479   7.524  13.744  1.00  0.00    -0.032 C 
HETATM   23  C30 UNL     1       0.785   6.161  14.431  1.00  0.00     0.016 C 
ENDROOT
BRANCH   1  24
HETATM   24  C2  UNL     1      -4.217   8.646  15.359  1.00  0.00    -0.084 C 
HETATM   25  C1  UNL     1      -4.271   9.982  15.197  1.00  0.00     0.014 C 
BRANCH  24  26
HETATM   26  C3  UNL     1      -5.443   7.747  15.259  1.00  0.00     0.037 C 
BRANCH  26  27
HETATM   27  C4  UNL     1      -5.987   7.353  13.870  1.00  0.00     0.032 C 
BRANCH  27  28
HETATM   28  C5  UNL     1      -6.133   5.860  13.704  1.00  0.00    -0.019 C 
HETATM   29  C6  UNL     1      -7.226   5.174  13.308  1.00  0.00    -0.037 C 
BRANCH  29  30
HETATM   30  C7  UNL     1      -7.199   3.668  13.244  1.00  0.00     0.200 C 
BRANCH  30  31
HETATM   31  O1  UNL     1      -8.542   3.199  13.182  1.00  0.00    -0.397 OA
HETATM   32  H10 UNL     1      -8.500   2.232  13.289  1.00  0.00     0.209 HD
ENDBRANCH  30  31
ENDBRANCH  29  30
BRANCH  29  33
HETATM   33  C8  UNL     1      -8.535   5.791  12.891  1.00  0.00     0.200 C 
BRANCH  33  34
HETATM   34  O2  UNL     1      -9.373   5.947  14.026  1.00  0.00    -0.397 OA
HETATM   35  H13 UNL     1      -9.232   5.144  14.570  1.00  0.00     0.209 HD
ENDBRANCH  33  34
ENDBRANCH  29  33
ENDBRANCH  27  28
ENDBRANCH  26  27
ENDBRANCH  24  26
ENDBRANCH   1  24
TORSDOF 8
ENDMDL
MODEL 4
REMARK minimizedAffinity -8.6344614
REMARK  8 active torsions:
REMARK  status: ('A' for Active; 'I' for Inactive)
REMARK    1  A    between atoms: C2_2  and  C3_3 
REMARK    2  A    between atoms: C2_2  and  C9_11 
REMARK    3  A    between atoms: C3_3  and  C4_4 
REMARK    4  A    between atoms: C4_4  and  C5_5 
REMARK    5  A    between atoms: C6_6  and  C7_7 
REMARK    6  A    between atoms: C6_6  and  C8_9 
REMARK    7  A    between atoms: C7_7  and  O1_8 
REMARK    8  A    between atoms: C8_9  and  O2_10 
ROOT
HETATM    1  C9  UNL     1       3.707   6.571  11.203  1.00  0.00     0.018 C 
HETATM    2  C10 UNL     1       3.087   5.511  10.259  1.00  0.00     0.010 C 
HETATM    3  C11 UNL     1       1.709   5.176  10.866  1.00  0.00     0.011 C 
HETATM    4  C12 UNL     1       1.217   6.517  11.463  1.00  0.00    -0.032 C 
HETATM    5  C13 UNL     1       0.788   7.406  10.255  1.00  0.00     0.016 C 
HETATM    6  C14 UNL     1       2.537   7.000  12.125  1.00  0.00     0.002 C 
HETATM    7  C15 UNL     1       2.434   8.408  12.684  1.00  0.00     0.006 C 
HETATM    8  C16 UNL     1       1.304   8.470  13.730  1.00  0.00     0.006 C 
HETATM    9  C17 UNL     1      -0.057   7.928  13.205  1.00  0.00     0.003 C 
HETATM   10  C18 UNL     1      -1.291   8.192  14.171  1.00  0.00    -0.035 C 
HETATM   11  C19 UNL     1      -1.087   7.577  15.574  1.00  0.00     0.016 C 
HETATM   12  C20 UNL     1      -1.423   9.742  14.380  1.00  0.00     0.017 C 
HETATM   13  C21 UNL     1      -2.843  10.273  14.553  1.00  0.00     0.080 C 
HETATM   14  C22 UNL     1      -3.784   9.230  15.096  1.00  0.00     0.135 C 
HETATM   15  O3  UNL     1      -4.457   9.456  16.102  1.00  0.00    -0.297 OA
HETATM   16  C23 UNL     1      -3.925   7.937  14.283  1.00  0.00     0.017 C 
HETATM   17  C24 UNL     1      -4.321   6.787  15.228  1.00  0.00     0.023 C 
HETATM   18  C25 UNL     1      -5.101   8.160  13.308  1.00  0.00     0.023 C 
HETATM   19  C26 UNL     1      -2.603   7.683  13.470  1.00  0.00     0.009 C 
HETATM   20  C27 UNL     1      -2.480   6.237  12.952  1.00  0.00     0.007 C 
HETATM   21  C28 UNL     1      -1.303   6.071  11.984  1.00  0.00     0.011 C 
HETATM   22  C29 UNL     1       0.069   6.470  12.588  1.00  0.00    -0.032 C 
HETATM   23  C30 UNL     1       0.413   5.408  13.672  1.00  0.00     0.016 C 
ENDROOT
BRANCH   1  24
HETATM   24  C2  UNL     1       4.601   7.647  10.589  1.00  0.00    -0.084 C 
HETATM   25  C1  UNL     1       4.129   8.348   9.540  1.00  0.00     0.014 C 
BRANCH  24  26
HETATM   26  C3  UNL     1       5.990   7.863  11.174  1.00  0.00     0.037 C 
BRANCH  26  27
HETATM   27  C4  UNL     1       6.548   6.858  12.204  1.00  0.00     0.032 C 
BRANCH  27  28
HETATM   28  C5  UNL     1       7.246   7.534  13.358  1.00  0.00    -0.019 C 
HETATM   29  C6  UNL     1       6.696   8.012  14.495  1.00  0.00    -0.037 C 
BRANCH  29  30
HETATM   30  C7  UNL     1       7.552   8.703  15.525  1.00  0.00     0.200 C 
BRANCH  30  31
HETATM   31  O1  UNL     1       7.369   8.044  16.774  1.00  0.00    -0.397 OA
HETATM   32  H10 UNL     1       7.813   8.595  17.442  1.00  0.00     0.209 HD
ENDBRANCH  30  31
ENDBRANCH  29  30
BRANCH  29  33
HETATM   33  C8  UNL     1       5.239   7.910  14.863  1.00  0.00     0.200 C 
BRANCH  33  34
HETATM   34  O2  UNL     1       5.031   6.770  15.682  1.00  0.00    -0.397 OA
HETATM   35  H13 UNL     1       5.610   6.070  15.312  1.00  0.00     0.209 HD
ENDBRANCH  33  34
ENDBRANCH  29  33
ENDBRANCH  27  28
ENDBRANCH  26  27
ENDBRANCH  24  26
ENDBRANCH   1  24
TORSDOF 8
ENDMDL
MODEL 5
REMARK minimizedAffinity -8.60034943
REMARK  8 active torsions:
REMARK  status: ('A' for Active; 'I' for Inactive)
REMARK    1  A    between atoms: C2_2  and  C3_3 
REMARK    2  A    between atoms: C2_2  and  C9_11 
REMARK    3  A    between atoms: C3_3  and  C4_4 
REMARK    4  A    between atoms: C4_4  and  C5_5 
REMARK    5  A    between atoms: C6_6  and  C7_7 
REMARK    6  A    between atoms: C6_6  and  C8_9 
REMARK    7  A    between atoms: C7_7  and  O1_8 
REMARK    8  A    between atoms: C8_9  and  O2_10 
ROOT
HETATM    1  C9  UNL     1      -1.375   5.101  11.859  1.00  0.00     0.018 C 
HETATM    2  C10 UNL     1      -0.152   4.480  12.579  1.00  0.00     0.010 C 
HETATM    3  C11 UNL     1       0.438   5.616  13.441  1.00  0.00     0.011 C 
HETATM    4  C12 UNL     1      -0.797   6.426  13.903  1.00  0.00    -0.032 C 
HETATM    5  C13 UNL     1      -1.500   5.570  15.003  1.00  0.00     0.016 C 
HETATM    6  C14 UNL     1      -1.594   6.461  12.570  1.00  0.00     0.002 C 
HETATM    7  C15 UNL     1      -2.976   7.070  12.726  1.00  0.00     0.006 C 
HETATM    8  C16 UNL     1      -2.852   8.508  13.267  1.00  0.00     0.006 C 
HETATM    9  C17 UNL     1      -1.997   8.611  14.564  1.00  0.00     0.003 C 
HETATM   10  C18 UNL     1      -2.044  10.032  15.274  1.00  0.00    -0.035 C 
HETATM   11  C19 UNL     1      -1.571  11.174  14.346  1.00  0.00     0.016 C 
HETATM   12  C20 UNL     1      -3.538  10.345  15.640  1.00  0.00     0.017 C 
HETATM   13  C21 UNL     1      -3.757  11.147  16.919  1.00  0.00     0.080 C 
HETATM   14  C22 UNL     1      -2.568  12.003  17.272  1.00  0.00     0.135 C 
HETATM   15  O3  UNL     1      -2.701  13.211  17.468  1.00  0.00    -0.297 OA
HETATM   16  C23 UNL     1      -1.230  11.278  17.465  1.00  0.00     0.017 C 
HETATM   17  C24 UNL     1      -0.079  12.250  17.142  1.00  0.00     0.023 C 
HETATM   18  C25 UNL     1      -1.135  10.930  18.966  1.00  0.00     0.023 C 
HETATM   19  C26 UNL     1      -1.221   9.957  16.612  1.00  0.00     0.009 C 
HETATM   20  C27 UNL     1       0.192   9.374  16.413  1.00  0.00     0.007 C 
HETATM   21  C28 UNL     1       0.154   7.982  15.774  1.00  0.00     0.011 C 
HETATM   22  C29 UNL     1      -0.568   7.938  14.402  1.00  0.00    -0.032 C 
HETATM   23  C30 UNL     1       0.329   8.713  13.393  1.00  0.00     0.016 C 
ENDROOT
BRANCH   1  24
HETATM   24  C2  UNL     1      -2.581   4.205  11.586  1.00  0.00    -0.084 C 
HETATM   25  C1  UNL     1      -2.752   3.728  10.337  1.00  0.00     0.014 C 
BRANCH  24  26
HETATM   26  C3  UNL     1      -3.545   3.908  12.727  1.00  0.00     0.037 C 
BRANCH  26  27
HETATM   27  C4  UNL     1      -5.064   4.051  12.497  1.00  0.00     0.032 C 
BRANCH  27  28
HETATM   28  C5  UNL     1      -5.765   4.731  13.647  1.00  0.00    -0.019 C 
HETATM   29  C6  UNL     1      -7.088   4.956  13.795  1.00  0.00    -0.037 C 
BRANCH  29  30
HETATM   30  C7  UNL     1      -7.606   5.697  15.001  1.00  0.00     0.200 C 
BRANCH  30  31
HETATM   31  O1  UNL     1      -8.133   4.745  15.919  1.00  0.00    -0.397 OA
HETATM   32  H10 UNL     1      -8.587   5.255  16.612  1.00  0.00     0.209 HD
ENDBRANCH  30  31
ENDBRANCH  29  30
BRANCH  29  33
HETATM   33  C8  UNL     1      -8.157   4.511  12.832  1.00  0.00     0.200 C 
BRANCH  33  34
HETATM   34  O2  UNL     1      -8.643   3.233  13.214  1.00  0.00    -0.397 OA
HETATM   35  H13 UNL     1      -7.856   2.732  13.516  1.00  0.00     0.209 HD
ENDBRANCH  33  34
ENDBRANCH  29  33
ENDBRANCH  27  28
ENDBRANCH  26  27
ENDBRANCH  24  26
ENDBRANCH   1  24
TORSDOF 8
ENDMDL
MODEL 6
REMARK minimizedAffinity -8.42847347
REMARK  8 active torsions:
REMARK  status: ('A' for Active; 'I' for Inactive)
REMARK    1  A    between atoms: C2_2  and  C3_3 
REMARK    2  A    between atoms: C2_2  and  C9_11 
REMARK    3  A    between atoms: C3_3  and  C4_4 
REMARK    4  A    between atoms: C4_4  and  C5_5 
REMARK    5  A    between atoms: C6_6  and  C7_7 
REMARK    6  A    between atoms: C6_6  and  C8_9 
REMARK    7  A    between atoms: C7_7  and  O1_8 
REMARK    8  A    between atoms: C8_9  and  O2_10 
ROOT
HETATM    1  C9  UNL     1      -2.780   5.910  12.586  1.00  0.00     0.018 C 
HETATM    2  C10 UNL     1      -2.519   4.660  11.708  1.00  0.00     0.010 C 
HETATM    3  C11 UNL     1      -1.148   4.904  11.044  1.00  0.00     0.011 C 
HETATM    4  C12 UNL     1      -0.333   5.666  12.116  1.00  0.00    -0.032 C 
HETATM    5  C13 UNL     1       0.059   4.615  13.201  1.00  0.00     0.016 C 
HETATM    6  C14 UNL     1      -1.423   6.658  12.608  1.00  0.00     0.002 C 
HETATM    7  C15 UNL     1      -0.978   7.473  13.810  1.00  0.00     0.006 C 
HETATM    8  C16 UNL     1       0.293   8.269  13.454  1.00  0.00     0.006 C 
HETATM    9  C17 UNL     1       1.434   7.388  12.867  1.00  0.00     0.003 C 
HETATM   10  C18 UNL     1       2.830   8.131  12.712  1.00  0.00    -0.035 C 
HETATM   11  C19 UNL     1       2.737   9.383  11.811  1.00  0.00     0.016 C 
HETATM   12  C20 UNL     1       3.275   8.635  14.130  1.00  0.00     0.017 C 
HETATM   13  C21 UNL     1       4.777   8.639  14.395  1.00  0.00     0.080 C 
HETATM   14  C22 UNL     1       5.584   8.756  13.129  1.00  0.00     0.135 C 
HETATM   15  O3  UNL     1       6.435   9.637  13.006  1.00  0.00    -0.297 OA
HETATM   16  C23 UNL     1       5.357   7.674  12.064  1.00  0.00     0.017 C 
HETATM   17  C24 UNL     1       5.678   8.258  10.675  1.00  0.00     0.023 C 
HETATM   18  C25 UNL     1       6.388   6.560  12.347  1.00  0.00     0.023 C 
HETATM   19  C26 UNL     1       3.901   7.097  12.205  1.00  0.00     0.009 C 
HETATM   20  C27 UNL     1       3.436   6.317  10.960  1.00  0.00     0.007 C 
HETATM   21  C28 UNL     1       2.113   5.583  11.203  1.00  0.00     0.011 C 
HETATM   22  C29 UNL     1       0.948   6.511  11.635  1.00  0.00    -0.032 C 
HETATM   23  C30 UNL     1       0.588   7.390  10.402  1.00  0.00     0.016 C 
ENDROOT
BRANCH   1  24
HETATM   24  C2  UNL     1      -3.546   5.724  13.894  1.00  0.00    -0.084 C 
HETATM   25  C1  UNL     1      -2.899   5.176  14.941  1.00  0.00     0.014 C 
BRANCH  24  26
HETATM   26  C3  UNL     1      -5.009   6.144  13.950  1.00  0.00     0.037 C 
BRANCH  26  27
HETATM   27  C4  UNL     1      -6.113   5.095  13.698  1.00  0.00     0.032 C 
BRANCH  27  28
HETATM   28  C5  UNL     1      -5.726   4.085  12.646  1.00  0.00    -0.019 C 
HETATM   29  C6  UNL     1      -6.352   2.930  12.336  1.00  0.00    -0.037 C 
BRANCH  29  30
HETATM   30  C7  UNL     1      -5.790   2.017  11.277  1.00  0.00     0.200 C 
BRANCH  30  31
HETATM   31  O1  UNL     1      -5.538   2.789  10.108  1.00  0.00    -0.397 OA
HETATM   32  H10 UNL     1      -5.317   2.156   9.403  1.00  0.00     0.209 HD
ENDBRANCH  30  31
ENDBRANCH  29  30
BRANCH  29  33
HETATM   33  C8  UNL     1      -7.629   2.439  12.967  1.00  0.00     0.200 C 
BRANCH  33  34
HETATM   34  O2  UNL     1      -8.635   3.433  12.848  1.00  0.00    -0.397 OA
HETATM   35  H13 UNL     1      -8.179   4.288  12.996  1.00  0.00     0.209 HD
ENDBRANCH  33  34
ENDBRANCH  29  33
ENDBRANCH  27  28
ENDBRANCH  26  27
ENDBRANCH  24  26
ENDBRANCH   1  24
TORSDOF 8
ENDMDL
MODEL 7
REMARK minimizedAffinity -8.34861755
REMARK  8 active torsions:
REMARK  status: ('A' for Active; 'I' for Inactive)
REMARK    1  A    between atoms: C2_2  and  C3_3 
REMARK    2  A    between atoms: C2_2  and  C9_11 
REMARK    3  A    between atoms: C3_3  and  C4_4 
REMARK    4  A    between atoms: C4_4  and  C5_5 
REMARK    5  A    between atoms: C6_6  and  C7_7 
REMARK    6  A    between atoms: C6_6  and  C8_9 
REMARK    7  A    between atoms: C7_7  and  O1_8 
REMARK    8  A    between atoms: C8_9  and  O2_10 
ROOT
HETATM    1  C9  UNL     1      -5.726   7.947  15.983  1.00  0.00     0.018 C 
HETATM    2  C10 UNL     1      -5.836   9.415  15.501  1.00  0.00     0.010 C 
HETATM    3  C11 UNL     1      -4.466   9.746  14.874  1.00  0.00     0.011 C 
HETATM    4  C12 UNL     1      -4.015   8.419  14.217  1.00  0.00    -0.032 C 
HETATM    5  C13 UNL     1      -4.882   8.248  12.931  1.00  0.00     0.016 C 
HETATM    6  C14 UNL     1      -4.412   7.428  15.345  1.00  0.00     0.002 C 
HETATM    7  C15 UNL     1      -4.239   5.974  14.939  1.00  0.00     0.006 C 
HETATM    8  C16 UNL     1      -2.771   5.717  14.546  1.00  0.00     0.006 C 
HETATM    9  C17 UNL     1      -2.232   6.710  13.477  1.00  0.00     0.003 C 
HETATM   10  C18 UNL     1      -0.808   6.330  12.880  1.00  0.00    -0.035 C 
HETATM   11  C19 UNL     1       0.282   6.226  13.971  1.00  0.00     0.016 C 
HETATM   12  C20 UNL     1      -0.919   4.909  12.224  1.00  0.00     0.017 C 
HETATM   13  C21 UNL     1      -0.051   4.674  10.992  1.00  0.00     0.080 C 
HETATM   14  C22 UNL     1       1.167   5.560  10.969  1.00  0.00     0.135 C 
HETATM   15  O3  UNL     1       2.292   5.076  10.839  1.00  0.00    -0.297 OA
HETATM   16  C23 UNL     1       0.921   7.073  11.017  1.00  0.00     0.017 C 
HETATM   17  C24 UNL     1       2.142   7.764  11.652  1.00  0.00     0.023 C 
HETATM   18  C25 UNL     1       0.831   7.548   9.550  1.00  0.00     0.023 C 
HETATM   19  C26 UNL     1      -0.441   7.360  11.751  1.00  0.00     0.009 C 
HETATM   20  C27 UNL     1      -0.586   8.825  12.207  1.00  0.00     0.007 C 
HETATM   21  C28 UNL     1      -1.998   9.130  12.718  1.00  0.00     0.011 C 
HETATM   22  C29 UNL     1      -2.451   8.226  13.894  1.00  0.00    -0.032 C 
HETATM   23  C30 UNL     1      -1.589   8.621  15.127  1.00  0.00     0.016 C 
ENDROOT
BRANCH   1  24
HETATM   24  C2  UNL     1      -6.977   7.073  15.921  1.00  0.00    -0.084 C 
HETATM   25  C1  UNL     1      -6.892   5.805  16.370  1.00  0.00     0.014 C 
BRANCH  24  26
HETATM   26  C3  UNL     1      -8.254   7.664  15.338  1.00  0.00     0.037 C 
BRANCH  26  27
HETATM   27  C4  UNL     1      -9.339   6.724  14.772  1.00  0.00     0.032 C 
BRANCH  27  28
HETATM   28  C5  UNL     1      -9.274   6.599  13.270  1.00  0.00    -0.019 C 
HETATM   29  C6  UNL     1      -8.682   5.626  12.544  1.00  0.00    -0.037 C 
BRANCH  29  30
HETATM   30  C7  UNL     1      -8.680   5.692  11.038  1.00  0.00     0.200 C 
BRANCH  30  31
HETATM   31  O1  UNL     1      -9.833   6.415  10.620  1.00  0.00    -0.397 OA
HETATM   32  H10 UNL     1      -9.883   6.317   9.653  1.00  0.00     0.209 HD
ENDBRANCH  30  31
ENDBRANCH  29  30
BRANCH  29  33
HETATM   33  C8  UNL     1      -7.997   4.412  13.115  1.00  0.00     0.200 C 
BRANCH  33  34
HETATM   34  O2  UNL     1      -7.011   3.947  12.205  1.00  0.00    -0.397 OA
HETATM   35  H13 UNL     1      -7.405   4.054  11.314  1.00  0.00     0.209 HD
ENDBRANCH  33  34
ENDBRANCH  29  33
ENDBRANCH  27  28
ENDBRANCH  26  27
ENDBRANCH  24  26
ENDBRANCH   1  24
TORSDOF 8
ENDMDL
MODEL 8
REMARK minimizedAffinity -8.33797455
REMARK  8 active torsions:
REMARK  status: ('A' for Active; 'I' for Inactive)
REMARK    1  A    between atoms: C2_2  and  C3_3 
REMARK    2  A    between atoms: C2_2  and  C9_11 
REMARK    3  A    between atoms: C3_3  and  C4_4 
REMARK    4  A    between atoms: C4_4  and  C5_5 
REMARK    5  A    between atoms: C6_6  and  C7_7 
REMARK    6  A    between atoms: C6_6  and  C8_9 
REMARK    7  A    between atoms: C7_7  and  O1_8 
REMARK    8  A    between atoms: C8_9  and  O2_10 
ROOT
HETATM    1  C9  UNL     1       1.694   9.060  14.032  1.00  0.00     0.018 C 
HETATM    2  C10 UNL     1       1.709   9.609  15.480  1.00  0.00     0.010 C 
HETATM    3  C11 UNL     1       0.226   9.793  15.865  1.00  0.00     0.011 C 
HETATM    4  C12 UNL     1      -0.502   8.627  15.154  1.00  0.00    -0.032 C 
HETATM    5  C13 UNL     1      -0.157   7.336  15.960  1.00  0.00     0.016 C 
HETATM    6  C14 UNL     1       0.213   8.682  13.776  1.00  0.00     0.002 C 
HETATM    7  C15 UNL     1      -0.174   7.530  12.865  1.00  0.00     0.006 C 
HETATM    8  C16 UNL     1      -1.698   7.539  12.635  1.00  0.00     0.006 C 
HETATM    9  C17 UNL     1      -2.525   7.570  13.953  1.00  0.00     0.003 C 
HETATM   10  C18 UNL     1      -4.086   7.344  13.759  1.00  0.00    -0.035 C 
HETATM   11  C19 UNL     1      -4.723   8.391  12.818  1.00  0.00     0.016 C 
HETATM   12  C20 UNL     1      -4.295   5.946  13.078  1.00  0.00     0.017 C 
HETATM   13  C21 UNL     1      -5.554   5.188  13.484  1.00  0.00     0.080 C 
HETATM   14  C22 UNL     1      -6.650   6.105  13.960  1.00  0.00     0.135 C 
HETATM   15  O3  UNL     1      -7.773   6.054  13.458  1.00  0.00    -0.297 OA
HETATM   16  C23 UNL     1      -6.318   7.018  15.147  1.00  0.00     0.017 C 
HETATM   17  C24 UNL     1      -7.195   8.282  15.072  1.00  0.00     0.023 C 
HETATM   18  C25 UNL     1      -6.727   6.246  16.420  1.00  0.00     0.023 C 
HETATM   19  C26 UNL     1      -4.771   7.303  15.174  1.00  0.00     0.009 C 
HETATM   20  C27 UNL     1      -4.392   8.507  16.057  1.00  0.00     0.007 C 
HETATM   21  C28 UNL     1      -2.876   8.629  16.243  1.00  0.00     0.011 C 
HETATM   22  C29 UNL     1      -2.087   8.756  14.914  1.00  0.00    -0.032 C 
HETATM   23  C30 UNL     1      -2.433  10.150  14.314  1.00  0.00     0.016 C 
ENDROOT
BRANCH   1  24
HETATM   24  C2  UNL     1       2.791   8.080  13.622  1.00  0.00    -0.084 C 
HETATM   25  C1  UNL     1       3.906   8.018  14.375  1.00  0.00     0.014 C 
BRANCH  24  26
HETATM   26  C3  UNL     1       2.586   7.234  12.372  1.00  0.00     0.037 C 
BRANCH  26  27
HETATM   27  C4  UNL     1       2.726   7.885  10.980  1.00  0.00     0.032 C 
BRANCH  27  28
HETATM   28  C5  UNL     1       2.839   6.869   9.871  1.00  0.00    -0.019 C 
HETATM   29  C6  UNL     1       2.596   7.048   8.555  1.00  0.00    -0.037 C 
BRANCH  29  30
HETATM   30  C7  UNL     1       2.719   5.896   7.592  1.00  0.00     0.200 C 
BRANCH  30  31
HETATM   31  O1  UNL     1       3.514   4.885   8.202  1.00  0.00    -0.397 OA
HETATM   32  H10 UNL     1       3.697   4.225   7.511  1.00  0.00     0.209 HD
ENDBRANCH  30  31
ENDBRANCH  29  30
BRANCH  29  33
HETATM   33  C8  UNL     1       2.205   8.355   7.915  1.00  0.00     0.200 C 
BRANCH  33  34
HETATM   34  O2  UNL     1       3.366   9.132   7.665  1.00  0.00    -0.397 OA
HETATM   35  H13 UNL     1       3.949   8.991   8.440  1.00  0.00     0.209 HD
ENDBRANCH  33  34
ENDBRANCH  29  33
ENDBRANCH  27  28
ENDBRANCH  26  27
ENDBRANCH  24  26
ENDBRANCH   1  24
TORSDOF 8
ENDMDL
MODEL 9
REMARK minimizedAffinity -8.25559711
REMARK  8 active torsions:
REMARK  status: ('A' for Active; 'I' for Inactive)
REMARK    1  A    between atoms: C2_2  and  C3_3 
REMARK    2  A    between atoms: C2_2  and  C9_11 
REMARK    3  A    between atoms: C3_3  and  C4_4 
REMARK    4  A    between atoms: C4_4  and  C5_5 
REMARK    5  A    between atoms: C6_6  and  C7_7 
REMARK    6  A    between atoms: C6_6  and  C8_9 
REMARK    7  A    between atoms: C7_7  and  O1_8 
REMARK    8  A    between atoms: C8_9  and  O2_10 
ROOT
HETATM    1  C9  UNL     1      -0.652   5.841  13.527  1.00  0.00     0.018 C 
HETATM    2  C10 UNL     1      -1.287   6.915  14.445  1.00  0.00     0.010 C 
HETATM    3  C11 UNL     1      -0.130   7.857  14.836  1.00  0.00     0.011 C 
HETATM    4  C12 UNL     1       0.770   7.901  13.578  1.00  0.00    -0.032 C 
HETATM    5  C13 UNL     1       0.023   8.786  12.531  1.00  0.00     0.016 C 
HETATM    6  C14 UNL     1       0.760   6.393  13.204  1.00  0.00     0.002 C 
HETATM    7  C15 UNL     1       1.447   6.109  11.880  1.00  0.00     0.006 C 
HETATM    8  C16 UNL     1       2.909   6.595  11.939  1.00  0.00     0.006 C 
HETATM    9  C17 UNL     1       3.051   8.079  12.387  1.00  0.00     0.003 C 
HETATM   10  C18 UNL     1       4.515   8.678  12.233  1.00  0.00    -0.035 C 
HETATM   11  C19 UNL     1       5.570   7.876  13.029  1.00  0.00     0.016 C 
HETATM   12  C20 UNL     1       4.927   8.576  10.722  1.00  0.00     0.017 C 
HETATM   13  C21 UNL     1       5.820   9.696  10.198  1.00  0.00     0.080 C 
HETATM   14  C22 UNL     1       6.635  10.340  11.288  1.00  0.00     0.135 C 
HETATM   15  O3  UNL     1       7.858  10.433  11.186  1.00  0.00    -0.297 OA
HETATM   16  C23 UNL     1       5.857  10.950  12.462  1.00  0.00     0.017 C 
HETATM   17  C24 UNL     1       6.746  10.933  13.720  1.00  0.00     0.023 C 
HETATM   18  C25 UNL     1       5.601  12.428  12.096  1.00  0.00     0.023 C 
HETATM   19  C26 UNL     1       4.485  10.199  12.628  1.00  0.00     0.009 C 
HETATM   20  C27 UNL     1       3.819  10.449  13.995  1.00  0.00     0.007 C 
HETATM   21  C28 UNL     1       2.393   9.893  14.050  1.00  0.00     0.011 C 
HETATM   22  C29 UNL     1       2.298   8.373  13.754  1.00  0.00    -0.032 C 
HETATM   23  C30 UNL     1       2.959   7.636  14.954  1.00  0.00     0.016 C 
ENDROOT
BRANCH   1  24
HETATM   24  C2  UNL     1      -1.502   5.269  12.393  1.00  0.00    -0.084 C 
HETATM   25  C1  UNL     1      -0.874   4.820  11.289  1.00  0.00     0.014 C 
BRANCH  24  26
HETATM   26  C3  UNL     1      -3.016   5.252  12.552  1.00  0.00     0.037 C 
BRANCH  26  27
HETATM   27  C4  UNL     1      -3.840   4.131  11.884  1.00  0.00     0.032 C 
BRANCH  27  28
HETATM   28  C5  UNL     1      -5.238   4.024  12.442  1.00  0.00    -0.019 C 
HETATM   29  C6  UNL     1      -6.143   3.047  12.226  1.00  0.00    -0.037 C 
BRANCH  29  30
HETATM   30  C7  UNL     1      -7.519   3.132  12.837  1.00  0.00     0.200 C 
BRANCH  30  31
HETATM   31  O1  UNL     1      -8.181   1.890  12.624  1.00  0.00    -0.397 OA
HETATM   32  H10 UNL     1      -9.106   2.023  12.895  1.00  0.00     0.209 HD
ENDBRANCH  30  31
ENDBRANCH  29  30
BRANCH  29  33
HETATM   33  C8  UNL     1      -5.904   1.807  11.403  1.00  0.00     0.200 C 
BRANCH  33  34
HETATM   34  O2  UNL     1      -5.702   2.167  10.045  1.00  0.00    -0.397 OA
HETATM   35  H13 UNL     1      -6.333   2.895   9.869  1.00  0.00     0.209 HD
ENDBRANCH  33  34
ENDBRANCH  29  33
ENDBRANCH  27  28
ENDBRANCH  26  27
ENDBRANCH  24  26
ENDBRANCH   1  24
TORSDOF 8
ENDMDL
