MODEL 1
REMARK minimizedAffinity -6.59769297
REMARK CNNscore 0.48507905
REMARK CNNaffinity 6.29514933
REMARK  11 active torsions:
REMARK  status: ('A' for Active; 'I' for Inactive)
REMARK    1  A    between atoms: C2_2  and  C3_3 
REMARK    2  A    between atoms: C2_2  and  C9_12 
REMARK    3  A    between atoms: C3_3  and  C4_4 
REMARK    4  A    between atoms: C4_4  and  O1_5 
REMARK    5  A    between atoms: C4_4  and  C5_6 
REMARK    6  A    between atoms: C5_6  and  O2_7 
REMARK    7  A    between atoms: C5_6  and  C6_8 
REMARK    8  A    between atoms: C6_8  and  O3_11 
REMARK    9  A    between atoms: C15_18  and  O4_19 
REMARK   10  A    between atoms: C22_27  and  C24_29 
REMARK   11  A    between atoms: C24_29  and  O6_30 
ROOT
HETATM    1  C9  UNL     1     -10.896  -6.956  -5.332  1.00  0.00    -0.002 C 
HETATM    2  C10 UNL     1      -9.785  -6.911  -6.418  1.00  0.00     0.006 C 
HETATM    3  C11 UNL     1      -8.639  -7.822  -5.952  1.00  0.00     0.011 C 
HETATM    4  C12 UNL     1      -9.220  -8.640  -4.782  1.00  0.00    -0.030 C 
HETATM    5  C13 UNL     1      -9.979  -9.844  -5.419  1.00  0.00     0.016 C 
HETATM    6  C14 UNL     1      -8.168  -9.152  -3.751  1.00  0.00     0.032 C 
HETATM    7  C15 UNL     1      -7.261 -10.302  -4.236  1.00  0.00     0.124 C 
HETATM    8  C16 UNL     1      -6.223 -10.648  -3.164  1.00  0.00     0.038 C 
HETATM    9  C17 UNL     1      -6.899 -11.290  -1.946  1.00  0.00     0.015 C 
HETATM   10  C18 UNL     1      -8.102 -10.495  -1.425  1.00  0.00    -0.026 A 
HETATM   11  C19 UNL     1      -8.934 -11.279  -0.407  1.00  0.00     0.018 C 
HETATM   12  C20 UNL     1      -8.210 -12.485   0.173  1.00  0.00     0.080 C 
HETATM   13  C21 UNL     1      -6.752 -12.178   0.410  1.00  0.00     0.137 C 
HETATM   14  O5  UNL     1      -6.222 -12.432   1.494  1.00  0.00    -0.297 OA
HETATM   15  C22 UNL     1      -5.925 -11.672  -0.779  1.00  0.00     0.042 C 
HETATM   16  C23 UNL     1      -5.062 -10.493  -0.296  1.00  0.00     0.026 C 
HETATM   17  C25 UNL     1      -8.002  -9.007  -1.178  1.00  0.00     0.021 A 
HETATM   18  C26 UNL     1      -8.808  -9.479  -2.372  1.00  0.00    -0.025 A 
HETATM   19  C27 UNL     1     -10.333  -9.385  -2.274  1.00  0.00     0.011 C 
HETATM   20  C28 UNL     1     -11.025  -8.259  -3.059  1.00  0.00     0.011 C 
HETATM   21  C29 UNL     1     -10.144  -7.562  -4.102  1.00  0.00    -0.032 C 
HETATM   22  C30 UNL     1      -9.355  -6.425  -3.383  1.00  0.00     0.016 C 
ENDROOT
BRANCH   1  23
HETATM   23  C2  UNL     1     -11.635  -5.590  -5.199  1.00  0.00    -0.011 C 
HETATM   24  C1  UNL     1     -13.071  -5.657  -5.737  1.00  0.00     0.010 C 
BRANCH  23  25
HETATM   25  C3  UNL     1     -10.869  -4.466  -5.950  1.00  0.00     0.039 C 
BRANCH  25  26
HETATM   26  C4  UNL     1     -11.227  -3.041  -5.482  1.00  0.00     0.150 C 
BRANCH  26  27
HETATM   27  O1  UNL     1     -10.970  -3.000  -4.071  1.00  0.00    -0.393 OA
HETATM   28  H8  UNL     1     -10.461  -2.180  -3.878  1.00  0.00     0.210 HD
ENDBRANCH  26  27
BRANCH  26  29
HETATM   29  C5  UNL     1     -10.481  -1.909  -6.245  1.00  0.00     0.180 C 
BRANCH  29  30
HETATM   30  O2  UNL     1      -9.518  -2.499  -7.135  1.00  0.00    -0.390 OA
HETATM   31  H10 UNL     1      -8.754  -2.752  -6.579  1.00  0.00     0.210 HD
ENDBRANCH  29  30
BRANCH  29  32
HETATM   32  C6  UNL     1      -9.731  -0.900  -5.323  1.00  0.00     0.079 C 
HETATM   33  C7  UNL     1      -8.920   0.100  -6.156  1.00  0.00     0.048 C 
HETATM   34  C8  UNL     1     -10.678  -0.148  -4.386  1.00  0.00     0.048 C 
BRANCH  32  35
HETATM   35  O3  UNL     1      -8.793  -1.655  -4.534  1.00  0.00    -0.388 OA
HETATM   36  H17 UNL     1      -8.354  -1.036  -3.917  1.00  0.00     0.210 HD
ENDBRANCH  32  35
ENDBRANCH  29  32
ENDBRANCH  26  29
ENDBRANCH  25  26
ENDBRANCH  23  25
ENDBRANCH   1  23
BRANCH   7  37
HETATM   37  O4  UNL     1      -6.557  -9.937  -5.422  1.00  0.00    -0.395 OA
HETATM   38  H28 UNL     1      -6.026  -9.147  -5.227  1.00  0.00     0.210 HD
ENDBRANCH   7  37
BRANCH  15  39
HETATM   39  C24 UNL     1      -5.028 -12.860  -1.199  1.00  0.00     0.181 C 
BRANCH  39  40
HETATM   40  O6  UNL     1      -3.701 -12.462  -1.532  1.00  0.00    -0.400 OA
HETATM   41  H41 UNL     1      -3.378 -11.869  -0.823  1.00  0.00     0.209 HD
ENDBRANCH  39  40
ENDBRANCH  15  39
TORSDOF 11
ENDMDL
MODEL 2
REMARK minimizedAffinity -6.70817137
REMARK CNNscore 0.481013536
REMARK CNNaffinity 5.79291868
REMARK  11 active torsions:
REMARK  status: ('A' for Active; 'I' for Inactive)
REMARK    1  A    between atoms: C2_2  and  C3_3 
REMARK    2  A    between atoms: C2_2  and  C9_12 
REMARK    3  A    between atoms: C3_3  and  C4_4 
REMARK    4  A    between atoms: C4_4  and  O1_5 
REMARK    5  A    between atoms: C4_4  and  C5_6 
REMARK    6  A    between atoms: C5_6  and  O2_7 
REMARK    7  A    between atoms: C5_6  and  C6_8 
REMARK    8  A    between atoms: C6_8  and  O3_11 
REMARK    9  A    between atoms: C15_18  and  O4_19 
REMARK   10  A    between atoms: C22_27  and  C24_29 
REMARK   11  A    between atoms: C24_29  and  O6_30 
ROOT
HETATM    1  C9  UNL     1     -14.169   7.247  23.411  1.00  0.00    -0.002 C 
HETATM    2  C10 UNL     1     -14.543   7.456  24.904  1.00  0.00     0.006 C 
HETATM    3  C11 UNL     1     -14.008   8.832  25.333  1.00  0.00     0.011 C 
HETATM    4  C12 UNL     1     -13.628   9.546  24.021  1.00  0.00    -0.030 C 
HETATM    5  C13 UNL     1     -14.940  10.179  23.466  1.00  0.00     0.016 C 
HETATM    6  C14 UNL     1     -12.522  10.637  24.163  1.00  0.00     0.032 C 
HETATM    7  C15 UNL     1     -12.957  11.941  24.865  1.00  0.00     0.124 C 
HETATM    8  C16 UNL     1     -11.761  12.887  25.015  1.00  0.00     0.038 C 
HETATM    9  C17 UNL     1     -11.316  13.415  23.646  1.00  0.00     0.015 C 
HETATM   10  C18 UNL     1     -11.119  12.311  22.600  1.00  0.00    -0.026 A 
HETATM   11  C19 UNL     1     -10.958  12.862  21.180  1.00  0.00     0.018 C 
HETATM   12  C20 UNL     1     -10.630  14.347  21.135  1.00  0.00     0.080 C 
HETATM   13  C21 UNL     1      -9.677  14.723  22.244  1.00  0.00     0.137 C 
HETATM   14  O5  UNL     1      -8.661  15.379  22.005  1.00  0.00    -0.297 OA
HETATM   15  C22 UNL     1     -10.085  14.384  23.683  1.00  0.00     0.042 C 
HETATM   16  C23 UNL     1      -8.861  13.787  24.399  1.00  0.00     0.026 C 
HETATM   17  C25 UNL     1     -10.304  11.077  22.916  1.00  0.00     0.021 A 
HETATM   18  C26 UNL     1     -11.810  10.931  22.813  1.00  0.00    -0.025 A 
HETATM   19  C27 UNL     1     -12.366  10.236  21.568  1.00  0.00     0.011 C 
HETATM   20  C28 UNL     1     -12.878   8.795  21.730  1.00  0.00     0.011 C 
HETATM   21  C29 UNL     1     -13.070   8.336  23.181  1.00  0.00    -0.032 C 
HETATM   22  C30 UNL     1     -11.703   7.792  23.698  1.00  0.00     0.016 C 
ENDROOT
BRANCH   1  23
HETATM   23  C2  UNL     1     -13.864   5.753  23.091  1.00  0.00    -0.011 C 
HETATM   24  C1  UNL     1     -13.894   5.468  21.583  1.00  0.00     0.010 C 
BRANCH  23  25
HETATM   25  C3  UNL     1     -14.878   4.813  23.800  1.00  0.00     0.039 C 
BRANCH  25  26
HETATM   26  C4  UNL     1     -14.235   3.850  24.818  1.00  0.00     0.150 C 
BRANCH  26  27
HETATM   27  O1  UNL     1     -15.297   3.034  25.335  1.00  0.00    -0.393 OA
HETATM   28  H8  UNL     1     -14.998   2.097  25.316  1.00  0.00     0.210 HD
ENDBRANCH  26  27
BRANCH  26  29
HETATM   29  C5  UNL     1     -13.069   2.995  24.243  1.00  0.00     0.180 C 
BRANCH  29  30
HETATM   30  O2  UNL     1     -13.454   2.479  22.958  1.00  0.00    -0.390 OA
HETATM   31  H10 UNL     1     -14.044   1.720  23.136  1.00  0.00     0.210 HD
ENDBRANCH  29  30
BRANCH  29  32
HETATM   32  C6  UNL     1     -12.654   1.790  25.141  1.00  0.00     0.079 C 
HETATM   33  C7  UNL     1     -11.293   1.232  24.708  1.00  0.00     0.048 C 
HETATM   34  C8  UNL     1     -12.617   2.153  26.628  1.00  0.00     0.048 C 
BRANCH  32  35
HETATM   35  O3  UNL     1     -13.625   0.748  24.937  1.00  0.00    -0.388 OA
HETATM   36  H17 UNL     1     -13.400   0.007  25.536  1.00  0.00     0.210 HD
ENDBRANCH  32  35
ENDBRANCH  29  32
ENDBRANCH  26  29
ENDBRANCH  25  26
ENDBRANCH  23  25
ENDBRANCH   1  23
BRANCH   7  37
HETATM   37  O4  UNL     1     -13.470  11.677  26.169  1.00  0.00    -0.395 OA
HETATM   38  H28 UNL     1     -12.775  11.232  26.683  1.00  0.00     0.210 HD
ENDBRANCH   7  37
BRANCH  15  39
HETATM   39  C24 UNL     1     -10.485  15.731  24.331  1.00  0.00     0.181 C 
BRANCH  39  40
HETATM   40  O6  UNL     1     -11.733  16.227  23.854  1.00  0.00    -0.400 OA
HETATM   41  H41 UNL     1     -12.379  15.491  23.882  1.00  0.00     0.209 HD
ENDBRANCH  39  40
ENDBRANCH  15  39
TORSDOF 11
ENDMDL
MODEL 3
REMARK minimizedAffinity -7.09636307
REMARK CNNscore 0.447564006
REMARK CNNaffinity 5.88781023
REMARK  11 active torsions:
REMARK  status: ('A' for Active; 'I' for Inactive)
REMARK    1  A    between atoms: C2_2  and  C3_3 
REMARK    2  A    between atoms: C2_2  and  C9_12 
REMARK    3  A    between atoms: C3_3  and  C4_4 
REMARK    4  A    between atoms: C4_4  and  O1_5 
REMARK    5  A    between atoms: C4_4  and  C5_6 
REMARK    6  A    between atoms: C5_6  and  O2_7 
REMARK    7  A    between atoms: C5_6  and  C6_8 
REMARK    8  A    between atoms: C6_8  and  O3_11 
REMARK    9  A    between atoms: C15_18  and  O4_19 
REMARK   10  A    between atoms: C22_27  and  C24_29 
REMARK   11  A    between atoms: C24_29  and  O6_30 
ROOT
HETATM    1  C9  UNL     1      -9.598  -8.130  -3.980  1.00  0.00    -0.002 C 
HETATM    2  C10 UNL     1      -8.269  -7.894  -4.750  1.00  0.00     0.006 C 
HETATM    3  C11 UNL     1      -7.129  -8.492  -3.911  1.00  0.00     0.011 C 
HETATM    4  C12 UNL     1      -7.823  -9.354  -2.839  1.00  0.00    -0.030 C 
HETATM    5  C13 UNL     1      -8.117 -10.733  -3.504  1.00  0.00     0.016 C 
HETATM    6  C14 UNL     1      -7.006  -9.554  -1.525  1.00  0.00     0.032 C 
HETATM    7  C15 UNL     1      -5.785 -10.491  -1.633  1.00  0.00     0.124 C 
HETATM    8  C16 UNL     1      -5.027 -10.531  -0.303  1.00  0.00     0.038 C 
HETATM    9  C17 UNL     1      -5.858 -11.241   0.772  1.00  0.00     0.015 C 
HETATM   10  C18 UNL     1      -7.294 -10.714   0.880  1.00  0.00    -0.026 A 
HETATM   11  C19 UNL     1      -8.190 -11.609   1.741  1.00  0.00     0.018 C 
HETATM   12  C20 UNL     1      -7.417 -12.584   2.617  1.00  0.00     0.080 C 
HETATM   13  C21 UNL     1      -6.172 -11.939   3.175  1.00  0.00     0.137 C 
HETATM   14  O5  UNL     1      -5.914 -12.005   4.378  1.00  0.00    -0.297 OA
HETATM   15  C22 UNL     1      -5.178 -11.325   2.181  1.00  0.00     0.042 C 
HETATM   16  C23 UNL     1      -4.739  -9.955   2.727  1.00  0.00     0.026 C 
HETATM   17  C25 UNL     1      -7.572  -9.231   0.973  1.00  0.00     0.021 A 
HETATM   18  C26 UNL     1      -7.912  -9.941  -0.323  1.00  0.00    -0.025 A 
HETATM   19  C27 UNL     1      -9.392 -10.192  -0.621  1.00  0.00     0.011 C 
HETATM   20  C28 UNL     1     -10.064  -9.300  -1.677  1.00  0.00     0.011 C 
HETATM   21  C29 UNL     1      -9.097  -8.479  -2.539  1.00  0.00    -0.032 C 
HETATM   22  C30 UNL     1      -8.783  -7.153  -1.780  1.00  0.00     0.016 C 
ENDROOT
BRANCH   1  23
HETATM   23  C2  UNL     1     -10.610  -6.965  -4.192  1.00  0.00    -0.011 C 
HETATM   24  C1  UNL     1     -11.992  -7.472  -4.626  1.00  0.00     0.010 C 
BRANCH  23  25
HETATM   25  C3  UNL     1     -10.087  -5.960  -5.257  1.00  0.00     0.039 C 
BRANCH  25  26
HETATM   26  C4  UNL     1     -10.166  -4.484  -4.819  1.00  0.00     0.150 C 
BRANCH  26  27
HETATM   27  O1  UNL     1      -8.837  -4.099  -4.439  1.00  0.00    -0.393 OA
HETATM   28  H8  UNL     1      -8.638  -3.233  -4.864  1.00  0.00     0.210 HD
ENDBRANCH  26  27
BRANCH  26  29
HETATM   29  C5  UNL     1     -10.768  -3.528  -5.890  1.00  0.00     0.180 C 
BRANCH  29  30
HETATM   30  O2  UNL     1      -9.789  -3.303  -6.919  1.00  0.00    -0.390 OA
HETATM   31  H10 UNL     1      -9.161  -2.647  -6.556  1.00  0.00     0.210 HD
ENDBRANCH  29  30
BRANCH  29  32
HETATM   32  C6  UNL     1     -11.214  -2.142  -5.335  1.00  0.00     0.079 C 
HETATM   33  C7  UNL     1     -10.262  -1.036  -5.806  1.00  0.00     0.048 C 
HETATM   34  C8  UNL     1     -12.651  -1.790  -5.724  1.00  0.00     0.048 C 
BRANCH  32  35
HETATM   35  O3  UNL     1     -11.118  -2.203  -3.900  1.00  0.00    -0.388 OA
HETATM   36  H17 UNL     1     -11.444  -1.353  -3.541  1.00  0.00     0.210 HD
ENDBRANCH  32  35
ENDBRANCH  29  32
ENDBRANCH  26  29
ENDBRANCH  25  26
ENDBRANCH  23  25
ENDBRANCH   1  23
BRANCH   7  37
HETATM   37  O4  UNL     1      -4.879 -10.042  -2.639  1.00  0.00    -0.395 OA
HETATM   38  H28 UNL     1      -4.594  -9.142  -2.409  1.00  0.00     0.210 HD
ENDBRANCH   7  37
BRANCH  15  39
HETATM   39  C24 UNL     1      -3.977 -12.299   2.138  1.00  0.00     0.181 C 
BRANCH  39  40
HETATM   40  O6  UNL     1      -3.204 -12.279   3.335  1.00  0.00    -0.400 OA
HETATM   41  H41 UNL     1      -3.822 -12.343   4.092  1.00  0.00     0.209 HD
ENDBRANCH  39  40
ENDBRANCH  15  39
TORSDOF 11
ENDMDL
MODEL 4
REMARK minimizedAffinity -9.49098587
REMARK CNNscore 0.42628774
REMARK CNNaffinity 6.7839942
REMARK  11 active torsions:
REMARK  status: ('A' for Active; 'I' for Inactive)
REMARK    1  A    between atoms: C2_2  and  C3_3 
REMARK    2  A    between atoms: C2_2  and  C9_12 
REMARK    3  A    between atoms: C3_3  and  C4_4 
REMARK    4  A    between atoms: C4_4  and  O1_5 
REMARK    5  A    between atoms: C4_4  and  C5_6 
REMARK    6  A    between atoms: C5_6  and  O2_7 
REMARK    7  A    between atoms: C5_6  and  C6_8 
REMARK    8  A    between atoms: C6_8  and  O3_11 
REMARK    9  A    between atoms: C15_18  and  O4_19 
REMARK   10  A    between atoms: C22_27  and  C24_29 
REMARK   11  A    between atoms: C24_29  and  O6_30 
ROOT
HETATM    1  C9  UNL     1      -3.475   6.852  13.529  1.00  0.00    -0.002 C 
HETATM    2  C10 UNL     1      -3.420   8.054  14.513  1.00  0.00     0.006 C 
HETATM    3  C11 UNL     1      -2.028   8.695  14.393  1.00  0.00     0.011 C 
HETATM    4  C12 UNL     1      -1.409   8.083  13.121  1.00  0.00    -0.030 C 
HETATM    5  C13 UNL     1      -1.948   8.919  11.921  1.00  0.00     0.016 C 
HETATM    6  C14 UNL     1       0.151   8.052  13.098  1.00  0.00     0.032 C 
HETATM    7  C15 UNL     1       0.843   9.417  12.901  1.00  0.00     0.124 C 
HETATM    8  C16 UNL     1       2.364   9.257  12.984  1.00  0.00     0.038 C 
HETATM    9  C17 UNL     1       2.892   8.474  11.777  1.00  0.00     0.015 C 
HETATM   10  C18 UNL     1       2.134   7.166  11.519  1.00  0.00    -0.026 A 
HETATM   11  C19 UNL     1       2.472   6.543  10.161  1.00  0.00     0.018 C 
HETATM   12  C20 UNL     1       3.742   7.099   9.534  1.00  0.00     0.080 C 
HETATM   13  C21 UNL     1       4.802   7.339  10.581  1.00  0.00     0.137 C 
HETATM   14  O5  UNL     1       5.948   6.915  10.426  1.00  0.00    -0.297 OA
HETATM   15  C22 UNL     1       4.441   8.240  11.770  1.00  0.00     0.042 C 
HETATM   16  C23 UNL     1       4.962   7.570  13.053  1.00  0.00     0.026 C 
HETATM   17  C25 UNL     1       1.874   6.185  12.639  1.00  0.00     0.021 A 
HETATM   18  C26 UNL     1       0.703   6.989  12.108  1.00  0.00    -0.025 A 
HETATM   19  C27 UNL     1      -0.319   6.253  11.237  1.00  0.00     0.011 C 
HETATM   20  C28 UNL     1      -1.673   5.903  11.876  1.00  0.00     0.011 C 
HETATM   21  C29 UNL     1      -1.964   6.611  13.204  1.00  0.00    -0.032 C 
HETATM   22  C30 UNL     1      -1.330   5.766  14.350  1.00  0.00     0.016 C 
ENDROOT
BRANCH   1  23
HETATM   23  C2  UNL     1      -4.349   5.686  14.082  1.00  0.00    -0.011 C 
HETATM   24  C1  UNL     1      -4.332   4.463  13.155  1.00  0.00     0.010 C 
BRANCH  23  25
HETATM   25  C3  UNL     1      -5.821   6.142  14.288  1.00  0.00     0.039 C 
BRANCH  25  26
HETATM   26  C4  UNL     1      -6.273   6.157  15.761  1.00  0.00     0.150 C 
BRANCH  26  27
HETATM   27  O1  UNL     1      -5.911   7.443  16.286  1.00  0.00    -0.393 OA
HETATM   28  H8  UNL     1      -6.686   7.802  16.774  1.00  0.00     0.210 HD
ENDBRANCH  26  27
BRANCH  26  29
HETATM   29  C5  UNL     1      -7.783   5.845  15.972  1.00  0.00     0.180 C 
BRANCH  29  30
HETATM   30  O2  UNL     1      -8.000   4.436  15.788  1.00  0.00    -0.390 OA
HETATM   31  H10 UNL     1      -8.010   4.287  14.822  1.00  0.00     0.210 HD
ENDBRANCH  29  30
BRANCH  29  32
HETATM   32  C6  UNL     1      -8.737   6.610  15.006  1.00  0.00     0.079 C 
HETATM   33  C7  UNL     1      -8.469   8.119  15.058  1.00  0.00     0.048 C 
HETATM   34  C8  UNL     1      -8.631   6.113  13.563  1.00  0.00     0.048 C 
BRANCH  32  35
HETATM   35  O3  UNL     1     -10.082   6.401  15.476  1.00  0.00    -0.388 OA
HETATM   36  H17 UNL     1     -10.691   6.836  14.846  1.00  0.00     0.210 HD
ENDBRANCH  32  35
ENDBRANCH  29  32
ENDBRANCH  26  29
ENDBRANCH  25  26
ENDBRANCH  23  25
ENDBRANCH   1  23
BRANCH   7  37
HETATM   37  O4  UNL     1       0.446  10.346  13.907  1.00  0.00    -0.395 OA
HETATM   38  H28 UNL     1       0.679   9.971  14.774  1.00  0.00     0.210 HD
ENDBRANCH   7  37
BRANCH  15  39
HETATM   39  C24 UNL     1       5.182   9.576  11.520  1.00  0.00     0.181 C 
BRANCH  39  40
HETATM   40  O6  UNL     1       5.518   9.775  10.150  1.00  0.00    -0.400 OA
HETATM   41  H41 UNL     1       4.721   9.582   9.614  1.00  0.00     0.209 HD
ENDBRANCH  39  40
ENDBRANCH  15  39
TORSDOF 11
ENDMDL
MODEL 5
REMARK minimizedAffinity -8.67386246
REMARK CNNscore 0.40321061
REMARK CNNaffinity 6.60389328
REMARK  11 active torsions:
REMARK  status: ('A' for Active; 'I' for Inactive)
REMARK    1  A    between atoms: C2_2  and  C3_3 
REMARK    2  A    between atoms: C2_2  and  C9_12 
REMARK    3  A    between atoms: C3_3  and  C4_4 
REMARK    4  A    between atoms: C4_4  and  O1_5 
REMARK    5  A    between atoms: C4_4  and  C5_6 
REMARK    6  A    between atoms: C5_6  and  O2_7 
REMARK    7  A    between atoms: C5_6  and  C6_8 
REMARK    8  A    between atoms: C6_8  and  O3_11 
REMARK    9  A    between atoms: C15_18  and  O4_19 
REMARK   10  A    between atoms: C22_27  and  C24_29 
REMARK   11  A    between atoms: C24_29  and  O6_30 
ROOT
HETATM    1  C9  UNL     1      -6.295   4.534  13.629  1.00  0.00    -0.002 C 
HETATM    2  C10 UNL     1      -6.355   3.856  12.232  1.00  0.00     0.006 C 
HETATM    3  C11 UNL     1      -4.976   4.019  11.573  1.00  0.00     0.011 C 
HETATM    4  C12 UNL     1      -4.039   4.486  12.703  1.00  0.00    -0.030 C 
HETATM    5  C13 UNL     1      -3.578   3.201  13.454  1.00  0.00     0.016 C 
HETATM    6  C14 UNL     1      -2.799   5.308  12.232  1.00  0.00     0.032 C 
HETATM    7  C15 UNL     1      -1.697   4.502  11.514  1.00  0.00     0.124 C 
HETATM    8  C16 UNL     1      -0.584   5.438  11.031  1.00  0.00     0.038 C 
HETATM    9  C17 UNL     1       0.191   6.015  12.221  1.00  0.00     0.015 C 
HETATM   10  C18 UNL     1      -0.713   6.616  13.305  1.00  0.00    -0.026 A 
HETATM   11  C19 UNL     1       0.042   6.924  14.601  1.00  0.00     0.018 C 
HETATM   12  C20 UNL     1       1.554   6.954  14.435  1.00  0.00     0.080 C 
HETATM   13  C21 UNL     1       1.941   7.591  13.123  1.00  0.00     0.137 C 
HETATM   14  O5  UNL     1       2.790   8.484  13.083  1.00  0.00    -0.297 OA
HETATM   15  C22 UNL     1       1.347   7.000  11.838  1.00  0.00     0.042 C 
HETATM   16  C23 UNL     1       0.884   8.164  10.945  1.00  0.00     0.026 C 
HETATM   17  C25 UNL     1      -1.815   7.586  12.946  1.00  0.00     0.021 A 
HETATM   18  C26 UNL     1      -2.208   6.185  13.371  1.00  0.00    -0.025 A 
HETATM   19  C27 UNL     1      -2.819   6.017  14.765  1.00  0.00     0.011 C 
HETATM   20  C28 UNL     1      -4.335   5.780  14.851  1.00  0.00     0.011 C 
HETATM   21  C29 UNL     1      -5.009   5.419  13.522  1.00  0.00    -0.032 C 
HETATM   22  C30 UNL     1      -5.370   6.746  12.788  1.00  0.00     0.016 C 
ENDROOT
BRANCH   1  23
HETATM   23  C2  UNL     1      -7.656   5.183  14.020  1.00  0.00    -0.011 C 
HETATM   24  C1  UNL     1      -8.551   5.429  12.798  1.00  0.00     0.010 C 
BRANCH  23  25
HETATM   25  C3  UNL     1      -7.438   6.531  14.763  1.00  0.00     0.039 C 
BRANCH  25  26
HETATM   26  C4  UNL     1      -8.650   6.991  15.598  1.00  0.00     0.150 C 
BRANCH  26  27
HETATM   27  O1  UNL     1      -8.150   7.303  16.906  1.00  0.00    -0.393 OA
HETATM   28  H8  UNL     1      -8.522   8.174  17.174  1.00  0.00     0.210 HD
ENDBRANCH  26  27
BRANCH  26  29
HETATM   29  C5  UNL     1      -9.444   8.177  14.977  1.00  0.00     0.180 C 
BRANCH  29  30
HETATM   30  O2  UNL     1      -9.451   9.273  15.907  1.00  0.00    -0.390 OA
HETATM   31  H10 UNL     1     -10.126   9.054  16.579  1.00  0.00     0.210 HD
ENDBRANCH  29  30
BRANCH  29  32
HETATM   32  C6  UNL     1     -10.922   7.841  14.616  1.00  0.00     0.079 C 
HETATM   33  C7  UNL     1     -11.892   8.677  15.459  1.00  0.00     0.048 C 
HETATM   34  C8  UNL     1     -11.222   8.041  13.129  1.00  0.00     0.048 C 
BRANCH  32  35
HETATM   35  O3  UNL     1     -11.144   6.460  14.957  1.00  0.00    -0.388 OA
HETATM   36  H17 UNL     1     -12.055   6.227  14.686  1.00  0.00     0.210 HD
ENDBRANCH  32  35
ENDBRANCH  29  32
ENDBRANCH  26  29
ENDBRANCH  25  26
ENDBRANCH  23  25
ENDBRANCH   1  23
BRANCH   7  37
HETATM   37  O4  UNL     1      -2.217   3.819  10.375  1.00  0.00    -0.395 OA
HETATM   38  H28 UNL     1      -2.599   4.481   9.774  1.00  0.00     0.210 HD
ENDBRANCH   7  37
BRANCH  15  39
HETATM   39  C24 UNL     1       2.505   6.228  11.161  1.00  0.00     0.181 C 
BRANCH  39  40
HETATM   40  O6  UNL     1       2.052   5.289  10.189  1.00  0.00    -0.400 OA
HETATM   41  H41 UNL     1       1.401   5.742   9.614  1.00  0.00     0.209 HD
ENDBRANCH  39  40
ENDBRANCH  15  39
TORSDOF 11
ENDMDL
MODEL 6
REMARK minimizedAffinity -6.73371649
REMARK CNNscore 0.396768183
REMARK CNNaffinity 5.29305553
REMARK  11 active torsions:
REMARK  status: ('A' for Active; 'I' for Inactive)
REMARK    1  A    between atoms: C2_2  and  C3_3 
REMARK    2  A    between atoms: C2_2  and  C9_12 
REMARK    3  A    between atoms: C3_3  and  C4_4 
REMARK    4  A    between atoms: C4_4  and  O1_5 
REMARK    5  A    between atoms: C4_4  and  C5_6 
REMARK    6  A    between atoms: C5_6  and  O2_7 
REMARK    7  A    between atoms: C5_6  and  C6_8 
REMARK    8  A    between atoms: C6_8  and  O3_11 
REMARK    9  A    between atoms: C15_18  and  O4_19 
REMARK   10  A    between atoms: C22_27  and  C24_29 
REMARK   11  A    between atoms: C24_29  and  O6_30 
ROOT
HETATM    1  C9  UNL     1     -17.093   3.022  14.153  1.00  0.00    -0.002 C 
HETATM    2  C10 UNL     1     -17.304   3.265  15.673  1.00  0.00     0.006 C 
HETATM    3  C11 UNL     1     -17.081   1.928  16.397  1.00  0.00     0.011 C 
HETATM    4  C12 UNL     1     -16.423   1.006  15.352  1.00  0.00    -0.030 C 
HETATM    5  C13 UNL     1     -14.898   1.327  15.378  1.00  0.00     0.016 C 
HETATM    6  C14 UNL     1     -16.656  -0.519  15.581  1.00  0.00     0.032 C 
HETATM    7  C15 UNL     1     -15.886  -1.143  16.764  1.00  0.00     0.124 C 
HETATM    8  C16 UNL     1     -16.270  -2.617  16.929  1.00  0.00     0.038 C 
HETATM    9  C17 UNL     1     -15.741  -3.447  15.754  1.00  0.00     0.015 C 
HETATM   10  C18 UNL     1     -16.088  -2.855  14.382  1.00  0.00    -0.026 A 
HETATM   11  C19 UNL     1     -15.321  -3.523  13.237  1.00  0.00     0.018 C 
HETATM   12  C20 UNL     1     -14.698  -4.858  13.618  1.00  0.00     0.080 C 
HETATM   13  C21 UNL     1     -15.614  -5.645  14.522  1.00  0.00     0.137 C 
HETATM   14  O5  UNL     1     -15.877  -6.824  14.280  1.00  0.00    -0.297 OA
HETATM   15  C22 UNL     1     -16.091  -4.973  15.816  1.00  0.00     0.042 C 
HETATM   16  C23 UNL     1     -17.597  -5.246  15.970  1.00  0.00     0.026 C 
HETATM   17  C25 UNL     1     -17.501  -2.425  14.057  1.00  0.00     0.021 A 
HETATM   18  C26 UNL     1     -16.459  -1.346  14.279  1.00  0.00    -0.025 A 
HETATM   19  C27 UNL     1     -15.954  -0.591  13.047  1.00  0.00     0.011 C 
HETATM   20  C28 UNL     1     -16.468   0.842  12.833  1.00  0.00     0.011 C 
HETATM   21  C29 UNL     1     -17.173   1.463  14.044  1.00  0.00    -0.032 C 
HETATM   22  C30 UNL     1     -18.672   1.037  14.001  1.00  0.00     0.016 C 
ENDROOT
BRANCH   1  23
HETATM   23  C2  UNL     1     -18.031   3.913  13.284  1.00  0.00    -0.011 C 
HETATM   24  C1  UNL     1     -18.735   3.107  12.184  1.00  0.00     0.010 C 
BRANCH  23  25
HETATM   25  C3  UNL     1     -17.240   5.079  12.627  1.00  0.00     0.039 C 
BRANCH  25  26
HETATM   26  C4  UNL     1     -17.023   6.290  13.554  1.00  0.00     0.150 C 
BRANCH  26  27
HETATM   27  O1  UNL     1     -15.710   6.144  14.115  1.00  0.00    -0.393 OA
HETATM   28  H8  UNL     1     -15.247   7.009  14.036  1.00  0.00     0.210 HD
ENDBRANCH  26  27
BRANCH  26  29
HETATM   29  C5  UNL     1     -17.212   7.671  12.861  1.00  0.00     0.180 C 
BRANCH  29  30
HETATM   30  O2  UNL     1     -18.265   7.566  11.889  1.00  0.00    -0.390 OA
HETATM   31  H10 UNL     1     -17.872   7.127  11.109  1.00  0.00     0.210 HD
ENDBRANCH  29  30
BRANCH  29  32
HETATM   32  C6  UNL     1     -15.939   8.205  12.137  1.00  0.00     0.079 C 
HETATM   33  C7  UNL     1     -16.199   9.587  11.527  1.00  0.00     0.048 C 
HETATM   34  C8  UNL     1     -14.722   8.267  13.063  1.00  0.00     0.048 C 
BRANCH  32  35
HETATM   35  O3  UNL     1     -15.654   7.306  11.050  1.00  0.00    -0.388 OA
HETATM   36  H17 UNL     1     -14.827   7.606  10.622  1.00  0.00     0.210 HD
ENDBRANCH  32  35
ENDBRANCH  29  32
ENDBRANCH  26  29
ENDBRANCH  25  26
ENDBRANCH  23  25
ENDBRANCH   1  23
BRANCH   7  37
HETATM   37  O4  UNL     1     -16.190  -0.473  17.986  1.00  0.00    -0.395 OA
HETATM   38  H28 UNL     1     -17.148  -0.537  18.135  1.00  0.00     0.210 HD
ENDBRANCH   7  37
BRANCH  15  39
HETATM   39  C24 UNL     1     -15.300  -5.657  16.957  1.00  0.00     0.181 C 
BRANCH  39  40
HETATM   40  O6  UNL     1     -15.882  -5.445  18.240  1.00  0.00    -0.400 OA
HETATM   41  H41 UNL     1     -16.841  -5.630  18.169  1.00  0.00     0.209 HD
ENDBRANCH  39  40
ENDBRANCH  15  39
TORSDOF 11
ENDMDL
MODEL 7
REMARK minimizedAffinity -8.50527954
REMARK CNNscore 0.378153741
REMARK CNNaffinity 6.7584281
REMARK  11 active torsions:
REMARK  status: ('A' for Active; 'I' for Inactive)
REMARK    1  A    between atoms: C2_2  and  C3_3 
REMARK    2  A    between atoms: C2_2  and  C9_12 
REMARK    3  A    between atoms: C3_3  and  C4_4 
REMARK    4  A    between atoms: C4_4  and  O1_5 
REMARK    5  A    between atoms: C4_4  and  C5_6 
REMARK    6  A    between atoms: C5_6  and  O2_7 
REMARK    7  A    between atoms: C5_6  and  C6_8 
REMARK    8  A    between atoms: C6_8  and  O3_11 
REMARK    9  A    between atoms: C15_18  and  O4_19 
REMARK   10  A    between atoms: C22_27  and  C24_29 
REMARK   11  A    between atoms: C24_29  and  O6_30 
ROOT
HETATM    1  C9  UNL     1      -3.430   8.458  15.213  1.00  0.00    -0.002 C 
HETATM    2  C10 UNL     1      -2.464   8.204  16.403  1.00  0.00     0.006 C 
HETATM    3  C11 UNL     1      -1.064   7.947  15.823  1.00  0.00     0.011 C 
HETATM    4  C12 UNL     1      -1.151   8.377  14.346  1.00  0.00    -0.030 C 
HETATM    5  C13 UNL     1      -0.927   9.920  14.321  1.00  0.00     0.016 C 
HETATM    6  C14 UNL     1      -0.136   7.671  13.395  1.00  0.00     0.032 C 
HETATM    7  C15 UNL     1       1.335   8.111  13.541  1.00  0.00     0.124 C 
HETATM    8  C16 UNL     1       2.231   7.284  12.615  1.00  0.00     0.038 C 
HETATM    9  C17 UNL     1       1.957   7.630  11.147  1.00  0.00     0.015 C 
HETATM   10  C18 UNL     1       0.469   7.596  10.779  1.00  0.00    -0.026 A 
HETATM   11  C19 UNL     1       0.184   8.216   9.408  1.00  0.00     0.018 C 
HETATM   12  C20 UNL     1       1.422   8.368   8.537  1.00  0.00     0.080 C 
HETATM   13  C21 UNL     1       2.343   7.183   8.694  1.00  0.00     0.137 C 
HETATM   14  O5  UNL     1       2.784   6.593   7.706  1.00  0.00    -0.297 OA
HETATM   15  C22 UNL     1       2.814   6.827  10.110  1.00  0.00     0.042 C 
HETATM   16  C23 UNL     1       2.706   5.301  10.282  1.00  0.00     0.026 C 
HETATM   17  C25 UNL     1      -0.397   6.415  11.154  1.00  0.00     0.021 A 
HETATM   18  C26 UNL     1      -0.595   7.714  11.910  1.00  0.00    -0.025 A 
HETATM   19  C27 UNL     1      -1.853   8.528  11.595  1.00  0.00     0.011 C 
HETATM   20  C28 UNL     1      -2.994   8.496  12.625  1.00  0.00     0.011 C 
HETATM   21  C29 UNL     1      -2.614   7.915  13.992  1.00  0.00    -0.032 C 
HETATM   22  C30 UNL     1      -2.783   6.367  13.923  1.00  0.00     0.016 C 
ENDROOT
BRANCH   1  23
HETATM   23  C2  UNL     1      -4.861   7.914  15.498  1.00  0.00    -0.011 C 
HETATM   24  C1  UNL     1      -4.874   6.389  15.671  1.00  0.00     0.010 C 
BRANCH  23  25
HETATM   25  C3  UNL     1      -5.842   8.298  14.354  1.00  0.00     0.039 C 
BRANCH  25  26
HETATM   26  C4  UNL     1      -7.192   7.557  14.411  1.00  0.00     0.150 C 
BRANCH  26  27
HETATM   27  O1  UNL     1      -6.934   6.206  14.001  1.00  0.00    -0.393 OA
HETATM   28  H8  UNL     1      -7.373   5.603  14.644  1.00  0.00     0.210 HD
ENDBRANCH  26  27
BRANCH  26  29
HETATM   29  C5  UNL     1      -7.902   7.621  15.795  1.00  0.00     0.180 C 
BRANCH  29  30
HETATM   30  O2  UNL     1      -8.044   6.288  16.311  1.00  0.00    -0.390 OA
HETATM   31  H10 UNL     1      -8.803   5.893  15.838  1.00  0.00     0.210 HD
ENDBRANCH  29  30
BRANCH  29  32
HETATM   32  C6  UNL     1      -9.315   8.279  15.761  1.00  0.00     0.079 C 
HETATM   33  C7  UNL     1      -9.223   9.746  15.326  1.00  0.00     0.048 C 
HETATM   34  C8  UNL     1     -10.289   7.527  14.850  1.00  0.00     0.048 C 
BRANCH  32  35
HETATM   35  O3  UNL     1      -9.827   8.265  17.106  1.00  0.00    -0.388 OA
HETATM   36  H17 UNL     1     -10.735   8.630  17.085  1.00  0.00     0.210 HD
ENDBRANCH  32  35
ENDBRANCH  29  32
ENDBRANCH  26  29
ENDBRANCH  25  26
ENDBRANCH  23  25
ENDBRANCH   1  23
BRANCH   7  37
HETATM   37  O4  UNL     1       1.798   7.925  14.877  1.00  0.00    -0.395 OA
HETATM   38  H28 UNL     1       1.703   6.984  15.101  1.00  0.00     0.210 HD
ENDBRANCH   7  37
BRANCH  15  39
HETATM   39  C24 UNL     1       4.295   7.273  10.180  1.00  0.00     0.181 C 
BRANCH  39  40
HETATM   40  O6  UNL     1       4.453   8.685  10.081  1.00  0.00    -0.400 OA
HETATM   41  H41 UNL     1       3.816   9.103  10.697  1.00  0.00     0.209 HD
ENDBRANCH  39  40
ENDBRANCH  15  39
TORSDOF 11
ENDMDL
MODEL 8
REMARK minimizedAffinity -8.10634804
REMARK CNNscore 0.377169073
REMARK CNNaffinity 6.59678268
REMARK  11 active torsions:
REMARK  status: ('A' for Active; 'I' for Inactive)
REMARK    1  A    between atoms: C2_2  and  C3_3 
REMARK    2  A    between atoms: C2_2  and  C9_12 
REMARK    3  A    between atoms: C3_3  and  C4_4 
REMARK    4  A    between atoms: C4_4  and  O1_5 
REMARK    5  A    between atoms: C4_4  and  C5_6 
REMARK    6  A    between atoms: C5_6  and  O2_7 
REMARK    7  A    between atoms: C5_6  and  C6_8 
REMARK    8  A    between atoms: C6_8  and  O3_11 
REMARK    9  A    between atoms: C15_18  and  O4_19 
REMARK   10  A    between atoms: C22_27  and  C24_29 
REMARK   11  A    between atoms: C24_29  and  O6_30 
ROOT
HETATM    1  C9  UNL     1      -3.630   7.481  14.974  1.00  0.00    -0.002 C 
HETATM    2  C10 UNL     1      -4.340   6.360  14.166  1.00  0.00     0.006 C 
HETATM    3  C11 UNL     1      -3.333   5.811  13.142  1.00  0.00     0.011 C 
HETATM    4  C12 UNL     1      -1.965   6.373  13.578  1.00  0.00    -0.030 C 
HETATM    5  C13 UNL     1      -1.428   5.417  14.686  1.00  0.00     0.016 C 
HETATM    6  C14 UNL     1      -0.917   6.511  12.431  1.00  0.00     0.032 C 
HETATM    7  C15 UNL     1      -0.320   5.188  11.909  1.00  0.00     0.124 C 
HETATM    8  C16 UNL     1       0.625   5.459  10.734  1.00  0.00     0.038 C 
HETATM    9  C17 UNL     1       1.885   6.190  11.213  1.00  0.00     0.015 C 
HETATM   10  C18 UNL     1       1.586   7.420  12.078  1.00  0.00    -0.026 A 
HETATM   11  C19 UNL     1       2.832   7.966  12.781  1.00  0.00     0.018 C 
HETATM   12  C20 UNL     1       4.139   7.458  12.190  1.00  0.00     0.080 C 
HETATM   13  C21 UNL     1       4.053   7.367  10.686  1.00  0.00     0.137 C 
HETATM   14  O5  UNL     1       4.931   7.859   9.975  1.00  0.00    -0.297 OA
HETATM   15  C22 UNL     1       2.917   6.530  10.084  1.00  0.00     0.042 C 
HETATM   16  C23 UNL     1       2.304   7.325   8.917  1.00  0.00     0.026 C 
HETATM   17  C25 UNL     1       0.581   8.457  11.633  1.00  0.00     0.021 A 
HETATM   18  C26 UNL     1       0.199   7.537  12.776  1.00  0.00    -0.025 A 
HETATM   19  C27 UNL     1       0.181   8.136  14.186  1.00  0.00     0.011 C 
HETATM   20  C28 UNL     1      -1.191   8.435  14.811  1.00  0.00     0.011 C 
HETATM   21  C29 UNL     1      -2.384   7.804  14.084  1.00  0.00    -0.032 C 
HETATM   22  C30 UNL     1      -2.818   8.771  12.941  1.00  0.00     0.016 C 
ENDROOT
BRANCH   1  23
HETATM   23  C2  UNL     1      -4.615   8.619  15.379  1.00  0.00    -0.011 C 
HETATM   24  C1  UNL     1      -5.883   8.619  14.514  1.00  0.00     0.010 C 
BRANCH  23  25
HETATM   25  C3  UNL     1      -3.932  10.012  15.269  1.00  0.00     0.039 C 
BRANCH  25  26
HETATM   26  C4  UNL     1      -3.724  10.717  16.624  1.00  0.00     0.150 C 
BRANCH  26  27
HETATM   27  O1  UNL     1      -3.857   9.706  17.634  1.00  0.00    -0.393 OA
HETATM   28  H8  UNL     1      -3.105   9.803  18.262  1.00  0.00     0.210 HD
ENDBRANCH  26  27
BRANCH  26  29
HETATM   29  C5  UNL     1      -2.379  11.491  16.745  1.00  0.00     0.180 C 
BRANCH  29  30
HETATM   30  O2  UNL     1      -1.443  10.690  17.485  1.00  0.00    -0.390 OA
HETATM   31  H10 UNL     1      -1.688  10.787  18.427  1.00  0.00     0.210 HD
ENDBRANCH  29  30
BRANCH  29  32
HETATM   32  C6  UNL     1      -2.496  12.874  17.453  1.00  0.00     0.079 C 
HETATM   33  C7  UNL     1      -2.183  14.014  16.476  1.00  0.00     0.048 C 
HETATM   34  C8  UNL     1      -3.873  13.095  18.084  1.00  0.00     0.048 C 
BRANCH  32  35
HETATM   35  O3  UNL     1      -1.496  12.913  18.487  1.00  0.00    -0.388 OA
HETATM   36  H17 UNL     1      -1.596  13.759  18.970  1.00  0.00     0.210 HD
ENDBRANCH  32  35
ENDBRANCH  29  32
ENDBRANCH  26  29
ENDBRANCH  25  26
ENDBRANCH  23  25
ENDBRANCH   1  23
BRANCH   7  37
HETATM   37  O4  UNL     1      -1.344   4.307  11.450  1.00  0.00    -0.395 OA
HETATM   38  H28 UNL     1      -1.837   4.758  10.744  1.00  0.00     0.210 HD
ENDBRANCH   7  37
BRANCH  15  39
HETATM   39  C24 UNL     1       3.585   5.236   9.562  1.00  0.00     0.181 C 
BRANCH  39  40
HETATM   40  O6  UNL     1       4.883   5.022  10.110  1.00  0.00    -0.400 OA
HETATM   41  H41 UNL     1       4.826   5.153  11.078  1.00  0.00     0.209 HD
ENDBRANCH  39  40
ENDBRANCH  15  39
TORSDOF 11
ENDMDL
MODEL 9
REMARK minimizedAffinity -7.0396843
REMARK CNNscore 0.374451041
REMARK CNNaffinity 6.34800673
REMARK  11 active torsions:
REMARK  status: ('A' for Active; 'I' for Inactive)
REMARK    1  A    between atoms: C2_2  and  C3_3 
REMARK    2  A    between atoms: C2_2  and  C9_12 
REMARK    3  A    between atoms: C3_3  and  C4_4 
REMARK    4  A    between atoms: C4_4  and  O1_5 
REMARK    5  A    between atoms: C4_4  and  C5_6 
REMARK    6  A    between atoms: C5_6  and  O2_7 
REMARK    7  A    between atoms: C5_6  and  C6_8 
REMARK    8  A    between atoms: C6_8  and  O3_11 
REMARK    9  A    between atoms: C15_18  and  O4_19 
REMARK   10  A    between atoms: C22_27  and  C24_29 
REMARK   11  A    between atoms: C24_29  and  O6_30 
ROOT
HETATM    1  C9  UNL     1       3.031  14.402   1.325  1.00  0.00    -0.002 C 
HETATM    2  C10 UNL     1       3.722  14.066   2.676  1.00  0.00     0.006 C 
HETATM    3  C11 UNL     1       2.745  14.432   3.805  1.00  0.00     0.011 C 
HETATM    4  C12 UNL     1       1.388  14.659   3.111  1.00  0.00    -0.030 C 
HETATM    5  C13 UNL     1       0.738  13.253   2.942  1.00  0.00     0.016 C 
HETATM    6  C14 UNL     1       0.415  15.615   3.866  1.00  0.00     0.032 C 
HETATM    7  C15 UNL     1      -0.224  15.042   5.148  1.00  0.00     0.124 C 
HETATM    8  C16 UNL     1      -1.085  16.107   5.834  1.00  0.00     0.038 C 
HETATM    9  C17 UNL     1      -2.328  16.421   4.993  1.00  0.00     0.015 C 
HETATM   10  C18 UNL     1      -2.010  16.718   3.522  1.00  0.00    -0.026 A 
HETATM   11  C19 UNL     1      -3.262  16.744   2.640  1.00  0.00     0.018 C 
HETATM   12  C20 UNL     1      -4.559  16.871   3.425  1.00  0.00     0.080 C 
HETATM   13  C21 UNL     1      -4.394  17.811   4.594  1.00  0.00     0.137 C 
HETATM   14  O5  UNL     1      -5.202  18.721   4.789  1.00  0.00    -0.297 OA
HETATM   15  C22 UNL     1      -3.274  17.513   5.599  1.00  0.00     0.042 C 
HETATM   16  C23 UNL     1      -2.553  18.834   5.919  1.00  0.00     0.026 C 
HETATM   17  C25 UNL     1      -0.926  17.701   3.145  1.00  0.00     0.021 A 
HETATM   18  C26 UNL     1      -0.660  16.225   2.923  1.00  0.00    -0.025 A 
HETATM   19  C27 UNL     1      -0.688  15.714   1.480  1.00  0.00     0.011 C 
HETATM   20  C28 UNL     1       0.661  15.405   0.811  1.00  0.00     0.011 C 
HETATM   21  C29 UNL     1       1.857  15.337   1.768  1.00  0.00    -0.032 C 
HETATM   22  C30 UNL     1       2.407  16.783   1.955  1.00  0.00     0.016 C 
ENDROOT
BRANCH   1  23
HETATM   23  C2  UNL     1       4.052  14.889   0.254  1.00  0.00    -0.011 C 
HETATM   24  C1  UNL     1       4.064  16.418   0.121  1.00  0.00     0.010 C 
BRANCH  23  25
HETATM   25  C3  UNL     1       3.741  14.265  -1.136  1.00  0.00     0.039 C 
BRANCH  25  26
HETATM   26  C4  UNL     1       4.926  13.503  -1.760  1.00  0.00     0.150 C 
BRANCH  26  27
HETATM   27  O1  UNL     1       5.851  13.242  -0.695  1.00  0.00    -0.393 OA
HETATM   28  H8  UNL     1       6.121  12.297  -0.750  1.00  0.00     0.210 HD
ENDBRANCH  26  27
BRANCH  26  29
HETATM   29  C5  UNL     1       4.525  12.203  -2.517  1.00  0.00     0.180 C 
BRANCH  29  30
HETATM   30  O2  UNL     1       5.627  11.281  -2.481  1.00  0.00    -0.390 OA
HETATM   31  H10 UNL     1       6.261  11.588  -3.159  1.00  0.00     0.210 HD
ENDBRANCH  29  30
BRANCH  29  32
HETATM   32  C6  UNL     1       4.131  12.425  -4.009  1.00  0.00     0.079 C 
HETATM   33  C7  UNL     1       4.377  13.880  -4.426  1.00  0.00     0.048 C 
HETATM   34  C8  UNL     1       4.872  11.480  -4.958  1.00  0.00     0.048 C 
BRANCH  32  35
HETATM   35  O3  UNL     1       2.716  12.184  -4.119  1.00  0.00    -0.388 OA
HETATM   36  H17 UNL     1       2.469  12.272  -5.062  1.00  0.00     0.210 HD
ENDBRANCH  32  35
ENDBRANCH  29  32
ENDBRANCH  26  29
ENDBRANCH  25  26
ENDBRANCH  23  25
ENDBRANCH   1  23
BRANCH   7  37
HETATM   37  O4  UNL     1       0.774  14.623   6.078  1.00  0.00    -0.395 OA
HETATM   38  H28 UNL     1       1.330  15.392   6.291  1.00  0.00     0.210 HD
ENDBRANCH   7  37
BRANCH  15  39
HETATM   39  C24 UNL     1      -3.982  16.965   6.861  1.00  0.00     0.181 C 
BRANCH  39  40
HETATM   40  O6  UNL     1      -4.970  17.856   7.373  1.00  0.00    -0.400 OA
HETATM   41  H41 UNL     1      -5.527  18.150   6.622  1.00  0.00     0.209 HD
ENDBRANCH  39  40
ENDBRANCH  15  39
TORSDOF 11
ENDMDL
