MODEL 1
REMARK minimizedAffinity -7.69960308
REMARK  7 active torsions:
REMARK  status: ('A' for Active; 'I' for Inactive)
REMARK    1  A    between atoms: N1_2  and  C2_3 
REMARK    2  A    between atoms: C2_3  and  C3_4 
REMARK    3  A    between atoms: C5_6  and  O1_7 
REMARK    4  A    between atoms: C29_32  and  N2_33 
REMARK    5  A    between atoms: C29_32  and  C30_34 
REMARK    6  A    between atoms: C30_34  and  C31_35 
REMARK    7  A    between atoms: C31_35  and  O3_36 
ROOT
HETATM    1  C3  UNL     1       3.096   7.121  10.116  1.00  0.00    -0.021 A 
HETATM    2  C4  UNL     1       3.954   8.128   9.623  1.00  0.00     0.045 A 
HETATM    3  C5  UNL     1       4.665   8.938  10.492  1.00  0.00     0.066 A 
HETATM    4  C6  UNL     1       4.568   8.755  11.859  1.00  0.00     0.045 A 
HETATM    5  C7  UNL     1       3.735   7.754  12.398  1.00  0.00    -0.037 A 
HETATM    6  C8  UNL     1       2.941   6.950  11.523  1.00  0.00    -0.042 A 
HETATM    7  C9  UNL     1       1.959   5.915  12.076  1.00  0.00     0.044 C 
HETATM    8  C10 UNL     1       0.444   6.194  11.822  1.00  0.00    -0.006 C 
HETATM    9  C11 UNL     1      -0.416   5.013  12.298  1.00  0.00     0.005 C 
HETATM   10  C12 UNL     1      -0.431   4.822  13.815  1.00  0.00     0.001 C 
HETATM   11  C13 UNL     1      -0.327   6.124  14.615  1.00  0.00     0.008 C 
HETATM   12  C14 UNL     1      -0.789   7.338  13.805  1.00  0.00     0.026 C 
HETATM   13  C15 UNL     1      -0.039   7.513  12.466  1.00  0.00    -0.003 C 
HETATM   14  C16 UNL     1      -0.949   8.350  11.533  1.00  0.00     0.006 C 
HETATM   15  C17 UNL     1      -1.644   9.518  12.269  1.00  0.00     0.008 C 
HETATM   16  C18 UNL     1      -0.890   9.889  13.551  1.00  0.00     0.022 C 
HETATM   17  C19 UNL     1      -1.413  11.149  14.251  1.00  0.00     0.018 C 
HETATM   18  C20 UNL     1      -1.345  10.914  15.794  1.00  0.00     0.060 C 
HETATM   19  C21 UNL     1      -2.402   9.800  16.096  1.00  0.00     0.061 C 
HETATM   20  C22 UNL     1      -3.835  10.238  15.723  1.00  0.00     0.046 C 
HETATM   21  C23 UNL     1      -2.468   9.343  17.560  1.00  0.00     0.046 C 
HETATM   22  O2  UNL     1      -2.108   8.640  15.298  1.00  0.00    -0.367 OA
HETATM   23  C24 UNL     1      -0.844   8.700  14.569  1.00  0.00     0.086 C 
HETATM   24  C25 UNL     1       0.286   8.978  15.622  1.00  0.00     0.139 C 
HETATM   25  C26 UNL     1       1.639   8.656  15.106  1.00  0.00    -0.096 C 
HETATM   26  C27 UNL     1       2.647   8.243  14.598  1.00  0.00    -0.101 C 
HETATM   27  C28 UNL     1       3.776   7.601  13.912  1.00  0.00     0.133 C 
HETATM   28  C29 UNL     1       0.131  10.462  16.160  1.00  0.00     0.180 C 
ENDROOT
BRANCH  28  29
HETATM   29  N2  UNL     1       1.068  11.411  15.502  1.00  0.00     0.090 N 
HETATM   30  H38 UNL     1       2.033  11.109  15.643  1.00  0.00     0.313 HD
HETATM   31  H39 UNL     1       0.989  12.350  15.881  1.00  0.00     0.313 HD
ENDBRANCH  28  29
BRANCH  28  32
HETATM   32  C30 UNL     1       0.505  10.509  17.672  1.00  0.00     0.069 C 
BRANCH  32  33
HETATM   33  C31 UNL     1       1.977  10.758  18.000  1.00  0.00     0.166 C 
BRANCH  33  34
HETATM   34  O3  UNL     1       2.418   9.739  18.891  1.00  0.00    -0.401 OA
HETATM   35  H44 UNL     1       3.357   9.909  19.081  1.00  0.00     0.209 HD
ENDBRANCH  33  34
ENDBRANCH  32  33
ENDBRANCH  28  32
BRANCH   3  36
HETATM   36  O1  UNL     1       5.495   9.920  10.038  1.00  0.00    -0.361 OA
HETATM   37  H8  UNL     1       5.420   9.965   9.071  1.00  0.00     0.217 HD
ENDBRANCH   3  36
BRANCH   1  38
HETATM   38  C2  UNL     1       2.406   6.259   9.070  1.00  0.00     0.308 C 
BRANCH  38  39
HETATM   39  N1  UNL     1       3.356   5.380   8.389  1.00  0.00     0.083 N 
HETATM   40  C1  UNL     1       3.732   4.256   9.231  1.00  0.00     0.307 C 
HETATM   41  H4  UNL     1       4.184   5.908   8.125  1.00  0.00     0.315 HD
ENDBRANCH  38  39
ENDBRANCH   1  38
TORSDOF 7
ENDMDL
MODEL 2
REMARK minimizedAffinity -7.23160219
REMARK  7 active torsions:
REMARK  status: ('A' for Active; 'I' for Inactive)
REMARK    1  A    between atoms: N1_2  and  C2_3 
REMARK    2  A    between atoms: C2_3  and  C3_4 
REMARK    3  A    between atoms: C5_6  and  O1_7 
REMARK    4  A    between atoms: C29_32  and  N2_33 
REMARK    5  A    between atoms: C29_32  and  C30_34 
REMARK    6  A    between atoms: C30_34  and  C31_35 
REMARK    7  A    between atoms: C31_35  and  O3_36 
ROOT
HETATM    1  C3  UNL     1       1.147   7.741  10.544  1.00  0.00    -0.021 A 
HETATM    2  C4  UNL     1       1.243   8.112   9.186  1.00  0.00     0.045 A 
HETATM    3  C5  UNL     1       2.453   8.039   8.517  1.00  0.00     0.066 A 
HETATM    4  C6  UNL     1       3.584   7.574   9.162  1.00  0.00     0.045 A 
HETATM    5  C7  UNL     1       3.535   7.180  10.515  1.00  0.00    -0.037 A 
HETATM    6  C8  UNL     1       2.312   7.310  11.244  1.00  0.00    -0.042 A 
HETATM    7  C9  UNL     1       2.244   6.977  12.736  1.00  0.00     0.044 C 
HETATM    8  C10 UNL     1       1.963   8.173  13.699  1.00  0.00    -0.006 C 
HETATM    9  C11 UNL     1       1.777   7.678  15.142  1.00  0.00     0.005 C 
HETATM   10  C12 UNL     1       3.048   7.116  15.779  1.00  0.00     0.001 C 
HETATM   11  C13 UNL     1       4.340   7.796  15.315  1.00  0.00     0.008 C 
HETATM   12  C14 UNL     1       4.089   9.208  14.780  1.00  0.00     0.026 C 
HETATM   13  C15 UNL     1       3.055   9.264  13.635  1.00  0.00    -0.003 C 
HETATM   14  C16 UNL     1       2.479  10.702  13.601  1.00  0.00     0.006 C 
HETATM   15  C17 UNL     1       3.564  11.782  13.812  1.00  0.00     0.008 C 
HETATM   16  C18 UNL     1       4.958  11.240  13.477  1.00  0.00     0.022 C 
HETATM   17  C19 UNL     1       6.069  12.296  13.493  1.00  0.00     0.018 C 
HETATM   18  C20 UNL     1       7.353  11.643  14.096  1.00  0.00     0.060 C 
HETATM   19  C21 UNL     1       7.019  11.367  15.600  1.00  0.00     0.061 C 
HETATM   20  C22 UNL     1       6.710  12.666  16.376  1.00  0.00     0.046 C 
HETATM   21  C23 UNL     1       8.121  10.652  16.393  1.00  0.00     0.046 C 
HETATM   22  O2  UNL     1       5.836  10.552  15.679  1.00  0.00    -0.367 OA
HETATM   23  C24 UNL     1       5.357  10.039  14.399  1.00  0.00     0.086 C 
HETATM   24  C25 UNL     1       6.549   9.263  13.734  1.00  0.00     0.139 C 
HETATM   25  C26 UNL     1       6.104   8.352  12.652  1.00  0.00    -0.096 C 
HETATM   26  C27 UNL     1       5.587   7.579  11.889  1.00  0.00    -0.101 C 
HETATM   27  C28 UNL     1       4.826   6.613  11.087  1.00  0.00     0.133 C 
HETATM   28  C29 UNL     1       7.655  10.310  13.290  1.00  0.00     0.180 C 
ENDROOT
BRANCH  28  29
HETATM   29  N2  UNL     1       7.587  10.636  11.840  1.00  0.00     0.090 N 
HETATM   30  H38 UNL     1       7.693   9.787  11.283  1.00  0.00     0.313 HD
HETATM   31  H39 UNL     1       8.324  11.275  11.558  1.00  0.00     0.313 HD
ENDBRANCH  28  29
BRANCH  28  32
HETATM   32  C30 UNL     1       9.070   9.691  13.497  1.00  0.00     0.069 C 
BRANCH  32  33
HETATM   33  C31 UNL     1       9.114   8.234  13.956  1.00  0.00     0.166 C 
BRANCH  33  34
HETATM   34  O3  UNL     1      10.254   7.612  13.373  1.00  0.00    -0.401 OA
HETATM   35  H44 UNL     1      10.270   6.690  13.683  1.00  0.00     0.209 HD
ENDBRANCH  33  34
ENDBRANCH  32  33
ENDBRANCH  28  32
BRANCH   3  36
HETATM   36  O1  UNL     1       2.569   8.396   7.206  1.00  0.00    -0.361 OA
HETATM   37  H8  UNL     1       1.715   8.749   6.905  1.00  0.00     0.217 HD
ENDBRANCH   3  36
BRANCH   1  38
HETATM   38  C2  UNL     1      -0.241   7.813  11.162  1.00  0.00     0.308 C 
BRANCH  38  39
HETATM   39  N1  UNL     1      -0.566   9.173  11.591  1.00  0.00     0.083 N 
HETATM   40  C1  UNL     1      -1.623   9.171  12.590  1.00  0.00     0.307 C 
HETATM   41  H4  UNL     1      -0.850   9.728  10.788  1.00  0.00     0.315 HD
ENDBRANCH  38  39
ENDBRANCH   1  38
TORSDOF 7
ENDMDL
MODEL 3
REMARK minimizedAffinity -7.08184481
REMARK  7 active torsions:
REMARK  status: ('A' for Active; 'I' for Inactive)
REMARK    1  A    between atoms: N1_2  and  C2_3 
REMARK    2  A    between atoms: C2_3  and  C3_4 
REMARK    3  A    between atoms: C5_6  and  O1_7 
REMARK    4  A    between atoms: C29_32  and  N2_33 
REMARK    5  A    between atoms: C29_32  and  C30_34 
REMARK    6  A    between atoms: C30_34  and  C31_35 
REMARK    7  A    between atoms: C31_35  and  O3_36 
ROOT
HETATM    1  C3  UNL     1      -5.608   4.255  11.845  1.00  0.00    -0.021 A 
HETATM    2  C4  UNL     1      -6.033   4.087  10.509  1.00  0.00     0.045 A 
HETATM    3  C5  UNL     1      -5.172   3.582   9.550  1.00  0.00     0.066 A 
HETATM    4  C6  UNL     1      -3.885   3.208   9.892  1.00  0.00     0.045 A 
HETATM    5  C7  UNL     1      -3.419   3.345  11.215  1.00  0.00    -0.037 A 
HETATM    6  C8  UNL     1      -4.269   3.925  12.207  1.00  0.00    -0.042 A 
HETATM    7  C9  UNL     1      -3.766   4.172  13.631  1.00  0.00     0.044 C 
HETATM    8  C10 UNL     1      -3.644   5.664  14.073  1.00  0.00    -0.006 C 
HETATM    9  C11 UNL     1      -3.271   5.764  15.560  1.00  0.00     0.005 C 
HETATM   10  C12 UNL     1      -1.859   5.274  15.884  1.00  0.00     0.001 C 
HETATM   11  C13 UNL     1      -0.835   5.521  14.772  1.00  0.00     0.008 C 
HETATM   12  C14 UNL     1      -1.255   6.664  13.845  1.00  0.00     0.026 C 
HETATM   13  C15 UNL     1      -2.647   6.467  13.206  1.00  0.00    -0.003 C 
HETATM   14  C16 UNL     1      -3.175   7.867  12.807  1.00  0.00     0.006 C 
HETATM   15  C17 UNL     1      -2.080   8.760  12.182  1.00  0.00     0.008 C 
HETATM   16  C18 UNL     1      -0.926   7.916  11.629  1.00  0.00     0.022 C 
HETATM   17  C19 UNL     1       0.119   8.712  10.839  1.00  0.00     0.018 C 
HETATM   18  C20 UNL     1       1.529   8.124  11.166  1.00  0.00     0.060 C 
HETATM   19  C21 UNL     1       1.790   8.471  12.670  1.00  0.00     0.061 C 
HETATM   20  C22 UNL     1       1.816   9.994  12.921  1.00  0.00     0.046 C 
HETATM   21  C23 UNL     1       3.104   7.925  13.246  1.00  0.00     0.046 C 
HETATM   22  O2  UNL     1       0.719   7.942  13.470  1.00  0.00    -0.367 OA
HETATM   23  C24 UNL     1      -0.219   7.084  12.751  1.00  0.00     0.086 C 
HETATM   24  C25 UNL     1       0.619   5.939  12.081  1.00  0.00     0.139 C 
HETATM   25  C26 UNL     1      -0.215   4.781  11.677  1.00  0.00    -0.096 C 
HETATM   26  C27 UNL     1      -0.992   3.878  11.515  1.00  0.00    -0.101 C 
HETATM   27  C28 UNL     1      -2.013   2.823  11.480  1.00  0.00     0.133 C 
HETATM   28  C29 UNL     1       1.485   6.560  10.906  1.00  0.00     0.180 C 
ENDROOT
BRANCH  28  29
HETATM   29  N2  UNL     1       0.872   6.345   9.568  1.00  0.00     0.090 N 
HETATM   30  H38 UNL     1       0.748   5.346   9.393  1.00  0.00     0.313 HD
HETATM   31  H39 UNL     1       1.453   6.709   8.819  1.00  0.00     0.313 HD
ENDBRANCH  28  29
BRANCH  28  32
HETATM   32  C30 UNL     1       2.864   5.838  10.838  1.00  0.00     0.069 C 
BRANCH  32  33
HETATM   33  C31 UNL     1       3.800   6.267   9.708  1.00  0.00     0.166 C 
BRANCH  33  34
HETATM   34  O3  UNL     1       5.086   6.524  10.262  1.00  0.00    -0.401 OA
HETATM   35  H44 UNL     1       5.669   6.787   9.529  1.00  0.00     0.209 HD
ENDBRANCH  33  34
ENDBRANCH  32  33
ENDBRANCH  28  32
BRANCH   3  36
HETATM   36  O1  UNL     1      -5.560   3.416   8.254  1.00  0.00    -0.361 OA
HETATM   37  H8  UNL     1      -6.460   3.769   8.154  1.00  0.00     0.217 HD
ENDBRANCH   3  36
BRANCH   1  38
HETATM   38  C2  UNL     1      -6.654   4.769  12.821  1.00  0.00     0.308 C 
BRANCH  38  39
HETATM   39  N1  UNL     1      -7.985   4.791  12.218  1.00  0.00     0.083 N 
HETATM   40  C1  UNL     1      -8.810   5.839  12.798  1.00  0.00     0.307 C 
HETATM   41  H4  UNL     1      -8.435   3.887  12.344  1.00  0.00     0.315 HD
ENDBRANCH  38  39
ENDBRANCH   1  38
TORSDOF 7
ENDMDL
MODEL 4
REMARK minimizedAffinity -6.91092634
REMARK  7 active torsions:
REMARK  status: ('A' for Active; 'I' for Inactive)
REMARK    1  A    between atoms: N1_2  and  C2_3 
REMARK    2  A    between atoms: C2_3  and  C3_4 
REMARK    3  A    between atoms: C5_6  and  O1_7 
REMARK    4  A    between atoms: C29_32  and  N2_33 
REMARK    5  A    between atoms: C29_32  and  C30_34 
REMARK    6  A    between atoms: C30_34  and  C31_35 
REMARK    7  A    between atoms: C31_35  and  O3_36 
ROOT
HETATM    1  C3  UNL     1       7.582  10.301  16.490  1.00  0.00    -0.021 A 
HETATM    2  C4  UNL     1       8.446   9.236  16.823  1.00  0.00     0.045 A 
HETATM    3  C5  UNL     1       8.940   8.393  15.842  1.00  0.00     0.066 A 
HETATM    4  C6  UNL     1       8.616   8.598  14.514  1.00  0.00     0.045 A 
HETATM    5  C7  UNL     1       7.767   9.656  14.131  1.00  0.00    -0.037 A 
HETATM    6  C8  UNL     1       7.193  10.498  15.133  1.00  0.00    -0.042 A 
HETATM    7  C9  UNL     1       6.197  11.599  14.761  1.00  0.00     0.044 C 
HETATM    8  C10 UNL     1       4.736  11.413  15.278  1.00  0.00    -0.006 C 
HETATM    9  C11 UNL     1       3.884  12.652  14.962  1.00  0.00     0.005 C 
HETATM   10  C12 UNL     1       3.614  12.861  13.471  1.00  0.00     0.001 C 
HETATM   11  C13 UNL     1       3.492  11.564  12.665  1.00  0.00     0.008 C 
HETATM   12  C14 UNL     1       3.103  10.373  13.543  1.00  0.00     0.026 C 
HETATM   13  C15 UNL     1       4.063  10.135  14.729  1.00  0.00    -0.003 C 
HETATM   14  C16 UNL     1       3.280   9.346  15.808  1.00  0.00     0.006 C 
HETATM   15  C17 UNL     1       2.393   8.234  15.205  1.00  0.00     0.008 C 
HETATM   16  C18 UNL     1       2.884   7.830  13.810  1.00  0.00     0.022 C 
HETATM   17  C19 UNL     1       2.167   6.614  13.212  1.00  0.00     0.018 C 
HETATM   18  C20 UNL     1       1.977   6.862  11.682  1.00  0.00     0.060 C 
HETATM   19  C21 UNL     1       0.957   8.044  11.571  1.00  0.00     0.061 C 
HETATM   20  C22 UNL     1      -0.413   7.693  12.190  1.00  0.00     0.046 C 
HETATM   21  C23 UNL     1       0.665   8.521  10.142  1.00  0.00     0.046 C 
HETATM   22  O2  UNL     1       1.461   9.174  12.305  1.00  0.00    -0.367 OA
HETATM   23  C24 UNL     1       2.827   9.026  12.800  1.00  0.00     0.086 C 
HETATM   24  C25 UNL     1       3.735   8.690  11.564  1.00  0.00     0.139 C 
HETATM   25  C26 UNL     1       5.174   8.920  11.834  1.00  0.00    -0.096 C 
HETATM   26  C27 UNL     1       6.281   9.262  12.157  1.00  0.00    -0.101 C 
HETATM   27  C28 UNL     1       7.551   9.823  12.634  1.00  0.00     0.133 C 
HETATM   28  C29 UNL     1       3.392   7.225  11.061  1.00  0.00     0.180 C 
ENDROOT
BRANCH  28  29
HETATM   29  N2  UNL     1       4.367   6.211  11.544  1.00  0.00     0.090 N 
HETATM   30  H38 UNL     1       5.310   6.453  11.235  1.00  0.00     0.313 HD
HETATM   31  H39 UNL     1       4.163   5.283  11.184  1.00  0.00     0.313 HD
ENDBRANCH  28  29
BRANCH  28  32
HETATM   32  C30 UNL     1       3.491   7.171   9.507  1.00  0.00     0.069 C 
BRANCH  32  33
HETATM   33  C31 UNL     1       2.902   5.934   8.831  1.00  0.00     0.166 C 
BRANCH  33  34
HETATM   34  O3  UNL     1       3.872   4.894   8.871  1.00  0.00    -0.401 OA
HETATM   35  H44 UNL     1       3.477   4.114   8.444  1.00  0.00     0.209 HD
ENDBRANCH  33  34
ENDBRANCH  32  33
ENDBRANCH  28  32
BRANCH   3  36
HETATM   36  O1  UNL     1       9.772   7.355  16.143  1.00  0.00    -0.361 OA
HETATM   37  H8  UNL     1       9.865   7.304  17.108  1.00  0.00     0.217 HD
ENDBRANCH   3  36
BRANCH   1  38
HETATM   38  C2  UNL     1       7.143  11.193  17.641  1.00  0.00     0.308 C 
BRANCH  38  39
HETATM   39  N1  UNL     1       7.678  10.721  18.918  1.00  0.00     0.083 N 
HETATM   40  C1  UNL     1       8.432  11.766  19.591  1.00  0.00     0.307 C 
HETATM   41  H4  UNL     1       8.272   9.910  18.763  1.00  0.00     0.315 HD
ENDBRANCH  38  39
ENDBRANCH   1  38
TORSDOF 7
ENDMDL
MODEL 5
REMARK minimizedAffinity -6.85275507
REMARK  7 active torsions:
REMARK  status: ('A' for Active; 'I' for Inactive)
REMARK    1  A    between atoms: N1_2  and  C2_3 
REMARK    2  A    between atoms: C2_3  and  C3_4 
REMARK    3  A    between atoms: C5_6  and  O1_7 
REMARK    4  A    between atoms: C29_32  and  N2_33 
REMARK    5  A    between atoms: C29_32  and  C30_34 
REMARK    6  A    between atoms: C30_34  and  C31_35 
REMARK    7  A    between atoms: C31_35  and  O3_36 
ROOT
HETATM    1  C3  UNL     1      17.636  -2.710   0.980  1.00  0.00    -0.021 A 
HETATM    2  C4  UNL     1      18.605  -3.646   0.558  1.00  0.00     0.045 A 
HETATM    3  C5  UNL     1      18.237  -4.932   0.198  1.00  0.00     0.066 A 
HETATM    4  C6  UNL     1      16.908  -5.312   0.221  1.00  0.00     0.045 A 
HETATM    5  C7  UNL     1      15.903  -4.409   0.622  1.00  0.00    -0.037 A 
HETATM    6  C8  UNL     1      16.266  -3.098   1.060  1.00  0.00    -0.042 A 
HETATM    7  C9  UNL     1      15.212  -2.122   1.587  1.00  0.00     0.044 C 
HETATM    8  C10 UNL     1      15.317  -1.740   3.098  1.00  0.00    -0.006 C 
HETATM    9  C11 UNL     1      14.295  -0.650   3.457  1.00  0.00     0.005 C 
HETATM   10  C12 UNL     1      12.840  -1.115   3.400  1.00  0.00     0.001 C 
HETATM   11  C13 UNL     1      12.630  -2.582   3.787  1.00  0.00     0.008 C 
HETATM   12  C14 UNL     1      13.764  -3.114   4.667  1.00  0.00     0.026 C 
HETATM   13  C15 UNL     1      15.165  -2.959   4.036  1.00  0.00    -0.003 C 
HETATM   14  C16 UNL     1      16.196  -2.970   5.192  1.00  0.00     0.006 C 
HETATM   15  C17 UNL     1      15.870  -4.027   6.271  1.00  0.00     0.008 C 
HETATM   16  C18 UNL     1      14.963  -5.129   5.709  1.00  0.00     0.022 C 
HETATM   17  C19 UNL     1      14.732  -6.306   6.663  1.00  0.00     0.018 C 
HETATM   18  C20 UNL     1      13.249  -6.772   6.512  1.00  0.00     0.060 C 
HETATM   19  C21 UNL     1      12.380  -5.600   7.080  1.00  0.00     0.061 C 
HETATM   20  C22 UNL     1      12.667  -5.331   8.573  1.00  0.00     0.046 C 
HETATM   21  C23 UNL     1      10.863  -5.800   6.971  1.00  0.00     0.046 C 
HETATM   22  O2  UNL     1      12.704  -4.388   6.376  1.00  0.00    -0.367 OA
HETATM   23  C24 UNL     1      13.586  -4.563   5.225  1.00  0.00     0.086 C 
HETATM   24  C25 UNL     1      12.910  -5.617   4.278  1.00  0.00     0.139 C 
HETATM   25  C26 UNL     1      13.464  -5.588   2.903  1.00  0.00    -0.096 C 
HETATM   26  C27 UNL     1      13.923  -5.369   1.813  1.00  0.00    -0.101 C 
HETATM   27  C28 UNL     1      14.473  -4.923   0.527  1.00  0.00     0.133 C 
HETATM   28  C29 UNL     1      12.969  -7.041   4.974  1.00  0.00     0.180 C 
ENDROOT
BRANCH  28  29
HETATM   29  N2  UNL     1      14.079  -7.886   4.457  1.00  0.00     0.090 N 
HETATM   30  H38 UNL     1      13.983  -8.016   3.448  1.00  0.00     0.313 HD
HETATM   31  H39 UNL     1      14.083  -8.810   4.878  1.00  0.00     0.313 HD
ENDBRANCH  28  29
BRANCH  28  32
HETATM   32  C30 UNL     1      11.670  -7.837   4.644  1.00  0.00     0.069 C 
BRANCH  32  33
HETATM   33  C31 UNL     1      11.852  -9.148   3.882  1.00  0.00     0.166 C 
BRANCH  33  34
HETATM   34  O3  UNL     1      10.567  -9.631   3.504  1.00  0.00    -0.401 OA
HETATM   35  H44 UNL     1      10.703 -10.460   3.013  1.00  0.00     0.209 HD
ENDBRANCH  33  34
ENDBRANCH  32  33
ENDBRANCH  28  32
BRANCH   3  36
HETATM   36  O1  UNL     1      19.157  -5.853  -0.207  1.00  0.00    -0.361 OA
HETATM   37  H8  UNL     1      20.043  -5.463  -0.120  1.00  0.00     0.217 HD
ENDBRANCH   3  36
BRANCH   1  38
HETATM   38  C2  UNL     1      18.147  -1.315   1.300  1.00  0.00     0.308 C 
BRANCH  38  39
HETATM   39  N1  UNL     1      18.906  -1.297   2.550  1.00  0.00     0.083 N 
HETATM   40  C1  UNL     1      18.615  -0.102   3.326  1.00  0.00     0.307 C 
HETATM   41  H4  UNL     1      19.902  -1.344   2.348  1.00  0.00     0.315 HD
ENDBRANCH  38  39
ENDBRANCH   1  38
TORSDOF 7
ENDMDL
MODEL 6
REMARK minimizedAffinity -6.82594109
REMARK  7 active torsions:
REMARK  status: ('A' for Active; 'I' for Inactive)
REMARK    1  A    between atoms: N1_2  and  C2_3 
REMARK    2  A    between atoms: C2_3  and  C3_4 
REMARK    3  A    between atoms: C5_6  and  O1_7 
REMARK    4  A    between atoms: C29_32  and  N2_33 
REMARK    5  A    between atoms: C29_32  and  C30_34 
REMARK    6  A    between atoms: C30_34  and  C31_35 
REMARK    7  A    between atoms: C31_35  and  O3_36 
ROOT
HETATM    1  C3  UNL     1       6.658  13.246  22.919  1.00  0.00    -0.021 A 
HETATM    2  C4  UNL     1       7.141  14.561  22.749  1.00  0.00     0.045 A 
HETATM    3  C5  UNL     1       6.267  15.634  22.691  1.00  0.00     0.066 A 
HETATM    4  C6  UNL     1       4.905  15.437  22.827  1.00  0.00     0.045 A 
HETATM    5  C7  UNL     1       4.376  14.143  23.012  1.00  0.00    -0.037 A 
HETATM    6  C8  UNL     1       5.253  13.014  23.008  1.00  0.00    -0.042 A 
HETATM    7  C9  UNL     1       4.706  11.590  23.116  1.00  0.00     0.044 C 
HETATM    8  C10 UNL     1       4.897  10.678  21.863  1.00  0.00    -0.006 C 
HETATM    9  C11 UNL     1       4.436   9.243  22.157  1.00  0.00     0.005 C 
HETATM   10  C12 UNL     1       2.928   9.100  22.363  1.00  0.00     0.001 C 
HETATM   11  C13 UNL     1       2.083  10.068  21.528  1.00  0.00     0.008 C 
HETATM   12  C14 UNL     1       2.831  10.564  20.288  1.00  0.00     0.026 C 
HETATM   13  C15 UNL     1       4.187  11.231  20.606  1.00  0.00    -0.003 C 
HETATM   14  C16 UNL     1       5.057  11.143  19.327  1.00  0.00     0.006 C 
HETATM   15  C17 UNL     1       4.253  11.438  18.040  1.00  0.00     0.008 C 
HETATM   16  C18 UNL     1       2.985  12.240  18.352  1.00  0.00     0.022 C 
HETATM   17  C19 UNL     1       2.220  12.723  17.113  1.00  0.00     0.018 C 
HETATM   18  C20 UNL     1       0.691  12.610  17.409  1.00  0.00     0.060 C 
HETATM   19  C21 UNL     1       0.394  11.077  17.511  1.00  0.00     0.061 C 
HETATM   20  C22 UNL     1       0.701  10.335  16.192  1.00  0.00     0.046 C 
HETATM   21  C23 UNL     1      -1.053  10.715  17.873  1.00  0.00     0.046 C 
HETATM   22  O2  UNL     1       1.245  10.496  18.515  1.00  0.00    -0.367 OA
HETATM   23  C24 UNL     1       2.014  11.458  19.299  1.00  0.00     0.086 C 
HETATM   24  C25 UNL     1       0.991  12.470  19.926  1.00  0.00     0.139 C 
HETATM   25  C26 UNL     1       1.566  13.234  21.060  1.00  0.00    -0.096 C 
HETATM   26  C27 UNL     1       2.123  13.686  22.024  1.00  0.00    -0.101 C 
HETATM   27  C28 UNL     1       2.872  14.067  23.229  1.00  0.00     0.133 C 
HETATM   28  C29 UNL     1       0.393  13.374  18.768  1.00  0.00     0.180 C 
ENDROOT
BRANCH  28  29
HETATM   29  N2  UNL     1       1.047  14.707  18.686  1.00  0.00     0.090 N 
HETATM   30  H38 UNL     1       0.950  15.203  19.574  1.00  0.00     0.313 HD
HETATM   31  H39 UNL     1       0.630  15.294  17.969  1.00  0.00     0.313 HD
ENDBRANCH  28  29
BRANCH  28  32
HETATM   32  C30 UNL     1      -1.106  13.678  19.067  1.00  0.00     0.069 C 
BRANCH  32  33
HETATM   33  C31 UNL     1      -1.859  14.487  18.012  1.00  0.00     0.166 C 
BRANCH  33  34
HETATM   34  O3  UNL     1      -2.961  13.713  17.553  1.00  0.00    -0.401 OA
HETATM   35  H44 UNL     1      -3.433  14.247  16.890  1.00  0.00     0.209 HD
ENDBRANCH  33  34
ENDBRANCH  32  33
ENDBRANCH  28  32
BRANCH   3  36
HETATM   36  O1  UNL     1       6.712  16.911  22.523  1.00  0.00    -0.361 OA
HETATM   37  H8  UNL     1       7.674  16.888  22.389  1.00  0.00     0.217 HD
ENDBRANCH   3  36
BRANCH   1  38
HETATM   38  C2  UNL     1       7.710  12.153  23.019  1.00  0.00     0.308 C 
BRANCH  38  39
HETATM   39  N1  UNL     1       9.053  12.679  22.776  1.00  0.00     0.083 N 
HETATM   40  C1  UNL     1       9.578  12.213  21.502  1.00  0.00     0.307 C 
HETATM   41  H4  UNL     1       9.674  12.397  23.530  1.00  0.00     0.315 HD
ENDBRANCH  38  39
ENDBRANCH   1  38
TORSDOF 7
ENDMDL
MODEL 7
REMARK minimizedAffinity -6.78471756
REMARK  7 active torsions:
REMARK  status: ('A' for Active; 'I' for Inactive)
REMARK    1  A    between atoms: N1_2  and  C2_3 
REMARK    2  A    between atoms: C2_3  and  C3_4 
REMARK    3  A    between atoms: C5_6  and  O1_7 
REMARK    4  A    between atoms: C29_32  and  N2_33 
REMARK    5  A    between atoms: C29_32  and  C30_34 
REMARK    6  A    between atoms: C30_34  and  C31_35 
REMARK    7  A    between atoms: C31_35  and  O3_36 
ROOT
HETATM    1  C3  UNL     1       3.946  13.025  22.885  1.00  0.00    -0.021 A 
HETATM    2  C4  UNL     1       3.318  11.761  22.855  1.00  0.00     0.045 A 
HETATM    3  C5  UNL     1       4.067  10.598  22.905  1.00  0.00     0.066 A 
HETATM    4  C6  UNL     1       5.444  10.655  23.014  1.00  0.00     0.045 A 
HETATM    5  C7  UNL     1       6.115  11.894  23.062  1.00  0.00    -0.037 A 
HETATM    6  C8  UNL     1       5.368  13.107  22.944  1.00  0.00    -0.042 A 
HETATM    7  C9  UNL     1       6.071  14.465  22.902  1.00  0.00     0.044 C 
HETATM    8  C10 UNL     1       5.961  15.259  21.561  1.00  0.00    -0.006 C 
HETATM    9  C11 UNL     1       6.582  16.657  21.703  1.00  0.00     0.005 C 
HETATM   10  C12 UNL     1       8.100  16.651  21.887  1.00  0.00     0.001 C 
HETATM   11  C13 UNL     1       8.820  15.515  21.154  1.00  0.00     0.008 C 
HETATM   12  C14 UNL     1       8.002  14.980  19.975  1.00  0.00     0.026 C 
HETATM   13  C15 UNL     1       6.586  14.505  20.366  1.00  0.00    -0.003 C 
HETATM   14  C16 UNL     1       5.712  14.557  19.088  1.00  0.00     0.006 C 
HETATM   15  C17 UNL     1       6.458  14.044  17.835  1.00  0.00     0.008 C 
HETATM   16  C18 UNL     1       7.635  13.142  18.223  1.00  0.00     0.022 C 
HETATM   17  C19 UNL     1       8.322  12.453  17.039  1.00  0.00     0.018 C 
HETATM   18  C20 UNL     1       9.859  12.425  17.315  1.00  0.00     0.060 C 
HETATM   19  C21 UNL     1      10.325  13.918  17.256  1.00  0.00     0.061 C 
HETATM   20  C22 UNL     1      10.081  14.550  15.868  1.00  0.00     0.046 C 
HETATM   21  C23 UNL     1      11.808  14.152  17.572  1.00  0.00     0.046 C 
HETATM   22  O2  UNL     1       9.559  14.690  18.197  1.00  0.00    -0.367 OA
HETATM   23  C24 UNL     1       8.701  13.905  19.080  1.00  0.00     0.086 C 
HETATM   24  C25 UNL     1       9.615  12.855  19.804  1.00  0.00     0.139 C 
HETATM   25  C26 UNL     1       8.978  12.280  21.014  1.00  0.00    -0.096 C 
HETATM   26  C27 UNL     1       8.389  11.994  22.022  1.00  0.00    -0.101 C 
HETATM   27  C28 UNL     1       7.622  11.824  23.263  1.00  0.00     0.133 C 
HETATM   28  C29 UNL     1      10.092  11.776  18.744  1.00  0.00     0.180 C 
ENDROOT
BRANCH  28  29
HETATM   29  N2  UNL     1       9.294  10.522  18.803  1.00  0.00     0.090 N 
HETATM   30  H38 UNL     1       9.349  10.113  19.738  1.00  0.00     0.313 HD
HETATM   31  H39 UNL     1       9.633   9.823  18.150  1.00  0.00     0.313 HD
ENDBRANCH  28  29
BRANCH  28  32
HETATM   32  C30 UNL     1      11.553  11.339  19.067  1.00  0.00     0.069 C 
BRANCH  32  33
HETATM   33  C31 UNL     1      12.136  11.840  20.387  1.00  0.00     0.166 C 
BRANCH  33  34
HETATM   34  O3  UNL     1      13.492  12.214  20.167  1.00  0.00    -0.401 OA
HETATM   35  H44 UNL     1      13.843  12.538  21.015  1.00  0.00     0.209 HD
ENDBRANCH  33  34
ENDBRANCH  32  33
ENDBRANCH  28  32
BRANCH   3  36
HETATM   36  O1  UNL     1       3.481   9.367  22.872  1.00  0.00    -0.361 OA
HETATM   37  H8  UNL     1       2.526   9.483  22.740  1.00  0.00     0.217 HD
ENDBRANCH   3  36
BRANCH   1  38
HETATM   38  C2  UNL     1       3.022  14.232  22.876  1.00  0.00     0.308 C 
BRANCH  38  39
HETATM   39  N1  UNL     1       2.303  14.367  24.143  1.00  0.00     0.083 N 
HETATM   40  C1  UNL     1       2.651  15.607  24.817  1.00  0.00     0.307 C 
HETATM   41  H4  UNL     1       2.516  13.574  24.744  1.00  0.00     0.315 HD
ENDBRANCH  38  39
ENDBRANCH   1  38
TORSDOF 7
ENDMDL
MODEL 8
REMARK minimizedAffinity -6.77178955
REMARK  7 active torsions:
REMARK  status: ('A' for Active; 'I' for Inactive)
REMARK    1  A    between atoms: N1_2  and  C2_3 
REMARK    2  A    between atoms: C2_3  and  C3_4 
REMARK    3  A    between atoms: C5_6  and  O1_7 
REMARK    4  A    between atoms: C29_32  and  N2_33 
REMARK    5  A    between atoms: C29_32  and  C30_34 
REMARK    6  A    between atoms: C30_34  and  C31_35 
REMARK    7  A    between atoms: C31_35  and  O3_36 
ROOT
HETATM    1  C3  UNL     1     -16.938  -0.340  15.780  1.00  0.00    -0.021 A 
HETATM    2  C4  UNL     1     -15.886   0.594  15.892  1.00  0.00     0.045 A 
HETATM    3  C5  UNL     1     -15.268   1.101  14.762  1.00  0.00     0.066 A 
HETATM    4  C6  UNL     1     -15.691   0.722  13.501  1.00  0.00     0.045 A 
HETATM    5  C7  UNL     1     -16.748  -0.197  13.339  1.00  0.00    -0.037 A 
HETATM    6  C8  UNL     1     -17.356  -0.785  14.491  1.00  0.00    -0.042 A 
HETATM    7  C9  UNL     1     -18.443  -1.852  14.351  1.00  0.00     0.044 C 
HETATM    8  C10 UNL     1     -18.076  -3.283  14.858  1.00  0.00    -0.006 C 
HETATM    9  C11 UNL     1     -19.297  -4.214  14.794  1.00  0.00     0.005 C 
HETATM   10  C12 UNL     1     -19.757  -4.544  13.373  1.00  0.00     0.001 C 
HETATM   11  C13 UNL     1     -18.624  -4.619  12.345  1.00  0.00     0.008 C 
HETATM   12  C14 UNL     1     -17.271  -4.912  12.997  1.00  0.00     0.026 C 
HETATM   13  C15 UNL     1     -16.880  -3.900  14.097  1.00  0.00    -0.003 C 
HETATM   14  C16 UNL     1     -15.861  -4.602  15.029  1.00  0.00     0.006 C 
HETATM   15  C17 UNL     1     -14.825  -5.444  14.251  1.00  0.00     0.008 C 
HETATM   16  C18 UNL     1     -14.714  -4.977  12.795  1.00  0.00     0.022 C 
HETATM   17  C19 UNL     1     -13.586  -5.645  12.000  1.00  0.00     0.018 C 
HETATM   18  C20 UNL     1     -14.097  -5.898  10.547  1.00  0.00     0.060 C 
HETATM   19  C21 UNL     1     -15.214  -6.987  10.678  1.00  0.00     0.061 C 
HETATM   20  C22 UNL     1     -14.672  -8.313  11.252  1.00  0.00     0.046 C 
HETATM   21  C23 UNL     1     -15.925  -7.353   9.368  1.00  0.00     0.046 C 
HETATM   22  O2  UNL     1     -16.220  -6.524  11.596  1.00  0.00    -0.367 OA
HETATM   23  C24 UNL     1     -16.068  -5.136  12.024  1.00  0.00     0.086 C 
HETATM   24  C25 UNL     1     -16.020  -4.252  10.728  1.00  0.00     0.139 C 
HETATM   25  C26 UNL     1     -16.285  -2.819  11.004  1.00  0.00    -0.096 C 
HETATM   26  C27 UNL     1     -16.630  -1.724  11.359  1.00  0.00    -0.101 C 
HETATM   27  C28 UNL     1     -17.172  -0.472  11.903  1.00  0.00     0.133 C 
HETATM   28  C29 UNL     1     -14.653  -4.528   9.972  1.00  0.00     0.180 C 
ENDROOT
BRANCH  28  29
HETATM   29  N2  UNL     1     -13.630  -3.482  10.238  1.00  0.00     0.090 N 
HETATM   30  H38 UNL     1     -13.982  -2.565   9.958  1.00  0.00     0.313 HD
HETATM   31  H39 UNL     1     -12.773  -3.645   9.717  1.00  0.00     0.313 HD
ENDBRANCH  28  29
BRANCH  28  32
HETATM   32  C30 UNL     1     -14.891  -4.478   8.433  1.00  0.00     0.069 C 
BRANCH  32  33
HETATM   33  C31 UNL     1     -13.748  -4.981   7.552  1.00  0.00     0.166 C 
BRANCH  33  34
HETATM   34  O3  UNL     1     -12.662  -4.066   7.657  1.00  0.00    -0.401 OA
HETATM   35  H44 UNL     1     -11.943  -4.407   7.098  1.00  0.00     0.209 HD
ENDBRANCH  33  34
ENDBRANCH  32  33
ENDBRANCH  28  32
BRANCH   3  36
HETATM   36  O1  UNL     1     -14.246   2.000  14.847  1.00  0.00    -0.361 OA
HETATM   37  H8  UNL     1     -14.025   2.128  15.784  1.00  0.00     0.217 HD
ENDBRANCH   3  36
BRANCH   1  38
HETATM   38  C2  UNL     1     -17.576  -0.790  17.085  1.00  0.00     0.308 C 
BRANCH  38  39
HETATM   39  N1  UNL     1     -16.578  -1.315  18.016  1.00  0.00     0.083 N 
HETATM   40  C1  UNL     1     -16.759  -2.741  18.234  1.00  0.00     0.307 C 
HETATM   41  H4  UNL     1     -16.639  -0.819  18.901  1.00  0.00     0.315 HD
ENDBRANCH  38  39
ENDBRANCH   1  38
TORSDOF 7
ENDMDL
MODEL 9
REMARK minimizedAffinity -6.75741625
REMARK  7 active torsions:
REMARK  status: ('A' for Active; 'I' for Inactive)
REMARK    1  A    between atoms: N1_2  and  C2_3 
REMARK    2  A    between atoms: C2_3  and  C3_4 
REMARK    3  A    between atoms: C5_6  and  O1_7 
REMARK    4  A    between atoms: C29_32  and  N2_33 
REMARK    5  A    between atoms: C29_32  and  C30_34 
REMARK    6  A    between atoms: C30_34  and  C31_35 
REMARK    7  A    between atoms: C31_35  and  O3_36 
ROOT
HETATM    1  C3  UNL     1       1.937   7.265  13.072  1.00  0.00    -0.021 A 
HETATM    2  C4  UNL     1       1.300   6.758  14.225  1.00  0.00     0.045 A 
HETATM    3  C5  UNL     1       1.353   7.448  15.424  1.00  0.00     0.066 A 
HETATM    4  C6  UNL     1       2.009   8.663  15.505  1.00  0.00     0.045 A 
HETATM    5  C7  UNL     1       2.649   9.216  14.377  1.00  0.00    -0.037 A 
HETATM    6  C8  UNL     1       2.663   8.489  13.146  1.00  0.00    -0.042 A 
HETATM    7  C9  UNL     1       3.424   9.017  11.928  1.00  0.00     0.044 C 
HETATM    8  C10 UNL     1       4.655   8.176  11.463  1.00  0.00    -0.006 C 
HETATM    9  C11 UNL     1       5.233   8.733  10.153  1.00  0.00     0.005 C 
HETATM   10  C12 UNL     1       5.887  10.108  10.294  1.00  0.00     0.001 C 
HETATM   11  C13 UNL     1       6.564  10.349  11.647  1.00  0.00     0.008 C 
HETATM   12  C14 UNL     1       6.944   9.040  12.343  1.00  0.00     0.026 C 
HETATM   13  C15 UNL     1       5.754   8.075  12.544  1.00  0.00    -0.003 C 
HETATM   14  C16 UNL     1       6.336   6.647  12.691  1.00  0.00     0.006 C 
HETATM   15  C17 UNL     1       7.609   6.611  13.566  1.00  0.00     0.008 C 
HETATM   16  C18 UNL     1       7.685   7.836  14.484  1.00  0.00     0.022 C 
HETATM   17  C19 UNL     1       8.826   7.792  15.507  1.00  0.00     0.018 C 
HETATM   18  C20 UNL     1       9.409   9.233  15.650  1.00  0.00     0.060 C 
HETATM   19  C21 UNL     1      10.092   9.549  14.278  1.00  0.00     0.061 C 
HETATM   20  C22 UNL     1      11.248   8.574  13.964  1.00  0.00     0.046 C 
HETATM   21  C23 UNL     1      10.683  10.959  14.152  1.00  0.00     0.046 C 
HETATM   22  O2  UNL     1       9.127   9.393  13.222  1.00  0.00    -0.367 OA
HETATM   23  C24 UNL     1       7.755   9.173  13.672  1.00  0.00     0.086 C 
HETATM   24  C25 UNL     1       7.382  10.364  14.624  1.00  0.00     0.139 C 
HETATM   25  C26 UNL     1       5.919  10.501  14.820  1.00  0.00    -0.096 C 
HETATM   26  C27 UNL     1       4.718  10.561  14.791  1.00  0.00    -0.101 C 
HETATM   27  C28 UNL     1       3.266  10.593  14.574  1.00  0.00     0.133 C 
HETATM   28  C29 UNL     1       8.210  10.222  15.969  1.00  0.00     0.180 C 
ENDROOT
BRANCH  28  29
HETATM   29  N2  UNL     1       7.413   9.620  17.072  1.00  0.00     0.090 N 
HETATM   30  H38 UNL     1       6.581  10.185  17.254  1.00  0.00     0.313 HD
HETATM   31  H39 UNL     1       7.938   9.572  17.940  1.00  0.00     0.313 HD
ENDBRANCH  28  29
BRANCH  28  32
HETATM   32  C30 UNL     1       8.609  11.637  16.487  1.00  0.00     0.069 C 
BRANCH  32  33
HETATM   33  C31 UNL     1       9.352  11.688  17.821  1.00  0.00     0.166 C 
BRANCH  33  34
HETATM   34  O3  UNL     1       9.892  10.398  18.086  1.00  0.00    -0.401 OA
HETATM   35  H44 UNL     1      10.367  10.452  18.933  1.00  0.00     0.209 HD
ENDBRANCH  33  34
ENDBRANCH  32  33
ENDBRANCH  28  32
BRANCH   3  36
HETATM   36  O1  UNL     1       0.749   6.974  16.551  1.00  0.00    -0.361 OA
HETATM   37  H8  UNL     1       0.380   6.097  16.358  1.00  0.00     0.217 HD
ENDBRANCH   3  36
BRANCH   1  38
HETATM   38  C2  UNL     1       1.769   6.448  11.800  1.00  0.00     0.308 C 
BRANCH  38  39
HETATM   39  N1  UNL     1       0.510   6.762  11.125  1.00  0.00     0.083 N 
HETATM   40  C1  UNL     1      -0.339   5.586  11.023  1.00  0.00     0.307 C 
HETATM   41  H4  UNL     1       0.701   7.133  10.198  1.00  0.00     0.315 HD
ENDBRANCH  38  39
ENDBRANCH   1  38
TORSDOF 7
ENDMDL
