MODEL 1
REMARK minimizedAffinity -7.259027
REMARK CNNscore 0.715640366
REMARK CNNaffinity 7.33584595
REMARK  13 active torsions:
REMARK  status: ('A' for Active; 'I' for Inactive)
REMARK    1  A    between atoms: O1_2  and  C2_3 
REMARK    2  A    between atoms: C2_3  and  C3_5 
REMARK    3  A    between atoms: C3_5  and  C4_6 
REMARK    4  A    between atoms: C3_5  and  N3_13 
REMARK    5  A    between atoms: C4_6  and  C5_7 
REMARK       I    between atoms: N3_13  and  C8_14 
REMARK    6  A    between atoms: C8_14  and  C9_16 
REMARK    7  A    between atoms: C9_16  and  O4_17 
REMARK    8  A    between atoms: O4_17  and  N4_18 
REMARK    9  A    between atoms: C17_27  and  O5_28 
REMARK   10  A    between atoms: C24_35  and  O6_36 
REMARK   11  A    between atoms: C24_35  and  C25_37 
REMARK   12  A    between atoms: C25_37  and  C26_39 
REMARK   13  A    between atoms: C26_39  and  O8_40 
ROOT
HETATM    1  N4  UNL     1       1.077  53.021 -18.788  1.00  0.00    -0.271 N 
ATOM      2  H4  UNL     1       1.899  53.592 -18.988  1.00  0.00     0.194 HD
HETATM    3  C10 UNL     1       0.897  52.359 -17.682  1.00  0.00     0.032 C 
HETATM    4  C11 UNL     1       1.992  52.395 -16.677  1.00  0.00     0.030 C 
HETATM    5  C12 UNL     1       1.934  51.694 -15.531  1.00  0.00    -0.069 C 
HETATM    6  C13 UNL     1       3.163  51.604 -14.658  1.00  0.00     0.035 C 
HETATM    7  C14 UNL     1       2.873  51.729 -13.162  1.00  0.00     0.010 C 
HETATM    8  C15 UNL     1       1.763  50.751 -12.726  1.00  0.00    -0.002 C 
HETATM    9  C16 UNL     1       0.465  51.037 -13.526  1.00  0.00     0.031 C 
HETATM   10  C17 UNL     1      -0.129  52.405 -13.088  1.00  0.00     0.124 C 
HETATM   11  C18 UNL     1       0.172  52.827 -11.640  1.00  0.00     0.045 C 
HETATM   12  C19 UNL     1       0.431  51.677 -10.629  1.00  0.00     0.001 C 
HETATM   13  C20 UNL     1      -0.918  50.985 -10.335  1.00  0.00     0.019 C 
HETATM   14  C21 UNL     1       1.459  50.648 -11.203  1.00  0.00     0.002 C 
HETATM   15  C22 UNL     1       2.703  50.708 -10.303  1.00  0.00     0.009 C 
HETATM   16  C23 UNL     1       2.597  52.018  -9.545  1.00  0.00     0.047 C 
HETATM   17  C24 UNL     1       1.099  52.216  -9.312  1.00  0.00     0.128 C 
HETATM   18  C27 UNL     1       0.701  50.903 -15.093  1.00  0.00    -0.014 C 
HETATM   19  C28 UNL     1       0.940  49.409 -15.443  1.00  0.00     0.020 C 
HETATM   20  C29 UNL     1      -0.544  51.386 -15.891  1.00  0.00     0.020 C 
HETATM   21  C30 UNL     1      -0.312  51.491 -17.393  1.00  0.00     0.060 C 
ENDROOT
BRANCH   1  22
HETATM   22  O4  UNL     1       0.001  52.853 -19.670  1.00  0.00    -0.271 OA
BRANCH  22  23
HETATM   23  C9  UNL     1       0.434  52.094 -20.793  1.00  0.00     0.303 C 
BRANCH  23  24
HETATM   24  C8  UNL     1      -0.801  51.536 -21.481  1.00  0.00     0.244 C 
HETATM   25  N3  UNL     1      -1.820  51.217 -20.615  1.00  0.00    -0.345 N 
HETATM   26  H10 UNL     1      -1.633  51.270 -19.617  1.00  0.00     0.163 HD
HETATM   27  O3  UNL     1      -0.887  51.408 -22.702  1.00  0.00    -0.271 OA
BRANCH  25  28
HETATM   28  C3  UNL     1      -3.132  50.704 -21.030  1.00  0.00     0.190 C 
BRANCH  28  29
HETATM   29  C2  UNL     1      -3.130  49.166 -21.060  1.00  0.00     0.281 C 
HETATM   30  O2  UNL     1      -3.928  48.463 -20.448  1.00  0.00    -0.263 OA
BRANCH  29  31
HETATM   31  O1  UNL     1      -2.151  48.682 -21.882  1.00  0.00    -0.325 OA
HETATM   32  C1  UNL     1      -1.774  47.330 -21.611  1.00  0.00     0.213 C 
ENDBRANCH  29  31
ENDBRANCH  28  29
BRANCH  28  33
HETATM   33  C4  UNL     1      -3.539  51.225 -22.423  1.00  0.00     0.093 C 
BRANCH  33  34
HETATM   34  C5  UNL     1      -4.883  50.748 -22.862  1.00  0.00     0.028 A 
HETATM   35  C6  UNL     1      -5.350  50.321 -24.088  1.00  0.00     0.114 A 
HETATM   36  N1  UNL     1      -6.675  49.985 -24.017  1.00  0.00    -0.360 N 
HETATM   37  C7  UNL     1      -7.020  50.189 -22.766  1.00  0.00     0.180 A 
ATOM     38  H1  UNL     1      -7.269  49.647 -24.774  1.00  0.00     0.166 HD
HETATM   39  N2  UNL     1      -5.969  50.652 -22.027  1.00  0.00    -0.354 N 
HETATM   40  H9  UNL     1      -5.981  50.843 -21.027  1.00  0.00     0.166 HD
ENDBRANCH  33  34
ENDBRANCH  28  33
ENDBRANCH  25  28
ENDBRANCH  23  24
ENDBRANCH  22  23
ENDBRANCH   1  22
BRANCH  10  41
HETATM   41  O5  UNL     1      -1.543  52.418 -13.294  1.00  0.00    -0.395 OA
HETATM   42  H21 UNL     1      -1.967  51.814 -12.665  1.00  0.00     0.210 HD
ENDBRANCH  10  41
BRANCH  17  43
HETATM   43  O6  UNL     1       0.879  53.633  -9.186  1.00  0.00    -0.381 OA
HETATM   44  H32 UNL     1       0.300  53.770  -8.403  1.00  0.00     0.211 HD
ENDBRANCH  17  43
BRANCH  17  45
HETATM   45  C25 UNL     1       0.608  51.609  -7.972  1.00  0.00     0.184 C 
HETATM   46  O7  UNL     1       1.007  50.488  -7.620  1.00  0.00    -0.292 OA
BRANCH  45  47
HETATM   47  C26 UNL     1      -0.379  52.369  -7.097  1.00  0.00     0.245 C 
BRANCH  47  48
HETATM   48  O8  UNL     1      -1.487  51.556  -6.738  1.00  0.00    -0.393 OA
HETATM   49  H35 UNL     1      -1.498  50.799  -7.362  1.00  0.00     0.209 HD
ENDBRANCH  47  48
ENDBRANCH  45  47
ENDBRANCH  17  45
TORSDOF 13
ENDMDL
MODEL 2
REMARK minimizedAffinity -7.84727716
REMARK CNNscore 0.603964686
REMARK CNNaffinity 6.29700994
REMARK  13 active torsions:
REMARK  status: ('A' for Active; 'I' for Inactive)
REMARK    1  A    between atoms: O1_2  and  C2_3 
REMARK    2  A    between atoms: C2_3  and  C3_5 
REMARK    3  A    between atoms: C3_5  and  C4_6 
REMARK    4  A    between atoms: C3_5  and  N3_13 
REMARK    5  A    between atoms: C4_6  and  C5_7 
REMARK       I    between atoms: N3_13  and  C8_14 
REMARK    6  A    between atoms: C8_14  and  C9_16 
REMARK    7  A    between atoms: C9_16  and  O4_17 
REMARK    8  A    between atoms: O4_17  and  N4_18 
REMARK    9  A    between atoms: C17_27  and  O5_28 
REMARK   10  A    between atoms: C24_35  and  O6_36 
REMARK   11  A    between atoms: C24_35  and  C25_37 
REMARK   12  A    between atoms: C25_37  and  C26_39 
REMARK   13  A    between atoms: C26_39  and  O8_40 
ROOT
HETATM    1  N4  UNL     1      -7.873  46.446 -27.690  1.00  0.00    -0.271 N 
ATOM      2  H4  UNL     1      -7.513  45.541 -27.994  1.00  0.00     0.194 HD
HETATM    3  C10 UNL     1      -9.140  46.734 -27.591  1.00  0.00     0.032 C 
HETATM    4  C11 UNL     1     -10.113  45.690 -28.007  1.00  0.00     0.030 C 
HETATM    5  C12 UNL     1     -11.440  45.909 -28.006  1.00  0.00    -0.069 C 
HETATM    6  C13 UNL     1     -12.356  44.890 -28.640  1.00  0.00     0.035 C 
HETATM    7  C14 UNL     1     -13.637  44.627 -27.848  1.00  0.00     0.010 C 
HETATM    8  C15 UNL     1     -14.361  45.946 -27.508  1.00  0.00    -0.002 C 
HETATM    9  C16 UNL     1     -13.423  46.863 -26.679  1.00  0.00     0.031 C 
HETATM   10  C17 UNL     1     -13.204  46.250 -25.269  1.00  0.00     0.124 C 
HETATM   11  C18 UNL     1     -14.360  45.389 -24.731  1.00  0.00     0.045 C 
HETATM   12  C19 UNL     1     -15.776  45.721 -25.277  1.00  0.00     0.001 C 
HETATM   13  C20 UNL     1     -16.234  47.052 -24.639  1.00  0.00     0.019 C 
HETATM   14  C21 UNL     1     -15.761  45.839 -26.836  1.00  0.00     0.002 C 
HETATM   15  C22 UNL     1     -16.641  44.703 -27.380  1.00  0.00     0.009 C 
HETATM   16  C23 UNL     1     -16.770  43.706 -26.242  1.00  0.00     0.047 C 
HETATM   17  C24 UNL     1     -16.790  44.559 -24.974  1.00  0.00     0.128 C 
HETATM   18  C27 UNL     1     -12.079  47.187 -27.463  1.00  0.00    -0.014 C 
HETATM   19  C28 UNL     1     -12.405  48.110 -28.669  1.00  0.00     0.020 C 
HETATM   20  C29 UNL     1     -11.064  47.935 -26.551  1.00  0.00     0.020 C 
HETATM   21  C30 UNL     1      -9.677  48.085 -27.163  1.00  0.00     0.060 C 
ENDROOT
BRANCH   1  22
HETATM   22  O4  UNL     1      -7.068  47.534 -27.326  1.00  0.00    -0.271 OA
BRANCH  22  23
HETATM   23  C9  UNL     1      -6.202  47.854 -28.409  1.00  0.00     0.303 C 
BRANCH  23  24
HETATM   24  C8  UNL     1      -4.840  48.198 -27.829  1.00  0.00     0.244 C 
HETATM   25  N3  UNL     1      -4.888  48.637 -26.527  1.00  0.00    -0.345 N 
HETATM   26  H10 UNL     1      -5.802  48.797 -26.110  1.00  0.00     0.163 HD
HETATM   27  O3  UNL     1      -3.792  48.070 -28.461  1.00  0.00    -0.271 OA
BRANCH  25  28
HETATM   28  C3  UNL     1      -3.709  48.989 -25.725  1.00  0.00     0.190 C 
BRANCH  28  29
HETATM   29  C2  UNL     1      -3.905  48.571 -24.258  1.00  0.00     0.281 C 
HETATM   30  O2  UNL     1      -2.987  48.374 -23.468  1.00  0.00    -0.263 OA
BRANCH  29  31
HETATM   31  O1  UNL     1      -5.230  48.482 -23.935  1.00  0.00    -0.325 OA
HETATM   32  C1  UNL     1      -5.502  47.661 -22.796  1.00  0.00     0.213 C 
ENDBRANCH  29  31
ENDBRANCH  28  29
BRANCH  28  33
HETATM   33  C4  UNL     1      -3.413  50.501 -25.773  1.00  0.00     0.093 C 
BRANCH  33  34
HETATM   34  C5  UNL     1      -1.983  50.813 -26.068  1.00  0.00     0.028 A 
HETATM   35  C6  UNL     1      -1.312  51.003 -27.258  1.00  0.00     0.114 A 
HETATM   36  N1  UNL     1       0.014  51.260 -27.036  1.00  0.00    -0.360 N 
HETATM   37  C7  UNL     1       0.159  51.242 -25.731  1.00  0.00     0.180 A 
ATOM     38  H1  UNL     1       0.736  51.431 -27.736  1.00  0.00     0.166 HD
HETATM   39  N2  UNL     1      -1.022  50.975 -25.100  1.00  0.00    -0.354 N 
HETATM   40  H9  UNL     1      -1.168  50.951 -24.093  1.00  0.00     0.166 HD
ENDBRANCH  33  34
ENDBRANCH  28  33
ENDBRANCH  25  28
ENDBRANCH  23  24
ENDBRANCH  22  23
ENDBRANCH   1  22
BRANCH  10  41
HETATM   41  O5  UNL     1     -12.911  47.280 -24.321  1.00  0.00    -0.395 OA
HETATM   42  H21 UNL     1     -13.702  47.820 -24.176  1.00  0.00     0.210 HD
ENDBRANCH  10  41
BRANCH  17  43
HETATM   43  O6  UNL     1     -16.295  43.732 -23.906  1.00  0.00    -0.381 OA
HETATM   44  H32 UNL     1     -16.905  43.845 -23.143  1.00  0.00     0.211 HD
ENDBRANCH  17  43
BRANCH  17  45
HETATM   45  C25 UNL     1     -18.222  44.968 -24.539  1.00  0.00     0.184 C 
HETATM   46  O7  UNL     1     -18.539  44.920 -23.341  1.00  0.00    -0.292 OA
BRANCH  45  47
HETATM   47  C26 UNL     1     -19.248  45.404 -25.575  1.00  0.00     0.245 C 
BRANCH  47  48
HETATM   48  O8  UNL     1     -19.934  46.577 -25.164  1.00  0.00    -0.393 OA
HETATM   49  H35 UNL     1     -19.789  46.668 -24.198  1.00  0.00     0.209 HD
ENDBRANCH  47  48
ENDBRANCH  45  47
ENDBRANCH  17  45
TORSDOF 13
ENDMDL
MODEL 3
REMARK minimizedAffinity -8.37492847
REMARK CNNscore 0.554458261
REMARK CNNaffinity 7.30495882
REMARK  13 active torsions:
REMARK  status: ('A' for Active; 'I' for Inactive)
REMARK    1  A    between atoms: O1_2  and  C2_3 
REMARK    2  A    between atoms: C2_3  and  C3_5 
REMARK    3  A    between atoms: C3_5  and  C4_6 
REMARK    4  A    between atoms: C3_5  and  N3_13 
REMARK    5  A    between atoms: C4_6  and  C5_7 
REMARK       I    between atoms: N3_13  and  C8_14 
REMARK    6  A    between atoms: C8_14  and  C9_16 
REMARK    7  A    between atoms: C9_16  and  O4_17 
REMARK    8  A    between atoms: O4_17  and  N4_18 
REMARK    9  A    between atoms: C17_27  and  O5_28 
REMARK   10  A    between atoms: C24_35  and  O6_36 
REMARK   11  A    between atoms: C24_35  and  C25_37 
REMARK   12  A    between atoms: C25_37  and  C26_39 
REMARK   13  A    between atoms: C26_39  and  O8_40 
ROOT
HETATM    1  N4  UNL     1       0.886  53.129 -19.193  1.00  0.00    -0.271 N 
ATOM      2  H4  UNL     1       1.612  53.822 -19.007  1.00  0.00     0.194 HD
HETATM    3  C10 UNL     1       0.422  52.298 -18.304  1.00  0.00     0.032 C 
HETATM    4  C11 UNL     1       1.036  52.330 -16.951  1.00  0.00     0.030 C 
HETATM    5  C12 UNL     1       0.675  51.471 -15.981  1.00  0.00    -0.069 C 
HETATM    6  C13 UNL     1       1.484  51.415 -14.707  1.00  0.00     0.035 C 
HETATM    7  C14 UNL     1       0.638  51.289 -13.440  1.00  0.00     0.010 C 
HETATM    8  C15 UNL     1      -0.368  50.124 -13.556  1.00  0.00    -0.002 C 
HETATM    9  C16 UNL     1      -1.300  50.355 -14.775  1.00  0.00     0.031 C 
HETATM   10  C17 UNL     1      -2.241  51.559 -14.494  1.00  0.00     0.124 C 
HETATM   11  C18 UNL     1      -2.583  51.805 -13.015  1.00  0.00     0.045 C 
HETATM   12  C19 UNL     1      -2.527  50.565 -12.081  1.00  0.00     0.001 C 
HETATM   13  C20 UNL     1      -3.747  49.673 -12.398  1.00  0.00     0.019 C 
HETATM   14  C21 UNL     1      -1.198  49.768 -12.288  1.00  0.00     0.002 C 
HETATM   15  C22 UNL     1      -0.412  49.857 -10.970  1.00  0.00     0.009 C 
HETATM   16  C23 UNL     1      -1.019  51.022 -10.210  1.00  0.00     0.047 C 
HETATM   17  C24 UNL     1      -2.505  50.992 -10.568  1.00  0.00     0.128 C 
HETATM   18  C27 UNL     1      -0.476  50.476 -16.128  1.00  0.00    -0.014 C 
HETATM   19  C28 UNL     1       0.131  49.089 -16.478  1.00  0.00     0.020 C 
HETATM   20  C29 UNL     1      -1.394  50.905 -17.308  1.00  0.00     0.020 C 
HETATM   21  C30 UNL     1      -0.638  51.251 -18.585  1.00  0.00     0.060 C 
ENDROOT
BRANCH   1  22
HETATM   22  O4  UNL     1       0.265  52.953 -20.437  1.00  0.00    -0.271 OA
BRANCH  22  23
HETATM   23  C9  UNL     1       1.247  52.584 -21.399  1.00  0.00     0.303 C 
BRANCH  23  24
HETATM   24  C8  UNL     1       0.606  52.672 -22.774  1.00  0.00     0.244 C 
HETATM   25  N3  UNL     1       0.037  51.494 -23.196  1.00  0.00    -0.345 N 
HETATM   26  H10 UNL     1       0.182  50.663 -22.628  1.00  0.00     0.163 HD
HETATM   27  O3  UNL     1       0.580  53.711 -23.434  1.00  0.00    -0.271 OA
BRANCH  25  28
HETATM   28  C3  UNL     1      -0.683  51.328 -24.465  1.00  0.00     0.190 C 
BRANCH  28  29
HETATM   29  C2  UNL     1       0.300  51.054 -25.616  1.00  0.00     0.281 C 
HETATM   30  O2  UNL     1       0.077  50.287 -26.546  1.00  0.00    -0.263 OA
BRANCH  29  31
HETATM   31  O1  UNL     1       1.438  51.801 -25.491  1.00  0.00    -0.325 OA
HETATM   32  C1  UNL     1       2.435  51.518 -26.476  1.00  0.00     0.213 C 
ENDBRANCH  29  31
ENDBRANCH  28  29
BRANCH  28  33
HETATM   33  C4  UNL     1      -1.522  52.573 -24.817  1.00  0.00     0.093 C 
BRANCH  33  34
HETATM   34  C5  UNL     1      -1.266  53.086 -26.195  1.00  0.00     0.028 A 
HETATM   35  C6  UNL     1      -1.869  52.809 -27.405  1.00  0.00     0.114 A 
HETATM   36  N1  UNL     1      -1.284  53.521 -28.417  1.00  0.00    -0.360 N 
HETATM   37  C7  UNL     1      -0.343  54.234 -27.843  1.00  0.00     0.180 A 
ATOM     38  H1  UNL     1      -1.528  53.501 -29.407  1.00  0.00     0.166 HD
HETATM   39  N2  UNL     1      -0.292  54.006 -26.498  1.00  0.00    -0.354 N 
HETATM   40  H9  UNL     1       0.325  54.473 -25.836  1.00  0.00     0.166 HD
ENDBRANCH  33  34
ENDBRANCH  28  33
ENDBRANCH  25  28
ENDBRANCH  23  24
ENDBRANCH  22  23
ENDBRANCH   1  22
BRANCH  10  41
HETATM   41  O5  UNL     1      -3.455  51.421 -15.236  1.00  0.00    -0.395 OA
HETATM   42  H21 UNL     1      -3.973  50.685 -14.876  1.00  0.00     0.210 HD
ENDBRANCH  10  41
BRANCH  17  43
HETATM   43  O6  UNL     1      -2.997  52.337 -10.423  1.00  0.00    -0.381 OA
HETATM   44  H32 UNL     1      -3.841  52.287  -9.922  1.00  0.00     0.211 HD
ENDBRANCH  17  43
BRANCH  17  45
HETATM   45  C25 UNL     1      -3.350  50.144  -9.583  1.00  0.00     0.184 C 
HETATM   46  O7  UNL     1      -4.583  50.280  -9.554  1.00  0.00    -0.292 OA
BRANCH  45  47
HETATM   47  C26 UNL     1      -2.676  49.162  -8.636  1.00  0.00     0.245 C 
BRANCH  47  48
HETATM   48  O8  UNL     1      -2.759  49.601  -7.288  1.00  0.00    -0.393 OA
HETATM   49  H35 UNL     1      -2.978  50.557  -7.313  1.00  0.00     0.209 HD
ENDBRANCH  47  48
ENDBRANCH  45  47
ENDBRANCH  17  45
TORSDOF 13
ENDMDL
MODEL 4
REMARK minimizedAffinity -8.04556084
REMARK CNNscore 0.539233983
REMARK CNNaffinity 7.26889801
REMARK  13 active torsions:
REMARK  status: ('A' for Active; 'I' for Inactive)
REMARK    1  A    between atoms: O1_2  and  C2_3 
REMARK    2  A    between atoms: C2_3  and  C3_5 
REMARK    3  A    between atoms: C3_5  and  C4_6 
REMARK    4  A    between atoms: C3_5  and  N3_13 
REMARK    5  A    between atoms: C4_6  and  C5_7 
REMARK       I    between atoms: N3_13  and  C8_14 
REMARK    6  A    between atoms: C8_14  and  C9_16 
REMARK    7  A    between atoms: C9_16  and  O4_17 
REMARK    8  A    between atoms: O4_17  and  N4_18 
REMARK    9  A    between atoms: C17_27  and  O5_28 
REMARK   10  A    between atoms: C24_35  and  O6_36 
REMARK   11  A    between atoms: C24_35  and  C25_37 
REMARK   12  A    between atoms: C25_37  and  C26_39 
REMARK   13  A    between atoms: C26_39  and  O8_40 
ROOT
HETATM    1  N4  UNL     1       1.493  52.985 -18.123  1.00  0.00    -0.271 N 
ATOM      2  H4  UNL     1       1.836  53.919 -17.899  1.00  0.00     0.194 HD
HETATM    3  C10 UNL     1       1.032  52.142 -17.243  1.00  0.00     0.032 C 
HETATM    4  C11 UNL     1       1.069  52.557 -15.816  1.00  0.00     0.030 C 
HETATM    5  C12 UNL     1       0.678  51.737 -14.823  1.00  0.00    -0.069 C 
HETATM    6  C13 UNL     1       0.942  52.136 -13.391  1.00  0.00     0.035 C 
HETATM    7  C14 UNL     1      -0.217  51.835 -12.439  1.00  0.00     0.010 C 
HETATM    8  C15 UNL     1      -0.679  50.369 -12.572  1.00  0.00    -0.002 C 
HETATM    9  C16 UNL     1      -1.127  50.089 -14.031  1.00  0.00     0.031 C 
HETATM   10  C17 UNL     1      -2.439  50.863 -14.334  1.00  0.00     0.124 C 
HETATM   11  C18 UNL     1      -3.354  51.121 -13.124  1.00  0.00     0.045 C 
HETATM   12  C19 UNL     1      -3.244  50.108 -11.951  1.00  0.00     0.001 C 
HETATM   13  C20 UNL     1      -3.908  48.786 -12.397  1.00  0.00     0.019 C 
HETATM   14  C21 UNL     1      -1.749  49.864 -11.561  1.00  0.00     0.002 C 
HETATM   15  C22 UNL     1      -1.569  50.391 -10.129  1.00  0.00     0.009 C 
HETATM   16  C23 UNL     1      -2.750  51.310  -9.880  1.00  0.00     0.047 C 
HETATM   17  C24 UNL     1      -3.910  50.674 -10.645  1.00  0.00     0.128 C 
HETATM   18  C27 UNL     1       0.046  50.367 -15.067  1.00  0.00    -0.014 C 
HETATM   19  C28 UNL     1       1.150  49.290 -14.884  1.00  0.00     0.020 C 
HETATM   20  C29 UNL     1      -0.468  50.279 -16.532  1.00  0.00     0.020 C 
HETATM   21  C30 UNL     1       0.545  50.745 -17.572  1.00  0.00     0.060 C 
ENDROOT
BRANCH   1  22
HETATM   22  O4  UNL     1       1.457  52.448 -19.417  1.00  0.00    -0.271 OA
BRANCH  22  23
HETATM   23  C9  UNL     1       0.388  53.048 -20.140  1.00  0.00     0.303 C 
BRANCH  23  24
HETATM   24  C8  UNL     1       0.367  52.435 -21.531  1.00  0.00     0.244 C 
HETATM   25  N3  UNL     1      -0.742  52.776 -22.269  1.00  0.00    -0.345 N 
HETATM   26  H10 UNL     1      -1.483  53.296 -21.806  1.00  0.00     0.163 HD
HETATM   27  O3  UNL     1       1.273  51.721 -21.962  1.00  0.00    -0.271 OA
BRANCH  25  28
HETATM   28  C3  UNL     1      -0.979  52.352 -23.655  1.00  0.00     0.190 C 
BRANCH  28  29
HETATM   29  C2  UNL     1      -1.576  50.935 -23.696  1.00  0.00     0.281 C 
HETATM   30  O2  UNL     1      -1.555  50.150 -22.754  1.00  0.00    -0.263 OA
BRANCH  29  31
HETATM   31  O1  UNL     1      -2.165  50.675 -24.902  1.00  0.00    -0.325 OA
HETATM   32  C1  UNL     1      -3.258  51.540 -25.219  1.00  0.00     0.213 C 
ENDBRANCH  29  31
ENDBRANCH  28  29
BRANCH  28  33
HETATM   33  C4  UNL     1       0.317  52.367 -24.491  1.00  0.00     0.093 C 
BRANCH  33  34
HETATM   34  C5  UNL     1       0.159  53.040 -25.813  1.00  0.00     0.028 A 
HETATM   35  C6  UNL     1       0.119  52.540 -27.098  1.00  0.00     0.114 A 
HETATM   36  N1  UNL     1      -0.033  53.549 -28.011  1.00  0.00    -0.360 N 
HETATM   37  C7  UNL     1      -0.096  54.653 -27.303  1.00  0.00     0.180 A 
ATOM     38  H1  UNL     1      -0.085  53.462 -29.026  1.00  0.00     0.166 HD
HETATM   39  N2  UNL     1       0.016  54.397 -25.966  1.00  0.00    -0.354 N 
HETATM   40  H9  UNL     1      -0.046  55.087 -25.219  1.00  0.00     0.166 HD
ENDBRANCH  33  34
ENDBRANCH  28  33
ENDBRANCH  25  28
ENDBRANCH  23  24
ENDBRANCH  22  23
ENDBRANCH   1  22
BRANCH  10  41
HETATM   41  O5  UNL     1      -3.188  50.189 -15.349  1.00  0.00    -0.395 OA
HETATM   42  H21 UNL     1      -3.533  49.355 -14.996  1.00  0.00     0.210 HD
ENDBRANCH  10  41
BRANCH  17  43
HETATM   43  O6  UNL     1      -4.827  51.735 -10.973  1.00  0.00    -0.381 OA
HETATM   44  H32 UNL     1      -5.730  51.420 -10.748  1.00  0.00     0.211 HD
ENDBRANCH  17  43
BRANCH  17  45
HETATM   45  C25 UNL     1      -4.733  49.680  -9.785  1.00  0.00     0.184 C 
HETATM   46  O7  UNL     1      -4.154  48.946  -8.969  1.00  0.00    -0.292 OA
BRANCH  45  47
HETATM   47  C26 UNL     1      -6.242  49.582  -9.951  1.00  0.00     0.245 C 
BRANCH  47  48
HETATM   48  O8  UNL     1      -6.879  49.255  -8.724  1.00  0.00    -0.393 OA
HETATM   49  H35 UNL     1      -6.185  48.896  -8.131  1.00  0.00     0.209 HD
ENDBRANCH  47  48
ENDBRANCH  45  47
ENDBRANCH  17  45
TORSDOF 13
ENDMDL
MODEL 5
REMARK minimizedAffinity -9.34879875
REMARK CNNscore 0.421682388
REMARK CNNaffinity 7.14575434
REMARK  13 active torsions:
REMARK  status: ('A' for Active; 'I' for Inactive)
REMARK    1  A    between atoms: O1_2  and  C2_3 
REMARK    2  A    between atoms: C2_3  and  C3_5 
REMARK    3  A    between atoms: C3_5  and  C4_6 
REMARK    4  A    between atoms: C3_5  and  N3_13 
REMARK    5  A    between atoms: C4_6  and  C5_7 
REMARK       I    between atoms: N3_13  and  C8_14 
REMARK    6  A    between atoms: C8_14  and  C9_16 
REMARK    7  A    between atoms: C9_16  and  O4_17 
REMARK    8  A    between atoms: O4_17  and  N4_18 
REMARK    9  A    between atoms: C17_27  and  O5_28 
REMARK   10  A    between atoms: C24_35  and  O6_36 
REMARK   11  A    between atoms: C24_35  and  C25_37 
REMARK   12  A    between atoms: C25_37  and  C26_39 
REMARK   13  A    between atoms: C26_39  and  O8_40 
ROOT
HETATM    1  N4  UNL     1      -0.694  52.012 -19.434  1.00  0.00    -0.271 N 
ATOM      2  H4  UNL     1      -1.164  52.389 -18.611  1.00  0.00     0.194 HD
HETATM    3  C10 UNL     1      -1.211  51.117 -20.227  1.00  0.00     0.032 C 
HETATM    4  C11 UNL     1      -2.547  50.574 -19.866  1.00  0.00     0.030 C 
HETATM    5  C12 UNL     1      -3.140  49.601 -20.580  1.00  0.00    -0.069 C 
HETATM    6  C13 UNL     1      -4.390  48.947 -20.041  1.00  0.00     0.035 C 
HETATM    7  C14 UNL     1      -5.462  48.689 -21.100  1.00  0.00     0.010 C 
HETATM    8  C15 UNL     1      -4.876  47.938 -22.314  1.00  0.00    -0.002 C 
HETATM    9  C16 UNL     1      -3.725  48.769 -22.941  1.00  0.00     0.031 C 
HETATM   10  C17 UNL     1      -4.305  50.046 -23.608  1.00  0.00     0.124 C 
HETATM   11  C18 UNL     1      -5.745  49.926 -24.134  1.00  0.00     0.045 C 
HETATM   12  C19 UNL     1      -6.215  48.500 -24.533  1.00  0.00     0.001 C 
HETATM   13  C20 UNL     1      -5.511  48.116 -25.853  1.00  0.00     0.019 C 
HETATM   14  C21 UNL     1      -5.874  47.466 -23.411  1.00  0.00     0.002 C 
HETATM   15  C22 UNL     1      -7.210  46.937 -22.867  1.00  0.00     0.009 C 
HETATM   16  C23 UNL     1      -8.257  47.944 -23.308  1.00  0.00     0.047 C 
HETATM   17  C24 UNL     1      -7.779  48.435 -24.674  1.00  0.00     0.128 C 
HETATM   18  C27 UNL     1      -2.568  49.053 -21.888  1.00  0.00    -0.014 C 
HETATM   19  C28 UNL     1      -1.833  47.722 -21.570  1.00  0.00     0.020 C 
HETATM   20  C29 UNL     1      -1.521  50.051 -22.462  1.00  0.00     0.020 C 
HETATM   21  C30 UNL     1      -0.504  50.537 -21.436  1.00  0.00     0.060 C 
ENDROOT
BRANCH   1  22
HETATM   22  O4  UNL     1       0.588  52.393 -19.853  1.00  0.00    -0.271 OA
BRANCH  22  23
HETATM   23  C9  UNL     1       0.569  53.769 -20.215  1.00  0.00     0.303 C 
BRANCH  23  24
HETATM   24  C8  UNL     1       1.290  53.909 -21.546  1.00  0.00     0.244 C 
HETATM   25  N3  UNL     1       0.590  53.393 -22.611  1.00  0.00    -0.345 N 
HETATM   26  H10 UNL     1      -0.266  52.880 -22.417  1.00  0.00     0.163 HD
HETATM   27  O3  UNL     1       2.387  54.456 -21.659  1.00  0.00    -0.271 OA
BRANCH  25  28
HETATM   28  C3  UNL     1       1.045  53.443 -24.006  1.00  0.00     0.190 C 
BRANCH  28  29
HETATM   29  C2  UNL     1       0.632  54.769 -24.666  1.00  0.00     0.281 C 
HETATM   30  O2  UNL     1       1.096  55.864 -24.365  1.00  0.00    -0.263 OA
BRANCH  29  31
HETATM   31  O1  UNL     1      -0.290  54.571 -25.656  1.00  0.00    -0.325 OA
HETATM   32  C1  UNL     1      -0.113  55.410 -26.799  1.00  0.00     0.213 C 
ENDBRANCH  29  31
ENDBRANCH  28  29
BRANCH  28  33
HETATM   33  C4  UNL     1       0.474  52.277 -24.840  1.00  0.00     0.093 C 
BRANCH  33  34
HETATM   34  C5  UNL     1       1.253  52.004 -26.083  1.00  0.00     0.028 A 
HETATM   35  C6  UNL     1       2.557  51.597 -26.278  1.00  0.00     0.114 A 
HETATM   36  N1  UNL     1       2.840  51.485 -27.612  1.00  0.00    -0.360 N 
HETATM   37  C7  UNL     1       1.728  51.806 -28.233  1.00  0.00     0.180 A 
ATOM     38  H1  UNL     1       3.726  51.210 -28.035  1.00  0.00     0.166 HD
HETATM   39  N2  UNL     1       0.738  52.128 -27.349  1.00  0.00    -0.354 N 
HETATM   40  H9  UNL     1      -0.222  52.369 -27.590  1.00  0.00     0.166 HD
ENDBRANCH  33  34
ENDBRANCH  28  33
ENDBRANCH  25  28
ENDBRANCH  23  24
ENDBRANCH  22  23
ENDBRANCH   1  22
BRANCH  10  41
HETATM   41  O5  UNL     1      -3.454  50.477 -24.673  1.00  0.00    -0.395 OA
HETATM   42  H21 UNL     1      -3.501  49.840 -25.403  1.00  0.00     0.210 HD
ENDBRANCH  10  41
BRANCH  17  43
HETATM   43  O6  UNL     1      -8.319  49.756 -24.856  1.00  0.00    -0.381 OA
HETATM   44  H32 UNL     1      -8.697  49.795 -25.763  1.00  0.00     0.211 HD
ENDBRANCH  17  43
BRANCH  17  45
HETATM   45  C25 UNL     1      -8.346  47.600 -25.852  1.00  0.00     0.184 C 
HETATM   46  O7  UNL     1      -7.717  46.614 -26.267  1.00  0.00    -0.292 OA
BRANCH  45  47
HETATM   47  C26 UNL     1      -9.656  47.995 -26.517  1.00  0.00     0.245 C 
BRANCH  47  48
HETATM   48  O8  UNL     1      -9.496  49.142 -27.340  1.00  0.00    -0.393 OA
HETATM   49  H35 UNL     1      -8.657  49.572 -27.068  1.00  0.00     0.209 HD
ENDBRANCH  47  48
ENDBRANCH  45  47
ENDBRANCH  17  45
TORSDOF 13
ENDMDL
MODEL 6
REMARK minimizedAffinity -7.44247007
REMARK CNNscore 0.411378324
REMARK CNNaffinity 6.09088564
REMARK  13 active torsions:
REMARK  status: ('A' for Active; 'I' for Inactive)
REMARK    1  A    between atoms: O1_2  and  C2_3 
REMARK    2  A    between atoms: C2_3  and  C3_5 
REMARK    3  A    between atoms: C3_5  and  C4_6 
REMARK    4  A    between atoms: C3_5  and  N3_13 
REMARK    5  A    between atoms: C4_6  and  C5_7 
REMARK       I    between atoms: N3_13  and  C8_14 
REMARK    6  A    between atoms: C8_14  and  C9_16 
REMARK    7  A    between atoms: C9_16  and  O4_17 
REMARK    8  A    between atoms: O4_17  and  N4_18 
REMARK    9  A    between atoms: C17_27  and  O5_28 
REMARK   10  A    between atoms: C24_35  and  O6_36 
REMARK   11  A    between atoms: C24_35  and  C25_37 
REMARK   12  A    between atoms: C25_37  and  C26_39 
REMARK   13  A    between atoms: C26_39  and  O8_40 
ROOT
HETATM    1  N4  UNL     1      -7.636  46.579 -27.455  1.00  0.00    -0.271 N 
ATOM      2  H4  UNL     1      -7.255  45.682 -27.758  1.00  0.00     0.194 HD
HETATM    3  C10 UNL     1      -8.908  46.851 -27.392  1.00  0.00     0.032 C 
HETATM    4  C11 UNL     1      -9.855  45.800 -27.848  1.00  0.00     0.030 C 
HETATM    5  C12 UNL     1     -11.184  46.002 -27.885  1.00  0.00    -0.069 C 
HETATM    6  C13 UNL     1     -12.068  44.979 -28.557  1.00  0.00     0.035 C 
HETATM    7  C14 UNL     1     -13.368  44.692 -27.807  1.00  0.00     0.010 C 
HETATM    8  C15 UNL     1     -14.120  45.998 -27.475  1.00  0.00    -0.002 C 
HETATM    9  C16 UNL     1     -13.218  46.918 -26.609  1.00  0.00     0.031 C 
HETATM   10  C17 UNL     1     -13.034  46.292 -25.199  1.00  0.00     0.124 C 
HETATM   11  C18 UNL     1     -14.195  45.411 -24.705  1.00  0.00     0.045 C 
HETATM   12  C19 UNL     1     -15.598  45.732 -25.290  1.00  0.00     0.001 C 
HETATM   13  C20 UNL     1     -16.092  47.050 -24.653  1.00  0.00     0.019 C 
HETATM   14  C21 UNL     1     -15.537  45.867 -26.847  1.00  0.00     0.002 C 
HETATM   15  C22 UNL     1     -16.386  44.726 -27.429  1.00  0.00     0.009 C 
HETATM   16  C23 UNL     1     -16.537  43.715 -26.307  1.00  0.00     0.047 C 
HETATM   17  C24 UNL     1     -16.606  44.554 -25.031  1.00  0.00     0.128 C 
HETATM   18  C27 UNL     1     -11.855  47.267 -27.348  1.00  0.00    -0.014 C 
HETATM   19  C28 UNL     1     -12.156  48.199 -28.553  1.00  0.00     0.020 C 
HETATM   20  C29 UNL     1     -10.878  48.016 -26.398  1.00  0.00     0.020 C 
HETATM   21  C30 UNL     1      -9.475  48.191 -26.967  1.00  0.00     0.060 C 
ENDROOT
BRANCH   1  22
HETATM   22  O4  UNL     1      -6.855  47.673 -27.056  1.00  0.00    -0.271 OA
BRANCH  22  23
HETATM   23  C9  UNL     1      -5.696  47.742 -27.879  1.00  0.00     0.303 C 
BRANCH  23  24
HETATM   24  C8  UNL     1      -4.568  48.324 -27.044  1.00  0.00     0.244 C 
HETATM   25  N3  UNL     1      -5.000  49.097 -25.992  1.00  0.00    -0.345 N 
HETATM   26  H10 UNL     1      -5.994  49.302 -25.927  1.00  0.00     0.163 HD
HETATM   27  O3  UNL     1      -3.380  48.101 -27.276  1.00  0.00    -0.271 OA
BRANCH  25  28
HETATM   28  C3  UNL     1      -4.112  49.735 -25.011  1.00  0.00     0.190 C 
BRANCH  28  29
HETATM   29  C2  UNL     1      -3.618  51.096 -25.529  1.00  0.00     0.281 C 
HETATM   30  O2  UNL     1      -3.416  52.073 -24.816  1.00  0.00    -0.263 OA
BRANCH  29  31
HETATM   31  O1  UNL     1      -3.397  51.069 -26.878  1.00  0.00    -0.325 OA
HETATM   32  C1  UNL     1      -2.067  51.430 -27.261  1.00  0.00     0.213 C 
ENDBRANCH  29  31
ENDBRANCH  28  29
BRANCH  28  33
HETATM   33  C4  UNL     1      -2.888  48.855 -24.686  1.00  0.00     0.093 C 
BRANCH  33  34
HETATM   34  C5  UNL     1      -2.470  48.931 -23.256  1.00  0.00     0.028 A 
HETATM   35  C6  UNL     1      -2.852  48.202 -22.148  1.00  0.00     0.114 A 
HETATM   36  N1  UNL     1      -2.201  48.639 -21.026  1.00  0.00    -0.360 N 
HETATM   37  C7  UNL     1      -1.421  49.613 -21.434  1.00  0.00     0.180 A 
ATOM     38  H1  UNL     1      -2.301  48.282 -20.076  1.00  0.00     0.166 HD
HETATM   39  N2  UNL     1      -1.548  49.828 -22.776  1.00  0.00    -0.354 N 
HETATM   40  H9  UNL     1      -1.017  50.501 -23.326  1.00  0.00     0.166 HD
ENDBRANCH  33  34
ENDBRANCH  28  33
ENDBRANCH  25  28
ENDBRANCH  23  24
ENDBRANCH  22  23
ENDBRANCH   1  22
BRANCH  10  41
HETATM   41  O5  UNL     1     -12.783  47.315 -24.232  1.00  0.00    -0.395 OA
HETATM   42  H21 UNL     1     -13.585  47.844 -24.105  1.00  0.00     0.210 HD
ENDBRANCH  10  41
BRANCH  17  43
HETATM   43  O6  UNL     1     -16.133  43.721 -23.956  1.00  0.00    -0.381 OA
HETATM   44  H32 UNL     1     -16.767  43.818 -23.211  1.00  0.00     0.211 HD
ENDBRANCH  17  43
BRANCH  17  45
HETATM   45  C25 UNL     1     -18.055  44.940 -24.635  1.00  0.00     0.184 C 
HETATM   46  O7  UNL     1     -18.408  44.873 -23.448  1.00  0.00    -0.292 OA
BRANCH  45  47
HETATM   47  C26 UNL     1     -19.054  45.378 -25.697  1.00  0.00     0.245 C 
BRANCH  47  48
HETATM   48  O8  UNL     1     -19.689  46.598 -25.340  1.00  0.00    -0.393 OA
HETATM   49  H35 UNL     1     -19.546  46.722 -24.377  1.00  0.00     0.209 HD
ENDBRANCH  47  48
ENDBRANCH  45  47
ENDBRANCH  17  45
TORSDOF 13
ENDMDL
MODEL 7
REMARK minimizedAffinity -9.0255909
REMARK CNNscore 0.401306033
REMARK CNNaffinity 6.88862228
REMARK  13 active torsions:
REMARK  status: ('A' for Active; 'I' for Inactive)
REMARK    1  A    between atoms: O1_2  and  C2_3 
REMARK    2  A    between atoms: C2_3  and  C3_5 
REMARK    3  A    between atoms: C3_5  and  C4_6 
REMARK    4  A    between atoms: C3_5  and  N3_13 
REMARK    5  A    between atoms: C4_6  and  C5_7 
REMARK       I    between atoms: N3_13  and  C8_14 
REMARK    6  A    between atoms: C8_14  and  C9_16 
REMARK    7  A    between atoms: C9_16  and  O4_17 
REMARK    8  A    between atoms: O4_17  and  N4_18 
REMARK    9  A    between atoms: C17_27  and  O5_28 
REMARK   10  A    between atoms: C24_35  and  O6_36 
REMARK   11  A    between atoms: C24_35  and  C25_37 
REMARK   12  A    between atoms: C25_37  and  C26_39 
REMARK   13  A    between atoms: C26_39  and  O8_40 
ROOT
HETATM    1  N4  UNL     1      -3.595  49.560 -16.896  1.00  0.00    -0.271 N 
ATOM      2  H4  UNL     1      -4.603  49.430 -16.805  1.00  0.00     0.194 HD
HETATM    3  C10 UNL     1      -2.949  49.510 -18.026  1.00  0.00     0.032 C 
HETATM    4  C11 UNL     1      -3.731  49.183 -19.247  1.00  0.00     0.030 C 
HETATM    5  C12 UNL     1      -3.151  49.043 -20.452  1.00  0.00    -0.069 C 
HETATM    6  C13 UNL     1      -3.964  48.502 -21.604  1.00  0.00     0.035 C 
HETATM    7  C14 UNL     1      -3.715  49.219 -22.931  1.00  0.00     0.010 C 
HETATM    8  C15 UNL     1      -2.207  49.290 -23.251  1.00  0.00    -0.002 C 
HETATM    9  C16 UNL     1      -1.463  50.041 -22.114  1.00  0.00     0.031 C 
HETATM   10  C17 UNL     1      -1.862  51.542 -22.130  1.00  0.00     0.124 C 
HETATM   11  C18 UNL     1      -2.256  52.111 -23.503  1.00  0.00     0.045 C 
HETATM   12  C19 UNL     1      -1.637  51.407 -24.742  1.00  0.00     0.001 C 
HETATM   13  C20 UNL     1      -0.143  51.792 -24.813  1.00  0.00     0.019 C 
HETATM   14  C21 UNL     1      -1.798  49.855 -24.642  1.00  0.00     0.002 C 
HETATM   15  C22 UNL     1      -2.716  49.425 -25.796  1.00  0.00     0.009 C 
HETATM   16  C23 UNL     1      -3.425  50.688 -26.248  1.00  0.00     0.047 C 
HETATM   17  C24 UNL     1      -2.396  51.803 -26.060  1.00  0.00     0.128 C 
HETATM   18  C27 UNL     1      -1.671  49.328 -20.708  1.00  0.00    -0.014 C 
HETATM   19  C28 UNL     1      -0.915  47.971 -20.711  1.00  0.00     0.020 C 
HETATM   20  C29 UNL     1      -1.095  50.192 -19.551  1.00  0.00     0.020 C 
HETATM   21  C30 UNL     1      -1.449  49.679 -18.160  1.00  0.00     0.060 C 
ENDROOT
BRANCH   1  22
HETATM   22  O4  UNL     1      -2.733  49.816 -15.821  1.00  0.00    -0.271 OA
BRANCH  22  23
HETATM   23  C9  UNL     1      -3.063  51.076 -15.249  1.00  0.00     0.303 C 
BRANCH  23  24
HETATM   24  C8  UNL     1      -2.585  51.071 -13.806  1.00  0.00     0.244 C 
HETATM   25  N3  UNL     1      -3.494  51.599 -12.921  1.00  0.00    -0.345 N 
HETATM   26  H10 UNL     1      -4.331  52.036 -13.298  1.00  0.00     0.163 HD
HETATM   27  O3  UNL     1      -1.495  50.613 -13.464  1.00  0.00    -0.271 OA
BRANCH  25  28
HETATM   28  C3  UNL     1      -3.293  51.669 -11.467  1.00  0.00     0.190 C 
BRANCH  28  29
HETATM   29  C2  UNL     1      -4.115  50.583 -10.752  1.00  0.00     0.281 C 
HETATM   30  O2  UNL     1      -4.809  49.752 -11.328  1.00  0.00    -0.263 OA
BRANCH  29  31
HETATM   31  O1  UNL     1      -3.947  50.639  -9.397  1.00  0.00    -0.325 OA
HETATM   32  C1  UNL     1      -3.018  49.680  -8.883  1.00  0.00     0.213 C 
ENDBRANCH  29  31
ENDBRANCH  28  29
BRANCH  28  33
HETATM   33  C4  UNL     1      -3.690  53.046 -10.897  1.00  0.00     0.093 C 
BRANCH  33  34
HETATM   34  C5  UNL     1      -2.551  53.773 -10.264  1.00  0.00     0.028 A 
HETATM   35  C6  UNL     1      -1.852  53.544  -9.097  1.00  0.00     0.114 A 
HETATM   36  N1  UNL     1      -0.882  54.492  -8.914  1.00  0.00    -0.360 N 
HETATM   37  C7  UNL     1      -0.972  55.288  -9.955  1.00  0.00     0.180 A 
ATOM     38  H1  UNL     1      -0.228  54.565  -8.135  1.00  0.00     0.166 HD
HETATM   39  N2  UNL     1      -1.968  54.894 -10.801  1.00  0.00    -0.354 N 
HETATM   40  H9  UNL     1      -2.201  55.328 -11.693  1.00  0.00     0.166 HD
ENDBRANCH  33  34
ENDBRANCH  28  33
ENDBRANCH  25  28
ENDBRANCH  23  24
ENDBRANCH  22  23
ENDBRANCH   1  22
BRANCH  10  41
HETATM   41  O5  UNL     1      -0.809  52.339 -21.580  1.00  0.00    -0.395 OA
HETATM   42  H21 UNL     1      -0.051  52.334 -22.184  1.00  0.00     0.210 HD
ENDBRANCH  10  41
BRANCH  17  43
HETATM   43  O6  UNL     1      -3.134  53.024 -25.864  1.00  0.00    -0.381 OA
HETATM   44  H32 UNL     1      -2.724  53.708 -26.438  1.00  0.00     0.211 HD
ENDBRANCH  17  43
BRANCH  17  45
HETATM   45  C25 UNL     1      -1.533  52.052 -27.324  1.00  0.00     0.184 C 
HETATM   46  O7  UNL     1      -1.227  51.099 -28.059  1.00  0.00    -0.292 OA
BRANCH  45  47
HETATM   47  C26 UNL     1      -1.037  53.451 -27.658  1.00  0.00     0.245 C 
BRANCH  47  48
HETATM   48  O8  UNL     1      -1.958  54.144 -28.488  1.00  0.00    -0.393 OA
HETATM   49  H35 UNL     1      -2.552  53.468 -28.879  1.00  0.00     0.209 HD
ENDBRANCH  47  48
ENDBRANCH  45  47
ENDBRANCH  17  45
TORSDOF 13
ENDMDL
MODEL 8
REMARK minimizedAffinity -7.78440619
REMARK CNNscore 0.36736387
REMARK CNNaffinity 6.94162798
REMARK  13 active torsions:
REMARK  status: ('A' for Active; 'I' for Inactive)
REMARK    1  A    between atoms: O1_2  and  C2_3 
REMARK    2  A    between atoms: C2_3  and  C3_5 
REMARK    3  A    between atoms: C3_5  and  C4_6 
REMARK    4  A    between atoms: C3_5  and  N3_13 
REMARK    5  A    between atoms: C4_6  and  C5_7 
REMARK       I    between atoms: N3_13  and  C8_14 
REMARK    6  A    between atoms: C8_14  and  C9_16 
REMARK    7  A    between atoms: C9_16  and  O4_17 
REMARK    8  A    between atoms: O4_17  and  N4_18 
REMARK    9  A    between atoms: C17_27  and  O5_28 
REMARK   10  A    between atoms: C24_35  and  O6_36 
REMARK   11  A    between atoms: C24_35  and  C25_37 
REMARK   12  A    between atoms: C25_37  and  C26_39 
REMARK   13  A    between atoms: C26_39  and  O8_40 
ROOT
HETATM    1  N4  UNL     1       1.098  52.480 -18.537  1.00  0.00    -0.271 N 
ATOM      2  H4  UNL     1       1.843  53.166 -18.659  1.00  0.00     0.194 HD
HETATM    3  C10 UNL     1       0.812  51.903 -17.405  1.00  0.00     0.032 C 
HETATM    4  C11 UNL     1       1.671  52.228 -16.235  1.00  0.00     0.030 C 
HETATM    5  C12 UNL     1       1.502  51.639 -15.038  1.00  0.00    -0.069 C 
HETATM    6  C13 UNL     1       2.536  51.850 -13.959  1.00  0.00     0.035 C 
HETATM    7  C14 UNL     1       1.945  52.063 -12.565  1.00  0.00     0.010 C 
HETATM    8  C15 UNL     1       0.939  50.948 -12.212  1.00  0.00    -0.002 C 
HETATM    9  C16 UNL     1      -0.208  50.923 -13.257  1.00  0.00     0.031 C 
HETATM   10  C17 UNL     1      -1.082  52.199 -13.106  1.00  0.00     0.124 C 
HETATM   11  C18 UNL     1      -1.139  52.802 -11.692  1.00  0.00     0.045 C 
HETATM   12  C19 UNL     1      -0.904  51.816 -10.514  1.00  0.00     0.001 C 
HETATM   13  C20 UNL     1      -2.160  50.926 -10.379  1.00  0.00     0.019 C 
HETATM   14  C21 UNL     1       0.364  50.937 -10.765  1.00  0.00     0.002 C 
HETATM   15  C22 UNL     1       1.384  51.301  -9.675  1.00  0.00     0.009 C 
HETATM   16  C23 UNL     1       0.928  52.637  -9.118  1.00  0.00     0.047 C 
HETATM   17  C24 UNL     1      -0.599  52.587  -9.179  1.00  0.00     0.128 C 
HETATM   18  C27 UNL     1       0.347  50.686 -14.728  1.00  0.00    -0.014 C 
HETATM   19  C28 UNL     1       0.881  49.232 -14.840  1.00  0.00     0.020 C 
HETATM   20  C29 UNL     1      -0.779  50.863 -15.787  1.00  0.00     0.020 C 
HETATM   21  C30 UNL     1      -0.279  50.865 -17.227  1.00  0.00     0.060 C 
ENDROOT
BRANCH   1  22
HETATM   22  O4  UNL     1       0.254  52.042 -19.566  1.00  0.00    -0.271 OA
BRANCH  22  23
HETATM   23  C9  UNL     1       0.317  52.967 -20.645  1.00  0.00     0.303 C 
BRANCH  23  24
HETATM   24  C8  UNL     1      -0.206  52.266 -21.889  1.00  0.00     0.244 C 
HETATM   25  N3  UNL     1       0.089  52.924 -23.060  1.00  0.00    -0.345 N 
HETATM   26  H10 UNL     1       0.517  53.844 -22.996  1.00  0.00     0.163 HD
HETATM   27  O3  UNL     1      -0.815  51.197 -21.848  1.00  0.00    -0.271 OA
BRANCH  25  28
HETATM   28  C3  UNL     1      -0.263  52.434 -24.398  1.00  0.00     0.190 C 
BRANCH  28  29
HETATM   29  C2  UNL     1       0.425  53.278 -25.485  1.00  0.00     0.281 C 
HETATM   30  O2  UNL     1       1.374  52.894 -26.160  1.00  0.00    -0.263 OA
BRANCH  29  31
HETATM   31  O1  UNL     1      -0.178  54.497 -25.628  1.00  0.00    -0.325 OA
HETATM   32  C1  UNL     1       0.600  55.595 -25.146  1.00  0.00     0.213 C 
ENDBRANCH  29  31
ENDBRANCH  28  29
BRANCH  28  33
HETATM   33  C4  UNL     1      -1.786  52.464 -24.639  1.00  0.00     0.093 C 
BRANCH  33  34
HETATM   34  C5  UNL     1      -2.205  51.715 -25.860  1.00  0.00     0.028 A 
HETATM   35  C6  UNL     1      -2.555  52.144 -27.124  1.00  0.00     0.114 A 
HETATM   36  N1  UNL     1      -2.882  51.084 -27.927  1.00  0.00    -0.360 N 
HETATM   37  C7  UNL     1      -2.725  50.018 -27.176  1.00  0.00     0.180 A 
ATOM     38  H1  UNL     1      -3.182  51.116 -28.901  1.00  0.00     0.166 HD
HETATM   39  N2  UNL     1      -2.317  50.348 -25.916  1.00  0.00    -0.354 N 
HETATM   40  H9  UNL     1      -2.090  49.692 -25.171  1.00  0.00     0.166 HD
ENDBRANCH  33  34
ENDBRANCH  28  33
ENDBRANCH  25  28
ENDBRANCH  23  24
ENDBRANCH  22  23
ENDBRANCH   1  22
BRANCH  10  41
HETATM   41  O5  UNL     1      -2.414  51.941 -13.557  1.00  0.00    -0.395 OA
HETATM   42  H21 UNL     1      -2.852  51.334 -12.942  1.00  0.00     0.210 HD
ENDBRANCH  10  41
BRANCH  17  43
HETATM   43  O6  UNL     1      -1.058  53.948  -9.273  1.00  0.00    -0.381 OA
HETATM   44  H32 UNL     1      -1.793  54.053  -8.628  1.00  0.00     0.211 HD
ENDBRANCH  17  43
BRANCH  17  45
HETATM   45  C25 UNL     1      -1.240  52.032  -7.881  1.00  0.00     0.184 C 
HETATM   46  O7  UNL     1      -1.631  50.855  -7.842  1.00  0.00    -0.292 OA
BRANCH  45  47
HETATM   47  C26 UNL     1      -1.415  52.927  -6.663  1.00  0.00     0.245 C 
BRANCH  47  48
HETATM   48  O8  UNL     1      -1.389  52.175  -5.459  1.00  0.00    -0.393 OA
HETATM   49  H35 UNL     1      -1.547  51.238  -5.705  1.00  0.00     0.209 HD
ENDBRANCH  47  48
ENDBRANCH  45  47
ENDBRANCH  17  45
TORSDOF 13
ENDMDL
MODEL 9
REMARK minimizedAffinity -8.83132648
REMARK CNNscore 0.33201009
REMARK CNNaffinity 6.90052652
REMARK  13 active torsions:
REMARK  status: ('A' for Active; 'I' for Inactive)
REMARK    1  A    between atoms: O1_2  and  C2_3 
REMARK    2  A    between atoms: C2_3  and  C3_5 
REMARK    3  A    between atoms: C3_5  and  C4_6 
REMARK    4  A    between atoms: C3_5  and  N3_13 
REMARK    5  A    between atoms: C4_6  and  C5_7 
REMARK       I    between atoms: N3_13  and  C8_14 
REMARK    6  A    between atoms: C8_14  and  C9_16 
REMARK    7  A    between atoms: C9_16  and  O4_17 
REMARK    8  A    between atoms: O4_17  and  N4_18 
REMARK    9  A    between atoms: C17_27  and  O5_28 
REMARK   10  A    between atoms: C24_35  and  O6_36 
REMARK   11  A    between atoms: C24_35  and  C25_37 
REMARK   12  A    between atoms: C25_37  and  C26_39 
REMARK   13  A    between atoms: C26_39  and  O8_40 
ROOT
HETATM    1  N4  UNL     1      -2.958  50.671 -16.496  1.00  0.00    -0.271 N 
ATOM      2  H4  UNL     1      -3.958  50.664 -16.292  1.00  0.00     0.194 HD
HETATM    3  C10 UNL     1      -2.448  50.422 -17.668  1.00  0.00     0.032 C 
HETATM    4  C11 UNL     1      -3.388  50.046 -18.757  1.00  0.00     0.030 C 
HETATM    5  C12 UNL     1      -2.959  49.707 -19.986  1.00  0.00    -0.069 C 
HETATM    6  C13 UNL     1      -3.941  49.131 -20.977  1.00  0.00     0.035 C 
HETATM    7  C14 UNL     1      -3.770  49.661 -22.401  1.00  0.00     0.010 C 
HETATM    8  C15 UNL     1      -2.307  49.529 -22.871  1.00  0.00    -0.002 C 
HETATM    9  C16 UNL     1      -1.374  50.317 -21.914  1.00  0.00     0.031 C 
HETATM   10  C17 UNL     1      -1.623  51.842 -22.079  1.00  0.00     0.124 C 
HETATM   11  C18 UNL     1      -2.108  52.291 -23.468  1.00  0.00     0.045 C 
HETATM   12  C19 UNL     1      -1.700  51.387 -24.663  1.00  0.00     0.001 C 
HETATM   13  C20 UNL     1      -0.192  51.594 -24.926  1.00  0.00     0.019 C 
HETATM   14  C21 UNL     1      -1.999  49.883 -24.355  1.00  0.00     0.002 C 
HETATM   15  C22 UNL     1      -3.076  49.428 -25.353  1.00  0.00     0.009 C 
HETATM   16  C23 UNL     1      -3.703  50.702 -25.887  1.00  0.00     0.047 C 
HETATM   17  C24 UNL     1      -2.556  51.711 -25.941  1.00  0.00     0.128 C 
HETATM   18  C27 UNL     1      -1.495  49.796 -20.418  1.00  0.00    -0.014 C 
HETATM   19  C28 UNL     1      -0.880  48.373 -20.325  1.00  0.00     0.020 C 
HETATM   20  C29 UNL     1      -0.714  50.718 -19.438  1.00  0.00     0.020 C 
HETATM   21  C30 UNL     1      -0.962  50.408 -17.967  1.00  0.00     0.060 C 
ENDROOT
BRANCH   1  22
HETATM   22  O4  UNL     1      -1.963  50.951 -15.549  1.00  0.00    -0.271 OA
BRANCH  22  23
HETATM   23  C9  UNL     1      -2.577  51.215 -14.293  1.00  0.00     0.303 C 
BRANCH  23  24
HETATM   24  C8  UNL     1      -1.478  51.285 -13.245  1.00  0.00     0.244 C 
HETATM   25  N3  UNL     1      -0.823  52.492 -13.211  1.00  0.00    -0.345 N 
HETATM   26  H10 UNL     1      -1.039  53.174 -13.934  1.00  0.00     0.163 HD
HETATM   27  O3  UNL     1      -1.220  50.353 -12.483  1.00  0.00    -0.271 OA
BRANCH  25  28
HETATM   28  C3  UNL     1       0.245  52.830 -12.261  1.00  0.00     0.190 C 
BRANCH  28  29
HETATM   29  C2  UNL     1       0.996  51.564 -11.813  1.00  0.00     0.281 C 
HETATM   30  O2  UNL     1       0.936  51.090 -10.684  1.00  0.00    -0.263 OA
BRANCH  29  31
HETATM   31  O1  UNL     1       1.708  51.014 -12.842  1.00  0.00    -0.325 OA
HETATM   32  C1  UNL     1       2.795  51.822 -13.300  1.00  0.00     0.213 C 
ENDBRANCH  29  31
ENDBRANCH  28  29
BRANCH  28  33
HETATM   33  C4  UNL     1      -0.302  53.548 -11.011  1.00  0.00     0.093 C 
BRANCH  33  34
HETATM   34  C5  UNL     1      -1.760  53.318 -10.790  1.00  0.00     0.028 A 
HETATM   35  C6  UNL     1      -2.438  52.364 -10.059  1.00  0.00     0.114 A 
HETATM   36  N1  UNL     1      -3.791  52.543 -10.157  1.00  0.00    -0.360 N 
HETATM   37  C7  UNL     1      -3.949  53.595 -10.927  1.00  0.00     0.180 A 
ATOM     38  H1  UNL     1      -4.522  51.978  -9.725  1.00  0.00     0.166 HD
HETATM   39  N2  UNL     1      -2.748  54.100 -11.336  1.00  0.00    -0.354 N 
HETATM   40  H9  UNL     1      -2.614  54.935 -11.903  1.00  0.00     0.166 HD
ENDBRANCH  33  34
ENDBRANCH  28  33
ENDBRANCH  25  28
ENDBRANCH  23  24
ENDBRANCH  22  23
ENDBRANCH   1  22
BRANCH  10  41
HETATM   41  O5  UNL     1      -0.444  52.575 -21.737  1.00  0.00    -0.395 OA
HETATM   42  H21 UNL     1       0.239  52.419 -22.406  1.00  0.00     0.210 HD
ENDBRANCH  10  41
BRANCH  17  43
HETATM   43  O6  UNL     1      -3.145  53.020 -25.827  1.00  0.00    -0.381 OA
HETATM   44  H32 UNL     1      -2.736  53.585 -26.519  1.00  0.00     0.211 HD
ENDBRANCH  17  43
BRANCH  17  45
HETATM   45  C25 UNL     1      -1.816  51.718 -27.304  1.00  0.00     0.184 C 
HETATM   46  O7  UNL     1      -1.830  50.702 -28.017  1.00  0.00    -0.292 OA
BRANCH  45  47
HETATM   47  C26 UNL     1      -1.054  52.952 -27.762  1.00  0.00     0.245 C 
BRANCH  47  48
HETATM   48  O8  UNL     1      -1.929  53.935 -28.294  1.00  0.00    -0.393 OA
HETATM   49  H35 UNL     1      -2.774  53.481 -28.501  1.00  0.00     0.209 HD
ENDBRANCH  47  48
ENDBRANCH  45  47
ENDBRANCH  17  45
TORSDOF 13
ENDMDL
