MODEL 1
REMARK minimizedAffinity -9.71134567
REMARK  6 active torsions:
REMARK  status: ('A' for Active; 'I' for Inactive)
REMARK    1  A    between atoms: C4_4  and  C5_5 
REMARK    2  A    between atoms: C5_5  and  O1_6 
REMARK    3  A    between atoms: C5_5  and  C6_7 
REMARK    4  A    between atoms: C6_7  and  C7_8 
REMARK    5  A    between atoms: C7_8  and  C9_10 
REMARK    6  A    between atoms: C30_32  and  O3_33 
ROOT
HETATM    1  C9  UNL     1      -5.169   6.915  15.103  1.00  0.00    -0.002 C 
HETATM    2  C10 UNL     1      -5.528   8.281  14.449  1.00  0.00     0.007 C 
HETATM    3  C11 UNL     1      -4.250   8.834  13.789  1.00  0.00     0.015 C 
HETATM    4  C12 UNL     1      -3.108   7.961  14.332  1.00  0.00    -0.010 C 
HETATM    5  C13 UNL     1      -2.706   8.562  15.717  1.00  0.00     0.021 C 
HETATM    6  C14 UNL     1      -1.790   7.861  13.560  1.00  0.00    -0.039 C 
HETATM    7  C15 UNL     1      -1.026   6.739  13.659  1.00  0.00    -0.066 C 
HETATM    8  C16 UNL     1      -1.497   5.525  14.474  1.00  0.00     0.036 C 
HETATM    9  C17 UNL     1      -2.881   5.608  15.149  1.00  0.00     0.015 C 
HETATM   10  C18 UNL     1      -3.823   6.556  14.397  1.00  0.00    -0.029 C 
HETATM   11  C19 UNL     1      -4.126   5.962  12.986  1.00  0.00     0.016 C 
HETATM   12  C20 UNL     1       0.369   6.617  12.981  1.00  0.00    -0.015 C 
HETATM   13  C21 UNL     1       1.417   6.716  14.118  1.00  0.00     0.020 C 
HETATM   14  C22 UNL     1       0.514   5.244  12.267  1.00  0.00     0.021 C 
HETATM   15  C23 UNL     1       1.562   5.176  11.157  1.00  0.00     0.080 C 
HETATM   16  C24 UNL     1       2.555   6.312  11.204  1.00  0.00     0.135 C 
HETATM   17  O2  UNL     1       3.764   6.087  11.165  1.00  0.00    -0.297 OA
HETATM   18  C25 UNL     1       1.982   7.735  11.205  1.00  0.00     0.018 C 
HETATM   19  C26 UNL     1       2.992   8.701  11.860  1.00  0.00     0.023 C 
HETATM   20  C27 UNL     1       1.839   8.156   9.727  1.00  0.00     0.023 C 
HETATM   21  C28 UNL     1       0.567   7.727  11.888  1.00  0.00     0.016 C 
HETATM   22  C29 UNL     1       0.127   9.101  12.421  1.00  0.00     0.043 C 
HETATM   23  C30 UNL     1      -1.354   9.092  12.798  1.00  0.00     0.148 C 
ENDROOT
BRANCH   1  24
HETATM   24  C7  UNL     1      -6.367   5.916  15.083  1.00  0.00    -0.011 C 
HETATM   25  C8  UNL     1      -7.708   6.615  15.350  1.00  0.00     0.010 C 
BRANCH  24  26
HETATM   26  C6  UNL     1      -6.474   5.187  13.706  1.00  0.00     0.040 C 
BRANCH  26  27
HETATM   27  C5  UNL     1      -7.615   4.155  13.613  1.00  0.00     0.141 C 
BRANCH  27  28
HETATM   28  C4  UNL     1      -7.328   3.126  12.547  1.00  0.00     0.006 C 
HETATM   29  C2  UNL     1      -6.117   2.730  12.097  1.00  0.00    -0.089 C 
HETATM   30  C1  UNL     1      -6.003   1.717  10.988  1.00  0.00     0.042 C 
HETATM   31  C3  UNL     1      -4.797   3.218  12.636  1.00  0.00     0.042 C 
ENDBRANCH  27  28
BRANCH  27  32
HETATM   32  O1  UNL     1      -8.829   4.829  13.288  1.00  0.00    -0.392 OA
HETATM   33  H9  UNL     1      -9.185   4.421  12.473  1.00  0.00     0.210 HD
ENDBRANCH  27  32
ENDBRANCH  26  27
ENDBRANCH  24  26
ENDBRANCH   1  24
BRANCH  23  34
HETATM   34  O3  UNL     1      -2.113   9.185  11.595  1.00  0.00    -0.391 OA
HETATM   35  H48 UNL     1      -2.361   8.280  11.335  1.00  0.00     0.210 HD
ENDBRANCH  23  34
TORSDOF 6
ENDMDL
MODEL 2
REMARK minimizedAffinity -9.47337627
REMARK  6 active torsions:
REMARK  status: ('A' for Active; 'I' for Inactive)
REMARK    1  A    between atoms: C4_4  and  C5_5 
REMARK    2  A    between atoms: C5_5  and  O1_6 
REMARK    3  A    between atoms: C5_5  and  C6_7 
REMARK    4  A    between atoms: C6_7  and  C7_8 
REMARK    5  A    between atoms: C7_8  and  C9_10 
REMARK    6  A    between atoms: C30_32  and  O3_33 
ROOT
HETATM    1  C9  UNL     1      -3.441   5.707  12.691  1.00  0.00    -0.002 C 
HETATM    2  C10 UNL     1      -2.067   5.029  12.964  1.00  0.00     0.007 C 
HETATM    3  C11 UNL     1      -1.231   5.994  13.826  1.00  0.00     0.015 C 
HETATM    4  C12 UNL     1      -1.985   7.332  13.776  1.00  0.00    -0.010 C 
HETATM    5  C13 UNL     1      -1.536   8.048  12.462  1.00  0.00     0.021 C 
HETATM    6  C14 UNL     1      -1.764   8.375  14.875  1.00  0.00    -0.039 C 
HETATM    7  C15 UNL     1      -2.756   9.252  15.190  1.00  0.00    -0.066 C 
HETATM    8  C16 UNL     1      -4.134   9.171  14.516  1.00  0.00     0.036 C 
HETATM    9  C17 UNL     1      -4.367   8.040  13.495  1.00  0.00     0.015 C 
HETATM   10  C18 UNL     1      -3.479   6.824  13.782  1.00  0.00    -0.029 C 
HETATM   11  C19 UNL     1      -3.901   6.194  15.146  1.00  0.00     0.016 C 
HETATM   12  C20 UNL     1      -2.558  10.398  16.224  1.00  0.00    -0.015 C 
HETATM   13  C21 UNL     1      -2.464  11.711  15.409  1.00  0.00     0.020 C 
HETATM   14  C22 UNL     1      -3.773  10.479  17.191  1.00  0.00     0.021 C 
HETATM   15  C23 UNL     1      -3.515  11.164  18.532  1.00  0.00     0.080 C 
HETATM   16  C24 UNL     1      -2.257  11.998  18.543  1.00  0.00     0.135 C 
HETATM   17  O2  UNL     1      -2.282  13.162  18.942  1.00  0.00    -0.297 OA
HETATM   18  C25 UNL     1      -0.956  11.298  18.129  1.00  0.00     0.018 C 
HETATM   19  C26 UNL     1       0.049  12.342  17.600  1.00  0.00     0.023 C 
HETATM   20  C27 UNL     1      -0.353  10.691  19.412  1.00  0.00     0.023 C 
HETATM   21  C28 UNL     1      -1.285  10.150  17.108  1.00  0.00     0.016 C 
HETATM   22  C29 UNL     1      -0.088   9.734  16.235  1.00  0.00     0.043 C 
HETATM   23  C30 UNL     1      -0.384   8.435  15.486  1.00  0.00     0.148 C 
ENDROOT
BRANCH   1  24
HETATM   24  C7  UNL     1      -4.601   4.671  12.575  1.00  0.00    -0.011 C 
HETATM   25  C8  UNL     1      -4.084   3.225  12.545  1.00  0.00     0.010 C 
BRANCH  24  26
HETATM   26  C6  UNL     1      -5.596   4.798  13.771  1.00  0.00     0.040 C 
BRANCH  26  27
HETATM   27  C5  UNL     1      -6.930   4.049  13.579  1.00  0.00     0.141 C 
BRANCH  27  28
HETATM   28  C4  UNL     1      -7.697   4.602  12.403  1.00  0.00     0.006 C 
HETATM   29  C2  UNL     1      -8.553   5.647  12.403  1.00  0.00    -0.089 C 
HETATM   30  C1  UNL     1      -9.278   6.047  11.144  1.00  0.00     0.042 C 
HETATM   31  C3  UNL     1      -8.858   6.510  13.600  1.00  0.00     0.042 C 
ENDBRANCH  27  28
BRANCH  27  32
HETATM   32  O1  UNL     1      -7.721   4.196  14.755  1.00  0.00    -0.392 OA
HETATM   33  H9  UNL     1      -8.579   4.585  14.489  1.00  0.00     0.210 HD
ENDBRANCH  27  32
ENDBRANCH  26  27
ENDBRANCH  24  26
ENDBRANCH   1  24
BRANCH  23  34
HETATM   34  O3  UNL     1      -0.236   7.356  16.406  1.00  0.00    -0.391 OA
HETATM   35  H48 UNL     1      -1.120   7.145  16.752  1.00  0.00     0.210 HD
ENDBRANCH  23  34
TORSDOF 6
ENDMDL
MODEL 3
REMARK minimizedAffinity -9.36932373
REMARK  6 active torsions:
REMARK  status: ('A' for Active; 'I' for Inactive)
REMARK    1  A    between atoms: C4_4  and  C5_5 
REMARK    2  A    between atoms: C5_5  and  O1_6 
REMARK    3  A    between atoms: C5_5  and  C6_7 
REMARK    4  A    between atoms: C6_7  and  C7_8 
REMARK    5  A    between atoms: C7_8  and  C9_10 
REMARK    6  A    between atoms: C30_32  and  O3_33 
ROOT
HETATM    1  C9  UNL     1      -4.814   5.408  13.905  1.00  0.00    -0.002 C 
HETATM    2  C10 UNL     1      -5.532   4.547  12.824  1.00  0.00     0.007 C 
HETATM    3  C11 UNL     1      -7.029   4.912  12.854  1.00  0.00     0.015 C 
HETATM    4  C12 UNL     1      -7.218   5.726  14.143  1.00  0.00    -0.010 C 
HETATM    5  C13 UNL     1      -7.402   4.692  15.300  1.00  0.00     0.021 C 
HETATM    6  C14 UNL     1      -8.414   6.672  14.280  1.00  0.00    -0.039 C 
HETATM    7  C15 UNL     1      -8.325   7.771  15.078  1.00  0.00    -0.066 C 
HETATM    8  C16 UNL     1      -7.013   8.132  15.790  1.00  0.00     0.036 C 
HETATM    9  C17 UNL     1      -5.790   7.226  15.545  1.00  0.00     0.015 C 
HETATM   10  C18 UNL     1      -5.863   6.533  14.179  1.00  0.00    -0.029 C 
HETATM   11  C19 UNL     1      -5.766   7.609  13.054  1.00  0.00     0.016 C 
HETATM   12  C20 UNL     1      -9.535   8.714  15.337  1.00  0.00    -0.015 C 
HETATM   13  C21 UNL     1     -10.006   8.432  16.786  1.00  0.00     0.020 C 
HETATM   14  C22 UNL     1      -9.106  10.203  15.218  1.00  0.00     0.021 C 
HETATM   15  C23 UNL     1     -10.227  11.201  14.931  1.00  0.00     0.080 C 
HETATM   16  C24 UNL     1     -11.604  10.646  15.208  1.00  0.00     0.135 C 
HETATM   17  O2  UNL     1     -12.403  11.276  15.900  1.00  0.00    -0.297 OA
HETATM   18  C25 UNL     1     -11.974   9.329  14.514  1.00  0.00     0.018 C 
HETATM   19  C26 UNL     1     -13.065   8.603  15.328  1.00  0.00     0.023 C 
HETATM   20  C27 UNL     1     -12.593   9.705  13.152  1.00  0.00     0.023 C 
HETATM   21  C28 UNL     1     -10.674   8.478  14.282  1.00  0.00     0.016 C 
HETATM   22  C29 UNL     1     -10.940   6.975  14.095  1.00  0.00     0.043 C 
HETATM   23  C30 UNL     1      -9.691   6.257  13.586  1.00  0.00     0.148 C 
ENDROOT
BRANCH   1  24
HETATM   24  C7  UNL     1      -3.352   5.768  13.500  1.00  0.00    -0.011 C 
HETATM   25  C8  UNL     1      -3.214   7.238  13.076  1.00  0.00     0.010 C 
BRANCH  24  26
HETATM   26  C6  UNL     1      -2.358   5.515  14.677  1.00  0.00     0.040 C 
BRANCH  26  27
HETATM   27  C5  UNL     1      -0.960   6.134  14.483  1.00  0.00     0.141 C 
BRANCH  27  28
HETATM   28  C4  UNL     1      -0.143   5.329  13.502  1.00  0.00     0.006 C 
HETATM   29  C2  UNL     1       0.338   5.740  12.308  1.00  0.00    -0.089 C 
HETATM   30  C1  UNL     1       1.103   4.793  11.421  1.00  0.00     0.042 C 
HETATM   31  C3  UNL     1       0.190   7.133  11.754  1.00  0.00     0.042 C 
ENDBRANCH  27  28
BRANCH  27  32
HETATM   32  O1  UNL     1      -0.282   6.158  15.736  1.00  0.00    -0.392 OA
HETATM   33  H9  UNL     1       0.563   5.676  15.626  1.00  0.00     0.210 HD
ENDBRANCH  27  32
ENDBRANCH  26  27
ENDBRANCH  24  26
ENDBRANCH   1  24
BRANCH  23  34
HETATM   34  O3  UNL     1      -9.569   6.528  12.191  1.00  0.00    -0.391 OA
HETATM   35  H48 UNL     1      -8.957   7.278  12.092  1.00  0.00     0.210 HD
ENDBRANCH  23  34
TORSDOF 6
ENDMDL
MODEL 4
REMARK minimizedAffinity -9.30696201
REMARK  6 active torsions:
REMARK  status: ('A' for Active; 'I' for Inactive)
REMARK    1  A    between atoms: C4_4  and  C5_5 
REMARK    2  A    between atoms: C5_5  and  O1_6 
REMARK    3  A    between atoms: C5_5  and  C6_7 
REMARK    4  A    between atoms: C6_7  and  C7_8 
REMARK    5  A    between atoms: C7_8  and  C9_10 
REMARK    6  A    between atoms: C30_32  and  O3_33 
ROOT
HETATM    1  C9  UNL     1       1.290   6.678  12.212  1.00  0.00    -0.002 C 
HETATM    2  C10 UNL     1       1.241   5.434  11.278  1.00  0.00     0.007 C 
HETATM    3  C11 UNL     1      -0.137   4.767  11.459  1.00  0.00     0.015 C 
HETATM    4  C12 UNL     1      -0.741   5.427  12.709  1.00  0.00    -0.010 C 
HETATM    5  C13 UNL     1      -0.160   4.663  13.941  1.00  0.00     0.021 C 
HETATM    6  C14 UNL     1      -2.256   5.408  12.925  1.00  0.00    -0.039 C 
HETATM    7  C15 UNL     1      -2.855   6.402  13.636  1.00  0.00    -0.066 C 
HETATM    8  C16 UNL     1      -2.048   7.597  14.166  1.00  0.00     0.036 C 
HETATM    9  C17 UNL     1      -0.543   7.650  13.837  1.00  0.00     0.015 C 
HETATM   10  C18 UNL     1      -0.221   6.906  12.535  1.00  0.00    -0.029 C 
HETATM   11  C19 UNL     1      -0.895   7.651  11.341  1.00  0.00     0.016 C 
HETATM   12  C20 UNL     1      -4.373   6.387  13.975  1.00  0.00    -0.015 C 
HETATM   13  C21 UNL     1      -4.480   6.052  15.484  1.00  0.00     0.020 C 
HETATM   14  C22 UNL     1      -5.008   7.782  13.714  1.00  0.00     0.021 C 
HETATM   15  C23 UNL     1      -6.520   7.798  13.498  1.00  0.00     0.080 C 
HETATM   16  C24 UNL     1      -7.203   6.536  13.967  1.00  0.00     0.135 C 
HETATM   17  O2  UNL     1      -8.184   6.595  14.708  1.00  0.00    -0.297 OA
HETATM   18  C25 UNL     1      -6.674   5.210  13.406  1.00  0.00     0.018 C 
HETATM   19  C26 UNL     1      -7.002   4.064  14.385  1.00  0.00     0.023 C 
HETATM   20  C27 UNL     1      -7.457   4.938  12.104  1.00  0.00     0.023 C 
HETATM   21  C28 UNL     1      -5.145   5.356  13.077  1.00  0.00     0.016 C 
HETATM   22  C29 UNL     1      -4.392   4.016  13.017  1.00  0.00     0.043 C 
HETATM   23  C30 UNL     1      -3.000   4.197  12.411  1.00  0.00     0.148 C 
ENDROOT
BRANCH   1  24
HETATM   24  C7  UNL     1       2.157   7.830  11.617  1.00  0.00    -0.011 C 
HETATM   25  C8  UNL     1       2.030   9.128  12.428  1.00  0.00     0.010 C 
BRANCH  24  26
HETATM   26  C6  UNL     1       3.668   7.439  11.574  1.00  0.00     0.040 C 
BRANCH  26  27
HETATM   27  C5  UNL     1       4.262   7.328  10.156  1.00  0.00     0.141 C 
BRANCH  27  28
HETATM   28  C4  UNL     1       3.257   7.752   9.112  1.00  0.00     0.006 C 
HETATM   29  C2  UNL     1       2.685   6.976   8.166  1.00  0.00    -0.089 C 
HETATM   30  C1  UNL     1       1.728   7.567   7.164  1.00  0.00     0.042 C 
HETATM   31  C3  UNL     1       2.908   5.494   8.017  1.00  0.00     0.042 C 
ENDBRANCH  27  28
BRANCH  27  32
HETATM   32  O1  UNL     1       4.637   5.974   9.911  1.00  0.00    -0.392 OA
HETATM   33  H9  UNL     1       4.172   5.680   9.102  1.00  0.00     0.210 HD
ENDBRANCH  27  32
ENDBRANCH  26  27
ENDBRANCH  24  26
ENDBRANCH   1  24
BRANCH  23  34
HETATM   34  O3  UNL     1      -3.150   4.310  10.998  1.00  0.00    -0.391 OA
HETATM   35  H48 UNL     1      -3.169   5.258  10.781  1.00  0.00     0.210 HD
ENDBRANCH  23  34
TORSDOF 6
ENDMDL
MODEL 5
REMARK minimizedAffinity -9.22191715
REMARK  6 active torsions:
REMARK  status: ('A' for Active; 'I' for Inactive)
REMARK    1  A    between atoms: C4_4  and  C5_5 
REMARK    2  A    between atoms: C5_5  and  O1_6 
REMARK    3  A    between atoms: C5_5  and  C6_7 
REMARK    4  A    between atoms: C6_7  and  C7_8 
REMARK    5  A    between atoms: C7_8  and  C9_10 
REMARK    6  A    between atoms: C30_32  and  O3_33 
ROOT
HETATM    1  C9  UNL     1      -5.029   5.109  13.808  1.00  0.00    -0.002 C 
HETATM    2  C10 UNL     1      -5.819   4.310  12.731  1.00  0.00     0.007 C 
HETATM    3  C11 UNL     1      -7.296   4.743  12.816  1.00  0.00     0.015 C 
HETATM    4  C12 UNL     1      -7.407   5.531  14.130  1.00  0.00    -0.010 C 
HETATM    5  C13 UNL     1      -7.604   4.478  15.267  1.00  0.00     0.021 C 
HETATM    6  C14 UNL     1      -8.552   6.528  14.327  1.00  0.00    -0.039 C 
HETATM    7  C15 UNL     1      -8.387   7.602  15.147  1.00  0.00    -0.066 C 
HETATM    8  C16 UNL     1      -7.038   7.884  15.827  1.00  0.00     0.036 C 
HETATM    9  C17 UNL     1      -5.868   6.928  15.521  1.00  0.00     0.015 C 
HETATM   10  C18 UNL     1      -6.015   6.274  14.141  1.00  0.00    -0.029 C 
HETATM   11  C19 UNL     1      -5.902   7.373  13.040  1.00  0.00     0.016 C 
HETATM   12  C20 UNL     1      -9.543   8.593  15.468  1.00  0.00    -0.015 C 
HETATM   13  C21 UNL     1      -9.982   8.297  16.923  1.00  0.00     0.020 C 
HETATM   14  C22 UNL     1      -9.048  10.064  15.370  1.00  0.00     0.021 C 
HETATM   15  C23 UNL     1     -10.129  11.119  15.143  1.00  0.00     0.080 C 
HETATM   16  C24 UNL     1     -11.521  10.622  15.450  1.00  0.00     0.135 C 
HETATM   17  O2  UNL     1     -12.268  11.270  16.182  1.00  0.00    -0.297 OA
HETATM   18  C25 UNL     1     -11.974   9.341  14.737  1.00  0.00     0.018 C 
HETATM   19  C26 UNL     1     -13.073   8.646  15.568  1.00  0.00     0.023 C 
HETATM   20  C27 UNL     1     -12.617   9.780  13.405  1.00  0.00     0.023 C 
HETATM   21  C28 UNL     1     -10.723   8.437  14.444  1.00  0.00     0.016 C 
HETATM   22  C29 UNL     1     -11.066   6.953  14.230  1.00  0.00     0.043 C 
HETATM   23  C30 UNL     1      -9.868   6.191  13.664  1.00  0.00     0.148 C 
ENDROOT
BRANCH   1  24
HETATM   24  C7  UNL     1      -3.565   5.411  13.365  1.00  0.00    -0.011 C 
HETATM   25  C8  UNL     1      -2.713   5.963  14.518  1.00  0.00     0.010 C 
BRANCH  24  26
HETATM   26  C6  UNL     1      -2.860   4.127  12.823  1.00  0.00     0.040 C 
BRANCH  26  27
HETATM   27  C5  UNL     1      -1.968   4.358  11.587  1.00  0.00     0.141 C 
BRANCH  27  28
HETATM   28  C4  UNL     1      -1.337   3.066  11.126  1.00  0.00     0.006 C 
HETATM   29  C2  UNL     1      -1.887   1.832  11.154  1.00  0.00    -0.089 C 
HETATM   30  C1  UNL     1      -1.102   0.631  10.695  1.00  0.00     0.042 C 
HETATM   31  C3  UNL     1      -3.290   1.525  11.608  1.00  0.00     0.042 C 
ENDBRANCH  27  28
BRANCH  27  32
HETATM   32  O1  UNL     1      -0.935   5.281  11.922  1.00  0.00    -0.392 OA
HETATM   33  H9  UNL     1      -0.078   4.850  11.730  1.00  0.00     0.210 HD
ENDBRANCH  27  32
ENDBRANCH  26  27
ENDBRANCH  24  26
ENDBRANCH   1  24
BRANCH  23  34
HETATM   34  O3  UNL     1      -9.776   6.491  12.273  1.00  0.00    -0.391 OA
HETATM   35  H48 UNL     1      -9.133   7.214  12.173  1.00  0.00     0.210 HD
ENDBRANCH  23  34
TORSDOF 6
ENDMDL
MODEL 6
REMARK minimizedAffinity -9.07997894
REMARK  6 active torsions:
REMARK  status: ('A' for Active; 'I' for Inactive)
REMARK    1  A    between atoms: C4_4  and  C5_5 
REMARK    2  A    between atoms: C5_5  and  O1_6 
REMARK    3  A    between atoms: C5_5  and  C6_7 
REMARK    4  A    between atoms: C6_7  and  C7_8 
REMARK    5  A    between atoms: C7_8  and  C9_10 
REMARK    6  A    between atoms: C30_32  and  O3_33 
ROOT
HETATM    1  C9  UNL     1      -1.497   6.062  12.195  1.00  0.00    -0.002 C 
HETATM    2  C10 UNL     1      -0.936   5.122  11.088  1.00  0.00     0.007 C 
HETATM    3  C11 UNL     1       0.518   5.548  10.805  1.00  0.00     0.015 C 
HETATM    4  C12 UNL     1       0.680   6.908  11.500  1.00  0.00    -0.010 C 
HETATM    5  C13 UNL     1       0.126   7.984  10.512  1.00  0.00     0.021 C 
HETATM    6  C14 UNL     1       2.076   7.413  11.873  1.00  0.00    -0.039 C 
HETATM    7  C15 UNL     1       2.236   8.253  12.932  1.00  0.00    -0.066 C 
HETATM    8  C16 UNL     1       1.047   8.651  13.819  1.00  0.00     0.036 C 
HETATM    9  C17 UNL     1      -0.329   8.037  13.491  1.00  0.00     0.015 C 
HETATM   10  C18 UNL     1      -0.193   6.678  12.795  1.00  0.00    -0.029 C 
HETATM   11  C19 UNL     1       0.448   5.658  13.787  1.00  0.00     0.016 C 
HETATM   12  C20 UNL     1       3.612   8.880  13.299  1.00  0.00    -0.015 C 
HETATM   13  C21 UNL     1       3.538  10.371  12.885  1.00  0.00     0.020 C 
HETATM   14  C22 UNL     1       3.868   8.785  14.830  1.00  0.00     0.021 C 
HETATM   15  C23 UNL     1       5.329   8.866  15.269  1.00  0.00     0.080 C 
HETATM   16  C24 UNL     1       6.242   9.425  14.204  1.00  0.00     0.135 C 
HETATM   17  O2  UNL     1       7.019  10.342  14.466  1.00  0.00    -0.297 OA
HETATM   18  C25 UNL     1       6.214   8.735  12.834  1.00  0.00     0.018 C 
HETATM   19  C26 UNL     1       6.669   9.728  11.744  1.00  0.00     0.023 C 
HETATM   20  C27 UNL     1       7.261   7.603  12.888  1.00  0.00     0.023 C 
HETATM   21  C28 UNL     1       4.789   8.121  12.589  1.00  0.00     0.016 C 
HETATM   22  C29 UNL     1       4.464   7.879  11.105  1.00  0.00     0.043 C 
HETATM   23  C30 UNL     1       3.209   7.020  10.953  1.00  0.00     0.148 C 
ENDROOT
BRANCH   1  24
HETATM   24  C7  UNL     1      -2.530   5.342  13.115  1.00  0.00    -0.011 C 
HETATM   25  C8  UNL     1      -3.805   6.175  13.316  1.00  0.00     0.010 C 
BRANCH  24  26
HETATM   26  C6  UNL     1      -2.951   3.960  12.522  1.00  0.00     0.040 C 
BRANCH  26  27
HETATM   27  C5  UNL     1      -4.152   4.014  11.558  1.00  0.00     0.141 C 
BRANCH  27  28
HETATM   28  C4  UNL     1      -5.440   3.700  12.280  1.00  0.00     0.006 C 
HETATM   29  C2  UNL     1      -6.238   2.624  12.099  1.00  0.00    -0.089 C 
HETATM   30  C1  UNL     1      -7.522   2.481  12.873  1.00  0.00     0.042 C 
HETATM   31  C3  UNL     1      -5.944   1.484  11.159  1.00  0.00     0.042 C 
ENDBRANCH  27  28
BRANCH  27  32
HETATM   32  O1  UNL     1      -3.961   3.056  10.520  1.00  0.00    -0.392 OA
HETATM   33  H9  UNL     1      -4.738   2.461  10.518  1.00  0.00     0.210 HD
ENDBRANCH  27  32
ENDBRANCH  26  27
ENDBRANCH  24  26
ENDBRANCH   1  24
BRANCH  23  34
HETATM   34  O3  UNL     1       3.571   5.666  11.214  1.00  0.00    -0.391 OA
HETATM   35  H48 UNL     1       3.362   5.484  12.147  1.00  0.00     0.210 HD
ENDBRANCH  23  34
TORSDOF 6
ENDMDL
MODEL 7
REMARK minimizedAffinity -9.02586555
REMARK  6 active torsions:
REMARK  status: ('A' for Active; 'I' for Inactive)
REMARK    1  A    between atoms: C4_4  and  C5_5 
REMARK    2  A    between atoms: C5_5  and  O1_6 
REMARK    3  A    between atoms: C5_5  and  C6_7 
REMARK    4  A    between atoms: C6_7  and  C7_8 
REMARK    5  A    between atoms: C7_8  and  C9_10 
REMARK    6  A    between atoms: C30_32  and  O3_33 
ROOT
HETATM    1  C9  UNL     1       1.609   9.065  14.360  1.00  0.00    -0.002 C 
HETATM    2  C10 UNL     1       1.491   9.424  15.870  1.00  0.00     0.007 C 
HETATM    3  C11 UNL     1       0.006   9.307  16.264  1.00  0.00     0.015 C 
HETATM    4  C12 UNL     1      -0.755   9.199  14.934  1.00  0.00    -0.010 C 
HETATM    5  C13 UNL     1      -0.962  10.660  14.419  1.00  0.00     0.021 C 
HETATM    6  C14 UNL     1      -2.154   8.580  14.902  1.00  0.00    -0.039 C 
HETATM    7  C15 UNL     1      -2.600   7.961  13.775  1.00  0.00    -0.066 C 
HETATM    8  C16 UNL     1      -1.694   7.799  12.545  1.00  0.00     0.036 C 
HETATM    9  C17 UNL     1      -0.251   8.331  12.643  1.00  0.00     0.015 C 
HETATM   10  C18 UNL     1       0.257   8.331  14.090  1.00  0.00    -0.029 C 
HETATM   11  C19 UNL     1       0.363   6.859  14.595  1.00  0.00     0.016 C 
HETATM   12  C20 UNL     1      -4.047   7.402  13.647  1.00  0.00    -0.015 C 
HETATM   13  C21 UNL     1      -4.807   8.368  12.705  1.00  0.00     0.020 C 
HETATM   14  C22 UNL     1      -4.032   5.979  13.019  1.00  0.00     0.021 C 
HETATM   15  C23 UNL     1      -5.258   5.113  13.299  1.00  0.00     0.080 C 
HETATM   16  C24 UNL     1      -6.447   5.903  13.790  1.00  0.00     0.135 C 
HETATM   17  O2  UNL     1      -7.550   5.764  13.262  1.00  0.00    -0.297 OA
HETATM   18  C25 UNL     1      -6.228   6.796  15.018  1.00  0.00     0.018 C 
HETATM   19  C26 UNL     1      -7.258   7.945  15.014  1.00  0.00     0.023 C 
HETATM   20  C27 UNL     1      -6.520   5.924  16.257  1.00  0.00     0.023 C 
HETATM   21  C28 UNL     1      -4.733   7.275  15.054  1.00  0.00     0.016 C 
HETATM   22  C29 UNL     1      -4.509   8.550  15.885  1.00  0.00     0.043 C 
HETATM   23  C30 UNL     1      -3.019   8.792  16.124  1.00  0.00     0.148 C 
ENDROOT
BRANCH   1  24
HETATM   24  C7  UNL     1       2.967   8.377  14.020  1.00  0.00    -0.011 C 
HETATM   25  C8  UNL     1       3.579   7.670  15.238  1.00  0.00     0.010 C 
BRANCH  24  26
HETATM   26  C6  UNL     1       2.797   7.317  12.887  1.00  0.00     0.040 C 
BRANCH  26  27
HETATM   27  C5  UNL     1       3.946   7.284  11.860  1.00  0.00     0.141 C 
BRANCH  27  28
HETATM   28  C4  UNL     1       3.593   6.411  10.680  1.00  0.00     0.006 C 
HETATM   29  C2  UNL     1       3.307   6.813   9.422  1.00  0.00    -0.089 C 
HETATM   30  C1  UNL     1       2.928   5.810   8.363  1.00  0.00     0.042 C 
HETATM   31  C3  UNL     1       3.350   8.241   8.944  1.00  0.00     0.042 C 
ENDBRANCH  27  28
BRANCH  27  32
HETATM   32  O1  UNL     1       5.117   6.764  12.484  1.00  0.00    -0.392 OA
HETATM   33  H9  UNL     1       5.414   5.992  11.961  1.00  0.00     0.210 HD
ENDBRANCH  27  32
ENDBRANCH  26  27
ENDBRANCH  24  26
ENDBRANCH   1  24
BRANCH  23  34
HETATM   34  O3  UNL     1      -2.591   7.905  17.155  1.00  0.00    -0.391 OA
HETATM   35  H48 UNL     1      -2.209   7.120  16.724  1.00  0.00     0.210 HD
ENDBRANCH  23  34
TORSDOF 6
ENDMDL
MODEL 8
REMARK minimizedAffinity -8.90760899
REMARK  6 active torsions:
REMARK  status: ('A' for Active; 'I' for Inactive)
REMARK    1  A    between atoms: C4_4  and  C5_5 
REMARK    2  A    between atoms: C5_5  and  O1_6 
REMARK    3  A    between atoms: C5_5  and  C6_7 
REMARK    4  A    between atoms: C6_7  and  C7_8 
REMARK    5  A    between atoms: C7_8  and  C9_10 
REMARK    6  A    between atoms: C30_32  and  O3_33 
ROOT
HETATM    1  C9  UNL     1      -2.617   8.633  15.557  1.00  0.00    -0.002 C 
HETATM    2  C10 UNL     1      -1.624   9.625  16.230  1.00  0.00     0.007 C 
HETATM    3  C11 UNL     1      -0.250   9.440  15.557  1.00  0.00     0.015 C 
HETATM    4  C12 UNL     1      -0.374   8.145  14.741  1.00  0.00    -0.010 C 
HETATM    5  C13 UNL     1      -0.098   6.966  15.728  1.00  0.00     0.021 C 
HETATM    6  C14 UNL     1       0.572   7.890  13.565  1.00  0.00    -0.039 C 
HETATM    7  C15 UNL     1       0.169   7.116  12.521  1.00  0.00    -0.066 C 
HETATM    8  C16 UNL     1      -1.258   6.549  12.456  1.00  0.00     0.036 C 
HETATM    9  C17 UNL     1      -2.227   6.915  13.597  1.00  0.00     0.015 C 
HETATM   10  C18 UNL     1      -1.866   8.260  14.239  1.00  0.00    -0.029 C 
HETATM   11  C19 UNL     1      -2.070   9.397  13.192  1.00  0.00     0.016 C 
HETATM   12  C20 UNL     1       1.117   6.737  11.347  1.00  0.00    -0.015 C 
HETATM   13  C21 UNL     1       1.482   5.245  11.543  1.00  0.00     0.020 C 
HETATM   14  C22 UNL     1       0.397   6.914   9.980  1.00  0.00     0.021 C 
HETATM   15  C23 UNL     1       1.305   7.089   8.764  1.00  0.00     0.080 C 
HETATM   16  C24 UNL     1       2.731   6.664   9.019  1.00  0.00     0.135 C 
HETATM   17  O2  UNL     1       3.301   5.896   8.244  1.00  0.00    -0.297 OA
HETATM   18  C25 UNL     1       3.443   7.303  10.218  1.00  0.00     0.018 C 
HETATM   19  C26 UNL     1       4.572   6.373  10.708  1.00  0.00     0.023 C 
HETATM   20  C27 UNL     1       4.108   8.596   9.699  1.00  0.00     0.023 C 
HETATM   21  C28 UNL     1       2.384   7.664  11.321  1.00  0.00     0.016 C 
HETATM   22  C29 UNL     1       2.982   7.809  12.731  1.00  0.00     0.043 C 
HETATM   23  C30 UNL     1       1.974   8.442  13.689  1.00  0.00     0.148 C 
ENDROOT
BRANCH   1  24
HETATM   24  C7  UNL     1      -4.072   9.194  15.509  1.00  0.00    -0.011 C 
HETATM   25  C8  UNL     1      -4.101  10.712  15.277  1.00  0.00     0.010 C 
BRANCH  24  26
HETATM   26  C6  UNL     1      -4.902   8.521  14.370  1.00  0.00     0.040 C 
BRANCH  26  27
HETATM   27  C5  UNL     1      -5.537   7.169  14.751  1.00  0.00     0.141 C 
BRANCH  27  28
HETATM   28  C4  UNL     1      -6.761   6.891  13.912  1.00  0.00     0.006 C 
HETATM   29  C2  UNL     1      -7.101   5.722  13.325  1.00  0.00    -0.089 C 
HETATM   30  C1  UNL     1      -8.342   5.621  12.477  1.00  0.00     0.042 C 
HETATM   31  C3  UNL     1      -6.328   4.436  13.458  1.00  0.00     0.042 C 
ENDBRANCH  27  28
BRANCH  27  32
HETATM   32  O1  UNL     1      -5.919   7.203  16.124  1.00  0.00    -0.392 OA
HETATM   33  H9  UNL     1      -6.874   6.997  16.171  1.00  0.00     0.210 HD
ENDBRANCH  27  32
ENDBRANCH  26  27
ENDBRANCH  24  26
ENDBRANCH   1  24
BRANCH  23  34
HETATM   34  O3  UNL     1       1.945   9.844  13.431  1.00  0.00    -0.391 OA
HETATM   35  H48 UNL     1       1.201  10.014  12.826  1.00  0.00     0.210 HD
ENDBRANCH  23  34
TORSDOF 6
ENDMDL
MODEL 9
REMARK minimizedAffinity -8.8480978
REMARK  6 active torsions:
REMARK  status: ('A' for Active; 'I' for Inactive)
REMARK    1  A    between atoms: C4_4  and  C5_5 
REMARK    2  A    between atoms: C5_5  and  O1_6 
REMARK    3  A    between atoms: C5_5  and  C6_7 
REMARK    4  A    between atoms: C6_7  and  C7_8 
REMARK    5  A    between atoms: C7_8  and  C9_10 
REMARK    6  A    between atoms: C30_32  and  O3_33 
ROOT
HETATM    1  C9  UNL     1      -1.687   6.198  12.979  1.00  0.00    -0.002 C 
HETATM    2  C10 UNL     1      -1.574   5.322  11.698  1.00  0.00     0.007 C 
HETATM    3  C11 UNL     1      -0.195   5.592  11.065  1.00  0.00     0.015 C 
HETATM    4  C12 UNL     1       0.340   6.838  11.788  1.00  0.00    -0.010 C 
HETATM    5  C13 UNL     1      -0.283   8.075  11.066  1.00  0.00     0.021 C 
HETATM    6  C14 UNL     1       1.844   7.122  11.808  1.00  0.00    -0.039 C 
HETATM    7  C15 UNL     1       2.393   7.816  12.842  1.00  0.00    -0.066 C 
HETATM    8  C16 UNL     1       1.543   8.259  14.043  1.00  0.00     0.036 C 
HETATM    9  C17 UNL     1       0.054   7.860  14.053  1.00  0.00     0.015 C 
HETATM   10  C18 UNL     1      -0.197   6.578  13.250  1.00  0.00    -0.029 C 
HETATM   11  C19 UNL     1       0.518   5.385  13.956  1.00  0.00     0.016 C 
HETATM   12  C20 UNL     1       3.894   8.224  12.870  1.00  0.00    -0.015 C 
HETATM   13  C21 UNL     1       3.938   9.748  12.600  1.00  0.00     0.020 C 
HETATM   14  C22 UNL     1       4.516   7.931  14.264  1.00  0.00     0.021 C 
HETATM   15  C23 UNL     1       6.036   7.783  14.299  1.00  0.00     0.080 C 
HETATM   16  C24 UNL     1       6.718   8.336  13.071  1.00  0.00     0.135 C 
HETATM   17  O2  UNL     1       7.664   9.116  13.180  1.00  0.00    -0.297 OA
HETATM   18  C25 UNL     1       6.238   7.808  11.713  1.00  0.00     0.018 C 
HETATM   19  C26 UNL     1       6.540   8.850  10.615  1.00  0.00     0.023 C 
HETATM   20  C27 UNL     1       7.084   6.556  11.401  1.00  0.00     0.023 C 
HETATM   21  C28 UNL     1       4.723   7.406  11.817  1.00  0.00     0.016 C 
HETATM   22  C29 UNL     1       3.997   7.370  10.461  1.00  0.00     0.043 C 
HETATM   23  C30 UNL     1       2.631   6.695  10.591  1.00  0.00     0.148 C 
ENDROOT
BRANCH   1  24
HETATM   24  C7  UNL     1      -2.545   5.516  14.089  1.00  0.00    -0.011 C 
HETATM   25  C8  UNL     1      -3.005   6.515  15.161  1.00  0.00     0.010 C 
BRANCH  24  26
HETATM   26  C6  UNL     1      -3.818   4.842  13.487  1.00  0.00     0.040 C 
BRANCH  26  27
HETATM   27  C5  UNL     1      -5.145   5.539  13.847  1.00  0.00     0.141 C 
BRANCH  27  28
HETATM   28  C4  UNL     1      -6.298   4.566  13.798  1.00  0.00     0.006 C 
HETATM   29  C2  UNL     1      -6.561   3.657  12.834  1.00  0.00    -0.089 C 
HETATM   30  C1  UNL     1      -7.787   2.785  12.913  1.00  0.00     0.042 C 
HETATM   31  C3  UNL     1      -5.692   3.404  11.629  1.00  0.00     0.042 C 
ENDBRANCH  27  28
BRANCH  27  32
HETATM   32  O1  UNL     1      -5.389   6.589  12.914  1.00  0.00    -0.392 OA
HETATM   33  H9  UNL     1      -6.265   6.428  12.508  1.00  0.00     0.210 HD
ENDBRANCH  27  32
ENDBRANCH  26  27
ENDBRANCH  24  26
ENDBRANCH   1  24
BRANCH  23  34
HETATM   34  O3  UNL     1       2.843   5.286  10.646  1.00  0.00    -0.391 OA
HETATM   35  H48 UNL     1       2.856   5.030  11.585  1.00  0.00     0.210 HD
ENDBRANCH  23  34
TORSDOF 6
ENDMDL
