MODEL 1
REMARK minimizedAffinity -8.42117596
REMARK CNNscore 0.481361747
REMARK CNNaffinity 7.52549791
REMARK  12 active torsions:
REMARK  status: ('A' for Active; 'I' for Inactive)
REMARK    1  A    between atoms: C3_3  and  O1_4 
REMARK    2  A    between atoms: N1_14  and  O2_16 
REMARK    3  A    between atoms: O2_16  and  C13_17 
REMARK    4  A    between atoms: C13_17  and  C14_18 
REMARK       I    between atoms: C14_18  and  N2_20 
REMARK    5  A    between atoms: N2_20  and  C15_21 
REMARK    6  A    between atoms: C15_21  and  C16_22 
REMARK    7  A    between atoms: C15_21  and  C27_38 
REMARK       I    between atoms: C16_22  and  N3_24 
REMARK    8  A    between atoms: N3_24  and  C17_25 
REMARK    9  A    between atoms: C17_25  and  C18_26 
REMARK   10  A    between atoms: C17_25  and  C20_30 
REMARK   11  A    between atoms: C18_26  and  C19_27 
REMARK   12  A    between atoms: C19_27  and  O6_29 
ROOT
HETATM    1  C1  UNL     1      -0.730   6.983  13.413  1.00  0.00     0.015 C 
HETATM    2  C2  UNL     1      -1.723   7.475  13.880  1.00  0.00    -0.078 C 
HETATM    3  C3  UNL     1      -2.948   8.090  14.452  1.00  0.00     0.128 C 
HETATM    4  C4  UNL     1      -3.681   8.866  13.356  1.00  0.00     0.052 C 
HETATM    5  C5  UNL     1      -4.527   7.822  12.637  1.00  0.00     0.010 C 
HETATM    6  C6  UNL     1      -4.797   6.691  13.656  1.00  0.00     0.002 C 
HETATM    7  C7  UNL     1      -6.287   6.425  13.954  1.00  0.00    -0.004 C 
HETATM    8  C8  UNL     1      -7.043   5.885  12.737  1.00  0.00     0.010 C 
HETATM    9  C9  UNL     1      -8.448   5.461  13.144  1.00  0.00     0.035 C 
HETATM   10  C10 UNL     1      -9.223   6.565  13.827  1.00  0.00    -0.069 C 
HETATM   11  C11 UNL     1     -10.518   6.748  13.510  1.00  0.00     0.030 C 
HETATM   12  C12 UNL     1     -11.396   7.680  14.278  1.00  0.00     0.032 C 
HETATM   13  N1  UNL     1     -12.693   7.724  14.217  1.00  0.00    -0.271 N 
ATOM     14  H1  UNL     1     -13.268   8.345  14.786  1.00  0.00     0.194 HD
HETATM   15  C30 UNL     1     -10.744   8.593  15.294  1.00  0.00     0.060 C 
HETATM   16  C31 UNL     1      -9.246   8.733  15.080  1.00  0.00     0.020 C 
HETATM   17  C32 UNL     1      -8.507   7.375  14.919  1.00  0.00    -0.016 C 
HETATM   18  C33 UNL     1      -8.577   6.566  16.236  1.00  0.00     0.020 C 
HETATM   19  C34 UNL     1      -7.017   7.678  14.499  1.00  0.00     0.002 C 
HETATM   20  C35 UNL     1      -6.177   8.407  15.574  1.00  0.00     0.007 C 
HETATM   21  C36 UNL     1      -4.967   7.610  16.059  1.00  0.00     0.014 C 
HETATM   22  C37 UNL     1      -4.011   7.057  14.951  1.00  0.00     0.003 C 
HETATM   23  C38 UNL     1      -3.352   5.794  15.563  1.00  0.00     0.020 C 
ENDROOT
BRANCH   3  24
HETATM   24  O1  UNL     1      -2.551   8.982  15.484  1.00  0.00    -0.377 OA
HETATM   25  H2  UNL     1      -1.846   9.543  15.120  1.00  0.00     0.211 HD
ENDBRANCH   3  24
BRANCH  13  26
HETATM   26  O2  UNL     1     -13.211   6.819  13.280  1.00  0.00    -0.271 OA
BRANCH  26  27
HETATM   27  C13 UNL     1     -14.623   6.789  13.403  1.00  0.00     0.303 C 
BRANCH  27  28
HETATM   28  C14 UNL     1     -15.193   5.805  14.428  1.00  0.00     0.244 C 
HETATM   29  O3  UNL     1     -14.975   5.846  15.637  1.00  0.00    -0.271 OA
HETATM   30  N2  UNL     1     -16.052   4.878  13.861  1.00  0.00    -0.346 N 
HETATM   31  H16 UNL     1     -16.261   4.926  12.868  1.00  0.00     0.163 HD
BRANCH  30  32
HETATM   32  C15 UNL     1     -16.715   3.819  14.644  1.00  0.00     0.180 C 
BRANCH  32  33
HETATM   33  C16 UNL     1     -15.770   2.586  14.776  1.00  0.00     0.241 C 
HETATM   34  O4  UNL     1     -14.550   2.676  14.865  1.00  0.00    -0.271 OA
HETATM   35  N3  UNL     1     -16.420   1.368  14.821  1.00  0.00    -0.354 N 
HETATM   36  H18 UNL     1     -17.418   1.414  14.983  1.00  0.00     0.162 HD
BRANCH  35  37
HETATM   37  C17 UNL     1     -15.771   0.084  15.110  1.00  0.00     0.098 C 
BRANCH  37  38
HETATM   38  C18 UNL     1     -15.519  -0.050  16.625  1.00  0.00     0.135 C 
BRANCH  38  39
HETATM   39  C19 UNL     1     -16.738  -0.465  17.396  1.00  0.00     0.141 C 
HETATM   40  O5  UNL     1     -17.899  -0.164  17.173  1.00  0.00    -0.650 OA
BRANCH  39  41
HETATM   41  O6  UNL     1     -16.437  -1.300  18.412  1.00  0.00    -0.776 OA
HETATM   42  H22 UNL     1     -17.305  -1.512  18.809  1.00  0.00     0.167 HD
ENDBRANCH  39  41
ENDBRANCH  38  39
ENDBRANCH  37  38
BRANCH  37  43
HETATM   43  C20 UNL     1     -16.587  -1.111  14.521  1.00  0.00     0.014 C 
HETATM   44  C21 UNL     1     -15.722  -2.150  13.801  1.00  0.00     0.033 C 
HETATM   45  C22 UNL     1     -15.159  -1.633  12.479  1.00  0.00     0.169 C 
HETATM   46  O7  UNL     1     -15.736  -0.395  12.074  1.00  0.00    -0.381 OA
HETATM   47  C23 UNL     1     -17.163  -0.316  12.127  1.00  0.00     0.054 C 
HETATM   48  C24 UNL     1     -17.785  -1.204  11.040  1.00  0.00     0.045 C 
HETATM   49  C25 UNL     1     -17.506   1.148  11.812  1.00  0.00     0.045 C 
HETATM   50  C26 UNL     1     -17.694  -0.694  13.527  1.00  0.00     0.044 C 
ENDBRANCH  37  43
ENDBRANCH  35  37
ENDBRANCH  32  33
BRANCH  32  51
HETATM   51  C27 UNL     1     -17.155   4.379  16.022  1.00  0.00     0.009 C 
HETATM   52  C28 UNL     1     -17.301   3.287  17.090  1.00  0.00     0.012 C 
HETATM   53  C29 UNL     1     -18.494   5.132  15.913  1.00  0.00     0.012 C 
ENDBRANCH  32  51
ENDBRANCH  30  32
ENDBRANCH  27  28
ENDBRANCH  26  27
ENDBRANCH  13  26
TORSDOF 12
ENDMDL
MODEL 2
REMARK minimizedAffinity -7.59109974
REMARK CNNscore 0.317677706
REMARK CNNaffinity 7.27385092
REMARK  12 active torsions:
REMARK  status: ('A' for Active; 'I' for Inactive)
REMARK    1  A    between atoms: C3_3  and  O1_4 
REMARK    2  A    between atoms: N1_14  and  O2_16 
REMARK    3  A    between atoms: O2_16  and  C13_17 
REMARK    4  A    between atoms: C13_17  and  C14_18 
REMARK       I    between atoms: C14_18  and  N2_20 
REMARK    5  A    between atoms: N2_20  and  C15_21 
REMARK    6  A    between atoms: C15_21  and  C16_22 
REMARK    7  A    between atoms: C15_21  and  C27_38 
REMARK       I    between atoms: C16_22  and  N3_24 
REMARK    8  A    between atoms: N3_24  and  C17_25 
REMARK    9  A    between atoms: C17_25  and  C18_26 
REMARK   10  A    between atoms: C17_25  and  C20_30 
REMARK   11  A    between atoms: C18_26  and  C19_27 
REMARK   12  A    between atoms: C19_27  and  O6_29 
ROOT
HETATM    1  C1  UNL     1       0.325   6.001  12.697  1.00  0.00     0.015 C 
HETATM    2  C2  UNL     1      -0.557   6.585  13.270  1.00  0.00    -0.078 C 
HETATM    3  C3  UNL     1      -1.644   7.313  13.972  1.00  0.00     0.128 C 
HETATM    4  C4  UNL     1      -2.471   8.095  12.948  1.00  0.00     0.052 C 
HETATM    5  C5  UNL     1      -3.478   7.087  12.407  1.00  0.00     0.010 C 
HETATM    6  C6  UNL     1      -3.678   6.023  13.511  1.00  0.00     0.002 C 
HETATM    7  C7  UNL     1      -5.125   5.881  14.024  1.00  0.00    -0.004 C 
HETATM    8  C8  UNL     1      -6.080   5.349  12.953  1.00  0.00     0.010 C 
HETATM    9  C9  UNL     1      -7.439   5.048  13.570  1.00  0.00     0.035 C 
HETATM   10  C10 UNL     1      -8.034   6.234  14.294  1.00  0.00    -0.069 C 
HETATM   11  C11 UNL     1      -9.346   6.500  14.149  1.00  0.00     0.030 C 
HETATM   12  C12 UNL     1     -10.041   7.525  14.981  1.00  0.00     0.032 C 
HETATM   13  N1  UNL     1     -11.327   7.663  15.097  1.00  0.00    -0.271 N 
ATOM     14  H1  UNL     1     -11.773   8.349  15.705  1.00  0.00     0.194 HD
HETATM   15  C30 UNL     1      -9.193   8.429  15.849  1.00  0.00     0.060 C 
HETATM   16  C31 UNL     1      -7.734   8.448  15.425  1.00  0.00     0.020 C 
HETATM   17  C32 UNL     1      -7.119   7.033  15.234  1.00  0.00    -0.016 C 
HETATM   18  C33 UNL     1      -7.057   6.288  16.589  1.00  0.00     0.020 C 
HETATM   19  C34 UNL     1      -5.685   7.207  14.599  1.00  0.00     0.002 C 
HETATM   20  C35 UNL     1      -4.655   7.916  15.508  1.00  0.00     0.007 C 
HETATM   21  C36 UNL     1      -3.446   7.052  15.864  1.00  0.00     0.014 C 
HETATM   22  C37 UNL     1      -2.695   6.384  14.665  1.00  0.00     0.003 C 
HETATM   23  C38 UNL     1      -2.043   5.102  15.246  1.00  0.00     0.020 C 
ENDROOT
BRANCH   3  24
HETATM   24  O1  UNL     1      -1.047   8.216  14.892  1.00  0.00    -0.377 OA
HETATM   25  H2  UNL     1      -0.364   8.707  14.407  1.00  0.00     0.211 HD
ENDBRANCH   3  24
BRANCH  13  26
HETATM   26  O2  UNL     1     -12.033   6.761  14.288  1.00  0.00    -0.271 OA
BRANCH  26  27
HETATM   27  C13 UNL     1     -13.388   6.737  14.700  1.00  0.00     0.303 C 
BRANCH  27  28
HETATM   28  C14 UNL     1     -14.433   6.596  13.589  1.00  0.00     0.244 C 
HETATM   29  O3  UNL     1     -14.276   6.967  12.427  1.00  0.00    -0.271 OA
HETATM   30  N2  UNL     1     -15.576   5.937  14.009  1.00  0.00    -0.346 N 
HETATM   31  H16 UNL     1     -15.633   5.582  14.959  1.00  0.00     0.163 HD
BRANCH  30  32
HETATM   32  C15 UNL     1     -16.729   5.693  13.123  1.00  0.00     0.180 C 
BRANCH  32  33
HETATM   33  C16 UNL     1     -17.183   4.205  13.239  1.00  0.00     0.241 C 
HETATM   34  O4  UNL     1     -17.906   3.653  12.416  1.00  0.00    -0.271 OA
HETATM   35  N3  UNL     1     -16.674   3.535  14.335  1.00  0.00    -0.354 N 
HETATM   36  H18 UNL     1     -15.909   3.996  14.809  1.00  0.00     0.162 HD
BRANCH  35  37
HETATM   37  C17 UNL     1     -16.816   2.094  14.572  1.00  0.00     0.098 C 
BRANCH  37  38
HETATM   38  C18 UNL     1     -15.618   1.339  13.962  1.00  0.00     0.135 C 
BRANCH  38  39
HETATM   39  C19 UNL     1     -16.022   0.167  13.117  1.00  0.00     0.141 C 
HETATM   40  O5  UNL     1     -17.144  -0.130  12.742  1.00  0.00    -0.650 OA
BRANCH  39  41
HETATM   41  O6  UNL     1     -14.961  -0.574  12.734  1.00  0.00    -0.776 OA
HETATM   42  H22 UNL     1     -15.352  -1.277  12.177  1.00  0.00     0.167 HD
ENDBRANCH  39  41
ENDBRANCH  38  39
ENDBRANCH  37  38
BRANCH  37  43
HETATM   43  C20 UNL     1     -17.019   1.785  16.090  1.00  0.00     0.014 C 
HETATM   44  C21 UNL     1     -17.667   0.424  16.359  1.00  0.00     0.033 C 
HETATM   45  C22 UNL     1     -19.138   0.382  15.956  1.00  0.00     0.169 C 
HETATM   46  O7  UNL     1     -19.666   1.668  15.639  1.00  0.00    -0.381 OA
HETATM   47  C23 UNL     1     -19.385   2.713  16.574  1.00  0.00     0.054 C 
HETATM   48  C24 UNL     1     -20.162   2.482  17.878  1.00  0.00     0.045 C 
HETATM   49  C25 UNL     1     -19.909   4.000  15.920  1.00  0.00     0.045 C 
HETATM   50  C26 UNL     1     -17.869   2.834  16.842  1.00  0.00     0.044 C 
ENDBRANCH  37  43
ENDBRANCH  35  37
ENDBRANCH  32  33
BRANCH  32  51
HETATM   51  C27 UNL     1     -17.871   6.689  13.456  1.00  0.00     0.009 C 
HETATM   52  C28 UNL     1     -17.822   7.961  12.599  1.00  0.00     0.012 C 
HETATM   53  C29 UNL     1     -17.830   7.103  14.939  1.00  0.00     0.012 C 
ENDBRANCH  32  51
ENDBRANCH  30  32
ENDBRANCH  27  28
ENDBRANCH  26  27
ENDBRANCH  13  26
TORSDOF 12
ENDMDL
MODEL 3
REMARK minimizedAffinity -8.02397156
REMARK CNNscore 0.271199048
REMARK CNNaffinity 6.85275602
REMARK  12 active torsions:
REMARK  status: ('A' for Active; 'I' for Inactive)
REMARK    1  A    between atoms: C3_3  and  O1_4 
REMARK    2  A    between atoms: N1_14  and  O2_16 
REMARK    3  A    between atoms: O2_16  and  C13_17 
REMARK    4  A    between atoms: C13_17  and  C14_18 
REMARK       I    between atoms: C14_18  and  N2_20 
REMARK    5  A    between atoms: N2_20  and  C15_21 
REMARK    6  A    between atoms: C15_21  and  C16_22 
REMARK    7  A    between atoms: C15_21  and  C27_38 
REMARK       I    between atoms: C16_22  and  N3_24 
REMARK    8  A    between atoms: N3_24  and  C17_25 
REMARK    9  A    between atoms: C17_25  and  C18_26 
REMARK   10  A    between atoms: C17_25  and  C20_30 
REMARK   11  A    between atoms: C18_26  and  C19_27 
REMARK   12  A    between atoms: C19_27  and  O6_29 
ROOT
HETATM    1  C1  UNL     1      -7.612   3.393  13.719  1.00  0.00     0.015 C 
HETATM    2  C2  UNL     1      -7.357   4.533  14.004  1.00  0.00    -0.078 C 
HETATM    3  C3  UNL     1      -7.047   5.941  14.363  1.00  0.00     0.128 C 
HETATM    4  C4  UNL     1      -6.841   6.042  15.876  1.00  0.00     0.052 C 
HETATM    5  C5  UNL     1      -5.384   5.652  16.099  1.00  0.00     0.010 C 
HETATM    6  C6  UNL     1      -4.632   5.976  14.787  1.00  0.00     0.002 C 
HETATM    7  C7  UNL     1      -3.476   6.985  14.932  1.00  0.00    -0.004 C 
HETATM    8  C8  UNL     1      -2.325   6.443  15.782  1.00  0.00     0.010 C 
HETATM    9  C9  UNL     1      -1.141   7.400  15.726  1.00  0.00     0.035 C 
HETATM   10  C10 UNL     1      -1.503   8.811  16.129  1.00  0.00    -0.069 C 
HETATM   11  C11 UNL     1      -0.662   9.503  16.920  1.00  0.00     0.030 C 
HETATM   12  C12 UNL     1      -0.852  10.957  17.195  1.00  0.00     0.032 C 
HETATM   13  N1  UNL     1       0.032  11.753  17.717  1.00  0.00    -0.271 N 
ATOM     14  H1  UNL     1      -0.113  12.752  17.856  1.00  0.00     0.194 HD
HETATM   15  C30 UNL     1      -2.146  11.601  16.745  1.00  0.00     0.060 C 
HETATM   16  C31 UNL     1      -3.239  10.585  16.462  1.00  0.00     0.020 C 
HETATM   17  C32 UNL     1      -2.786   9.418  15.540  1.00  0.00    -0.016 C 
HETATM   18  C33 UNL     1      -2.458   9.949  14.124  1.00  0.00     0.020 C 
HETATM   19  C34 UNL     1      -3.943   8.346  15.507  1.00  0.00     0.002 C 
HETATM   20  C35 UNL     1      -5.253   8.828  14.841  1.00  0.00     0.007 C 
HETATM   21  C36 UNL     1      -5.649   8.028  13.601  1.00  0.00     0.014 C 
HETATM   22  C37 UNL     1      -5.702   6.473  13.768  1.00  0.00     0.003 C 
HETATM   23  C38 UNL     1      -5.420   5.894  12.357  1.00  0.00     0.020 C 
ENDROOT
BRANCH   3  24
HETATM   24  O1  UNL     1      -8.152   6.746  13.978  1.00  0.00    -0.377 OA
HETATM   25  H2  UNL     1      -8.952   6.317  14.324  1.00  0.00     0.211 HD
ENDBRANCH   3  24
BRANCH  13  26
HETATM   26  O2  UNL     1       1.211  11.079  18.068  1.00  0.00    -0.271 OA
BRANCH  26  27
HETATM   27  C13 UNL     1       1.807  11.739  19.171  1.00  0.00     0.303 C 
BRANCH  27  28
HETATM   28  C14 UNL     1       2.796  10.916  20.000  1.00  0.00     0.244 C 
HETATM   29  O3  UNL     1       3.022   9.719  19.838  1.00  0.00    -0.271 OA
HETATM   30  N2  UNL     1       3.478  11.679  20.934  1.00  0.00    -0.346 N 
HETATM   31  H16 UNL     1       3.313  12.680  20.984  1.00  0.00     0.163 HD
BRANCH  30  32
HETATM   32  C15 UNL     1       4.473  11.108  21.860  1.00  0.00     0.180 C 
BRANCH  32  33
HETATM   33  C16 UNL     1       5.628  12.130  22.093  1.00  0.00     0.241 C 
HETATM   34  O4  UNL     1       5.885  12.620  23.188  1.00  0.00    -0.271 OA
HETATM   35  N3  UNL     1       6.374  12.419  20.967  1.00  0.00    -0.354 N 
HETATM   36  H18 UNL     1       6.240  11.793  20.185  1.00  0.00     0.162 HD
BRANCH  35  37
HETATM   37  C17 UNL     1       7.608  13.213  20.964  1.00  0.00     0.098 C 
BRANCH  37  38
HETATM   38  C18 UNL     1       8.800  12.336  21.393  1.00  0.00     0.135 C 
BRANCH  38  39
HETATM   39  C19 UNL     1       9.005  12.298  22.879  1.00  0.00     0.141 C 
HETATM   40  O5  UNL     1       9.382  13.205  23.603  1.00  0.00    -0.650 OA
BRANCH  39  41
HETATM   41  O6  UNL     1       8.676  11.101  23.408  1.00  0.00    -0.776 OA
HETATM   42  H22 UNL     1       8.827  11.216  24.367  1.00  0.00     0.167 HD
ENDBRANCH  39  41
ENDBRANCH  38  39
ENDBRANCH  37  38
BRANCH  37  43
HETATM   43  C20 UNL     1       7.832  13.910  19.583  1.00  0.00     0.014 C 
HETATM   44  C21 UNL     1       6.562  14.010  18.732  1.00  0.00     0.033 C 
HETATM   45  C22 UNL     1       6.107  12.657  18.193  1.00  0.00     0.169 C 
HETATM   46  O7  UNL     1       7.071  11.626  18.387  1.00  0.00    -0.381 OA
HETATM   47  C23 UNL     1       8.415  11.939  18.011  1.00  0.00     0.054 C 
HETATM   48  C24 UNL     1       8.526  12.046  16.483  1.00  0.00     0.045 C 
HETATM   49  C25 UNL     1       9.260  10.744  18.476  1.00  0.00     0.045 C 
HETATM   50  C26 UNL     1       8.903  13.233  18.698  1.00  0.00     0.044 C 
ENDBRANCH  37  43
ENDBRANCH  35  37
ENDBRANCH  32  33
BRANCH  32  51
HETATM   51  C27 UNL     1       3.781  10.683  23.181  1.00  0.00     0.009 C 
HETATM   52  C28 UNL     1       3.199   9.264  23.120  1.00  0.00     0.012 C 
HETATM   53  C29 UNL     1       2.646  11.655  23.551  1.00  0.00     0.012 C 
ENDBRANCH  32  51
ENDBRANCH  30  32
ENDBRANCH  27  28
ENDBRANCH  26  27
ENDBRANCH  13  26
TORSDOF 12
ENDMDL
MODEL 4
REMARK minimizedAffinity -8.26964092
REMARK CNNscore 0.220354065
REMARK CNNaffinity 6.15327644
REMARK  12 active torsions:
REMARK  status: ('A' for Active; 'I' for Inactive)
REMARK    1  A    between atoms: C3_3  and  O1_4 
REMARK    2  A    between atoms: N1_14  and  O2_16 
REMARK    3  A    between atoms: O2_16  and  C13_17 
REMARK    4  A    between atoms: C13_17  and  C14_18 
REMARK       I    between atoms: C14_18  and  N2_20 
REMARK    5  A    between atoms: N2_20  and  C15_21 
REMARK    6  A    between atoms: C15_21  and  C16_22 
REMARK    7  A    between atoms: C15_21  and  C27_38 
REMARK       I    between atoms: C16_22  and  N3_24 
REMARK    8  A    between atoms: N3_24  and  C17_25 
REMARK    9  A    between atoms: C17_25  and  C18_26 
REMARK   10  A    between atoms: C17_25  and  C20_30 
REMARK   11  A    between atoms: C18_26  and  C19_27 
REMARK   12  A    between atoms: C19_27  and  O6_29 
ROOT
HETATM    1  C1  UNL     1      -6.297   5.728  13.213  1.00  0.00     0.015 C 
HETATM    2  C2  UNL     1      -5.324   5.990  13.870  1.00  0.00    -0.078 C 
HETATM    3  C3  UNL     1      -4.122   6.303  14.684  1.00  0.00     0.128 C 
HETATM    4  C4  UNL     1      -3.059   5.227  14.450  1.00  0.00     0.052 C 
HETATM    5  C5  UNL     1      -2.331   5.665  13.184  1.00  0.00     0.010 C 
HETATM    6  C6  UNL     1      -2.488   7.201  13.091  1.00  0.00     0.002 C 
HETATM    7  C7  UNL     1      -1.164   7.990  13.079  1.00  0.00    -0.004 C 
HETATM    8  C8  UNL     1      -0.329   7.722  11.825  1.00  0.00     0.010 C 
HETATM    9  C9  UNL     1       0.862   8.670  11.780  1.00  0.00     0.035 C 
HETATM   10  C10 UNL     1       1.713   8.609  13.029  1.00  0.00    -0.069 C 
HETATM   11  C11 UNL     1       3.053   8.621  12.909  1.00  0.00     0.030 C 
HETATM   12  C12 UNL     1       3.951   8.762  14.093  1.00  0.00     0.032 C 
HETATM   13  N1  UNL     1       5.219   9.044  14.054  1.00  0.00    -0.271 N 
ATOM     14  H1  UNL     1       5.798   9.174  14.883  1.00  0.00     0.194 HD
HETATM   15  C30 UNL     1       3.330   8.670  15.470  1.00  0.00     0.060 C 
HETATM   16  C31 UNL     1       1.957   8.020  15.451  1.00  0.00     0.020 C 
HETATM   17  C32 UNL     1       0.995   8.621  14.387  1.00  0.00    -0.016 C 
HETATM   18  C33 UNL     1       0.658  10.090  14.737  1.00  0.00     0.020 C 
HETATM   19  C34 UNL     1      -0.301   7.722  14.338  1.00  0.00     0.002 C 
HETATM   20  C35 UNL     1      -1.152   7.743  15.629  1.00  0.00     0.007 C 
HETATM   21  C36 UNL     1      -2.567   8.283  15.430  1.00  0.00     0.014 C 
HETATM   22  C37 UNL     1      -3.401   7.631  14.278  1.00  0.00     0.003 C 
HETATM   23  C38 UNL     1      -4.406   8.722  13.824  1.00  0.00     0.020 C 
ENDROOT
BRANCH   3  24
HETATM   24  O1  UNL     1      -4.505   6.305  16.052  1.00  0.00    -0.377 OA
HETATM   25  H2  UNL     1      -5.002   5.486  16.209  1.00  0.00     0.211 HD
ENDBRANCH   3  24
BRANCH  13  26
HETATM   26  O2  UNL     1       5.700   9.149  12.741  1.00  0.00    -0.271 OA
BRANCH  26  27
HETATM   27  C13 UNL     1       6.830  10.003  12.733  1.00  0.00     0.303 C 
BRANCH  27  28
HETATM   28  C14 UNL     1       8.092   9.465  13.412  1.00  0.00     0.244 C 
HETATM   29  O3  UNL     1       8.701   8.455  13.063  1.00  0.00    -0.271 OA
HETATM   30  N2  UNL     1       8.533  10.277  14.444  1.00  0.00    -0.346 N 
HETATM   31  H16 UNL     1       8.042  11.140  14.651  1.00  0.00     0.163 HD
BRANCH  30  32
HETATM   32  C15 UNL     1       9.722   9.961  15.257  1.00  0.00     0.180 C 
BRANCH  32  33
HETATM   33  C16 UNL     1      10.542  11.260  15.527  1.00  0.00     0.241 C 
HETATM   34  O4  UNL     1      10.285  12.341  15.007  1.00  0.00    -0.271 OA
HETATM   35  N3  UNL     1      11.572  11.109  16.435  1.00  0.00    -0.354 N 
HETATM   36  H18 UNL     1      11.549  10.258  16.980  1.00  0.00     0.162 HD
BRANCH  35  37
HETATM   37  C17 UNL     1      12.373  12.211  16.979  1.00  0.00     0.098 C 
BRANCH  37  38
HETATM   38  C18 UNL     1      11.817  12.640  18.352  1.00  0.00     0.135 C 
BRANCH  38  39
HETATM   39  C19 UNL     1      12.133  11.667  19.451  1.00  0.00     0.141 C 
HETATM   40  O5  UNL     1      11.726  10.524  19.573  1.00  0.00    -0.650 OA
BRANCH  39  41
HETATM   41  O6  UNL     1      13.006  12.176  20.345  1.00  0.00    -0.776 OA
HETATM   42  H22 UNL     1      13.145  11.446  20.982  1.00  0.00     0.167 HD
ENDBRANCH  39  41
ENDBRANCH  38  39
ENDBRANCH  37  38
BRANCH  37  43
HETATM   43  C20 UNL     1      13.891  11.841  17.026  1.00  0.00     0.014 C 
HETATM   44  C21 UNL     1      14.817  13.057  17.121  1.00  0.00     0.033 C 
HETATM   45  C22 UNL     1      14.857  13.868  15.828  1.00  0.00     0.169 C 
HETATM   46  O7  UNL     1      14.223  13.209  14.736  1.00  0.00    -0.381 OA
HETATM   47  C23 UNL     1      14.580  11.839  14.532  1.00  0.00     0.054 C 
HETATM   48  C24 UNL     1      16.026  11.737  14.028  1.00  0.00     0.045 C 
HETATM   49  C25 UNL     1      13.644  11.332  13.425  1.00  0.00     0.045 C 
HETATM   50  C26 UNL     1      14.378  11.009  15.818  1.00  0.00     0.044 C 
ENDBRANCH  37  43
ENDBRANCH  35  37
ENDBRANCH  32  33
BRANCH  32  51
HETATM   51  C27 UNL     1       9.291   9.248  16.566  1.00  0.00     0.009 C 
HETATM   52  C28 UNL     1       9.156   7.728  16.402  1.00  0.00     0.012 C 
HETATM   53  C29 UNL     1       7.949   9.800  17.082  1.00  0.00     0.012 C 
ENDBRANCH  32  51
ENDBRANCH  30  32
ENDBRANCH  27  28
ENDBRANCH  26  27
ENDBRANCH  13  26
TORSDOF 12
ENDMDL
MODEL 5
REMARK minimizedAffinity -8.58858013
REMARK CNNscore 0.207541466
REMARK CNNaffinity 5.31299591
REMARK  12 active torsions:
REMARK  status: ('A' for Active; 'I' for Inactive)
REMARK    1  A    between atoms: C3_3  and  O1_4 
REMARK    2  A    between atoms: N1_14  and  O2_16 
REMARK    3  A    between atoms: O2_16  and  C13_17 
REMARK    4  A    between atoms: C13_17  and  C14_18 
REMARK       I    between atoms: C14_18  and  N2_20 
REMARK    5  A    between atoms: N2_20  and  C15_21 
REMARK    6  A    between atoms: C15_21  and  C16_22 
REMARK    7  A    between atoms: C15_21  and  C27_38 
REMARK       I    between atoms: C16_22  and  N3_24 
REMARK    8  A    between atoms: N3_24  and  C17_25 
REMARK    9  A    between atoms: C17_25  and  C18_26 
REMARK   10  A    between atoms: C17_25  and  C20_30 
REMARK   11  A    between atoms: C18_26  and  C19_27 
REMARK   12  A    between atoms: C19_27  and  O6_29 
ROOT
HETATM    1  C1  UNL     1       0.852   8.000   9.705  1.00  0.00     0.015 C 
HETATM    2  C2  UNL     1       1.739   7.673  10.448  1.00  0.00    -0.078 C 
HETATM    3  C3  UNL     1       2.837   7.262  11.360  1.00  0.00     0.128 C 
HETATM    4  C4  UNL     1       4.028   6.777  10.530  1.00  0.00     0.052 C 
HETATM    5  C5  UNL     1       4.791   8.046  10.164  1.00  0.00     0.010 C 
HETATM    6  C6  UNL     1       4.469   9.089  11.260  1.00  0.00     0.002 C 
HETATM    7  C7  UNL     1       5.694   9.619  12.033  1.00  0.00    -0.004 C 
HETATM    8  C8  UNL     1       6.641  10.433  11.148  1.00  0.00     0.010 C 
HETATM    9  C9  UNL     1       7.718  11.087  12.003  1.00  0.00     0.035 C 
HETATM   10  C10 UNL     1       8.478  10.097  12.856  1.00  0.00    -0.069 C 
HETATM   11  C11 UNL     1       9.814  10.218  12.967  1.00  0.00     0.030 C 
HETATM   12  C12 UNL     1      10.603   9.407  13.940  1.00  0.00     0.032 C 
HETATM   13  N1  UNL     1      11.830   9.636  14.300  1.00  0.00    -0.271 N 
ATOM     14  H1  UNL     1      12.330   9.086  14.998  1.00  0.00     0.194 HD
HETATM   15  C30 UNL     1       9.899   8.273  14.654  1.00  0.00     0.060 C 
HETATM   16  C31 UNL     1       8.612   7.855  13.963  1.00  0.00     0.020 C 
HETATM   17  C32 UNL     1       7.668   9.043  13.625  1.00  0.00    -0.016 C 
HETATM   18  C33 UNL     1       7.143   9.698  14.925  1.00  0.00     0.020 C 
HETATM   19  C34 UNL     1       6.489   8.490  12.735  1.00  0.00     0.002 C 
HETATM   20  C35 UNL     1       5.550   7.490  13.451  1.00  0.00     0.007 C 
HETATM   21  C36 UNL     1       4.101   7.964  13.551  1.00  0.00     0.014 C 
HETATM   22  C37 UNL     1       3.430   8.429  12.216  1.00  0.00     0.003 C 
HETATM   23  C38 UNL     1       2.345   9.455  12.632  1.00  0.00     0.020 C 
ENDROOT
BRANCH   3  24
HETATM   24  O1  UNL     1       2.359   6.199  12.172  1.00  0.00    -0.377 OA
HETATM   25  H2  UNL     1       1.947   5.550  11.579  1.00  0.00     0.211 HD
ENDBRANCH   3  24
BRANCH  13  26
HETATM   26  O2  UNL     1      12.389  10.725  13.616  1.00  0.00    -0.271 OA
BRANCH  26  27
HETATM   27  C13 UNL     1      13.504  11.203  14.348  1.00  0.00     0.303 C 
BRANCH  27  28
HETATM   28  C14 UNL     1      13.192  11.985  15.627  1.00  0.00     0.244 C 
HETATM   29  O3  UNL     1      12.747  13.131  15.658  1.00  0.00    -0.271 OA
HETATM   30  N2  UNL     1      13.402  11.240  16.775  1.00  0.00    -0.346 N 
HETATM   31  H16 UNL     1      13.699  10.272  16.701  1.00  0.00     0.163 HD
BRANCH  30  32
HETATM   32  C15 UNL     1      13.183  11.781  18.130  1.00  0.00     0.180 C 
BRANCH  32  33
HETATM   33  C16 UNL     1      14.208  12.920  18.418  1.00  0.00     0.241 C 
HETATM   34  O4  UNL     1      13.883  14.084  18.628  1.00  0.00    -0.271 OA
HETATM   35  N3  UNL     1      15.526  12.509  18.456  1.00  0.00    -0.354 N 
HETATM   36  H18 UNL     1      15.668  11.509  18.512  1.00  0.00     0.162 HD
BRANCH  35  37
HETATM   37  C17 UNL     1      16.652  13.352  18.872  1.00  0.00     0.098 C 
BRANCH  37  38
HETATM   38  C18 UNL     1      17.081  12.988  20.308  1.00  0.00     0.135 C 
BRANCH  38  39
HETATM   39  C19 UNL     1      15.971  13.112  21.309  1.00  0.00     0.141 C 
HETATM   40  O5  UNL     1      15.068  12.319  21.523  1.00  0.00    -0.650 OA
BRANCH  39  41
HETATM   41  O6  UNL     1      16.074  14.236  22.048  1.00  0.00    -0.776 OA
HETATM   42  H22 UNL     1      15.320  14.183  22.668  1.00  0.00     0.167 HD
ENDBRANCH  39  41
ENDBRANCH  38  39
ENDBRANCH  37  38
BRANCH  37  43
HETATM   43  C20 UNL     1      17.830  13.274  17.848  1.00  0.00     0.014 C 
HETATM   44  C21 UNL     1      18.555  11.926  17.847  1.00  0.00     0.033 C 
HETATM   45  C22 UNL     1      19.384  11.703  19.109  1.00  0.00     0.169 C 
HETATM   46  O7  UNL     1      19.505  12.874  19.911  1.00  0.00    -0.381 OA
HETATM   47  C23 UNL     1      19.869  14.075  19.225  1.00  0.00     0.054 C 
HETATM   48  C24 UNL     1      21.327  13.993  18.750  1.00  0.00     0.045 C 
HETATM   49  C25 UNL     1      19.762  15.194  20.270  1.00  0.00     0.045 C 
HETATM   50  C26 UNL     1      18.914  14.358  18.045  1.00  0.00     0.044 C 
ENDBRANCH  37  43
ENDBRANCH  35  37
ENDBRANCH  32  33
BRANCH  32  51
HETATM   51  C27 UNL     1      11.713  12.254  18.277  1.00  0.00     0.009 C 
HETATM   52  C28 UNL     1      11.333  12.578  19.729  1.00  0.00     0.012 C 
HETATM   53  C29 UNL     1      10.732  11.192  17.747  1.00  0.00     0.012 C 
ENDBRANCH  32  51
ENDBRANCH  30  32
ENDBRANCH  27  28
ENDBRANCH  26  27
ENDBRANCH  13  26
TORSDOF 12
ENDMDL
MODEL 6
REMARK minimizedAffinity -7.84455299
REMARK CNNscore 0.171234265
REMARK CNNaffinity 5.34593725
REMARK  12 active torsions:
REMARK  status: ('A' for Active; 'I' for Inactive)
REMARK    1  A    between atoms: C3_3  and  O1_4 
REMARK    2  A    between atoms: N1_14  and  O2_16 
REMARK    3  A    between atoms: O2_16  and  C13_17 
REMARK    4  A    between atoms: C13_17  and  C14_18 
REMARK       I    between atoms: C14_18  and  N2_20 
REMARK    5  A    between atoms: N2_20  and  C15_21 
REMARK    6  A    between atoms: C15_21  and  C16_22 
REMARK    7  A    between atoms: C15_21  and  C27_38 
REMARK       I    between atoms: C16_22  and  N3_24 
REMARK    8  A    between atoms: N3_24  and  C17_25 
REMARK    9  A    between atoms: C17_25  and  C18_26 
REMARK   10  A    between atoms: C17_25  and  C20_30 
REMARK   11  A    between atoms: C18_26  and  C19_27 
REMARK   12  A    between atoms: C19_27  and  O6_29 
ROOT
HETATM    1  C1  UNL     1       0.991   8.164   9.674  1.00  0.00     0.015 C 
HETATM    2  C2  UNL     1       1.906   7.779  10.354  1.00  0.00    -0.078 C 
HETATM    3  C3  UNL     1       3.037   7.297  11.186  1.00  0.00     0.128 C 
HETATM    4  C4  UNL     1       4.244   7.020  10.286  1.00  0.00     0.052 C 
HETATM    5  C5  UNL     1       4.926   8.373  10.120  1.00  0.00     0.010 C 
HETATM    6  C6  UNL     1       4.559   9.212  11.366  1.00  0.00     0.002 C 
HETATM    7  C7  UNL     1       5.760   9.687  12.207  1.00  0.00    -0.004 C 
HETATM    8  C8  UNL     1       6.647  10.684  11.457  1.00  0.00     0.010 C 
HETATM    9  C9  UNL     1       7.695  11.260  12.400  1.00  0.00     0.035 C 
HETATM   10  C10 UNL     1       8.523  10.196  13.084  1.00  0.00    -0.069 C 
HETATM   11  C11 UNL     1       9.851  10.379  13.208  1.00  0.00     0.030 C 
HETATM   12  C12 UNL     1      10.698   9.474  14.040  1.00  0.00     0.032 C 
HETATM   13  N1  UNL     1      11.914   9.717  14.426  1.00  0.00    -0.271 N 
ATOM     14  H1  UNL     1      12.454   9.097  15.029  1.00  0.00     0.194 HD
HETATM   15  C30 UNL     1      10.071   8.203  14.571  1.00  0.00     0.060 C 
HETATM   16  C31 UNL     1       8.802   7.821  13.828  1.00  0.00     0.020 C 
HETATM   17  C32 UNL     1       7.785   8.989  13.683  1.00  0.00    -0.016 C 
HETATM   18  C33 UNL     1       7.240   9.402  15.071  1.00  0.00     0.020 C 
HETATM   19  C34 UNL     1       6.629   8.512  12.722  1.00  0.00     0.002 C 
HETATM   20  C35 UNL     1       5.760   7.359  13.277  1.00  0.00     0.007 C 
HETATM   21  C36 UNL     1       4.287   7.725  13.455  1.00  0.00     0.014 C 
HETATM   22  C37 UNL     1       3.573   8.351  12.211  1.00  0.00     0.003 C 
HETATM   23  C38 UNL     1       2.435   9.233  12.786  1.00  0.00     0.020 C 
ENDROOT
BRANCH   3  24
HETATM   24  O1  UNL     1       2.632   6.094  11.825  1.00  0.00    -0.377 OA
HETATM   25  H2  UNL     1       2.251   5.522  11.139  1.00  0.00     0.211 HD
ENDBRANCH   3  24
BRANCH  13  26
HETATM   26  O2  UNL     1      12.400  10.931  13.919  1.00  0.00    -0.271 OA
BRANCH  26  27
HETATM   27  C13 UNL     1      13.211  11.548  14.903  1.00  0.00     0.303 C 
BRANCH  27  28
HETATM   28  C14 UNL     1      12.486  12.089  16.138  1.00  0.00     0.244 C 
HETATM   29  O3  UNL     1      11.792  13.104  16.157  1.00  0.00    -0.271 OA
HETATM   30  N2  UNL     1      12.635  11.273  17.247  1.00  0.00    -0.346 N 
HETATM   31  H16 UNL     1      13.156  10.405  17.168  1.00  0.00     0.163 HD
BRANCH  30  32
HETATM   32  C15 UNL     1      12.040  11.590  18.559  1.00  0.00     0.180 C 
BRANCH  32  33
HETATM   33  C16 UNL     1      12.534  12.989  19.041  1.00  0.00     0.241 C 
HETATM   34  O4  UNL     1      11.831  13.772  19.673  1.00  0.00    -0.271 OA
HETATM   35  N3  UNL     1      13.850  13.270  18.732  1.00  0.00    -0.354 N 
HETATM   36  H18 UNL     1      14.404  12.479  18.431  1.00  0.00     0.162 HD
BRANCH  35  37
HETATM   37  C17 UNL     1      14.591  14.439  19.219  1.00  0.00     0.098 C 
BRANCH  37  38
HETATM   38  C18 UNL     1      15.954  13.999  19.789  1.00  0.00     0.135 C 
BRANCH  38  39
HETATM   39  C19 UNL     1      15.952  12.594  20.318  1.00  0.00     0.141 C 
HETATM   40  O5  UNL     1      16.601  11.644  19.913  1.00  0.00    -0.650 OA
BRANCH  39  41
HETATM   41  O6  UNL     1      15.144  12.456  21.390  1.00  0.00    -0.776 OA
HETATM   42  H22 UNL     1      15.252  11.519  21.648  1.00  0.00     0.167 HD
ENDBRANCH  39  41
ENDBRANCH  38  39
ENDBRANCH  37  38
BRANCH  37  43
HETATM   43  C20 UNL     1      14.720  15.533  18.110  1.00  0.00     0.014 C 
HETATM   44  C21 UNL     1      15.867  16.520  18.352  1.00  0.00     0.033 C 
HETATM   45  C22 UNL     1      15.595  17.463  19.521  1.00  0.00     0.169 C 
HETATM   46  O7  UNL     1      14.252  17.394  19.992  1.00  0.00    -0.381 OA
HETATM   47  C23 UNL     1      13.229  17.454  18.994  1.00  0.00     0.054 C 
HETATM   48  C24 UNL     1      13.166  18.860  18.381  1.00  0.00     0.045 C 
HETATM   49  C25 UNL     1      11.912  17.191  19.739  1.00  0.00     0.045 C 
HETATM   50  C26 UNL     1      13.445  16.381  17.905  1.00  0.00     0.044 C 
ENDBRANCH  37  43
ENDBRANCH  35  37
ENDBRANCH  32  33
BRANCH  32  51
HETATM   51  C27 UNL     1      10.494  11.504  18.471  1.00  0.00     0.009 C 
HETATM   52  C28 UNL     1       9.821  11.438  19.849  1.00  0.00     0.012 C 
HETATM   53  C29 UNL     1      10.052  10.274  17.657  1.00  0.00     0.012 C 
ENDBRANCH  32  51
ENDBRANCH  30  32
ENDBRANCH  27  28
ENDBRANCH  26  27
ENDBRANCH  13  26
TORSDOF 12
ENDMDL
MODEL 7
REMARK minimizedAffinity -8.57357025
REMARK CNNscore 0.170577109
REMARK CNNaffinity 5.87822962
REMARK  12 active torsions:
REMARK  status: ('A' for Active; 'I' for Inactive)
REMARK    1  A    between atoms: C3_3  and  O1_4 
REMARK    2  A    between atoms: N1_14  and  O2_16 
REMARK    3  A    between atoms: O2_16  and  C13_17 
REMARK    4  A    between atoms: C13_17  and  C14_18 
REMARK       I    between atoms: C14_18  and  N2_20 
REMARK    5  A    between atoms: N2_20  and  C15_21 
REMARK    6  A    between atoms: C15_21  and  C16_22 
REMARK    7  A    between atoms: C15_21  and  C27_38 
REMARK       I    between atoms: C16_22  and  N3_24 
REMARK    8  A    between atoms: N3_24  and  C17_25 
REMARK    9  A    between atoms: C17_25  and  C18_26 
REMARK   10  A    between atoms: C17_25  and  C20_30 
REMARK   11  A    between atoms: C18_26  and  C19_27 
REMARK   12  A    between atoms: C19_27  and  O6_29 
ROOT
HETATM    1  C1  UNL     1      -6.033   5.016  12.913  1.00  0.00     0.015 C 
HETATM    2  C2  UNL     1      -5.317   5.562  13.710  1.00  0.00    -0.078 C 
HETATM    3  C3  UNL     1      -4.431   6.227  14.700  1.00  0.00     0.128 C 
HETATM    4  C4  UNL     1      -3.229   5.325  14.987  1.00  0.00     0.052 C 
HETATM    5  C5  UNL     1      -2.235   5.631  13.873  1.00  0.00     0.010 C 
HETATM    6  C6  UNL     1      -2.535   7.071  13.394  1.00  0.00     0.002 C 
HETATM    7  C7  UNL     1      -1.360   8.060  13.527  1.00  0.00    -0.004 C 
HETATM    8  C8  UNL     1      -0.186   7.705  12.612  1.00  0.00     0.010 C 
HETATM    9  C9  UNL     1       0.854   8.818  12.644  1.00  0.00     0.035 C 
HETATM   10  C10 UNL     1       1.328   9.143  14.043  1.00  0.00    -0.069 C 
HETATM   11  C11 UNL     1       2.638   9.362  14.256  1.00  0.00     0.030 C 
HETATM   12  C12 UNL     1       3.151   9.879  15.559  1.00  0.00     0.032 C 
HETATM   13  N1  UNL     1       4.338  10.362  15.769  1.00  0.00    -0.271 N 
ATOM     14  H1  UNL     1       4.647  10.746  16.662  1.00  0.00     0.194 HD
HETATM   15  C30 UNL     1       2.188   9.945  16.725  1.00  0.00     0.060 C 
HETATM   16  C31 UNL     1       0.958   9.078  16.519  1.00  0.00     0.020 C 
HETATM   17  C32 UNL     1       0.265   9.290  15.143  1.00  0.00    -0.016 C 
HETATM   18  C33 UNL     1      -0.322  10.719  15.053  1.00  0.00     0.020 C 
HETATM   19  C34 UNL     1      -0.853   8.189  14.986  1.00  0.00     0.002 C 
HETATM   20  C35 UNL     1      -2.025   8.309  15.989  1.00  0.00     0.007 C 
HETATM   21  C36 UNL     1      -3.382   8.550  15.329  1.00  0.00     0.014 C 
HETATM   22  C37 UNL     1      -3.785   7.557  14.189  1.00  0.00     0.003 C 
HETATM   23  C38 UNL     1      -4.743   8.352  13.265  1.00  0.00     0.020 C 
ENDROOT
BRANCH   3  24
HETATM   24  O1  UNL     1      -5.175   6.424  15.894  1.00  0.00    -0.377 OA
HETATM   25  H2  UNL     1      -5.599   5.576  16.108  1.00  0.00     0.211 HD
ENDBRANCH   3  24
BRANCH  13  26
HETATM   26  O2  UNL     1       5.148  10.296  14.626  1.00  0.00    -0.271 OA
BRANCH  26  27
HETATM   27  C13 UNL     1       6.150   9.315  14.830  1.00  0.00     0.303 C 
BRANCH  27  28
HETATM   28  C14 UNL     1       7.098   9.548  16.009  1.00  0.00     0.244 C 
HETATM   29  O3  UNL     1       7.575   8.660  16.713  1.00  0.00    -0.271 OA
HETATM   30  N2  UNL     1       7.429  10.883  16.174  1.00  0.00    -0.346 N 
HETATM   31  H16 UNL     1       7.071  11.576  15.524  1.00  0.00     0.163 HD
BRANCH  30  32
HETATM   32  C15 UNL     1       8.317  11.359  17.252  1.00  0.00     0.180 C 
BRANCH  32  33
HETATM   33  C16 UNL     1       7.545  11.376  18.607  1.00  0.00     0.241 C 
HETATM   34  O4  UNL     1       6.958  10.400  19.063  1.00  0.00    -0.271 OA
HETATM   35  N3  UNL     1       7.602  12.579  19.283  1.00  0.00    -0.354 N 
HETATM   36  H18 UNL     1       8.298  13.233  18.949  1.00  0.00     0.162 HD
BRANCH  35  37
HETATM   37  C17 UNL     1       7.103  12.796  20.646  1.00  0.00     0.098 C 
BRANCH  37  38
HETATM   38  C18 UNL     1       8.132  13.604  21.461  1.00  0.00     0.135 C 
BRANCH  38  39
HETATM   39  C19 UNL     1       8.971  12.753  22.369  1.00  0.00     0.141 C 
HETATM   40  O5  UNL     1       9.388  13.035  23.481  1.00  0.00    -0.650 OA
BRANCH  39  41
HETATM   41  O6  UNL     1       9.216  11.535  21.843  1.00  0.00    -0.776 OA
HETATM   42  H22 UNL     1       9.739  11.080  22.532  1.00  0.00     0.167 HD
ENDBRANCH  39  41
ENDBRANCH  38  39
ENDBRANCH  37  38
BRANCH  37  43
HETATM   43  C20 UNL     1       5.685  13.453  20.634  1.00  0.00     0.014 C 
HETATM   44  C21 UNL     1       5.554  14.647  21.585  1.00  0.00     0.033 C 
HETATM   45  C22 UNL     1       5.562  14.234  23.054  1.00  0.00     0.169 C 
HETATM   46  O7  UNL     1       5.452  12.825  23.238  1.00  0.00    -0.381 OA
HETATM   47  C23 UNL     1       4.421  12.171  22.493  1.00  0.00     0.054 C 
HETATM   48  C24 UNL     1       3.040  12.564  23.038  1.00  0.00     0.045 C 
HETATM   49  C25 UNL     1       4.629  10.669  22.737  1.00  0.00     0.045 C 
HETATM   50  C26 UNL     1       4.534  12.483  20.984  1.00  0.00     0.044 C 
ENDBRANCH  37  43
ENDBRANCH  35  37
ENDBRANCH  32  33
BRANCH  32  51
HETATM   51  C27 UNL     1       9.595  10.481  17.308  1.00  0.00     0.009 C 
HETATM   52  C28 UNL     1      10.383  10.659  18.613  1.00  0.00     0.012 C 
HETATM   53  C29 UNL     1      10.535  10.793  16.129  1.00  0.00     0.012 C 
ENDBRANCH  32  51
ENDBRANCH  30  32
ENDBRANCH  27  28
ENDBRANCH  26  27
ENDBRANCH  13  26
TORSDOF 12
ENDMDL
MODEL 8
REMARK minimizedAffinity -7.60791492
REMARK CNNscore 0.154578462
REMARK CNNaffinity 6.83917475
REMARK  12 active torsions:
REMARK  status: ('A' for Active; 'I' for Inactive)
REMARK    1  A    between atoms: C3_3  and  O1_4 
REMARK    2  A    between atoms: N1_14  and  O2_16 
REMARK    3  A    between atoms: O2_16  and  C13_17 
REMARK    4  A    between atoms: C13_17  and  C14_18 
REMARK       I    between atoms: C14_18  and  N2_20 
REMARK    5  A    between atoms: N2_20  and  C15_21 
REMARK    6  A    between atoms: C15_21  and  C16_22 
REMARK    7  A    between atoms: C15_21  and  C27_38 
REMARK       I    between atoms: C16_22  and  N3_24 
REMARK    8  A    between atoms: N3_24  and  C17_25 
REMARK    9  A    between atoms: C17_25  and  C18_26 
REMARK   10  A    between atoms: C17_25  and  C20_30 
REMARK   11  A    between atoms: C18_26  and  C19_27 
REMARK   12  A    between atoms: C19_27  and  O6_29 
ROOT
HETATM    1  C1  UNL     1       2.419   7.897  12.137  1.00  0.00     0.015 C 
HETATM    2  C2  UNL     1       1.589   7.300  12.771  1.00  0.00    -0.078 C 
HETATM    3  C3  UNL     1       0.569   6.566  13.562  1.00  0.00     0.128 C 
HETATM    4  C4  UNL     1       0.115   7.440  14.734  1.00  0.00     0.052 C 
HETATM    5  C5  UNL     1      -0.967   8.343  14.153  1.00  0.00     0.010 C 
HETATM    6  C6  UNL     1      -1.574   7.588  12.946  1.00  0.00     0.002 C 
HETATM    7  C7  UNL     1      -3.086   7.306  13.048  1.00  0.00    -0.004 C 
HETATM    8  C8  UNL     1      -3.926   8.585  13.022  1.00  0.00     0.010 C 
HETATM    9  C9  UNL     1      -5.405   8.234  12.929  1.00  0.00     0.035 C 
HETATM   10  C10 UNL     1      -5.861   7.301  14.028  1.00  0.00    -0.069 C 
HETATM   11  C11 UNL     1      -7.043   7.526  14.630  1.00  0.00     0.030 C 
HETATM   12  C12 UNL     1      -7.648   6.543  15.577  1.00  0.00     0.032 C 
HETATM   13  N1  UNL     1      -8.878   6.549  15.994  1.00  0.00    -0.271 N 
ATOM     14  H1  UNL     1      -9.273   5.840  16.610  1.00  0.00     0.194 HD
HETATM   15  C30 UNL     1      -6.797   5.374  16.025  1.00  0.00     0.060 C 
HETATM   16  C31 UNL     1      -5.314   5.602  15.784  1.00  0.00     0.020 C 
HETATM   17  C32 UNL     1      -4.980   6.082  14.344  1.00  0.00    -0.016 C 
HETATM   18  C33 UNL     1      -5.313   4.973  13.318  1.00  0.00     0.020 C 
HETATM   19  C34 UNL     1      -3.453   6.475  14.303  1.00  0.00     0.002 C 
HETATM   20  C35 UNL     1      -2.475   5.295  14.513  1.00  0.00     0.007 C 
HETATM   21  C36 UNL     1      -1.552   5.037  13.324  1.00  0.00     0.014 C 
HETATM   22  C37 UNL     1      -0.756   6.271  12.784  1.00  0.00     0.003 C 
HETATM   23  C38 UNL     1      -0.495   5.974  11.285  1.00  0.00     0.020 C 
ENDROOT
BRANCH   3  24
HETATM   24  O1  UNL     1       1.168   5.378  14.058  1.00  0.00    -0.377 OA
HETATM   25  H2  UNL     1       2.012   5.633  14.465  1.00  0.00     0.211 HD
ENDBRANCH   3  24
BRANCH  13  26
HETATM   26  O2  UNL     1      -9.600   7.645  15.499  1.00  0.00    -0.271 OA
BRANCH  26  27
HETATM   27  C13 UNL     1     -10.766   7.170  14.848  1.00  0.00     0.303 C 
BRANCH  27  28
HETATM   28  C14 UNL     1     -11.935   8.153  14.748  1.00  0.00     0.244 C 
HETATM   29  O3  UNL     1     -12.462   8.513  13.697  1.00  0.00    -0.271 OA
HETATM   30  N2  UNL     1     -12.400   8.560  15.987  1.00  0.00    -0.346 N 
HETATM   31  H16 UNL     1     -11.983   8.181  16.832  1.00  0.00     0.163 HD
BRANCH  30  32
HETATM   32  C15 UNL     1     -13.511   9.516  16.150  1.00  0.00     0.180 C 
BRANCH  32  33
HETATM   33  C16 UNL     1     -14.866   8.748  16.222  1.00  0.00     0.241 C 
HETATM   34  O4  UNL     1     -15.933   9.224  15.849  1.00  0.00    -0.271 OA
HETATM   35  N3  UNL     1     -14.769   7.459  16.710  1.00  0.00    -0.354 N 
HETATM   36  H18 UNL     1     -13.831   7.083  16.759  1.00  0.00     0.162 HD
BRANCH  35  37
HETATM   37  C17 UNL     1     -15.865   6.484  16.717  1.00  0.00     0.098 C 
BRANCH  37  38
HETATM   38  C18 UNL     1     -16.791   6.740  17.923  1.00  0.00     0.135 C 
BRANCH  38  39
HETATM   39  C19 UNL     1     -16.295   6.118  19.195  1.00  0.00     0.141 C 
HETATM   40  O5  UNL     1     -16.765   5.162  19.790  1.00  0.00    -0.650 OA
BRANCH  39  41
HETATM   41  O6  UNL     1     -15.173   6.714  19.650  1.00  0.00    -0.776 OA
HETATM   42  H22 UNL     1     -14.944   6.207  20.454  1.00  0.00     0.167 HD
ENDBRANCH  39  41
ENDBRANCH  38  39
ENDBRANCH  37  38
BRANCH  37  43
HETATM   43  C20 UNL     1     -16.630   6.478  15.354  1.00  0.00     0.014 C 
HETATM   44  C21 UNL     1     -18.128   6.193  15.492  1.00  0.00     0.033 C 
HETATM   45  C22 UNL     1     -18.418   4.746  15.880  1.00  0.00     0.169 C 
HETATM   46  O7  UNL     1     -17.269   3.907  15.804  1.00  0.00    -0.381 OA
HETATM   47  C23 UNL     1     -16.494   4.005  14.606  1.00  0.00     0.054 C 
HETATM   48  C24 UNL     1     -17.269   3.409  13.422  1.00  0.00     0.045 C 
HETATM   49  C25 UNL     1     -15.247   3.143  14.853  1.00  0.00     0.045 C 
HETATM   50  C26 UNL     1     -16.081   5.466  14.323  1.00  0.00     0.044 C 
ENDBRANCH  37  43
ENDBRANCH  35  37
ENDBRANCH  32  33
BRANCH  32  51
HETATM   51  C27 UNL     1     -13.265  10.403  17.398  1.00  0.00     0.009 C 
HETATM   52  C28 UNL     1     -11.809  10.362  17.883  1.00  0.00     0.012 C 
HETATM   53  C29 UNL     1     -14.176   9.981  18.566  1.00  0.00     0.012 C 
ENDBRANCH  32  51
ENDBRANCH  30  32
ENDBRANCH  27  28
ENDBRANCH  26  27
ENDBRANCH  13  26
TORSDOF 12
ENDMDL
MODEL 9
REMARK minimizedAffinity -8.21360016
REMARK CNNscore 0.14710474
REMARK CNNaffinity 5.58165598
REMARK  12 active torsions:
REMARK  status: ('A' for Active; 'I' for Inactive)
REMARK    1  A    between atoms: C3_3  and  O1_4 
REMARK    2  A    between atoms: N1_14  and  O2_16 
REMARK    3  A    between atoms: O2_16  and  C13_17 
REMARK    4  A    between atoms: C13_17  and  C14_18 
REMARK       I    between atoms: C14_18  and  N2_20 
REMARK    5  A    between atoms: N2_20  and  C15_21 
REMARK    6  A    between atoms: C15_21  and  C16_22 
REMARK    7  A    between atoms: C15_21  and  C27_38 
REMARK       I    between atoms: C16_22  and  N3_24 
REMARK    8  A    between atoms: N3_24  and  C17_25 
REMARK    9  A    between atoms: C17_25  and  C18_26 
REMARK   10  A    between atoms: C17_25  and  C20_30 
REMARK   11  A    between atoms: C18_26  and  C19_27 
REMARK   12  A    between atoms: C19_27  and  O6_29 
ROOT
HETATM    1  C1  UNL     1       9.187  19.095  24.005  1.00  0.00     0.015 C 
HETATM    2  C2  UNL     1       8.875  17.936  24.082  1.00  0.00    -0.078 C 
HETATM    3  C3  UNL     1       8.486  16.506  24.187  1.00  0.00     0.128 C 
HETATM    4  C4  UNL     1       7.130  16.403  24.890  1.00  0.00     0.052 C 
HETATM    5  C5  UNL     1       6.100  16.615  23.787  1.00  0.00     0.010 C 
HETATM    6  C6  UNL     1       6.772  16.183  22.463  1.00  0.00     0.002 C 
HETATM    7  C7  UNL     1       6.057  15.042  21.712  1.00  0.00    -0.004 C 
HETATM    8  C8  UNL     1       4.675  15.452  21.197  1.00  0.00     0.010 C 
HETATM    9  C9  UNL     1       4.107  14.357  20.304  1.00  0.00     0.035 C 
HETATM   10  C10 UNL     1       4.061  13.006  20.982  1.00  0.00    -0.069 C 
HETATM   11  C11 UNL     1       2.975  12.229  20.820  1.00  0.00     0.030 C 
HETATM   12  C12 UNL     1       2.940  10.812  21.290  1.00  0.00     0.032 C 
HETATM   13  N1  UNL     1       2.056   9.923  20.952  1.00  0.00    -0.271 N 
ATOM     14  H1  UNL     1       2.082   8.950  21.258  1.00  0.00     0.194 HD
HETATM   15  C30 UNL     1       4.079  10.324  22.159  1.00  0.00     0.060 C 
HETATM   16  C31 UNL     1       4.872  11.463  22.780  1.00  0.00     0.020 C 
HETATM   17  C32 UNL     1       5.306  12.552  21.759  1.00  0.00    -0.016 C 
HETATM   18  C33 UNL     1       6.316  11.965  20.744  1.00  0.00     0.020 C 
HETATM   19  C34 UNL     1       5.927  13.757  22.567  1.00  0.00     0.002 C 
HETATM   20  C35 UNL     1       7.243  13.429  23.309  1.00  0.00     0.007 C 
HETATM   21  C36 UNL     1       8.441  14.254  22.840  1.00  0.00     0.014 C 
HETATM   22  C37 UNL     1       8.244  15.805  22.809  1.00  0.00     0.003 C 
HETATM   23  C38 UNL     1       9.212  16.325  21.715  1.00  0.00     0.020 C 
ENDROOT
BRANCH   3  24
HETATM   24  O1  UNL     1       9.474  15.837  24.957  1.00  0.00    -0.377 OA
HETATM   25  H2  UNL     1       9.617  16.365  25.759  1.00  0.00     0.211 HD
ENDBRANCH   3  24
BRANCH  13  26
HETATM   26  O2  UNL     1       1.062  10.452  20.117  1.00  0.00    -0.271 OA
BRANCH  26  27
HETATM   27  C13 UNL     1       1.510  10.392  18.774  1.00  0.00     0.303 C 
BRANCH  27  28
HETATM   28  C14 UNL     1       0.529  10.890  17.709  1.00  0.00     0.244 C 
HETATM   29  O3  UNL     1       0.579  11.994  17.170  1.00  0.00    -0.271 OA
HETATM   30  N2  UNL     1      -0.407   9.933  17.353  1.00  0.00    -0.346 N 
HETATM   31  H16 UNL     1      -0.366   9.008  17.770  1.00  0.00     0.163 HD
BRANCH  30  32
HETATM   32  C15 UNL     1      -1.465  10.181  16.356  1.00  0.00     0.180 C 
BRANCH  32  33
HETATM   33  C16 UNL     1      -1.196   9.335  15.074  1.00  0.00     0.241 C 
HETATM   34  O4  UNL     1      -1.543   9.684  13.950  1.00  0.00    -0.271 OA
HETATM   35  N3  UNL     1      -0.498   8.164  15.296  1.00  0.00    -0.354 N 
HETATM   36  H18 UNL     1      -0.055   8.088  16.202  1.00  0.00     0.162 HD
BRANCH  35  37
HETATM   37  C17 UNL     1       0.020   7.288  14.240  1.00  0.00     0.098 C 
BRANCH  37  38
HETATM   38  C18 UNL     1       1.556   7.399  14.169  1.00  0.00     0.135 C 
BRANCH  38  39
HETATM   39  C19 UNL     1       2.213   7.430  15.518  1.00  0.00     0.141 C 
HETATM   40  O5  UNL     1       3.390   7.629  15.769  1.00  0.00    -0.650 OA
BRANCH  39  41
HETATM   41  O6  UNL     1       1.327   7.248  16.519  1.00  0.00    -0.776 OA
HETATM   42  H22 UNL     1       1.869   7.315  17.330  1.00  0.00     0.167 HD
ENDBRANCH  39  41
ENDBRANCH  38  39
ENDBRANCH  37  38
BRANCH  37  43
HETATM   43  C20 UNL     1      -0.475   5.817  14.428  1.00  0.00     0.014 C 
HETATM   44  C21 UNL     1      -0.112   4.893  13.261  1.00  0.00     0.033 C 
HETATM   45  C22 UNL     1      -0.908   5.203  11.996  1.00  0.00     0.169 C 
HETATM   46  O7  UNL     1      -1.978   6.116  12.220  1.00  0.00    -0.381 OA
HETATM   47  C23 UNL     1      -2.823   5.836  13.340  1.00  0.00     0.054 C 
HETATM   48  C24 UNL     1      -3.667   4.583  13.069  1.00  0.00     0.045 C 
HETATM   49  C25 UNL     1      -3.767   7.042  13.454  1.00  0.00     0.045 C 
HETATM   50  C26 UNL     1      -2.000   5.684  14.638  1.00  0.00     0.044 C 
ENDBRANCH  37  43
ENDBRANCH  35  37
ENDBRANCH  32  33
BRANCH  32  51
HETATM   51  C27 UNL     1      -2.855   9.889  16.979  1.00  0.00     0.009 C 
HETATM   52  C28 UNL     1      -4.006  10.548  16.206  1.00  0.00     0.012 C 
HETATM   53  C29 UNL     1      -2.919  10.367  18.442  1.00  0.00     0.012 C 
ENDBRANCH  32  51
ENDBRANCH  30  32
ENDBRANCH  27  28
ENDBRANCH  26  27
ENDBRANCH  13  26
TORSDOF 12
ENDMDL
