MODEL 1
REMARK minimizedAffinity -7.67063427
REMARK CNNscore 0.454444259
REMARK CNNaffinity 7.45112419
REMARK  9 active torsions:
REMARK  status: ('A' for Active; 'I' for Inactive)
REMARK       I    between atoms: N1_1  and  C1_2 
REMARK       I    between atoms: C1_2  and  N2_3 
REMARK    1  A    between atoms: N3_4  and  C2_6 
REMARK    2  A    between atoms: C2_6  and  C3_7 
REMARK    3  A    between atoms: C3_7  and  C4_8 
REMARK    4  A    between atoms: C4_8  and  C5_9 
REMARK    5  A    between atoms: C5_9  and  O1_10 
REMARK    6  A    between atoms: C14_20  and  S1_21 
REMARK    7  A    between atoms: C23_33  and  C24_34 
REMARK    8  A    between atoms: C24_34  and  O6_35 
REMARK    9  A    between atoms: C30_41  and  O7_42 
ROOT
HETATM    1  C2  UNL     1       2.516  11.101  20.275  1.00  0.00     0.170 C 
HETATM    2  O2  UNL     1       3.114  11.116  18.920  1.00  0.00    -0.316 OA
HETATM    3  C6  UNL     1       4.331  11.723  18.778  1.00  0.00     0.072 C 
HETATM    4  C7  UNL     1       5.494  11.175  19.305  1.00  0.00     0.037 C 
HETATM    5  C8  UNL     1       6.647  11.956  19.369  1.00  0.00     0.010 C 
HETATM    6  C9  UNL     1       6.641  13.277  18.898  1.00  0.00    -0.058 C 
HETATM    7  C10 UNL     1       5.508  13.755  18.228  1.00  0.00     0.010 C 
HETATM    8  C11 UNL     1       4.361  12.966  18.145  1.00  0.00     0.037 C 
HETATM    9  C12 UNL     1       7.797  14.199  19.202  1.00  0.00     0.040 C 
HETATM   10  C13 UNL     1       7.573  15.053  20.467  1.00  0.00     0.029 C 
HETATM   11  C14 UNL     1       7.477  14.310  21.824  1.00  0.00     0.152 C 
HETATM   12  C15 UNL     1       6.968  15.217  23.008  1.00  0.00     0.107 C 
HETATM   13  C16 UNL     1       7.567  16.613  23.005  1.00  0.00     0.001 C 
HETATM   14  C17 UNL     1       6.811  17.715  22.843  1.00  0.00    -0.036 C 
HETATM   15  C18 UNL     1       5.393  17.576  22.406  1.00  0.00     0.133 C 
HETATM   16  C19 UNL     1       4.753  16.670  23.431  1.00  0.00     0.015 C 
HETATM   17  C20 UNL     1       4.747  17.356  24.830  1.00  0.00     0.039 C 
HETATM   18  C21 UNL     1       6.028  18.032  25.430  1.00  0.00     0.123 C 
HETATM   19  C22 UNL     1       5.612  18.456  26.874  1.00  0.00     0.039 C 
HETATM   20  C23 UNL     1       6.594  19.305  27.716  1.00  0.00     0.023 C 
HETATM   21  C25 UNL     1       7.944  18.602  27.950  1.00  0.00     0.101 C 
HETATM   22  C26 UNL     1       8.781  18.800  26.771  1.00  0.00    -0.101 C 
HETATM   23  C27 UNL     1       9.233  19.055  25.691  1.00  0.00    -0.066 C 
HETATM   24  C28 UNL     1       9.579  19.421  24.361  1.00  0.00     0.029 A 
HETATM   25  C29 UNL     1      10.917  19.757  24.112  1.00  0.00     0.057 A 
HETATM   26  C30 UNL     1      11.325  20.099  22.830  1.00  0.00     0.067 A 
HETATM   27  C31 UNL     1      10.415  20.130  21.785  1.00  0.00     0.037 A 
HETATM   28  C32 UNL     1       9.080  19.808  22.034  1.00  0.00     0.014 A 
HETATM   29  C33 UNL     1       8.626  19.448  23.328  1.00  0.00    -0.006 A 
HETATM   30  C34 UNL     1       7.148  19.050  23.447  1.00  0.00     0.186 C 
HETATM   31  O8  UNL     1       6.465  19.216  24.720  1.00  0.00    -0.371 OA
HETATM   32  C35 UNL     1       5.412  15.236  23.381  1.00  0.00     0.046 C 
HETATM   33  C36 UNL     1       4.555  14.199  22.651  1.00  0.00    -0.052 A 
HETATM   34  C37 UNL     1       3.673  14.522  21.614  1.00  0.00     0.008 A 
HETATM   35  C38 UNL     1       2.956  13.526  20.942  1.00  0.00     0.012 A 
HETATM   36  C39 UNL     1       3.151  12.162  21.226  1.00  0.00    -0.003 A 
HETATM   37  C40 UNL     1       3.990  11.844  22.306  1.00  0.00     0.012 A 
HETATM   38  C41 UNL     1       4.667  12.847  23.012  1.00  0.00     0.008 A 
HETATM   39 NA1  UNL     1       5.569  14.987  22.534  1.00  0.00    -0.237 Na
ENDROOT
BRANCH   1  40
HETATM   40  N3  UNL     1       1.053  11.331  20.170  1.00  0.00    -0.336 N 
HETATM   41  C1  UNL     1       0.319  10.990  19.187  1.00  0.00     0.124 C 
HETATM   42  N1  UNL     1      -1.000  11.291  19.227  1.00  0.00    -0.279 NA
HETATM   43  N2  UNL     1       0.582  10.339  18.037  1.00  0.00    -0.279 NA
HETATM   44  H1  UNL     1      -1.246  11.618  20.158  1.00  0.00     0.126 HD
HETATM   45  H2  UNL     1      -1.570  10.495  18.970  1.00  0.00     0.126 HD
HETATM   46  H3  UNL     1       1.558  10.148  17.843  1.00  0.00     0.126 HD
HETATM   47  H4  UNL     1       0.111  10.739  17.231  1.00  0.00     0.126 HD
ATOM     48  H3  UNL     1       0.597  11.801  20.953  1.00  0.00     0.165 HD
ENDBRANCH   1  40
BRANCH   1  49
HETATM   49  C3  UNL     1       2.694   9.621  20.760  1.00  0.00     0.069 C 
BRANCH  49  50
HETATM   50  C4  UNL     1       3.256   9.422  22.179  1.00  0.00     0.031 C 
BRANCH  50  51
HETATM   51  C5  UNL     1       2.485   8.456  23.064  1.00  0.00     0.164 C 
BRANCH  51  52
HETATM   52  O1  UNL     1       1.564   7.714  22.263  1.00  0.00    -0.401 OA
HETATM   53  H11 UNL     1       0.960   8.365  21.866  1.00  0.00     0.209 HD
ENDBRANCH  51  52
ENDBRANCH  50  51
ENDBRANCH  49  50
ENDBRANCH   1  49
BRANCH  11  54
HETATM   54  S1  UNL     1       9.064  13.538  22.301  1.00  0.00     0.108 S 
HETATM   55  O3  UNL     1       8.987  12.171  21.792  1.00  0.00    -0.595 OA
HETATM   56  O4  UNL     1       9.059  13.605  23.763  1.00  0.00    -0.595 OA
HETATM   57  O5  UNL     1      10.077  14.365  21.650  1.00  0.00    -0.595 OA
ENDBRANCH  11  54
BRANCH  20  58
HETATM   58  C24 UNL     1       5.951  19.664  29.064  1.00  0.00     0.169 C 
BRANCH  58  59
HETATM   59  O6  UNL     1       4.722  18.971  29.248  1.00  0.00    -0.400 OA
HETATM   60  H34 UNL     1       4.340  19.288  30.083  1.00  0.00     0.209 HD
ENDBRANCH  58  59
ENDBRANCH  20  58
BRANCH  26  61
HETATM   61  O7  UNL     1      12.642  20.393  22.628  1.00  0.00    -0.361 OA
HETATM   62  H38 UNL     1      12.820  20.297  21.677  1.00  0.00     0.217 HD
ENDBRANCH  26  61
TORSDOF 9
ENDMDL
MODEL 2
REMARK minimizedAffinity -8.07141209
REMARK CNNscore 0.346407354
REMARK CNNaffinity 7.00338221
REMARK  9 active torsions:
REMARK  status: ('A' for Active; 'I' for Inactive)
REMARK       I    between atoms: N1_1  and  C1_2 
REMARK       I    between atoms: C1_2  and  N2_3 
REMARK    1  A    between atoms: N3_4  and  C2_6 
REMARK    2  A    between atoms: C2_6  and  C3_7 
REMARK    3  A    between atoms: C3_7  and  C4_8 
REMARK    4  A    between atoms: C4_8  and  C5_9 
REMARK    5  A    between atoms: C5_9  and  O1_10 
REMARK    6  A    between atoms: C14_20  and  S1_21 
REMARK    7  A    between atoms: C23_33  and  C24_34 
REMARK    8  A    between atoms: C24_34  and  O6_35 
REMARK    9  A    between atoms: C30_41  and  O7_42 
ROOT
HETATM    1  C2  UNL     1      -0.585   9.231  14.724  1.00  0.00     0.170 C 
HETATM    2  O2  UNL     1      -1.955   9.478  15.233  1.00  0.00    -0.316 OA
HETATM    3  C6  UNL     1      -2.111  10.481  16.149  1.00  0.00     0.072 C 
HETATM    4  C7  UNL     1      -1.978  11.821  15.805  1.00  0.00     0.037 C 
HETATM    5  C8  UNL     1      -1.879  12.776  16.816  1.00  0.00     0.010 C 
HETATM    6  C9  UNL     1      -1.924  12.396  18.165  1.00  0.00    -0.058 C 
HETATM    7  C10 UNL     1      -2.218  11.066  18.486  1.00  0.00     0.010 C 
HETATM    8  C11 UNL     1      -2.339  10.112  17.475  1.00  0.00     0.037 C 
HETATM    9  C12 UNL     1      -1.558  13.383  19.247  1.00  0.00     0.040 C 
HETATM   10  C13 UNL     1      -0.077  13.297  19.668  1.00  0.00     0.029 C 
HETATM   11  C14 UNL     1       0.992  13.673  18.609  1.00  0.00     0.152 C 
HETATM   12  C15 UNL     1       2.461  13.286  19.027  1.00  0.00     0.107 C 
HETATM   13  C16 UNL     1       2.774  13.576  20.484  1.00  0.00     0.001 C 
HETATM   14  C17 UNL     1       3.080  12.599  21.357  1.00  0.00    -0.036 C 
HETATM   15  C18 UNL     1       2.869  11.175  20.972  1.00  0.00     0.133 C 
HETATM   16  C19 UNL     1       3.668  10.989  19.704  1.00  0.00     0.015 C 
HETATM   17  C20 UNL     1       5.188  11.175  19.991  1.00  0.00     0.039 C 
HETATM   18  C21 UNL     1       5.737  12.399  20.801  1.00  0.00     0.123 C 
HETATM   19  C22 UNL     1       7.291  12.259  20.727  1.00  0.00     0.039 C 
HETATM   20  C23 UNL     1       8.169  13.221  21.561  1.00  0.00     0.023 C 
HETATM   21  C25 UNL     1       7.950  14.700  21.194  1.00  0.00     0.101 C 
HETATM   22  C26 UNL     1       6.761  15.180  21.892  1.00  0.00    -0.101 C 
HETATM   23  C27 UNL     1       5.746  15.305  22.518  1.00  0.00    -0.066 C 
HETATM   24  C28 UNL     1       4.549  15.248  23.282  1.00  0.00     0.029 A 
HETATM   25  C29 UNL     1       4.189  16.395  24.004  1.00  0.00     0.057 A 
HETATM   26  C30 UNL     1       3.019  16.413  24.751  1.00  0.00     0.067 A 
HETATM   27  C31 UNL     1       2.201  15.296  24.807  1.00  0.00     0.037 A 
HETATM   28  C32 UNL     1       2.564  14.148  24.099  1.00  0.00     0.014 A 
HETATM   29  C33 UNL     1       3.749  14.093  23.321  1.00  0.00    -0.006 A 
HETATM   30  C34 UNL     1       3.991  12.794  22.539  1.00  0.00     0.186 C 
HETATM   31  O8  UNL     1       5.352  12.412  22.197  1.00  0.00    -0.371 OA
HETATM   32  C35 UNL     1       3.080  11.890  18.549  1.00  0.00     0.046 C 
HETATM   33  C36 UNL     1       2.229  11.110  17.544  1.00  0.00    -0.052 A 
HETATM   34  C37 UNL     1       1.501   9.963  17.878  1.00  0.00     0.008 A 
HETATM   35  C38 UNL     1       0.693   9.321  16.932  1.00  0.00     0.012 A 
HETATM   36  C39 UNL     1       0.518   9.846  15.639  1.00  0.00    -0.003 A 
HETATM   37  C40 UNL     1       1.295  10.962  15.288  1.00  0.00     0.012 A 
HETATM   38  C41 UNL     1       2.144  11.572  16.221  1.00  0.00     0.008 A 
HETATM   39 NA1  UNL     1       2.184  11.890  18.570  1.00  0.00    -0.237 Na
ENDROOT
BRANCH   1  40
HETATM   40  N3  UNL     1      -0.367   7.769  14.587  1.00  0.00    -0.336 N 
HETATM   41  C1  UNL     1      -1.065   6.862  15.143  1.00  0.00     0.124 C 
HETATM   42  N1  UNL     1      -0.727   5.567  14.941  1.00  0.00    -0.279 NA
HETATM   43  N2  UNL     1      -2.154   6.908  15.937  1.00  0.00    -0.279 NA
HETATM   44  H1  UNL     1      -0.027   5.509  14.207  1.00  0.00     0.126 HD
HETATM   45  H2  UNL     1      -1.535   5.005  14.703  1.00  0.00     0.126 HD
HETATM   46  H3  UNL     1      -2.446   7.828  16.244  1.00  0.00     0.126 HD
HETATM   47  H4  UNL     1      -2.118   6.249  16.709  1.00  0.00     0.126 HD
ATOM     48  H3  UNL     1       0.409   7.466  13.997  1.00  0.00     0.165 HD
ENDBRANCH   1  40
BRANCH   1  49
HETATM   49  C3  UNL     1      -0.604   9.811  13.267  1.00  0.00     0.069 C 
BRANCH  49  50
HETATM   50  C4  UNL     1      -0.930   8.821  12.135  1.00  0.00     0.031 C 
BRANCH  50  51
HETATM   51  C5  UNL     1       0.229   8.462  11.218  1.00  0.00     0.164 C 
BRANCH  51  52
HETATM   52  O1  UNL     1      -0.095   8.838   9.879  1.00  0.00    -0.401 OA
HETATM   53  H11 UNL     1      -0.889   8.329   9.636  1.00  0.00     0.209 HD
ENDBRANCH  51  52
ENDBRANCH  50  51
ENDBRANCH  49  50
ENDBRANCH   1  49
BRANCH  11  54
HETATM   54  S1  UNL     1       0.939  15.450  18.179  1.00  0.00     0.108 S 
HETATM   55  O3  UNL     1       2.314  15.793  17.826  1.00  0.00    -0.595 OA
HETATM   56  O4  UNL     1       0.488  16.094  19.413  1.00  0.00    -0.595 OA
HETATM   57  O5  UNL     1      -0.004  15.523  17.066  1.00  0.00    -0.595 OA
ENDBRANCH  11  54
BRANCH  20  58
HETATM   58  C24 UNL     1       9.652  12.854  21.391  1.00  0.00     0.169 C 
BRANCH  58  59
HETATM   59  O6  UNL     1       9.811  11.464  21.136  1.00  0.00    -0.400 OA
HETATM   60  H34 UNL     1      10.767  11.290  21.102  1.00  0.00     0.209 HD
ENDBRANCH  58  59
ENDBRANCH  20  58
BRANCH  26  61
HETATM   61  O7  UNL     1       2.694  17.559  25.415  1.00  0.00    -0.361 OA
HETATM   62  H38 UNL     1       1.742  17.524  25.611  1.00  0.00     0.217 HD
ENDBRANCH  26  61
TORSDOF 9
ENDMDL
MODEL 3
REMARK minimizedAffinity -6.79550695
REMARK CNNscore 0.294478327
REMARK CNNaffinity 7.14511347
REMARK  9 active torsions:
REMARK  status: ('A' for Active; 'I' for Inactive)
REMARK       I    between atoms: N1_1  and  C1_2 
REMARK       I    between atoms: C1_2  and  N2_3 
REMARK    1  A    between atoms: N3_4  and  C2_6 
REMARK    2  A    between atoms: C2_6  and  C3_7 
REMARK    3  A    between atoms: C3_7  and  C4_8 
REMARK    4  A    between atoms: C4_8  and  C5_9 
REMARK    5  A    between atoms: C5_9  and  O1_10 
REMARK    6  A    between atoms: C14_20  and  S1_21 
REMARK    7  A    between atoms: C23_33  and  C24_34 
REMARK    8  A    between atoms: C24_34  and  O6_35 
REMARK    9  A    between atoms: C30_41  and  O7_42 
ROOT
HETATM    1  C2  UNL     1     -11.117  19.078   6.039  1.00  0.00     0.170 C 
HETATM    2  O2  UNL     1     -10.093  18.155   6.582  1.00  0.00    -0.316 OA
HETATM    3  C6  UNL     1      -9.768  17.064   5.825  1.00  0.00     0.072 C 
HETATM    4  C7  UNL     1      -9.059  17.178   4.634  1.00  0.00     0.037 C 
HETATM    5  C8  UNL     1      -8.990  16.083   3.776  1.00  0.00     0.010 C 
HETATM    6  C9  UNL     1      -9.617  14.874   4.109  1.00  0.00    -0.058 C 
HETATM    7  C10 UNL     1     -10.188  14.732   5.380  1.00  0.00     0.010 C 
HETATM    8  C11 UNL     1     -10.238  15.821   6.249  1.00  0.00     0.037 C 
HETATM    9  C12 UNL     1      -9.766  13.783   3.076  1.00  0.00     0.040 C 
HETATM   10  C13 UNL     1     -11.116  13.836   2.331  1.00  0.00     0.029 C 
HETATM   11  C14 UNL     1     -11.392  15.072   1.436  1.00  0.00     0.152 C 
HETATM   12  C15 UNL     1     -12.886  15.180   0.949  1.00  0.00     0.107 C 
HETATM   13  C16 UNL     1     -13.485  13.850   0.525  1.00  0.00     0.001 C 
HETATM   14  C17 UNL     1     -14.532  13.301   1.167  1.00  0.00    -0.036 C 
HETATM   15  C18 UNL     1     -14.971  13.864   2.475  1.00  0.00     0.133 C 
HETATM   16  C19 UNL     1     -15.255  15.321   2.199  1.00  0.00     0.015 C 
HETATM   17  C20 UNL     1     -16.447  15.461   1.206  1.00  0.00     0.039 C 
HETATM   18  C21 UNL     1     -16.523  14.635  -0.124  1.00  0.00     0.123 C 
HETATM   19  C22 UNL     1     -17.785  15.184  -0.861  1.00  0.00     0.039 C 
HETATM   20  C23 UNL     1     -18.262  14.480  -2.153  1.00  0.00     0.023 C 
HETATM   21  C25 UNL     1     -17.198  14.487  -3.266  1.00  0.00     0.101 C 
HETATM   22  C26 UNL     1     -16.260  13.396  -3.017  1.00  0.00    -0.101 C 
HETATM   23  C27 UNL     1     -15.617  12.490  -2.568  1.00  0.00    -0.066 C 
HETATM   24  C28 UNL     1     -14.973  11.433  -1.867  1.00  0.00     0.029 A 
HETATM   25  C29 UNL     1     -14.347  10.439  -2.631  1.00  0.00     0.057 A 
HETATM   26  C30 UNL     1     -13.680   9.394  -2.008  1.00  0.00     0.067 A 
HETATM   27  C31 UNL     1     -13.638   9.309  -0.625  1.00  0.00     0.037 A 
HETATM   28  C32 UNL     1     -14.272  10.291   0.138  1.00  0.00     0.014 A 
HETATM   29  C33 UNL     1     -14.959  11.377  -0.462  1.00  0.00    -0.006 A 
HETATM   30  C34 UNL     1     -15.551  12.422   0.495  1.00  0.00     0.186 C 
HETATM   31  O8  UNL     1     -16.696  13.210   0.068  1.00  0.00    -0.371 OA
HETATM   32  C35 UNL     1     -13.928  16.067   1.777  1.00  0.00     0.046 C 
HETATM   33  C36 UNL     1     -13.320  16.906   2.903  1.00  0.00    -0.052 A 
HETATM   34  C37 UNL     1     -13.459  16.592   4.259  1.00  0.00     0.008 A 
HETATM   35  C38 UNL     1     -12.833  17.362   5.246  1.00  0.00     0.012 A 
HETATM   36  C39 UNL     1     -11.977  18.428   4.912  1.00  0.00    -0.003 A 
HETATM   37  C40 UNL     1     -11.886  18.778   3.556  1.00  0.00     0.012 A 
HETATM   38  C41 UNL     1     -12.557  18.038   2.573  1.00  0.00     0.008 A 
HETATM   39 NA1  UNL     1     -13.234  15.786   2.270  1.00  0.00    -0.237 Na
ENDROOT
BRANCH   1  40
HETATM   40  N3  UNL     1     -11.998  19.541   7.141  1.00  0.00    -0.336 N 
HETATM   41  C1  UNL     1     -12.153  18.953   8.259  1.00  0.00     0.124 C 
HETATM   42  N1  UNL     1     -13.013  19.486   9.159  1.00  0.00    -0.279 NA
HETATM   43  N2  UNL     1     -11.601  17.843   8.791  1.00  0.00    -0.279 NA
HETATM   44  H1  UNL     1     -13.298  20.412   8.849  1.00  0.00     0.126 HD
HETATM   45  H2  UNL     1     -12.601  19.534  10.083  1.00  0.00     0.126 HD
HETATM   46  H3  UNL     1     -11.013  17.296   8.173  1.00  0.00     0.126 HD
HETATM   47  H4  UNL     1     -12.268  17.261   9.287  1.00  0.00     0.126 HD
ATOM     48  H3  UNL     1     -12.523  20.402   6.989  1.00  0.00     0.165 HD
ENDBRANCH   1  40
BRANCH   1  49
HETATM   49  C3  UNL     1     -10.299  20.333   5.575  1.00  0.00     0.069 C 
BRANCH  49  50
HETATM   50  C4  UNL     1      -8.978  20.608   6.314  1.00  0.00     0.031 C 
BRANCH  50  51
HETATM   51  C5  UNL     1      -9.099  21.391   7.611  1.00  0.00     0.164 C 
BRANCH  51  52
HETATM   52  O1  UNL     1      -8.207  20.838   8.581  1.00  0.00    -0.401 OA
HETATM   53  H11 UNL     1      -8.488  19.916   8.716  1.00  0.00     0.209 HD
ENDBRANCH  51  52
ENDBRANCH  50  51
ENDBRANCH  49  50
ENDBRANCH   1  49
BRANCH  11  54
HETATM   54  S1  UNL     1     -10.282  15.132  -0.016  1.00  0.00     0.108 S 
HETATM   55  O3  UNL     1      -8.952  14.838   0.514  1.00  0.00    -0.595 OA
HETATM   56  O4  UNL     1     -10.413  16.507  -0.498  1.00  0.00    -0.595 OA
HETATM   57  O5  UNL     1     -10.810  14.110  -0.916  1.00  0.00    -0.595 OA
ENDBRANCH  11  54
BRANCH  20  58
HETATM   58  C24 UNL     1     -19.554  15.139  -2.661  1.00  0.00     0.169 C 
BRANCH  58  59
HETATM   59  O6  UNL     1     -20.622  14.201  -2.717  1.00  0.00    -0.400 OA
HETATM   60  H34 UNL     1     -21.385  14.664  -3.102  1.00  0.00     0.209 HD
ENDBRANCH  58  59
ENDBRANCH  20  58
BRANCH  26  61
HETATM   61  O7  UNL     1     -13.062   8.464  -2.791  1.00  0.00    -0.361 OA
HETATM   62  H38 UNL     1     -12.402   8.009  -2.240  1.00  0.00     0.217 HD
ENDBRANCH  26  61
TORSDOF 9
ENDMDL
MODEL 4
REMARK minimizedAffinity -7.02769804
REMARK CNNscore 0.203885481
REMARK CNNaffinity 6.4994545
REMARK  9 active torsions:
REMARK  status: ('A' for Active; 'I' for Inactive)
REMARK       I    between atoms: N1_1  and  C1_2 
REMARK       I    between atoms: C1_2  and  N2_3 
REMARK    1  A    between atoms: N3_4  and  C2_6 
REMARK    2  A    between atoms: C2_6  and  C3_7 
REMARK    3  A    between atoms: C3_7  and  C4_8 
REMARK    4  A    between atoms: C4_8  and  C5_9 
REMARK    5  A    between atoms: C5_9  and  O1_10 
REMARK    6  A    between atoms: C14_20  and  S1_21 
REMARK    7  A    between atoms: C23_33  and  C24_34 
REMARK    8  A    between atoms: C24_34  and  O6_35 
REMARK    9  A    between atoms: C30_41  and  O7_42 
ROOT
HETATM    1  C2  UNL     1       6.698  14.646  22.207  1.00  0.00     0.170 C 
HETATM    2  O2  UNL     1       6.649  13.380  22.975  1.00  0.00    -0.316 OA
HETATM    3  C6  UNL     1       5.822  12.395  22.510  1.00  0.00     0.072 C 
HETATM    4  C7  UNL     1       6.095  11.695  21.340  1.00  0.00     0.037 C 
HETATM    5  C8  UNL     1       5.098  10.904  20.773  1.00  0.00     0.010 C 
HETATM    6  C9  UNL     1       3.836  10.802  21.377  1.00  0.00    -0.058 C 
HETATM    7  C10 UNL     1       3.636  11.385  22.634  1.00  0.00     0.010 C 
HETATM    8  C11 UNL     1       4.640  12.161  23.213  1.00  0.00     0.037 C 
HETATM    9  C12 UNL     1       2.686  10.165  20.636  1.00  0.00     0.040 C 
HETATM   10  C13 UNL     1       1.816  11.187  19.875  1.00  0.00     0.029 C 
HETATM   11  C14 UNL     1       2.477  11.958  18.704  1.00  0.00     0.152 C 
HETATM   12  C15 UNL     1       1.616  13.169  18.178  1.00  0.00     0.107 C 
HETATM   13  C16 UNL     1       0.133  12.862  18.077  1.00  0.00     0.001 C 
HETATM   14  C17 UNL     1      -0.784  13.515  18.813  1.00  0.00    -0.036 C 
HETATM   15  C18 UNL     1      -0.340  14.385  19.939  1.00  0.00     0.133 C 
HETATM   16  C19 UNL     1       0.609  15.380  19.314  1.00  0.00     0.015 C 
HETATM   17  C20 UNL     1      -0.148  16.283  18.295  1.00  0.00     0.039 C 
HETATM   18  C21 UNL     1      -1.101  15.686  17.203  1.00  0.00     0.123 C 
HETATM   19  C22 UNL     1      -1.524  16.912  16.333  1.00  0.00     0.039 C 
HETATM   20  C23 UNL     1      -2.602  16.718  15.241  1.00  0.00     0.023 C 
HETATM   21  C25 UNL     1      -2.197  15.679  14.178  1.00  0.00     0.101 C 
HETATM   22  C26 UNL     1      -2.484  14.346  14.700  1.00  0.00    -0.101 C 
HETATM   23  C27 UNL     1      -2.755  13.387  15.367  1.00  0.00    -0.066 C 
HETATM   24  C28 UNL     1      -3.098  12.384  16.314  1.00  0.00     0.029 A 
HETATM   25  C29 UNL     1      -3.678  11.205  15.823  1.00  0.00     0.057 A 
HETATM   26  C30 UNL     1      -4.013  10.176  16.693  1.00  0.00     0.067 A 
HETATM   27  C31 UNL     1      -3.797  10.306  18.055  1.00  0.00     0.037 A 
HETATM   28  C32 UNL     1      -3.232  11.485  18.547  1.00  0.00     0.014 A 
HETATM   29  C33 UNL     1      -2.871  12.555  17.691  1.00  0.00    -0.006 A 
HETATM   30  C34 UNL     1      -2.195  13.763  18.355  1.00  0.00     0.186 C 
HETATM   31  O8  UNL     1      -2.301  15.072  17.730  1.00  0.00    -0.371 OA
HETATM   32  C35 UNL     1       1.884  14.639  18.748  1.00  0.00     0.046 C 
HETATM   33  C36 UNL     1       3.114  14.775  19.650  1.00  0.00    -0.052 A 
HETATM   34  C37 UNL     1       3.038  14.923  21.038  1.00  0.00     0.008 A 
HETATM   35  C38 UNL     1       4.197  14.985  21.821  1.00  0.00     0.012 A 
HETATM   36  C39 UNL     1       5.475  14.821  21.255  1.00  0.00    -0.003 A 
HETATM   37  C40 UNL     1       5.551  14.732  19.856  1.00  0.00     0.012 A 
HETATM   38  C41 UNL     1       4.392  14.723  19.069  1.00  0.00     0.008 A 
HETATM   39 NA1  UNL     1       2.149  13.990  19.307  1.00  0.00    -0.237 Na
ENDROOT
BRANCH   1  40
HETATM   40  N3  UNL     1       6.770  15.791  23.148  1.00  0.00    -0.336 N 
HETATM   41  C1  UNL     1       7.636  15.937  24.071  1.00  0.00     0.124 C 
HETATM   42  N1  UNL     1       7.557  17.028  24.868  1.00  0.00    -0.279 NA
HETATM   43  N2  UNL     1       8.698  15.197  24.450  1.00  0.00    -0.279 NA
HETATM   44  H1  UNL     1       6.878  17.681  24.485  1.00  0.00     0.126 HD
HETATM   45  H2  UNL     1       8.459  17.477  24.973  1.00  0.00     0.126 HD
HETATM   46  H3  UNL     1       8.804  14.299  23.992  1.00  0.00     0.126 HD
HETATM   47  H4  UNL     1       8.794  15.119  25.457  1.00  0.00     0.126 HD
ATOM     48  H3  UNL     1       6.067  16.523  23.048  1.00  0.00     0.165 HD
ENDBRANCH   1  40
BRANCH   1  49
HETATM   49  C3  UNL     1       8.080  14.596  21.468  1.00  0.00     0.069 C 
BRANCH  49  50
HETATM   50  C4  UNL     1       8.419  15.790  20.559  1.00  0.00     0.031 C 
BRANCH  50  51
HETATM   51  C5  UNL     1       9.829  15.806  19.989  1.00  0.00     0.164 C 
BRANCH  51  52
HETATM   52  O1  UNL     1      10.579  14.731  20.557  1.00  0.00    -0.401 OA
HETATM   53  H11 UNL     1      10.600  14.889  21.518  1.00  0.00     0.209 HD
ENDBRANCH  51  52
ENDBRANCH  50  51
ENDBRANCH  49  50
ENDBRANCH   1  49
BRANCH  11  54
HETATM   54  S1  UNL     1       2.887  10.860  17.301  1.00  0.00     0.108 S 
HETATM   55  O3  UNL     1       2.044   9.681  17.486  1.00  0.00    -0.595 OA
HETATM   56  O4  UNL     1       4.311  10.578  17.483  1.00  0.00    -0.595 OA
HETATM   57  O5  UNL     1       2.562  11.651  16.117  1.00  0.00    -0.595 OA
ENDBRANCH  11  54
BRANCH  20  58
HETATM   58  C24 UNL     1      -2.910  18.063  14.565  1.00  0.00     0.169 C 
BRANCH  58  59
HETATM   59  O6  UNL     1      -2.793  19.139  15.488  1.00  0.00    -0.400 OA
HETATM   60  H34 UNL     1      -3.060  19.946  15.016  1.00  0.00     0.209 HD
ENDBRANCH  58  59
ENDBRANCH  20  58
BRANCH  26  61
HETATM   61  O7  UNL     1      -4.549   9.037  16.169  1.00  0.00    -0.361 OA
HETATM   62  H38 UNL     1      -4.431   8.329  16.825  1.00  0.00     0.217 HD
ENDBRANCH  26  61
TORSDOF 9
ENDMDL
MODEL 5
REMARK minimizedAffinity -8.12508392
REMARK CNNscore 0.197044283
REMARK CNNaffinity 6.499722
REMARK  9 active torsions:
REMARK  status: ('A' for Active; 'I' for Inactive)
REMARK       I    between atoms: N1_1  and  C1_2 
REMARK       I    between atoms: C1_2  and  N2_3 
REMARK    1  A    between atoms: N3_4  and  C2_6 
REMARK    2  A    between atoms: C2_6  and  C3_7 
REMARK    3  A    between atoms: C3_7  and  C4_8 
REMARK    4  A    between atoms: C4_8  and  C5_9 
REMARK    5  A    between atoms: C5_9  and  O1_10 
REMARK    6  A    between atoms: C14_20  and  S1_21 
REMARK    7  A    between atoms: C23_33  and  C24_34 
REMARK    8  A    between atoms: C24_34  and  O6_35 
REMARK    9  A    between atoms: C30_41  and  O7_42 
ROOT
HETATM    1  C2  UNL     1       0.424  15.703  13.001  1.00  0.00     0.170 C 
HETATM    2  O2  UNL     1      -0.907  15.055  13.056  1.00  0.00    -0.316 OA
HETATM    3  C6  UNL     1      -1.286  14.501  14.247  1.00  0.00     0.072 C 
HETATM    4  C7  UNL     1      -1.598  15.278  15.356  1.00  0.00     0.037 C 
HETATM    5  C8  UNL     1      -1.712  14.668  16.604  1.00  0.00     0.010 C 
HETATM    6  C9  UNL     1      -1.525  13.285  16.743  1.00  0.00    -0.058 C 
HETATM    7  C10 UNL     1      -1.370  12.502  15.594  1.00  0.00     0.010 C 
HETATM    8  C11 UNL     1      -1.277  13.108  14.341  1.00  0.00     0.037 C 
HETATM    9  C12 UNL     1      -1.389  12.669  18.115  1.00  0.00     0.040 C 
HETATM   10  C13 UNL     1       0.078  12.527  18.571  1.00  0.00     0.029 C 
HETATM   11  C14 UNL     1       0.887  13.830  18.796  1.00  0.00     0.152 C 
HETATM   12  C15 UNL     1       2.433  13.591  18.979  1.00  0.00     0.107 C 
HETATM   13  C16 UNL     1       2.765  12.391  19.849  1.00  0.00     0.001 C 
HETATM   14  C17 UNL     1       3.427  11.322  19.371  1.00  0.00    -0.036 C 
HETATM   15  C18 UNL     1       3.630  11.180  17.901  1.00  0.00     0.133 C 
HETATM   16  C19 UNL     1       4.338  12.445  17.478  1.00  0.00     0.015 C 
HETATM   17  C20 UNL     1       5.746  12.522  18.139  1.00  0.00     0.039 C 
HETATM   18  C21 UNL     1       5.961  12.269  19.671  1.00  0.00     0.123 C 
HETATM   19  C22 UNL     1       7.471  12.582  19.917  1.00  0.00     0.039 C 
HETATM   20  C23 UNL     1       8.080  12.283  21.308  1.00  0.00     0.023 C 
HETATM   21  C25 UNL     1       7.389  13.061  22.443  1.00  0.00     0.101 C 
HETATM   22  C26 UNL     1       6.173  12.347  22.821  1.00  0.00    -0.101 C 
HETATM   23  C27 UNL     1       5.225  11.618  22.900  1.00  0.00    -0.066 C 
HETATM   24  C28 UNL     1       4.171  10.667  22.820  1.00  0.00     0.029 A 
HETATM   25  C29 UNL     1       3.539  10.301  24.017  1.00  0.00     0.057 A 
HETATM   26  C30 UNL     1       2.486   9.397  24.005  1.00  0.00     0.067 A 
HETATM   27  C31 UNL     1       2.057   8.830  22.815  1.00  0.00     0.037 A 
HETATM   28  C32 UNL     1       2.694   9.184  21.623  1.00  0.00     0.014 A 
HETATM   29  C33 UNL     1       3.769  10.108  21.594  1.00  0.00    -0.006 A 
HETATM   30  C34 UNL     1       4.329  10.459  20.209  1.00  0.00     0.186 C 
HETATM   31  O8  UNL     1       5.709  10.906  20.091  1.00  0.00    -0.371 OA
HETATM   32  C35 UNL     1       3.407  13.698  17.715  1.00  0.00     0.046 C 
HETATM   33  C36 UNL     1       2.755  14.219  16.432  1.00  0.00    -0.052 A 
HETATM   34  C37 UNL     1       2.443  13.403  15.340  1.00  0.00     0.008 A 
HETATM   35  C38 UNL     1       1.794  13.922  14.214  1.00  0.00     0.012 A 
HETATM   36  C39 UNL     1       1.359  15.259  14.168  1.00  0.00    -0.003 A 
HETATM   37  C40 UNL     1       1.725  16.090  15.238  1.00  0.00     0.012 A 
HETATM   38  C41 UNL     1       2.422  15.581  16.342  1.00  0.00     0.008 A 
HETATM   39 NA1  UNL     1       2.559  13.512  17.492  1.00  0.00    -0.237 Na
ENDROOT
BRANCH   1  40
HETATM   40  N3  UNL     1       1.067  15.398  11.698  1.00  0.00    -0.336 N 
HETATM   41  C1  UNL     1       2.135  15.931  11.258  1.00  0.00     0.124 C 
HETATM   42  N1  UNL     1       2.587  15.565  10.035  1.00  0.00    -0.279 NA
HETATM   43  N2  UNL     1       2.986  16.837  11.782  1.00  0.00    -0.279 NA
HETATM   44  H1  UNL     1       2.063  14.759   9.706  1.00  0.00     0.126 HD
HETATM   45  H2  UNL     1       3.579  15.360  10.052  1.00  0.00     0.126 HD
HETATM   46  H3  UNL     1       2.701  17.264  12.656  1.00  0.00     0.126 HD
HETATM   47  H4  UNL     1       3.300  17.530  11.110  1.00  0.00     0.126 HD
ATOM     48  H3  UNL     1       0.614  14.702  11.105  1.00  0.00     0.165 HD
ENDBRANCH   1  40
BRANCH   1  49
HETATM   49  C3  UNL     1       0.107  17.238  12.985  1.00  0.00     0.069 C 
BRANCH  49  50
HETATM   50  C4  UNL     1      -0.989  17.706  12.012  1.00  0.00     0.031 C 
BRANCH  50  51
HETATM   51  C5  UNL     1      -2.299  18.138  12.653  1.00  0.00     0.164 C 
BRANCH  51  52
HETATM   52  O1  UNL     1      -3.381  17.815  11.777  1.00  0.00    -0.401 OA
HETATM   53  H11 UNL     1      -3.226  18.314  10.955  1.00  0.00     0.209 HD
ENDBRANCH  51  52
ENDBRANCH  50  51
ENDBRANCH  49  50
ENDBRANCH   1  49
BRANCH  11  54
HETATM   54  S1  UNL     1       0.257  14.794  20.217  1.00  0.00     0.108 S 
HETATM   55  O3  UNL     1       0.488  16.190  19.857  1.00  0.00    -0.595 OA
HETATM   56  O4  UNL     1       1.087  14.347  21.336  1.00  0.00    -0.595 OA
HETATM   57  O5  UNL     1      -1.152  14.422  20.309  1.00  0.00    -0.595 OA
ENDBRANCH  11  54
BRANCH  20  58
HETATM   58  C24 UNL     1       9.584  12.598  21.299  1.00  0.00     0.169 C 
BRANCH  58  59
HETATM   59  O6  UNL     1      10.322  11.558  20.669  1.00  0.00    -0.400 OA
HETATM   60  H34 UNL     1      11.263  11.789  20.752  1.00  0.00     0.209 HD
ENDBRANCH  58  59
ENDBRANCH  20  58
BRANCH  26  61
HETATM   61  O7  UNL     1       1.884   9.091  25.189  1.00  0.00    -0.361 OA
HETATM   62  H38 UNL     1       1.008   8.720  24.985  1.00  0.00     0.217 HD
ENDBRANCH  26  61
TORSDOF 9
ENDMDL
MODEL 6
REMARK minimizedAffinity -6.90882301
REMARK CNNscore 0.15721412
REMARK CNNaffinity 6.32245874
REMARK  9 active torsions:
REMARK  status: ('A' for Active; 'I' for Inactive)
REMARK       I    between atoms: N1_1  and  C1_2 
REMARK       I    between atoms: C1_2  and  N2_3 
REMARK    1  A    between atoms: N3_4  and  C2_6 
REMARK    2  A    between atoms: C2_6  and  C3_7 
REMARK    3  A    between atoms: C3_7  and  C4_8 
REMARK    4  A    between atoms: C4_8  and  C5_9 
REMARK    5  A    between atoms: C5_9  and  O1_10 
REMARK    6  A    between atoms: C14_20  and  S1_21 
REMARK    7  A    between atoms: C23_33  and  C24_34 
REMARK    8  A    between atoms: C24_34  and  O6_35 
REMARK    9  A    between atoms: C30_41  and  O7_42 
ROOT
HETATM    1  C2  UNL     1     -11.373  12.048  23.378  1.00  0.00     0.170 C 
HETATM    2  O2  UNL     1     -10.094  12.215  24.109  1.00  0.00    -0.316 OA
HETATM    3  C6  UNL     1      -9.205  13.129  23.614  1.00  0.00     0.072 C 
HETATM    4  C7  UNL     1      -9.442  14.497  23.678  1.00  0.00     0.037 C 
HETATM    5  C8  UNL     1      -8.646  15.361  22.929  1.00  0.00     0.010 C 
HETATM    6  C9  UNL     1      -7.609  14.862  22.127  1.00  0.00    -0.058 C 
HETATM    7  C10 UNL     1      -7.287  13.502  22.201  1.00  0.00     0.010 C 
HETATM    8  C11 UNL     1      -8.070  12.639  22.968  1.00  0.00     0.037 C 
HETATM    9  C12 UNL     1      -6.924  15.758  21.124  1.00  0.00     0.040 C 
HETATM   10  C13 UNL     1      -7.542  15.671  19.713  1.00  0.00     0.029 C 
HETATM   11  C14 UNL     1      -9.001  16.165  19.539  1.00  0.00     0.152 C 
HETATM   12  C15 UNL     1      -9.640  15.778  18.152  1.00  0.00     0.107 C 
HETATM   13  C16 UNL     1      -8.691  15.945  16.978  1.00  0.00     0.001 C 
HETATM   14  C17 UNL     1      -8.293  14.903  16.226  1.00  0.00    -0.036 C 
HETATM   15  C18 UNL     1      -8.576  13.514  16.687  1.00  0.00     0.133 C 
HETATM   16  C19 UNL     1     -10.073  13.460  16.875  1.00  0.00     0.015 C 
HETATM   17  C20 UNL     1     -10.797  13.657  15.509  1.00  0.00     0.039 C 
HETATM   18  C21 UNL     1     -10.417  14.818  14.526  1.00  0.00     0.123 C 
HETATM   19  C22 UNL     1     -11.467  14.722  13.375  1.00  0.00     0.039 C 
HETATM   20  C23 UNL     1     -11.298  15.628  12.131  1.00  0.00     0.023 C 
HETATM   21  C25 UNL     1     -11.318  17.128  12.478  1.00  0.00     0.101 C 
HETATM   22  C26 UNL     1      -9.989  17.515  12.941  1.00  0.00    -0.101 C 
HETATM   23  C27 UNL     1      -8.855  17.560  13.328  1.00  0.00    -0.066 C 
HETATM   24  C28 UNL     1      -7.515  17.406  13.775  1.00  0.00     0.029 A 
HETATM   25  C29 UNL     1      -6.634  18.476  13.556  1.00  0.00     0.057 A 
HETATM   26  C30 UNL     1      -5.319  18.399  13.991  1.00  0.00     0.067 A 
HETATM   27  C31 UNL     1      -4.852  17.262  14.631  1.00  0.00     0.037 A 
HETATM   28  C32 UNL     1      -5.724  16.190  14.839  1.00  0.00     0.014 A 
HETATM   29  C33 UNL     1      -7.076  16.233  14.414  1.00  0.00    -0.006 A 
HETATM   30  C34 UNL     1      -7.941  15.015  14.768  1.00  0.00     0.186 C 
HETATM   31  O8  UNL     1      -9.096  14.697  13.944  1.00  0.00    -0.371 OA
HETATM   32  C35 UNL     1     -10.516  14.446  18.025  1.00  0.00     0.046 C 
HETATM   33  C36 UNL     1     -10.819  13.737  19.348  1.00  0.00    -0.052 A 
HETATM   34  C37 UNL     1     -10.198  12.548  19.744  1.00  0.00     0.008 A 
HETATM   35  C38 UNL     1     -10.470  11.973  20.991  1.00  0.00     0.012 A 
HETATM   36  C39 UNL     1     -11.313  12.606  21.923  1.00  0.00    -0.003 A 
HETATM   37  C40 UNL     1     -11.980  13.767  21.501  1.00  0.00     0.012 A 
HETATM   38  C41 UNL     1     -11.746  14.313  20.232  1.00  0.00     0.008 A 
HETATM   39 NA1  UNL     1      -9.934  14.422  18.707  1.00  0.00    -0.237 Na
ENDROOT
BRANCH   1  40
HETATM   40  N3  UNL     1     -11.739  10.609  23.350  1.00  0.00    -0.336 N 
HETATM   41  C1  UNL     1     -11.397   9.742  24.217  1.00  0.00     0.124 C 
HETATM   42  N1  UNL     1     -11.790   8.458  24.041  1.00  0.00    -0.279 NA
HETATM   43  N2  UNL     1     -10.690   9.827  25.362  1.00  0.00    -0.279 NA
HETATM   44  H1  UNL     1     -12.470   8.412  23.286  1.00  0.00     0.126 HD
HETATM   45  H2  UNL     1     -12.179   8.069  24.891  1.00  0.00     0.126 HD
HETATM   46  H3  UNL     1     -10.254  10.721  25.553  1.00  0.00     0.126 HD
HETATM   47  H4  UNL     1     -10.041   9.057  25.492  1.00  0.00     0.126 HD
ATOM     48  H3  UNL     1     -12.312  10.288  22.569  1.00  0.00     0.165 HD
ENDBRANCH   1  40
BRANCH   1  49
HETATM   49  C3  UNL     1     -12.435  12.753  24.290  1.00  0.00     0.069 C 
BRANCH  49  50
HETATM   50  C4  UNL     1     -13.884  12.248  24.179  1.00  0.00     0.031 C 
BRANCH  50  51
HETATM   51  C5  UNL     1     -14.447  11.581  25.423  1.00  0.00     0.164 C 
BRANCH  51  52
HETATM   52  O1  UNL     1     -13.370  11.173  26.268  1.00  0.00    -0.401 OA
HETATM   53  H11 UNL     1     -12.843  10.537  25.752  1.00  0.00     0.209 HD
ENDBRANCH  51  52
ENDBRANCH  50  51
ENDBRANCH  49  50
ENDBRANCH   1  49
BRANCH  11  54
HETATM   54  S1  UNL     1      -9.150  17.971  19.785  1.00  0.00     0.108 S 
HETATM   55  O3  UNL     1      -7.865  18.517  19.357  1.00  0.00    -0.595 OA
HETATM   56  O4  UNL     1      -9.379  18.109  21.224  1.00  0.00    -0.595 OA
HETATM   57  O5  UNL     1     -10.279  18.358  18.943  1.00  0.00    -0.595 OA
ENDBRANCH  11  54
BRANCH  20  58
HETATM   58  C24 UNL     1     -12.396  15.314  11.103  1.00  0.00     0.169 C 
BRANCH  58  59
HETATM   59  O6  UNL     1     -12.718  13.928  11.104  1.00  0.00    -0.400 OA
HETATM   60  H34 UNL     1     -13.368  13.789  10.394  1.00  0.00     0.209 HD
ENDBRANCH  58  59
ENDBRANCH  20  58
BRANCH  26  61
HETATM   61  O7  UNL     1      -4.506  19.474  13.780  1.00  0.00    -0.361 OA
HETATM   62  H38 UNL     1      -3.756  19.398  14.396  1.00  0.00     0.217 HD
ENDBRANCH  26  61
TORSDOF 9
ENDMDL
MODEL 7
REMARK minimizedAffinity -7.52284956
REMARK CNNscore 0.127401307
REMARK CNNaffinity 6.34126329
REMARK  9 active torsions:
REMARK  status: ('A' for Active; 'I' for Inactive)
REMARK       I    between atoms: N1_1  and  C1_2 
REMARK       I    between atoms: C1_2  and  N2_3 
REMARK    1  A    between atoms: N3_4  and  C2_6 
REMARK    2  A    between atoms: C2_6  and  C3_7 
REMARK    3  A    between atoms: C3_7  and  C4_8 
REMARK    4  A    between atoms: C4_8  and  C5_9 
REMARK    5  A    between atoms: C5_9  and  O1_10 
REMARK    6  A    between atoms: C14_20  and  S1_21 
REMARK    7  A    between atoms: C23_33  and  C24_34 
REMARK    8  A    between atoms: C24_34  and  O6_35 
REMARK    9  A    between atoms: C30_41  and  O7_42 
ROOT
HETATM    1  C2  UNL     1     -15.257  -3.518  13.762  1.00  0.00     0.170 C 
HETATM    2  O2  UNL     1     -16.474  -4.122  14.354  1.00  0.00    -0.316 OA
HETATM    3  C6  UNL     1     -17.603  -3.352  14.388  1.00  0.00     0.072 C 
HETATM    4  C7  UNL     1     -18.306  -3.023  13.235  1.00  0.00     0.037 C 
HETATM    5  C8  UNL     1     -19.279  -2.026  13.293  1.00  0.00     0.010 C 
HETATM    6  C9  UNL     1     -19.557  -1.369  14.500  1.00  0.00    -0.058 C 
HETATM    7  C10 UNL     1     -18.953  -1.825  15.677  1.00  0.00     0.010 C 
HETATM    8  C11 UNL     1     -17.994  -2.837  15.625  1.00  0.00     0.037 C 
HETATM    9  C12 UNL     1     -20.412  -0.125  14.510  1.00  0.00     0.040 C 
HETATM   10  C13 UNL     1     -19.587   1.177  14.433  1.00  0.00     0.029 C 
HETATM   11  C14 UNL     1     -18.777   1.435  13.137  1.00  0.00     0.152 C 
HETATM   12  C15 UNL     1     -17.753   2.627  13.257  1.00  0.00     0.107 C 
HETATM   13  C16 UNL     1     -18.306   3.831  14.000  1.00  0.00     0.001 C 
HETATM   14  C17 UNL     1     -17.777   4.259  15.161  1.00  0.00    -0.036 C 
HETATM   15  C18 UNL     1     -16.790   3.404  15.879  1.00  0.00     0.133 C 
HETATM   16  C19 UNL     1     -15.684   3.157  14.880  1.00  0.00     0.015 C 
HETATM   17  C20 UNL     1     -14.971   4.494  14.521  1.00  0.00     0.039 C 
HETATM   18  C21 UNL     1     -15.771   5.786  14.133  1.00  0.00     0.123 C 
HETATM   19  C22 UNL     1     -14.677   6.821  13.723  1.00  0.00     0.039 C 
HETATM   20  C23 UNL     1     -15.101   8.280  13.427  1.00  0.00     0.023 C 
HETATM   21  C25 UNL     1     -16.111   8.385  12.269  1.00  0.00     0.101 C 
HETATM   22  C26 UNL     1     -17.445   8.102  12.790  1.00  0.00    -0.101 C 
HETATM   23  C27 UNL     1     -18.401   7.785  13.441  1.00  0.00    -0.066 C 
HETATM   24  C28 UNL     1     -19.398   7.359  14.360  1.00  0.00     0.029 A 
HETATM   25  C29 UNL     1     -20.680   7.912  14.223  1.00  0.00     0.057 A 
HETATM   26  C30 UNL     1     -21.705   7.519  15.073  1.00  0.00     0.067 A 
HETATM   27  C31 UNL     1     -21.473   6.593  16.077  1.00  0.00     0.037 A 
HETATM   28  C32 UNL     1     -20.194   6.051  16.223  1.00  0.00     0.014 A 
HETATM   29  C33 UNL     1     -19.123   6.422  15.372  1.00  0.00    -0.006 A 
HETATM   30  C34 UNL     1     -17.788   5.698  15.599  1.00  0.00     0.186 C 
HETATM   31  O8  UNL     1     -16.548   6.353  15.215  1.00  0.00    -0.371 OA
HETATM   32  C35 UNL     1     -16.232   2.328  13.653  1.00  0.00     0.046 C 
HETATM   33  C36 UNL     1     -15.850   0.847  13.702  1.00  0.00    -0.052 A 
HETATM   34  C37 UNL     1     -15.647   0.144  14.894  1.00  0.00     0.008 A 
HETATM   35  C38 UNL     1     -15.355  -1.225  14.882  1.00  0.00     0.012 A 
HETATM   36  C39 UNL     1     -15.335  -1.962  13.684  1.00  0.00    -0.003 A 
HETATM   37  C40 UNL     1     -15.480  -1.244  12.486  1.00  0.00     0.012 A 
HETATM   38  C41 UNL     1     -15.719   0.137  12.497  1.00  0.00     0.008 A 
HETATM   39 NA1  UNL     1     -16.799   1.691  13.926  1.00  0.00    -0.237 Na
ENDROOT
BRANCH   1  40
HETATM   40  N3  UNL     1     -14.070  -3.923  14.555  1.00  0.00    -0.336 N 
HETATM   41  C1  UNL     1     -13.939  -5.023  15.182  1.00  0.00     0.124 C 
HETATM   42  N1  UNL     1     -12.802  -5.239  15.885  1.00  0.00    -0.279 NA
HETATM   43  N2  UNL     1     -14.735  -6.105  15.301  1.00  0.00    -0.279 NA
HETATM   44  H1  UNL     1     -12.122  -4.518  15.660  1.00  0.00     0.126 HD
HETATM   45  H2  UNL     1     -12.419  -6.157  15.696  1.00  0.00     0.126 HD
HETATM   46  H3  UNL     1     -15.663  -6.023  14.901  1.00  0.00     0.126 HD
HETATM   47  H4  UNL     1     -14.765  -6.481  16.243  1.00  0.00     0.126 HD
ATOM     48  H3  UNL     1     -13.292  -3.263  14.603  1.00  0.00     0.165 HD
ENDBRANCH   1  40
BRANCH   1  49
HETATM   49  C3  UNL     1     -15.115  -4.221  12.368  1.00  0.00     0.069 C 
BRANCH  49  50
HETATM   50  C4  UNL     1     -13.801  -3.979  11.604  1.00  0.00     0.031 C 
BRANCH  50  51
HETATM   51  C5  UNL     1     -13.946  -3.671  10.123  1.00  0.00     0.164 C 
BRANCH  51  52
HETATM   52  O1  UNL     1     -13.509  -2.333   9.874  1.00  0.00    -0.401 OA
HETATM   53  H11 UNL     1     -14.090  -1.754  10.399  1.00  0.00     0.209 HD
ENDBRANCH  51  52
ENDBRANCH  50  51
ENDBRANCH  49  50
ENDBRANCH   1  49
BRANCH  11  54
HETATM   54  S1  UNL     1     -19.862   1.721  11.693  1.00  0.00     0.108 S 
HETATM   55  O3  UNL     1     -21.184   1.269  12.119  1.00  0.00    -0.595 OA
HETATM   56  O4  UNL     1     -19.280   0.879  10.648  1.00  0.00    -0.595 OA
HETATM   57  O5  UNL     1     -19.767   3.159  11.450  1.00  0.00    -0.595 OA
ENDBRANCH  11  54
BRANCH  20  58
HETATM   58  C24 UNL     1     -13.861   9.132  13.119  1.00  0.00     0.169 C 
BRANCH  58  59
HETATM   59  O6  UNL     1     -13.867   9.576  11.767  1.00  0.00    -0.400 OA
HETATM   60  H34 UNL     1     -13.032  10.052  11.622  1.00  0.00     0.209 HD
ENDBRANCH  58  59
ENDBRANCH  20  58
BRANCH  26  61
HETATM   61  O7  UNL     1     -22.942   8.063  14.886  1.00  0.00    -0.361 OA
HETATM   62  H38 UNL     1     -23.586   7.479  15.321  1.00  0.00     0.217 HD
ENDBRANCH  26  61
TORSDOF 9
ENDMDL
MODEL 8
REMARK minimizedAffinity -6.86368895
REMARK CNNscore 0.124769613
REMARK CNNaffinity 6.14542913
REMARK  9 active torsions:
REMARK  status: ('A' for Active; 'I' for Inactive)
REMARK       I    between atoms: N1_1  and  C1_2 
REMARK       I    between atoms: C1_2  and  N2_3 
REMARK    1  A    between atoms: N3_4  and  C2_6 
REMARK    2  A    between atoms: C2_6  and  C3_7 
REMARK    3  A    between atoms: C3_7  and  C4_8 
REMARK    4  A    between atoms: C4_8  and  C5_9 
REMARK    5  A    between atoms: C5_9  and  O1_10 
REMARK    6  A    between atoms: C14_20  and  S1_21 
REMARK    7  A    between atoms: C23_33  and  C24_34 
REMARK    8  A    between atoms: C24_34  and  O6_35 
REMARK    9  A    between atoms: C30_41  and  O7_42 
ROOT
HETATM    1  C2  UNL     1     -12.051  -8.022   2.467  1.00  0.00     0.170 C 
HETATM    2  O2  UNL     1     -10.785  -8.432   1.815  1.00  0.00    -0.316 OA
HETATM    3  C6  UNL     1     -10.005  -9.341   2.476  1.00  0.00     0.072 C 
HETATM    4  C7  UNL     1     -10.383 -10.671   2.618  1.00  0.00     0.037 C 
HETATM    5  C8  UNL     1      -9.695 -11.481   3.520  1.00  0.00     0.010 C 
HETATM    6  C9  UNL     1      -8.626 -10.969   4.269  1.00  0.00    -0.058 C 
HETATM    7  C10 UNL     1      -8.162  -9.676   3.994  1.00  0.00     0.010 C 
HETATM    8  C11 UNL     1      -8.837  -8.871   3.076  1.00  0.00     0.037 C 
HETATM    9  C12 UNL     1      -8.056 -11.758   5.422  1.00  0.00     0.040 C 
HETATM   10  C13 UNL     1      -8.687 -11.386   6.780  1.00  0.00     0.029 C 
HETATM   11  C14 UNL     1     -10.192 -11.697   6.979  1.00  0.00     0.152 C 
HETATM   12  C15 UNL     1     -10.810 -11.032   8.267  1.00  0.00     0.107 C 
HETATM   13  C16 UNL     1      -9.905 -11.106   9.484  1.00  0.00     0.001 C 
HETATM   14  C17 UNL     1      -9.412 -10.003  10.077  1.00  0.00    -0.036 C 
HETATM   15  C18 UNL     1      -9.540  -8.683   9.396  1.00  0.00     0.133 C 
HETATM   16  C19 UNL     1     -11.020  -8.509   9.152  1.00  0.00     0.015 C 
HETATM   17  C20 UNL     1     -11.784  -8.412  10.506  1.00  0.00     0.039 C 
HETATM   18  C21 UNL     1     -11.545  -9.435  11.671  1.00  0.00     0.123 C 
HETATM   19  C22 UNL     1     -12.599  -9.052  12.757  1.00  0.00     0.039 C 
HETATM   20  C23 UNL     1     -12.548  -9.761  14.131  1.00  0.00     0.023 C 
HETATM   21  C25 UNL     1     -12.719 -11.288  14.023  1.00  0.00     0.101 C 
HETATM   22  C26 UNL     1     -11.430 -11.876  13.670  1.00  0.00    -0.101 C 
HETATM   23  C27 UNL     1     -10.301 -12.095  13.334  1.00  0.00    -0.066 C 
HETATM   24  C28 UNL     1      -8.944 -12.151  12.913  1.00  0.00     0.029 A 
HETATM   25  C29 UNL     1      -8.185 -13.255  13.326  1.00  0.00     0.057 A 
HETATM   26  C30 UNL     1      -6.861 -13.382  12.929  1.00  0.00     0.067 A 
HETATM   27  C31 UNL     1      -6.267 -12.414  12.136  1.00  0.00     0.037 A 
HETATM   28  C32 UNL     1      -7.018 -11.306  11.734  1.00  0.00     0.014 A 
HETATM   29  C33 UNL     1      -8.374 -11.144  12.115  1.00  0.00    -0.006 A 
HETATM   30  C34 UNL     1      -9.100  -9.917  11.545  1.00  0.00     0.186 C 
HETATM   31  O8  UNL     1     -10.229  -9.358  12.271  1.00  0.00    -0.371 OA
HETATM   32  C35 UNL     1     -11.544  -9.615   8.155  1.00  0.00     0.046 C 
HETATM   33  C36 UNL     1     -11.748  -9.098   6.728  1.00  0.00    -0.052 A 
HETATM   34  C37 UNL     1     -10.998  -8.056   6.173  1.00  0.00     0.008 A 
HETATM   35  C38 UNL     1     -11.187  -7.662   4.843  1.00  0.00     0.012 A 
HETATM   36  C39 UNL     1     -12.075  -8.346   3.993  1.00  0.00    -0.003 A 
HETATM   37  C40 UNL     1     -12.868  -9.352   4.568  1.00  0.00     0.012 A 
HETATM   38  C41 UNL     1     -12.715  -9.710   5.914  1.00  0.00     0.008 A 
HETATM   39 NA1  UNL     1     -10.951  -9.759   7.498  1.00  0.00    -0.237 Na
ENDROOT
BRANCH   1  40
HETATM   40  N3  UNL     1     -12.264  -6.568   2.259  1.00  0.00    -0.336 N 
HETATM   41  C1  UNL     1     -11.534  -5.809   1.544  1.00  0.00     0.124 C 
HETATM   42  N1  UNL     1     -11.844  -4.493   1.470  1.00  0.00    -0.279 NA
HETATM   43  N2  UNL     1     -10.449  -6.044   0.779  1.00  0.00    -0.279 NA
HETATM   44  H1  UNL     1     -12.756  -4.334   1.890  1.00  0.00     0.126 HD
HETATM   45  H2  UNL     1     -11.834  -4.163   0.512  1.00  0.00     0.126 HD
HETATM   46  H3  UNL     1     -10.057  -6.977   0.832  1.00  0.00     0.126 HD
HETATM   47  H4  UNL     1      -9.732  -5.331   0.868  1.00  0.00     0.126 HD
ATOM     48  H3  UNL     1     -13.064  -6.141   2.728  1.00  0.00     0.165 HD
ENDBRANCH   1  40
BRANCH   1  49
HETATM   49  C3  UNL     1     -13.165  -8.753   1.642  1.00  0.00     0.069 C 
BRANCH  49  50
HETATM   50  C4  UNL     1     -13.827  -7.946   0.511  1.00  0.00     0.031 C 
BRANCH  50  51
HETATM   51  C5  UNL     1     -13.194  -8.095  -0.864  1.00  0.00     0.164 C 
BRANCH  51  52
HETATM   52  O1  UNL     1     -12.110  -9.024  -0.785  1.00  0.00    -0.401 OA
HETATM   53  H11 UNL     1     -11.470  -8.645  -0.158  1.00  0.00     0.209 HD
ENDBRANCH  51  52
ENDBRANCH  50  51
ENDBRANCH  49  50
ENDBRANCH   1  49
BRANCH  11  54
HETATM   54  S1  UNL     1     -10.526 -13.494   7.013  1.00  0.00     0.108 S 
HETATM   55  O3  UNL     1     -11.710 -13.674   6.177  1.00  0.00    -0.595 OA
HETATM   56  O4  UNL     1     -10.777 -13.776   8.427  1.00  0.00    -0.595 OA
HETATM   57  O5  UNL     1      -9.311 -14.097   6.471  1.00  0.00    -0.595 OA
ENDBRANCH  11  54
BRANCH  20  58
HETATM   58  C24 UNL     1     -13.624  -9.179  15.060  1.00  0.00     0.169 C 
BRANCH  58  59
HETATM   59  O6  UNL     1     -14.523 -10.190  15.501  1.00  0.00    -0.400 OA
HETATM   60  H34 UNL     1     -15.209  -9.747  16.029  1.00  0.00     0.209 HD
ENDBRANCH  58  59
ENDBRANCH  20  58
BRANCH  26  61
HETATM   61  O7  UNL     1      -6.169 -14.486  13.332  1.00  0.00    -0.361 OA
HETATM   62  H38 UNL     1      -5.406 -14.586  12.738  1.00  0.00     0.217 HD
ENDBRANCH  26  61
TORSDOF 9
ENDMDL
MODEL 9
REMARK minimizedAffinity -6.64042234
REMARK CNNscore 0.114221118
REMARK CNNaffinity 6.06706572
REMARK  9 active torsions:
REMARK  status: ('A' for Active; 'I' for Inactive)
REMARK       I    between atoms: N1_1  and  C1_2 
REMARK       I    between atoms: C1_2  and  N2_3 
REMARK    1  A    between atoms: N3_4  and  C2_6 
REMARK    2  A    between atoms: C2_6  and  C3_7 
REMARK    3  A    between atoms: C3_7  and  C4_8 
REMARK    4  A    between atoms: C4_8  and  C5_9 
REMARK    5  A    between atoms: C5_9  and  O1_10 
REMARK    6  A    between atoms: C14_20  and  S1_21 
REMARK    7  A    between atoms: C23_33  and  C24_34 
REMARK    8  A    between atoms: C24_34  and  O6_35 
REMARK    9  A    between atoms: C30_41  and  O7_42 
ROOT
HETATM    1  C2  UNL     1     -13.865   9.420  23.037  1.00  0.00     0.170 C 
HETATM    2  O2  UNL     1     -14.286   8.796  21.761  1.00  0.00    -0.316 OA
HETATM    3  C6  UNL     1     -15.115   7.711  21.838  1.00  0.00     0.072 C 
HETATM    4  C7  UNL     1     -16.440   7.822  22.241  1.00  0.00     0.037 C 
HETATM    5  C8  UNL     1     -17.154   6.668  22.559  1.00  0.00     0.010 C 
HETATM    6  C9  UNL     1     -16.550   5.406  22.465  1.00  0.00    -0.058 C 
HETATM    7  C10 UNL     1     -15.271   5.305  21.906  1.00  0.00     0.010 C 
HETATM    8  C11 UNL     1     -14.563   6.458  21.566  1.00  0.00     0.037 C 
HETATM    9  C12 UNL     1     -17.228   4.192  23.052  1.00  0.00     0.040 C 
HETATM   10  C13 UNL     1     -16.768   3.880  24.492  1.00  0.00     0.029 C 
HETATM   11  C14 UNL     1     -17.108   4.918  25.592  1.00  0.00     0.152 C 
HETATM   12  C15 UNL     1     -16.363   4.662  26.956  1.00  0.00     0.107 C 
HETATM   13  C16 UNL     1     -16.311   3.198  27.355  1.00  0.00     0.001 C 
HETATM   14  C17 UNL     1     -15.149   2.529  27.469  1.00  0.00    -0.036 C 
HETATM   15  C18 UNL     1     -13.893   3.144  26.955  1.00  0.00     0.133 C 
HETATM   16  C19 UNL     1     -13.784   4.470  27.670  1.00  0.00     0.015 C 
HETATM   17  C20 UNL     1     -13.604   4.245  29.201  1.00  0.00     0.039 C 
HETATM   18  C21 UNL     1     -14.522   3.267  30.012  1.00  0.00     0.123 C 
HETATM   19  C22 UNL     1     -14.088   3.457  31.500  1.00  0.00     0.039 C 
HETATM   20  C23 UNL     1     -14.683   2.520  32.578  1.00  0.00     0.023 C 
HETATM   21  C25 UNL     1     -16.218   2.609  32.666  1.00  0.00     0.101 C 
HETATM   22  C26 UNL     1     -16.791   1.769  31.619  1.00  0.00    -0.101 C 
HETATM   23  C27 UNL     1     -17.002   1.073  30.666  1.00  0.00    -0.066 C 
HETATM   24  C28 UNL     1     -17.049   0.260  29.500  1.00  0.00     0.029 A 
HETATM   25  C29 UNL     1     -18.093  -0.671  29.404  1.00  0.00     0.057 A 
HETATM   26  C30 UNL     1     -18.210  -1.477  28.280  1.00  0.00     0.067 A 
HETATM   27  C31 UNL     1     -17.289  -1.385  27.248  1.00  0.00     0.037 A 
HETATM   28  C32 UNL     1     -16.242  -0.467  27.348  1.00  0.00     0.014 A 
HETATM   29  C33 UNL     1     -16.092   0.377  28.477  1.00  0.00    -0.006 A 
HETATM   30  C34 UNL     1     -14.937   1.387  28.425  1.00  0.00     0.186 C 
HETATM   31  O8  UNL     1     -14.357   1.871  29.668  1.00  0.00    -0.371 OA
HETATM   32  C35 UNL     1     -14.983   5.412  27.259  1.00  0.00     0.046 C 
HETATM   33  C36 UNL     1     -14.588   6.486  26.242  1.00  0.00    -0.052 A 
HETATM   34  C37 UNL     1     -13.570   6.316  25.298  1.00  0.00     0.008 A 
HETATM   35  C38 UNL     1     -13.289   7.309  24.353  1.00  0.00     0.012 A 
HETATM   36  C39 UNL     1     -14.067   8.479  24.264  1.00  0.00    -0.003 A 
HETATM   37  C40 UNL     1     -15.047   8.675  25.249  1.00  0.00     0.012 A 
HETATM   38  C41 UNL     1     -15.292   7.701  26.228  1.00  0.00     0.008 A 
HETATM   39 NA1  UNL     1     -15.160   5.339  26.384  1.00  0.00    -0.237 Na
ENDROOT
BRANCH   1  40
HETATM   40  N3  UNL     1     -12.439   9.823  22.941  1.00  0.00    -0.336 N 
HETATM   41  C1  UNL     1     -11.677  10.083  23.927  1.00  0.00     0.124 C 
HETATM   42  N1  UNL     1     -10.401  10.463  23.678  1.00  0.00    -0.279 NA
HETATM   43  N2  UNL     1     -11.868  10.051  25.261  1.00  0.00    -0.279 NA
HETATM   44  H1  UNL     1     -10.190  10.318  22.694  1.00  0.00     0.126 HD
HETATM   45  H2  UNL     1      -9.744   9.956  24.259  1.00  0.00     0.126 HD
HETATM   46  H3  UNL     1     -12.817   9.878  25.573  1.00  0.00     0.126 HD
HETATM   47  H4  UNL     1     -11.451  10.839  25.747  1.00  0.00     0.126 HD
ATOM     48  H3  UNL     1     -12.037   9.898  22.007  1.00  0.00     0.165 HD
ENDBRANCH   1  40
BRANCH   1  49
HETATM   49  C3  UNL     1     -14.693  10.749  23.109  1.00  0.00     0.069 C 
BRANCH  49  50
HETATM   50  C4  UNL     1     -13.903  12.040  23.386  1.00  0.00     0.031 C 
BRANCH  50  51
HETATM   51  C5  UNL     1     -14.318  12.813  24.629  1.00  0.00     0.164 C 
BRANCH  51  52
HETATM   52  O1  UNL     1     -13.692  12.233  25.775  1.00  0.00    -0.401 OA
HETATM   53  H11 UNL     1     -14.011  11.315  25.826  1.00  0.00     0.209 HD
ENDBRANCH  51  52
ENDBRANCH  50  51
ENDBRANCH  49  50
ENDBRANCH   1  49
BRANCH  11  54
HETATM   54  S1  UNL     1     -18.907   5.028  25.903  1.00  0.00     0.108 S 
HETATM   55  O3  UNL     1     -19.390   6.042  24.970  1.00  0.00    -0.595 OA
HETATM   56  O4  UNL     1     -18.994   5.450  27.301  1.00  0.00    -0.595 OA
HETATM   57  O5  UNL     1     -19.401   3.679  25.635  1.00  0.00    -0.595 OA
ENDBRANCH  11  54
BRANCH  20  58
HETATM   58  C24 UNL     1     -14.062   2.839  33.947  1.00  0.00     0.169 C 
BRANCH  58  59
HETATM   59  O6  UNL     1     -12.665   2.569  33.953  1.00  0.00    -0.400 OA
HETATM   60  H34 UNL     1     -12.350   2.730  34.858  1.00  0.00     0.209 HD
ENDBRANCH  58  59
ENDBRANCH  20  58
BRANCH  26  61
HETATM   61  O7  UNL     1     -19.256  -2.349  28.217  1.00  0.00    -0.361 OA
HETATM   62  H38 UNL     1     -19.379  -2.592  27.283  1.00  0.00     0.217 HD
ENDBRANCH  26  61
TORSDOF 9
ENDMDL
