MODEL 1
REMARK minimizedAffinity -5.54585314
REMARK CNNscore 0.736523926
REMARK CNNaffinity 6.68528938
REMARK  5 active torsions:
REMARK  status: ('A' for Active; 'I' for Inactive)
REMARK    1  A    between atoms: C2_2  and  C4_4 
REMARK    2  A    between atoms: C7_7  and  C8_8 
REMARK    3  A    between atoms: C8_8  and  O2_10 
REMARK    4  A    between atoms: C21_24  and  C23_26 
REMARK    5  A    between atoms: C23_26  and  O4_27 
ROOT
HETATM    1  C4  UNL     1      -1.690  14.987   2.012  1.00  0.00     0.019 C 
HETATM    2  C5  UNL     1      -0.339  15.639   1.605  1.00  0.00     0.011 C 
HETATM    3  C6  UNL     1      -0.621  17.134   1.316  1.00  0.00     0.021 C 
HETATM    4  C7  UNL     1      -2.158  17.250   1.272  1.00  0.00     0.050 C 
HETATM    5  C9  UNL     1      -2.702  18.623   1.689  1.00  0.00     0.022 C 
HETATM    6  C10 UNL     1      -4.213  18.572   2.040  1.00  0.00     0.011 C 
HETATM    7  C11 UNL     1      -4.646  17.489   3.105  1.00  0.00    -0.032 C 
HETATM    8  C12 UNL     1      -3.979  17.946   4.444  1.00  0.00     0.016 C 
HETATM    9  C13 UNL     1      -4.048  16.098   2.649  1.00  0.00     0.000 C 
HETATM   10  C14 UNL     1      -4.801  15.404   1.493  1.00  0.00     0.006 C 
HETATM   11  C15 UNL     1      -6.224  15.894   1.265  1.00  0.00     0.006 C 
HETATM   12  C16 UNL     1      -6.894  16.130   2.612  1.00  0.00     0.003 C 
HETATM   13  C17 UNL     1      -8.468  16.016   2.605  1.00  0.00    -0.031 C 
HETATM   14  C18 UNL     1      -9.088  16.788   1.409  1.00  0.00     0.016 C 
HETATM   15  C19 UNL     1      -8.857  14.523   2.442  1.00  0.00     0.036 C 
HETATM   16  C20 UNL     1     -10.363  14.282   2.496  1.00  0.00     0.169 C 
HETATM   17  O3  UNL     1     -11.078  15.303   3.182  1.00  0.00    -0.378 OA
HETATM   18  C21 UNL     1     -10.433  15.810   4.364  1.00  0.00     0.082 C 
HETATM   19  C22 UNL     1     -11.401  16.887   4.899  1.00  0.00     0.049 C 
HETATM   20  C24 UNL     1      -9.075  16.520   3.965  1.00  0.00     0.030 C 
HETATM   21  C25 UNL     1      -8.039  16.506   5.103  1.00  0.00     0.009 C 
HETATM   22  C26 UNL     1      -6.686  17.192   4.830  1.00  0.00     0.011 C 
HETATM   23  C27 UNL     1      -6.285  17.389   3.331  1.00  0.00    -0.032 C 
HETATM   24  C28 UNL     1      -6.910  18.737   2.889  1.00  0.00     0.016 C 
HETATM   25  C29 UNL     1      -2.535  16.223   2.364  1.00  0.00     0.017 C 
ENDROOT
BRANCH   4  26
HETATM   26  C8  UNL     1      -2.612  16.992  -0.182  1.00  0.00     0.149 C 
HETATM   27  O1  UNL     1      -2.669  15.914  -0.751  1.00  0.00    -0.649 OA
BRANCH  26  28
HETATM   28  O2  UNL     1      -2.985  18.090  -0.865  1.00  0.00    -0.776 OA
HETATM   29  H11 UNL     1      -3.242  17.738  -1.743  1.00  0.00     0.167 HD
ENDBRANCH  26  28
ENDBRANCH   4  26
BRANCH   1  30
HETATM   30  C2  UNL     1      -1.497  13.896   3.053  1.00  0.00    -0.088 C 
HETATM   31  C1  UNL     1      -1.513  12.575   2.805  1.00  0.00     0.014 C 
HETATM   32  C3  UNL     1      -1.275  14.397   4.458  1.00  0.00     0.043 C 
ENDBRANCH   1  30
BRANCH  18  33
HETATM   33  C23 UNL     1     -10.348  14.666   5.418  1.00  0.00     0.202 C 
BRANCH  33  34
HETATM   34  O4  UNL     1     -11.606  14.118   5.796  1.00  0.00    -0.398 OA
HETATM   35  H37 UNL     1     -11.916  13.564   5.059  1.00  0.00     0.209 HD
ENDBRANCH  33  34
ENDBRANCH  18  33
TORSDOF 5
ENDMDL
MODEL 2
REMARK minimizedAffinity -6.19120407
REMARK CNNscore 0.671468675
REMARK CNNaffinity 6.39959764
REMARK  5 active torsions:
REMARK  status: ('A' for Active; 'I' for Inactive)
REMARK    1  A    between atoms: C2_2  and  C4_4 
REMARK    2  A    between atoms: C7_7  and  C8_8 
REMARK    3  A    between atoms: C8_8  and  O2_10 
REMARK    4  A    between atoms: C21_24  and  C23_26 
REMARK    5  A    between atoms: C23_26  and  O4_27 
ROOT
HETATM    1  C4  UNL     1     -14.017   8.273  12.888  1.00  0.00     0.019 C 
HETATM    2  C5  UNL     1     -14.036   9.807  12.640  1.00  0.00     0.011 C 
HETATM    3  C6  UNL     1     -15.473  10.301  12.937  1.00  0.00     0.021 C 
HETATM    4  C7  UNL     1     -16.320   9.018  13.060  1.00  0.00     0.050 C 
HETATM    5  C9  UNL     1     -17.535   9.147  13.990  1.00  0.00     0.022 C 
HETATM    6  C10 UNL     1     -18.094   7.764  14.417  1.00  0.00     0.011 C 
HETATM    7  C11 UNL     1     -17.055   6.755  15.047  1.00  0.00    -0.032 C 
HETATM    8  C12 UNL     1     -16.627   7.407  16.403  1.00  0.00     0.016 C 
HETATM    9  C13 UNL     1     -15.814   6.669  14.071  1.00  0.00     0.000 C 
HETATM   10  C14 UNL     1     -16.029   5.810  12.806  1.00  0.00     0.006 C 
HETATM   11  C15 UNL     1     -17.185   4.823  12.886  1.00  0.00     0.006 C 
HETATM   12  C16 UNL     1     -17.218   4.202  14.276  1.00  0.00     0.003 C 
HETATM   13  C17 UNL     1     -17.885   2.774  14.353  1.00  0.00    -0.031 C 
HETATM   14  C18 UNL     1     -19.226   2.729  13.573  1.00  0.00     0.016 C 
HETATM   15  C19 UNL     1     -16.931   1.743  13.691  1.00  0.00     0.036 C 
HETATM   16  C20 UNL     1     -17.441   0.308  13.774  1.00  0.00     0.169 C 
HETATM   17  O3  UNL     1     -18.360   0.092  14.838  1.00  0.00    -0.378 OA
HETATM   18  C21 UNL     1     -18.038   0.765  16.068  1.00  0.00     0.082 C 
HETATM   19  C22 UNL     1     -19.177   0.371  17.033  1.00  0.00     0.049 C 
HETATM   20  C24 UNL     1     -18.098   2.332  15.847  1.00  0.00     0.030 C 
HETATM   21  C25 UNL     1     -17.185   3.105  16.816  1.00  0.00     0.009 C 
HETATM   22  C26 UNL     1     -17.183   4.642  16.704  1.00  0.00     0.011 C 
HETATM   23  C27 UNL     1     -17.681   5.251  15.352  1.00  0.00    -0.032 C 
HETATM   24  C28 UNL     1     -19.220   5.392  15.481  1.00  0.00     0.016 C 
HETATM   25  C29 UNL     1     -15.289   8.082  13.731  1.00  0.00     0.017 C 
ENDROOT
BRANCH   4  26
HETATM   26  C8  UNL     1     -16.847   8.659  11.654  1.00  0.00     0.149 C 
HETATM   27  O1  UNL     1     -17.886   8.076  11.387  1.00  0.00    -0.649 OA
BRANCH  26  28
HETATM   28  O2  UNL     1     -16.060   9.049  10.634  1.00  0.00    -0.776 OA
HETATM   29  H11 UNL     1     -16.549   8.748   9.839  1.00  0.00     0.167 HD
ENDBRANCH  26  28
ENDBRANCH   4  26
BRANCH   1  30
HETATM   30  C2  UNL     1     -12.679   7.810  13.444  1.00  0.00    -0.088 C 
HETATM   31  C1  UNL     1     -12.453   6.623  14.031  1.00  0.00     0.014 C 
HETATM   32  C3  UNL     1     -11.555   8.804  13.293  1.00  0.00     0.043 C 
ENDBRANCH   1  30
BRANCH  18  33
HETATM   33  C23 UNL     1     -16.705   0.181  16.625  1.00  0.00     0.202 C 
BRANCH  33  34
HETATM   34  O4  UNL     1     -16.860  -0.661  17.763  1.00  0.00    -0.398 OA
HETATM   35  H37 UNL     1     -17.227  -1.506  17.452  1.00  0.00     0.209 HD
ENDBRANCH  33  34
ENDBRANCH  18  33
TORSDOF 5
ENDMDL
MODEL 3
REMARK minimizedAffinity -8.73519611
REMARK CNNscore 0.583586037
REMARK CNNaffinity 7.28981352
REMARK  5 active torsions:
REMARK  status: ('A' for Active; 'I' for Inactive)
REMARK    1  A    between atoms: C2_2  and  C4_4 
REMARK    2  A    between atoms: C7_7  and  C8_8 
REMARK    3  A    between atoms: C8_8  and  O2_10 
REMARK    4  A    between atoms: C21_24  and  C23_26 
REMARK    5  A    between atoms: C23_26  and  O4_27 
ROOT
HETATM    1  C4  UNL     1       1.209   8.175  10.106  1.00  0.00     0.019 C 
HETATM    2  C5  UNL     1       2.757   8.060  10.032  1.00  0.00     0.011 C 
HETATM    3  C6  UNL     1       3.220   7.291  11.294  1.00  0.00     0.021 C 
HETATM    4  C7  UNL     1       1.980   7.238  12.208  1.00  0.00     0.050 C 
HETATM    5  C9  UNL     1       1.927   6.016  13.135  1.00  0.00     0.022 C 
HETATM    6  C10 UNL     1       0.504   5.776  13.708  1.00  0.00     0.011 C 
HETATM    7  C11 UNL     1      -0.667   5.685  12.652  1.00  0.00    -0.032 C 
HETATM    8  C12 UNL     1      -0.380   4.381  11.838  1.00  0.00     0.016 C 
HETATM    9  C13 UNL     1      -0.563   6.948  11.706  1.00  0.00     0.000 C 
HETATM   10  C14 UNL     1      -1.081   8.270  12.314  1.00  0.00     0.006 C 
HETATM   11  C15 UNL     1      -2.011   8.110  13.508  1.00  0.00     0.006 C 
HETATM   12  C16 UNL     1      -2.949   6.936  13.257  1.00  0.00     0.003 C 
HETATM   13  C17 UNL     1      -4.326   7.007  14.025  1.00  0.00    -0.031 C 
HETATM   14  C18 UNL     1      -4.128   7.394  15.515  1.00  0.00     0.016 C 
HETATM   15  C19 UNL     1      -5.202   8.111  13.373  1.00  0.00     0.036 C 
HETATM   16  C20 UNL     1      -6.594   8.219  13.989  1.00  0.00     0.169 C 
HETATM   17  O3  UNL     1      -7.025   7.026  14.633  1.00  0.00    -0.378 OA
HETATM   18  C21 UNL     1      -6.683   5.806  13.949  1.00  0.00     0.082 C 
HETATM   19  C22 UNL     1      -7.254   4.689  14.847  1.00  0.00     0.049 C 
HETATM   20  C24 UNL     1      -5.107   5.648  13.904  1.00  0.00     0.030 C 
HETATM   21  C25 UNL     1      -4.628   4.807  12.707  1.00  0.00     0.009 C 
HETATM   22  C26 UNL     1      -3.112   4.570  12.578  1.00  0.00     0.011 C 
HETATM   23  C27 UNL     1      -2.174   5.570  13.331  1.00  0.00    -0.032 C 
HETATM   24  C28 UNL     1      -2.008   5.010  14.767  1.00  0.00     0.016 C 
HETATM   25  C29 UNL     1       0.869   7.091  11.143  1.00  0.00     0.017 C 
ENDROOT
BRANCH   4  26
HETATM   26  C8  UNL     1       1.992   8.498  13.100  1.00  0.00     0.149 C 
HETATM   27  O1  UNL     1       2.323   8.562  14.274  1.00  0.00    -0.649 OA
BRANCH  26  28
HETATM   28  O2  UNL     1       1.598   9.632  12.492  1.00  0.00    -0.776 OA
HETATM   29  H11 UNL     1       1.677  10.310  13.195  1.00  0.00     0.167 HD
ENDBRANCH  26  28
ENDBRANCH   4  26
BRANCH   1  30
HETATM   30  C2  UNL     1       0.573   8.112   8.727  1.00  0.00    -0.088 C 
HETATM   31  C1  UNL     1      -0.692   8.463   8.439  1.00  0.00     0.014 C 
HETATM   32  C3  UNL     1       1.483   7.607   7.635  1.00  0.00     0.043 C 
ENDBRANCH   1  30
BRANCH  18  33
HETATM   33  C23 UNL     1      -7.436   5.767  12.586  1.00  0.00     0.202 C 
BRANCH  33  34
HETATM   34  O4  UNL     1      -8.543   4.873  12.550  1.00  0.00    -0.398 OA
HETATM   35  H37 UNL     1      -9.264   5.281  13.060  1.00  0.00     0.209 HD
ENDBRANCH  33  34
ENDBRANCH  18  33
TORSDOF 5
ENDMDL
MODEL 4
REMARK minimizedAffinity -6.81731033
REMARK CNNscore 0.466478378
REMARK CNNaffinity 6.15285301
REMARK  5 active torsions:
REMARK  status: ('A' for Active; 'I' for Inactive)
REMARK    1  A    between atoms: C2_2  and  C4_4 
REMARK    2  A    between atoms: C7_7  and  C8_8 
REMARK    3  A    between atoms: C8_8  and  O2_10 
REMARK    4  A    between atoms: C21_24  and  C23_26 
REMARK    5  A    between atoms: C23_26  and  O4_27 
ROOT
HETATM    1  C4  UNL     1       0.223  12.779  18.752  1.00  0.00     0.019 C 
HETATM    2  C5  UNL     1      -0.355  13.909  19.648  1.00  0.00     0.011 C 
HETATM    3  C6  UNL     1      -1.850  14.068  19.276  1.00  0.00     0.021 C 
HETATM    4  C7  UNL     1      -2.032  13.246  17.986  1.00  0.00     0.050 C 
HETATM    5  C9  UNL     1      -3.441  12.667  17.795  1.00  0.00     0.022 C 
HETATM    6  C10 UNL     1      -3.468  11.524  16.746  1.00  0.00     0.011 C 
HETATM    7  C11 UNL     1      -2.443  10.345  16.972  1.00  0.00    -0.032 C 
HETATM    8  C12 UNL     1      -2.916   9.641  18.286  1.00  0.00     0.016 C 
HETATM    9  C13 UNL     1      -1.012  10.983  17.185  1.00  0.00     0.000 C 
HETATM   10  C14 UNL     1      -0.313  11.476  15.899  1.00  0.00     0.006 C 
HETATM   11  C15 UNL     1      -0.856  10.888  14.604  1.00  0.00     0.006 C 
HETATM   12  C16 UNL     1      -1.167   9.412  14.817  1.00  0.00     0.003 C 
HETATM   13  C17 UNL     1      -1.123   8.526  13.512  1.00  0.00    -0.031 C 
HETATM   14  C18 UNL     1      -1.879   9.203  12.337  1.00  0.00     0.016 C 
HETATM   15  C19 UNL     1       0.357   8.361  13.074  1.00  0.00     0.036 C 
HETATM   16  C20 UNL     1       0.530   7.455  11.858  1.00  0.00     0.169 C 
HETATM   17  O3  UNL     1      -0.545   6.542  11.673  1.00  0.00    -0.378 OA
HETATM   18  C21 UNL     1      -1.063   5.957  12.881  1.00  0.00     0.082 C 
HETATM   19  C22 UNL     1      -2.199   5.028  12.403  1.00  0.00     0.049 C 
HETATM   20  C24 UNL     1      -1.699   7.089  13.788  1.00  0.00     0.030 C 
HETATM   21  C25 UNL     1      -1.679   6.734  15.285  1.00  0.00     0.009 C 
HETATM   22  C26 UNL     1      -2.295   7.757  16.259  1.00  0.00     0.011 C 
HETATM   23  C27 UNL     1      -2.423   9.230  15.746  1.00  0.00    -0.032 C 
HETATM   24  C28 UNL     1      -3.781   9.313  15.003  1.00  0.00     0.016 C 
HETATM   25  C29 UNL     1      -1.060  12.078  18.274  1.00  0.00     0.017 C 
ENDROOT
BRANCH   4  26
HETATM   26  C8  UNL     1      -1.744  14.174  16.785  1.00  0.00     0.149 C 
HETATM   27  O1  UNL     1      -2.457  14.353  15.810  1.00  0.00    -0.649 OA
BRANCH  26  28
HETATM   28  O2  UNL     1      -0.582  14.848  16.853  1.00  0.00    -0.776 OA
HETATM   29  H11 UNL     1      -0.576  15.378  16.028  1.00  0.00     0.167 HD
ENDBRANCH  26  28
ENDBRANCH   4  26
BRANCH   1  30
HETATM   30  C2  UNL     1       1.285  11.971  19.480  1.00  0.00    -0.088 C 
HETATM   31  C1  UNL     1       2.611  12.163  19.380  1.00  0.00     0.014 C 
HETATM   32  C3  UNL     1       0.746  10.880  20.372  1.00  0.00     0.043 C 
ENDBRANCH   1  30
BRANCH  18  33
HETATM   33  C23 UNL     1       0.046   5.075  13.527  1.00  0.00     0.202 C 
BRANCH  33  34
HETATM   34  O4  UNL     1       1.152   5.805  14.047  1.00  0.00    -0.398 OA
HETATM   35  H37 UNL     1       0.859   6.231  14.871  1.00  0.00     0.209 HD
ENDBRANCH  33  34
ENDBRANCH  18  33
TORSDOF 5
ENDMDL
MODEL 5
REMARK minimizedAffinity -5.78442192
REMARK CNNscore 0.420316756
REMARK CNNaffinity 6.23234606
REMARK  5 active torsions:
REMARK  status: ('A' for Active; 'I' for Inactive)
REMARK    1  A    between atoms: C2_2  and  C4_4 
REMARK    2  A    between atoms: C7_7  and  C8_8 
REMARK    3  A    between atoms: C8_8  and  O2_10 
REMARK    4  A    between atoms: C21_24  and  C23_26 
REMARK    5  A    between atoms: C23_26  and  O4_27 
ROOT
HETATM    1  C4  UNL     1     -15.246  10.882  -0.766  1.00  0.00     0.019 C 
HETATM    2  C5  UNL     1     -16.568  10.714  -1.566  1.00  0.00     0.011 C 
HETATM    3  C6  UNL     1     -17.115  12.134  -1.852  1.00  0.00     0.021 C 
HETATM    4  C7  UNL     1     -16.270  13.074  -0.969  1.00  0.00     0.050 C 
HETATM    5  C9  UNL     1     -16.104  14.493  -1.531  1.00  0.00     0.022 C 
HETATM    6  C10 UNL     1     -14.930  15.254  -0.860  1.00  0.00     0.011 C 
HETATM    7  C11 UNL     1     -13.531  14.522  -0.862  1.00  0.00    -0.032 C 
HETATM    8  C12 UNL     1     -13.108  14.458  -2.367  1.00  0.00     0.016 C 
HETATM    9  C13 UNL     1     -13.750  13.061  -0.298  1.00  0.00     0.000 C 
HETATM   10  C14 UNL     1     -13.909  12.964   1.235  1.00  0.00     0.006 C 
HETATM   11  C15 UNL     1     -13.391  14.164   2.014  1.00  0.00     0.006 C 
HETATM   12  C16 UNL     1     -12.090  14.646   1.385  1.00  0.00     0.003 C 
HETATM   13  C17 UNL     1     -11.119  15.412   2.365  1.00  0.00    -0.031 C 
HETATM   14  C18 UNL     1     -11.879  16.468   3.210  1.00  0.00     0.016 C 
HETATM   15  C19 UNL     1     -10.501  14.387   3.354  1.00  0.00     0.036 C 
HETATM   16  C20 UNL     1      -9.482  15.006   4.306  1.00  0.00     0.169 C 
HETATM   17  O3  UNL     1      -8.901  16.208   3.814  1.00  0.00    -0.378 OA
HETATM   18  C21 UNL     1      -8.595  16.206   2.408  1.00  0.00     0.082 C 
HETATM   19  C22 UNL     1      -7.992  17.602   2.144  1.00  0.00     0.049 C 
HETATM   20  C24 UNL     1      -9.936  16.081   1.574  1.00  0.00     0.030 C 
HETATM   21  C25 UNL     1      -9.720  15.434   0.194  1.00  0.00     0.009 C 
HETATM   22  C26 UNL     1     -10.957  15.283  -0.712  1.00  0.00     0.011 C 
HETATM   23  C27 UNL     1     -12.355  15.320  -0.010  1.00  0.00    -0.032 C 
HETATM   24  C28 UNL     1     -12.758  16.815   0.073  1.00  0.00     0.016 C 
HETATM   25  C29 UNL     1     -14.903  12.355  -1.047  1.00  0.00     0.017 C 
ENDROOT
BRANCH   4  26
HETATM   26  C8  UNL     1     -16.970  13.195   0.402  1.00  0.00     0.149 C 
HETATM   27  O1  UNL     1     -17.653  14.127   0.795  1.00  0.00    -0.649 OA
BRANCH  26  28
HETATM   28  O2  UNL     1     -16.796  12.146   1.226  1.00  0.00    -0.776 OA
HETATM   29  H11 UNL     1     -17.307  12.394   2.025  1.00  0.00     0.167 HD
ENDBRANCH  26  28
ENDBRANCH   4  26
BRANCH   1  30
HETATM   30  C2  UNL     1     -14.235   9.803  -1.116  1.00  0.00    -0.088 C 
HETATM   31  C1  UNL     1     -14.023   9.308  -2.346  1.00  0.00     0.014 C 
HETATM   32  C3  UNL     1     -13.436   9.285   0.054  1.00  0.00     0.043 C 
ENDBRANCH   1  30
BRANCH  18  33
HETATM   33  C23 UNL     1      -7.492  15.140   2.136  1.00  0.00     0.202 C 
BRANCH  33  34
HETATM   34  O4  UNL     1      -7.619  14.466   0.888  1.00  0.00    -0.398 OA
HETATM   35  H37 UNL     1      -7.343  15.087   0.192  1.00  0.00     0.209 HD
ENDBRANCH  33  34
ENDBRANCH  18  33
TORSDOF 5
ENDMDL
MODEL 6
REMARK minimizedAffinity -6.51658535
REMARK CNNscore 0.419874012
REMARK CNNaffinity 6.1748848
REMARK  5 active torsions:
REMARK  status: ('A' for Active; 'I' for Inactive)
REMARK    1  A    between atoms: C2_2  and  C4_4 
REMARK    2  A    between atoms: C7_7  and  C8_8 
REMARK    3  A    between atoms: C8_8  and  O2_10 
REMARK    4  A    between atoms: C21_24  and  C23_26 
REMARK    5  A    between atoms: C23_26  and  O4_27 
ROOT
HETATM    1  C4  UNL     1     -14.108   2.202  27.466  1.00  0.00     0.019 C 
HETATM    2  C5  UNL     1     -14.899   0.884  27.693  1.00  0.00     0.011 C 
HETATM    3  C6  UNL     1     -16.167   0.952  26.807  1.00  0.00     0.021 C 
HETATM    4  C7  UNL     1     -16.236   2.412  26.318  1.00  0.00     0.050 C 
HETATM    5  C9  UNL     1     -16.918   2.593  24.954  1.00  0.00     0.022 C 
HETATM    6  C10 UNL     1     -16.593   3.969  24.315  1.00  0.00     0.011 C 
HETATM    7  C11 UNL     1     -15.062   4.337  24.190  1.00  0.00    -0.032 C 
HETATM    8  C12 UNL     1     -14.481   3.313  23.160  1.00  0.00     0.016 C 
HETATM    9  C13 UNL     1     -14.395   4.117  25.607  1.00  0.00     0.000 C 
HETATM   10  C14 UNL     1     -14.677   5.223  26.647  1.00  0.00     0.006 C 
HETATM   11  C15 UNL     1     -15.145   6.550  26.065  1.00  0.00     0.006 C 
HETATM   12  C16 UNL     1     -14.360   6.844  24.793  1.00  0.00     0.003 C 
HETATM   13  C17 UNL     1     -14.237   8.373  24.423  1.00  0.00    -0.031 C 
HETATM   14  C18 UNL     1     -15.604   9.100  24.544  1.00  0.00     0.016 C 
HETATM   15  C19 UNL     1     -13.264   9.050  25.425  1.00  0.00     0.036 C 
HETATM   16  C20 UNL     1     -13.009  10.523  25.117  1.00  0.00     0.169 C 
HETATM   17  O3  UNL     1     -13.246  10.869  23.758  1.00  0.00    -0.378 OA
HETATM   18  C21 UNL     1     -12.809   9.893  22.795  1.00  0.00     0.082 C 
HETATM   19  C22 UNL     1     -13.184  10.506  21.429  1.00  0.00     0.049 C 
HETATM   20  C24 UNL     1     -13.638   8.556  22.981  1.00  0.00     0.030 C 
HETATM   21  C25 UNL     1     -12.868   7.309  22.510  1.00  0.00     0.009 C 
HETATM   22  C26 UNL     1     -13.590   5.953  22.625  1.00  0.00     0.011 C 
HETATM   23  C27 UNL     1     -14.785   5.872  23.632  1.00  0.00    -0.032 C 
HETATM   24  C28 UNL     1     -16.043   6.329  22.849  1.00  0.00     0.016 C 
HETATM   25  C29 UNL     1     -14.728   2.710  26.153  1.00  0.00     0.017 C 
ENDROOT
BRANCH   4  26
HETATM   26  C8  UNL     1     -17.046   3.222  27.353  1.00  0.00     0.149 C 
HETATM   27  O1  UNL     1     -16.816   3.321  28.548  1.00  0.00    -0.649 OA
BRANCH  26  28
HETATM   28  O2  UNL     1     -18.106   3.885  26.856  1.00  0.00    -0.776 OA
HETATM   29  H11 UNL     1     -18.484   4.336  27.639  1.00  0.00     0.167 HD
ENDBRANCH  26  28
ENDBRANCH   4  26
BRANCH   1  30
HETATM   30  C2  UNL     1     -12.606   1.978  27.542  1.00  0.00    -0.088 C 
HETATM   31  C1  UNL     1     -11.854   2.130  28.645  1.00  0.00     0.014 C 
HETATM   32  C3  UNL     1     -11.966   1.551  26.245  1.00  0.00     0.043 C 
ENDBRANCH   1  30
BRANCH  18  33
HETATM   33  C23 UNL     1     -11.257   9.778  22.867  1.00  0.00     0.202 C 
BRANCH  33  34
HETATM   34  O4  UNL     1     -10.781   8.537  23.376  1.00  0.00    -0.398 OA
HETATM   35  H37 UNL     1     -10.906   7.869  22.679  1.00  0.00     0.209 HD
ENDBRANCH  33  34
ENDBRANCH  18  33
TORSDOF 5
ENDMDL
MODEL 7
REMARK minimizedAffinity -5.71209621
REMARK CNNscore 0.323617637
REMARK CNNaffinity 5.53628016
REMARK  5 active torsions:
REMARK  status: ('A' for Active; 'I' for Inactive)
REMARK    1  A    between atoms: C2_2  and  C4_4 
REMARK    2  A    between atoms: C7_7  and  C8_8 
REMARK    3  A    between atoms: C8_8  and  O2_10 
REMARK    4  A    between atoms: C21_24  and  C23_26 
REMARK    5  A    between atoms: C23_26  and  O4_27 
ROOT
HETATM    1  C4  UNL     1     -16.338   7.020  16.042  1.00  0.00     0.019 C 
HETATM    2  C5  UNL     1     -16.724   8.408  15.459  1.00  0.00     0.011 C 
HETATM    3  C6  UNL     1     -17.471   8.154  14.128  1.00  0.00     0.021 C 
HETATM    4  C7  UNL     1     -17.245   6.660  13.820  1.00  0.00     0.050 C 
HETATM    5  C9  UNL     1     -18.372   6.001  13.013  1.00  0.00     0.022 C 
HETATM    6  C10 UNL     1     -18.322   4.452  13.095  1.00  0.00     0.011 C 
HETATM    7  C11 UNL     1     -18.282   3.830  14.546  1.00  0.00    -0.032 C 
HETATM    8  C12 UNL     1     -19.670   4.180  15.176  1.00  0.00     0.016 C 
HETATM    9  C13 UNL     1     -17.125   4.550  15.348  1.00  0.00     0.000 C 
HETATM   10  C14 UNL     1     -15.694   4.083  15.002  1.00  0.00     0.006 C 
HETATM   11  C15 UNL     1     -15.607   2.729  14.311  1.00  0.00     0.006 C 
HETATM   12  C16 UNL     1     -16.616   1.779  14.945  1.00  0.00     0.003 C 
HETATM   13  C17 UNL     1     -16.254   0.247  14.827  1.00  0.00    -0.031 C 
HETATM   14  C18 UNL     1     -15.804  -0.123  13.388  1.00  0.00     0.016 C 
HETATM   15  C19 UNL     1     -15.064  -0.057  15.775  1.00  0.00     0.036 C 
HETATM   16  C20 UNL     1     -14.674  -1.532  15.801  1.00  0.00     0.169 C 
HETATM   17  O3  UNL     1     -15.727  -2.405  15.410  1.00  0.00    -0.378 OA
HETATM   18  C21 UNL     1     -17.031  -2.043  15.898  1.00  0.00     0.082 C 
HETATM   19  C22 UNL     1     -17.968  -3.133  15.335  1.00  0.00     0.049 C 
HETATM   20  C24 UNL     1     -17.463  -0.652  15.278  1.00  0.00     0.030 C 
HETATM   21  C25 UNL     1     -18.455   0.116  16.171  1.00  0.00     0.009 C 
HETATM   22  C26 UNL     1     -18.960   1.476  15.652  1.00  0.00     0.011 C 
HETATM   23  C27 UNL     1     -18.087   2.185  14.565  1.00  0.00    -0.032 C 
HETATM   24  C28 UNL     1     -18.565   1.632  13.198  1.00  0.00     0.016 C 
HETATM   25  C29 UNL     1     -17.272   6.086  15.255  1.00  0.00     0.017 C 
ENDROOT
BRANCH   4  26
HETATM   26  C8  UNL     1     -15.947   6.536  12.993  1.00  0.00     0.149 C 
HETATM   27  O1  UNL     1     -14.814   6.397  13.424  1.00  0.00    -0.649 OA
BRANCH  26  28
HETATM   28  O2  UNL     1     -16.115   6.582  11.659  1.00  0.00    -0.776 OA
HETATM   29  H11 UNL     1     -15.205   6.483  11.308  1.00  0.00     0.167 HD
ENDBRANCH  26  28
ENDBRANCH   4  26
BRANCH   1  30
HETATM   30  C2  UNL     1     -16.386   7.014  17.562  1.00  0.00    -0.088 C 
HETATM   31  C1  UNL     1     -15.317   7.093  18.372  1.00  0.00     0.014 C 
HETATM   32  C3  UNL     1     -17.772   6.910  18.148  1.00  0.00     0.043 C 
ENDBRANCH   1  30
BRANCH  18  33
HETATM   33  C23 UNL     1     -17.034  -2.156  17.452  1.00  0.00     0.202 C 
BRANCH  33  34
HETATM   34  O4  UNL     1     -16.504  -1.020  18.126  1.00  0.00    -0.398 OA
HETATM   35  H37 UNL     1     -17.168  -0.310  18.068  1.00  0.00     0.209 HD
ENDBRANCH  33  34
ENDBRANCH  18  33
TORSDOF 5
ENDMDL
MODEL 8
REMARK minimizedAffinity -5.48127842
REMARK CNNscore 0.304996431
REMARK CNNaffinity 5.49339437
REMARK  5 active torsions:
REMARK  status: ('A' for Active; 'I' for Inactive)
REMARK    1  A    between atoms: C2_2  and  C4_4 
REMARK    2  A    between atoms: C7_7  and  C8_8 
REMARK    3  A    between atoms: C8_8  and  O2_10 
REMARK    4  A    between atoms: C21_24  and  C23_26 
REMARK    5  A    between atoms: C23_26  and  O4_27 
ROOT
HETATM    1  C4  UNL     1     -18.456  -3.628  15.424  1.00  0.00     0.019 C 
HETATM    2  C5  UNL     1     -18.993  -2.211  15.767  1.00  0.00     0.011 C 
HETATM    3  C6  UNL     1     -17.763  -1.305  16.022  1.00  0.00     0.021 C 
HETATM    4  C7  UNL     1     -16.565  -2.271  16.112  1.00  0.00     0.050 C 
HETATM    5  C9  UNL     1     -15.226  -1.664  15.672  1.00  0.00     0.022 C 
HETATM    6  C10 UNL     1     -14.160  -2.752  15.371  1.00  0.00     0.011 C 
HETATM    7  C11 UNL     1     -14.585  -3.882  14.353  1.00  0.00    -0.032 C 
HETATM    8  C12 UNL     1     -14.752  -3.151  12.981  1.00  0.00     0.016 C 
HETATM    9  C13 UNL     1     -15.976  -4.464  14.830  1.00  0.00     0.000 C 
HETATM   10  C14 UNL     1     -15.907  -5.434  16.030  1.00  0.00     0.006 C 
HETATM   11  C15 UNL     1     -14.536  -6.043  16.289  1.00  0.00     0.006 C 
HETATM   12  C16 UNL     1     -13.883  -6.389  14.957  1.00  0.00     0.003 C 
HETATM   13  C17 UNL     1     -12.815  -7.549  15.018  1.00  0.00    -0.031 C 
HETATM   14  C18 UNL     1     -11.838  -7.362  16.210  1.00  0.00     0.016 C 
HETATM   15  C19 UNL     1     -13.557  -8.895  15.237  1.00  0.00     0.036 C 
HETATM   16  C20 UNL     1     -12.626 -10.104  15.239  1.00  0.00     0.169 C 
HETATM   17  O3  UNL     1     -11.404  -9.881  14.546  1.00  0.00    -0.378 OA
HETATM   18  C21 UNL     1     -11.522  -9.122  13.330  1.00  0.00     0.082 C 
HETATM   19  C22 UNL     1     -10.077  -9.025  12.795  1.00  0.00     0.049 C 
HETATM   20  C24 UNL     1     -12.024  -7.658  13.664  1.00  0.00     0.030 C 
HETATM   21  C25 UNL     1     -12.784  -7.008  12.494  1.00  0.00     0.009 C 
HETATM   22  C26 UNL     1     -13.299  -5.571  12.703  1.00  0.00     0.011 C 
HETATM   23  C27 UNL     1     -13.460  -5.087  14.182  1.00  0.00    -0.032 C 
HETATM   24  C28 UNL     1     -12.082  -4.516  14.604  1.00  0.00     0.016 C 
HETATM   25  C29 UNL     1     -16.992  -3.324  15.063  1.00  0.00     0.017 C 
ENDROOT
BRANCH   4  26
HETATM   26  C8  UNL     1     -16.416  -2.707  17.586  1.00  0.00     0.149 C 
HETATM   27  O1  UNL     1     -16.325  -3.849  18.006  1.00  0.00    -0.649 OA
BRANCH  26  28
HETATM   28  O2  UNL     1     -16.378  -1.700  18.477  1.00  0.00    -0.776 OA
HETATM   29  H11 UNL     1     -16.275  -2.157  19.338  1.00  0.00     0.167 HD
ENDBRANCH  26  28
ENDBRANCH   4  26
BRANCH   1  30
HETATM   30  C2  UNL     1     -19.341  -4.335  14.410  1.00  0.00    -0.088 C 
HETATM   31  C1  UNL     1     -20.174  -5.353  14.683  1.00  0.00     0.014 C 
HETATM   32  C3  UNL     1     -19.232  -3.807  13.001  1.00  0.00     0.043 C 
ENDBRANCH   1  30
BRANCH  18  33
HETATM   33  C23 UNL     1     -12.365  -9.942  12.307  1.00  0.00     0.202 C 
BRANCH  33  34
HETATM   34  O4  UNL     1     -11.631 -10.936  11.601  1.00  0.00    -0.398 OA
HETATM   35  H37 UNL     1     -11.466 -11.670  12.219  1.00  0.00     0.209 HD
ENDBRANCH  33  34
ENDBRANCH  18  33
TORSDOF 5
ENDMDL
MODEL 9
REMARK minimizedAffinity -5.71106386
REMARK CNNscore 0.30072552
REMARK CNNaffinity 6.05637312
REMARK  5 active torsions:
REMARK  status: ('A' for Active; 'I' for Inactive)
REMARK    1  A    between atoms: C2_2  and  C4_4 
REMARK    2  A    between atoms: C7_7  and  C8_8 
REMARK    3  A    between atoms: C8_8  and  O2_10 
REMARK    4  A    between atoms: C21_24  and  C23_26 
REMARK    5  A    between atoms: C23_26  and  O4_27 
ROOT
HETATM    1  C4  UNL     1      -5.348  18.274   7.721  1.00  0.00     0.019 C 
HETATM    2  C5  UNL     1      -5.620  19.319   8.838  1.00  0.00     0.011 C 
HETATM    3  C6  UNL     1      -4.268  19.995   9.172  1.00  0.00     0.021 C 
HETATM    4  C7  UNL     1      -3.203  19.134   8.463  1.00  0.00     0.050 C 
HETATM    5  C9  UNL     1      -1.942  19.902   8.044  1.00  0.00     0.022 C 
HETATM    6  C10 UNL     1      -1.111  19.130   6.985  1.00  0.00     0.011 C 
HETATM    7  C11 UNL     1      -1.891  18.656   5.696  1.00  0.00    -0.032 C 
HETATM    8  C12 UNL     1      -2.287  19.973   4.953  1.00  0.00     0.016 C 
HETATM    9  C13 UNL     1      -3.190  17.890   6.172  1.00  0.00     0.000 C 
HETATM   10  C14 UNL     1      -2.957  16.450   6.680  1.00  0.00     0.006 C 
HETATM   11  C15 UNL     1      -1.645  15.816   6.242  1.00  0.00     0.006 C 
HETATM   12  C16 UNL     1      -1.365  16.196   4.793  1.00  0.00     0.003 C 
HETATM   13  C17 UNL     1      -0.456  15.178   4.000  1.00  0.00    -0.031 C 
HETATM   14  C18 UNL     1       0.787  14.759   4.830  1.00  0.00     0.016 C 
HETATM   15  C19 UNL     1      -1.278  13.892   3.719  1.00  0.00     0.036 C 
HETATM   16  C20 UNL     1      -0.521  12.861   2.887  1.00  0.00     0.169 C 
HETATM   17  O3  UNL     1       0.524  13.421   2.101  1.00  0.00    -0.378 OA
HETATM   18  C21 UNL     1       0.214  14.686   1.488  1.00  0.00     0.082 C 
HETATM   19  C22 UNL     1       1.495  15.062   0.714  1.00  0.00     0.049 C 
HETATM   20  C24 UNL     1      -0.021  15.777   2.613  1.00  0.00     0.030 C 
HETATM   21  C25 UNL     1      -0.952  16.913   2.153  1.00  0.00     0.009 C 
HETATM   22  C26 UNL     1      -1.232  18.043   3.163  1.00  0.00     0.011 C 
HETATM   23  C27 UNL     1      -0.986  17.717   4.673  1.00  0.00    -0.032 C 
HETATM   24  C28 UNL     1       0.510  18.022   4.943  1.00  0.00     0.016 C 
HETATM   25  C29 UNL     1      -3.983  18.742   7.187  1.00  0.00     0.017 C 
ENDROOT
BRANCH   4  26
HETATM   26  C8  UNL     1      -2.766  18.020   9.440  1.00  0.00     0.149 C 
HETATM   27  O1  UNL     1      -1.882  17.197   9.263  1.00  0.00    -0.649 OA
BRANCH  26  28
HETATM   28  O2  UNL     1      -3.444  17.982  10.601  1.00  0.00    -0.776 OA
HETATM   29  H11 UNL     1      -3.033  17.234  11.083  1.00  0.00     0.167 HD
ENDBRANCH  26  28
ENDBRANCH   4  26
BRANCH   1  30
HETATM   30  C2  UNL     1      -6.522  18.156   6.762  1.00  0.00    -0.088 C 
HETATM   31  C1  UNL     1      -6.438  18.213   5.422  1.00  0.00     0.014 C 
HETATM   32  C3  UNL     1      -7.862  17.962   7.427  1.00  0.00     0.043 C 
ENDBRANCH   1  30
BRANCH  18  33
HETATM   33  C23 UNL     1      -0.934  14.476   0.457  1.00  0.00     0.202 C 
BRANCH  33  34
HETATM   34  O4  UNL     1      -0.521  13.892  -0.774  1.00  0.00    -0.398 OA
HETATM   35  H37 UNL     1      -0.352  12.949  -0.607  1.00  0.00     0.209 HD
ENDBRANCH  33  34
ENDBRANCH  18  33
TORSDOF 5
ENDMDL
