MODEL 1
REMARK minimizedAffinity -7.49549723
REMARK CNNscore 0.562132955
REMARK CNNaffinity 6.4794445
REMARK  15 active torsions:
REMARK  status: ('A' for Active; 'I' for Inactive)
REMARK    1  A    between atoms: C2_2  and  C36_45 
REMARK    2  A    between atoms: C3_3  and  C4_4 
REMARK    3  A    between atoms: C4_4  and  C5_5 
REMARK    4  A    between atoms: C5_5  and  C6_6 
REMARK    5  A    between atoms: C6_6  and  C8_8 
REMARK    6  A    between atoms: C24_27  and  C26_29 
REMARK    7  A    between atoms: C26_29  and  O4_30 
REMARK    8  A    between atoms: O4_30  and  C27_31 
REMARK    9  A    between atoms: C27_31  and  C28_33 
REMARK   10  A    between atoms: C28_33  and  C29_34 
REMARK   11  A    between atoms: C29_34  and  O6_36 
REMARK   12  A    between atoms: C29_34  and  C31_37 
REMARK   13  A    between atoms: C31_37  and  C32_38 
REMARK   14  A    between atoms: C32_38  and  O8_40 
REMARK   15  A    between atoms: C36_45  and  O11_47 
ROOT
HETATM    1  C8  UNL     1      -7.247  47.633 -30.638  1.00  0.00     0.006 C 
HETATM    2  C9  UNL     1      -7.089  46.384 -31.536  1.00  0.00     0.085 C 
HETATM    3  C10 UNL     1      -8.371  45.596 -31.265  1.00  0.00     0.141 C 
HETATM    4  O1  UNL     1      -8.507  44.431 -31.610  1.00  0.00    -0.297 OA
HETATM    5  C11 UNL     1      -9.381  46.452 -30.480  1.00  0.00     0.056 C 
HETATM    6  C12 UNL     1     -10.102  47.338 -31.535  1.00  0.00     0.030 C 
HETATM    7  C13 UNL     1     -10.470  45.888 -29.592  1.00  0.00     0.015 C 
HETATM    8  C14 UNL     1     -10.880  46.472 -28.436  1.00  0.00     0.007 C 
HETATM    9  C15 UNL     1     -10.153  47.739 -27.998  1.00  0.00     0.157 C 
HETATM   10  O2  UNL     1     -10.481  48.331 -26.971  1.00  0.00    -0.293 OA
HETATM   11  C16 UNL     1      -9.007  48.299 -28.832  1.00  0.00     0.094 C 
HETATM   12  C17 UNL     1      -8.305  47.175 -29.586  1.00  0.00    -0.014 C 
HETATM   13  C18 UNL     1      -7.651  46.230 -28.525  1.00  0.00     0.018 C 
HETATM   14  C19 UNL     1     -12.025  45.929 -27.523  1.00  0.00    -0.007 C 
HETATM   15  C20 UNL     1     -11.324  45.316 -26.285  1.00  0.00     0.021 C 
HETATM   16  C21 UNL     1     -13.030  47.038 -27.097  1.00  0.00     0.022 C 
HETATM   17  C22 UNL     1     -14.325  46.558 -26.435  1.00  0.00     0.080 C 
HETATM   18  C23 UNL     1     -14.420  45.059 -26.303  1.00  0.00     0.137 C 
HETATM   19  O3  UNL     1     -14.803  44.561 -25.241  1.00  0.00    -0.297 OA
HETATM   20  C24 UNL     1     -14.064  44.200 -27.519  1.00  0.00     0.044 C 
HETATM   21  C25 UNL     1     -13.717  42.778 -27.025  1.00  0.00     0.026 C 
HETATM   22  C33 UNL     1     -12.893  44.888 -28.315  1.00  0.00     0.023 C 
HETATM   23  C34 UNL     1     -12.005  43.900 -29.066  1.00  0.00     0.090 C 
HETATM   24  C35 UNL     1     -11.209  44.685 -30.076  1.00  0.00     0.158 C 
HETATM   25  O9  UNL     1     -11.213  44.370 -31.263  1.00  0.00    -0.293 OA
ENDROOT
BRANCH  20  26
HETATM   26  C26 UNL     1     -15.309  44.135 -28.445  1.00  0.00     0.196 C 
BRANCH  26  27
HETATM   27  O4  UNL     1     -15.905  42.832 -28.548  1.00  0.00    -0.320 OA
BRANCH  27  28
HETATM   28  C27 UNL     1     -17.261  42.779 -28.588  1.00  0.00     0.261 C 
HETATM   29  O5  UNL     1     -17.937  42.853 -29.606  1.00  0.00    -0.265 OA
BRANCH  28  30
HETATM   30  C28 UNL     1     -17.846  42.564 -27.215  1.00  0.00     0.148 C 
BRANCH  30  31
HETATM   31  C29 UNL     1     -18.968  43.546 -26.841  1.00  0.00     0.072 C 
HETATM   32  C30 UNL     1     -20.169  43.248 -27.756  1.00  0.00     0.047 C 
BRANCH  31  33
HETATM   33  O6  UNL     1     -19.369  43.250 -25.499  1.00  0.00    -0.389 OA
HETATM   34  H41 UNL     1     -20.084  43.877 -25.259  1.00  0.00     0.210 HD
ENDBRANCH  31  33
BRANCH  31  35
HETATM   35  C31 UNL     1     -18.515  45.015 -26.962  1.00  0.00     0.147 C 
BRANCH  35  36
HETATM   36  C32 UNL     1     -18.602  45.762 -25.658  1.00  0.00     0.142 C 
HETATM   37  O7  UNL     1     -17.710  45.883 -24.834  1.00  0.00    -0.650 OA
BRANCH  36  38
HETATM   38  O8  UNL     1     -19.799  46.350 -25.463  1.00  0.00    -0.776 OA
HETATM   39  H44 UNL     1     -19.694  46.829 -24.614  1.00  0.00     0.167 HD
ENDBRANCH  36  38
ENDBRANCH  35  36
ENDBRANCH  31  35
ENDBRANCH  30  31
ENDBRANCH  28  30
ENDBRANCH  27  28
ENDBRANCH  26  27
ENDBRANCH  20  26
BRANCH   1  40
HETATM   40  C6  UNL     1      -5.925  48.305 -30.159  1.00  0.00    -0.013 C 
HETATM   41  C7  UNL     1      -5.093  48.659 -31.412  1.00  0.00     0.010 C 
BRANCH  40  42
HETATM   42  C5  UNL     1      -5.066  47.459 -29.185  1.00  0.00     0.008 C 
BRANCH  42  43
HETATM   43  C4  UNL     1      -4.847  48.085 -27.797  1.00  0.00     0.028 C 
BRANCH  43  44
HETATM   44  C3  UNL     1      -3.821  49.185 -27.762  1.00  0.00    -0.013 C 
HETATM   45  C2  UNL     1      -3.051  49.526 -26.711  1.00  0.00     0.008 C 
HETATM   46  C1  UNL     1      -3.054  48.827 -25.381  1.00  0.00     0.055 C 
BRANCH  45  47
HETATM   47  C36 UNL     1      -2.109  50.673 -26.794  1.00  0.00     0.171 C 
HETATM   48  O10 UNL     1      -2.417  51.821 -27.059  1.00  0.00    -0.646 OA
BRANCH  47  49
HETATM   49  O11 UNL     1      -0.830  50.343 -26.532  1.00  0.00    -0.773 OA
HETATM   50  H48 UNL     1      -0.360  51.196 -26.631  1.00  0.00     0.167 HD
ENDBRANCH  47  49
ENDBRANCH  45  47
ENDBRANCH  43  44
ENDBRANCH  42  43
ENDBRANCH  40  42
ENDBRANCH   1  40
TORSDOF 15
ENDMDL
MODEL 2
REMARK minimizedAffinity -8.54594612
REMARK CNNscore 0.53036654
REMARK CNNaffinity 6.84469986
REMARK  15 active torsions:
REMARK  status: ('A' for Active; 'I' for Inactive)
REMARK    1  A    between atoms: C2_2  and  C36_45 
REMARK    2  A    between atoms: C3_3  and  C4_4 
REMARK    3  A    between atoms: C4_4  and  C5_5 
REMARK    4  A    between atoms: C5_5  and  C6_6 
REMARK    5  A    between atoms: C6_6  and  C8_8 
REMARK    6  A    between atoms: C24_27  and  C26_29 
REMARK    7  A    between atoms: C26_29  and  O4_30 
REMARK    8  A    between atoms: O4_30  and  C27_31 
REMARK    9  A    between atoms: C27_31  and  C28_33 
REMARK   10  A    between atoms: C28_33  and  C29_34 
REMARK   11  A    between atoms: C29_34  and  O6_36 
REMARK   12  A    between atoms: C29_34  and  C31_37 
REMARK   13  A    between atoms: C31_37  and  C32_38 
REMARK   14  A    between atoms: C32_38  and  O8_40 
REMARK   15  A    between atoms: C36_45  and  O11_47 
ROOT
HETATM    1  C8  UNL     1      -0.177  51.047 -20.636  1.00  0.00     0.006 C 
HETATM    2  C9  UNL     1      -0.494  51.751 -19.296  1.00  0.00     0.085 C 
HETATM    3  C10 UNL     1      -1.816  51.112 -18.871  1.00  0.00     0.141 C 
HETATM    4  O1  UNL     1      -2.511  51.577 -17.979  1.00  0.00    -0.297 OA
HETATM    5  C11 UNL     1      -2.134  49.884 -19.745  1.00  0.00     0.056 C 
HETATM    6  C12 UNL     1      -1.323  48.705 -19.137  1.00  0.00     0.030 C 
HETATM    7  C13 UNL     1      -3.528  49.350 -19.993  1.00  0.00     0.015 C 
HETATM    8  C14 UNL     1      -3.931  48.809 -21.172  1.00  0.00     0.007 C 
HETATM    9  C15 UNL     1      -2.923  48.797 -22.316  1.00  0.00     0.157 C 
HETATM   10  O2  UNL     1      -3.212  48.309 -23.407  1.00  0.00    -0.293 OA
HETATM   11  C16 UNL     1      -1.531  49.388 -22.124  1.00  0.00     0.094 C 
HETATM   12  C17 UNL     1      -1.568  50.499 -21.081  1.00  0.00    -0.014 C 
HETATM   13  C18 UNL     1      -2.456  51.653 -21.651  1.00  0.00     0.018 C 
HETATM   14  C19 UNL     1      -5.353  48.219 -21.440  1.00  0.00    -0.007 C 
HETATM   15  C20 UNL     1      -6.080  49.255 -22.332  1.00  0.00     0.021 C 
HETATM   16  C21 UNL     1      -5.303  46.828 -22.134  1.00  0.00     0.022 C 
HETATM   17  C22 UNL     1      -6.623  46.053 -22.189  1.00  0.00     0.080 C 
HETATM   18  C23 UNL     1      -7.779  46.776 -21.545  1.00  0.00     0.137 C 
HETATM   19  O3  UNL     1      -8.870  46.820 -22.120  1.00  0.00    -0.297 OA
HETATM   20  C24 UNL     1      -7.562  47.410 -20.170  1.00  0.00     0.044 C 
HETATM   21  C25 UNL     1      -8.635  48.502 -19.962  1.00  0.00     0.026 C 
HETATM   22  C33 UNL     1      -6.089  47.957 -20.078  1.00  0.00     0.023 C 
HETATM   23  C34 UNL     1      -5.941  49.155 -19.142  1.00  0.00     0.090 C 
HETATM   24  C35 UNL     1      -4.474  49.314 -18.839  1.00  0.00     0.158 C 
HETATM   25  O9  UNL     1      -4.072  49.360 -17.680  1.00  0.00    -0.293 OA
ENDROOT
BRANCH  20  26
HETATM   26  C26 UNL     1      -7.737  46.303 -19.094  1.00  0.00     0.196 C 
BRANCH  26  27
HETATM   27  O4  UNL     1      -9.032  46.279 -18.473  1.00  0.00    -0.320 OA
BRANCH  27  28
HETATM   28  C27 UNL     1      -9.812  45.195 -18.722  1.00  0.00     0.261 C 
HETATM   29  O5  UNL     1      -9.404  44.118 -19.136  1.00  0.00    -0.265 OA
BRANCH  28  30
HETATM   30  C28 UNL     1     -11.255  45.462 -18.377  1.00  0.00     0.148 C 
BRANCH  30  31
HETATM   31  C29 UNL     1     -11.583  45.341 -16.880  1.00  0.00     0.072 C 
HETATM   32  C30 UNL     1     -10.674  44.246 -16.292  1.00  0.00     0.047 C 
BRANCH  31  33
HETATM   33  O6  UNL     1     -11.217  46.579 -16.259  1.00  0.00    -0.389 OA
HETATM   34  H41 UNL     1     -11.427  46.504 -15.304  1.00  0.00     0.210 HD
ENDBRANCH  31  33
BRANCH  31  35
HETATM   35  C31 UNL     1     -13.073  45.031 -16.636  1.00  0.00     0.147 C 
BRANCH  35  36
HETATM   36  C32 UNL     1     -13.770  46.101 -15.839  1.00  0.00     0.142 C 
HETATM   37  O7  UNL     1     -14.260  47.128 -16.281  1.00  0.00    -0.650 OA
BRANCH  36  38
HETATM   38  O8  UNL     1     -13.846  45.816 -14.524  1.00  0.00    -0.776 OA
HETATM   39  H44 UNL     1     -14.357  46.564 -14.147  1.00  0.00     0.167 HD
ENDBRANCH  36  38
ENDBRANCH  35  36
ENDBRANCH  31  35
ENDBRANCH  30  31
ENDBRANCH  28  30
ENDBRANCH  27  28
ENDBRANCH  26  27
ENDBRANCH  20  26
BRANCH   1  40
HETATM   40  C6  UNL     1       0.692  51.855 -21.646  1.00  0.00    -0.013 C 
HETATM   41  C7  UNL     1       0.856  53.288 -21.090  1.00  0.00     0.010 C 
BRANCH  40  42
HETATM   42  C5  UNL     1       0.140  51.917 -23.093  1.00  0.00     0.008 C 
BRANCH  42  43
HETATM   43  C4  UNL     1       0.587  53.142 -23.910  1.00  0.00     0.028 C 
BRANCH  43  44
HETATM   44  C3  UNL     1      -0.203  53.375 -25.169  1.00  0.00    -0.013 C 
HETATM   45  C2  UNL     1      -0.157  52.632 -26.290  1.00  0.00     0.008 C 
HETATM   46  C1  UNL     1       0.676  51.394 -26.467  1.00  0.00     0.055 C 
BRANCH  45  47
HETATM   47  C36 UNL     1      -0.955  53.004 -27.488  1.00  0.00     0.171 C 
HETATM   48  O10 UNL     1      -2.117  53.370 -27.477  1.00  0.00    -0.646 OA
BRANCH  47  49
HETATM   49  O11 UNL     1      -0.269  52.918 -28.644  1.00  0.00    -0.773 OA
HETATM   50  H48 UNL     1      -0.931  53.191 -29.311  1.00  0.00     0.167 HD
ENDBRANCH  47  49
ENDBRANCH  45  47
ENDBRANCH  43  44
ENDBRANCH  42  43
ENDBRANCH  40  42
ENDBRANCH   1  40
TORSDOF 15
ENDMDL
MODEL 3
REMARK minimizedAffinity -7.82864332
REMARK CNNscore 0.485731572
REMARK CNNaffinity 5.87583017
REMARK  15 active torsions:
REMARK  status: ('A' for Active; 'I' for Inactive)
REMARK    1  A    between atoms: C2_2  and  C36_45 
REMARK    2  A    between atoms: C3_3  and  C4_4 
REMARK    3  A    between atoms: C4_4  and  C5_5 
REMARK    4  A    between atoms: C5_5  and  C6_6 
REMARK    5  A    between atoms: C6_6  and  C8_8 
REMARK    6  A    between atoms: C24_27  and  C26_29 
REMARK    7  A    between atoms: C26_29  and  O4_30 
REMARK    8  A    between atoms: O4_30  and  C27_31 
REMARK    9  A    between atoms: C27_31  and  C28_33 
REMARK   10  A    between atoms: C28_33  and  C29_34 
REMARK   11  A    between atoms: C29_34  and  O6_36 
REMARK   12  A    between atoms: C29_34  and  C31_37 
REMARK   13  A    between atoms: C31_37  and  C32_38 
REMARK   14  A    between atoms: C32_38  and  O8_40 
REMARK   15  A    between atoms: C36_45  and  O11_47 
ROOT
HETATM    1  C8  UNL     1     -11.579  45.325 -28.404  1.00  0.00     0.006 C 
HETATM    2  C9  UNL     1     -11.166  46.729 -27.906  1.00  0.00     0.085 C 
HETATM    3  C10 UNL     1     -12.185  47.021 -26.804  1.00  0.00     0.141 C 
HETATM    4  O1  UNL     1     -12.334  48.138 -26.332  1.00  0.00    -0.297 OA
HETATM    5  C11 UNL     1     -12.982  45.753 -26.449  1.00  0.00     0.056 C 
HETATM    6  C12 UNL     1     -12.088  44.946 -25.465  1.00  0.00     0.030 C 
HETATM    7  C13 UNL     1     -14.370  45.758 -25.846  1.00  0.00     0.015 C 
HETATM    8  C14 UNL     1     -15.326  44.839 -26.143  1.00  0.00     0.007 C 
HETATM    9  C15 UNL     1     -14.979  43.781 -27.185  1.00  0.00     0.157 C 
HETATM   10  O2  UNL     1     -15.789  42.908 -27.492  1.00  0.00    -0.293 OA
HETATM   11  C16 UNL     1     -13.614  43.786 -27.864  1.00  0.00     0.094 C 
HETATM   12  C17 UNL     1     -13.058  45.204 -27.924  1.00  0.00    -0.014 C 
HETATM   13  C18 UNL     1     -14.004  46.044 -28.844  1.00  0.00     0.018 C 
HETATM   14  C19 UNL     1     -16.753  44.803 -25.507  1.00  0.00    -0.007 C 
HETATM   15  C20 UNL     1     -17.719  45.309 -26.606  1.00  0.00     0.021 C 
HETATM   16  C21 UNL     1     -17.159  43.380 -25.026  1.00  0.00     0.022 C 
HETATM   17  C22 UNL     1     -18.412  43.295 -24.150  1.00  0.00     0.080 C 
HETATM   18  C23 UNL     1     -19.061  44.631 -23.888  1.00  0.00     0.137 C 
HETATM   19  O3  UNL     1     -20.286  44.746 -23.988  1.00  0.00    -0.297 OA
HETATM   20  C24 UNL     1     -18.168  45.801 -23.471  1.00  0.00     0.044 C 
HETATM   21  C25 UNL     1     -18.917  47.118 -23.777  1.00  0.00     0.026 C 
HETATM   22  C33 UNL     1     -16.783  45.685 -24.209  1.00  0.00     0.023 C 
HETATM   23  C34 UNL     1     -16.108  47.033 -24.453  1.00  0.00     0.090 C 
HETATM   24  C35 UNL     1     -14.663  46.762 -24.781  1.00  0.00     0.158 C 
HETATM   25  O9  UNL     1     -13.761  47.314 -24.157  1.00  0.00    -0.293 OA
ENDROOT
BRANCH  20  26
HETATM   26  C26 UNL     1     -17.915  45.695 -21.942  1.00  0.00     0.196 C 
BRANCH  26  27
HETATM   27  O4  UNL     1     -17.006  46.677 -21.421  1.00  0.00    -0.320 OA
BRANCH  27  28
HETATM   28  C27 UNL     1     -16.124  46.257 -20.477  1.00  0.00     0.261 C 
HETATM   29  O5  UNL     1     -15.294  45.372 -20.638  1.00  0.00    -0.265 OA
BRANCH  28  30
HETATM   30  C28 UNL     1     -16.256  47.054 -19.204  1.00  0.00     0.148 C 
BRANCH  30  31
HETATM   31  C29 UNL     1     -14.937  47.651 -18.689  1.00  0.00     0.072 C 
HETATM   32  C30 UNL     1     -14.287  48.418 -19.856  1.00  0.00     0.047 C 
BRANCH  31  33
HETATM   33  O6  UNL     1     -15.265  48.611 -17.678  1.00  0.00    -0.389 OA
HETATM   34  H41 UNL     1     -14.424  48.992 -17.347  1.00  0.00     0.210 HD
ENDBRANCH  31  33
BRANCH  31  35
HETATM   35  C31 UNL     1     -13.992  46.571 -18.126  1.00  0.00     0.147 C 
BRANCH  35  36
HETATM   36  C32 UNL     1     -13.589  46.832 -16.700  1.00  0.00     0.142 C 
HETATM   37  O7  UNL     1     -14.248  46.579 -15.705  1.00  0.00    -0.650 OA
BRANCH  36  38
HETATM   38  O8  UNL     1     -12.360  47.373 -16.588  1.00  0.00    -0.776 OA
HETATM   39  H44 UNL     1     -12.217  47.442 -15.620  1.00  0.00     0.167 HD
ENDBRANCH  36  38
ENDBRANCH  35  36
ENDBRANCH  31  35
ENDBRANCH  30  31
ENDBRANCH  28  30
ENDBRANCH  27  28
ENDBRANCH  26  27
ENDBRANCH  20  26
BRANCH   1  40
HETATM   40  C6  UNL     1     -11.219  44.988 -29.883  1.00  0.00    -0.013 C 
HETATM   41  C7  UNL     1     -10.543  43.598 -29.901  1.00  0.00     0.010 C 
BRANCH  40  42
HETATM   42  C5  UNL     1     -10.307  46.020 -30.594  1.00  0.00     0.008 C 
BRANCH  42  43
HETATM   43  C4  UNL     1      -8.856  45.562 -30.821  1.00  0.00     0.028 C 
BRANCH  43  44
HETATM   44  C3  UNL     1      -7.823  46.362 -30.075  1.00  0.00    -0.013 C 
HETATM   45  C2  UNL     1      -7.100  47.387 -30.564  1.00  0.00     0.008 C 
HETATM   46  C1  UNL     1      -7.231  47.945 -31.954  1.00  0.00     0.055 C 
BRANCH  45  47
HETATM   47  C36 UNL     1      -6.070  48.063 -29.732  1.00  0.00     0.171 C 
HETATM   48  O10 UNL     1      -4.920  48.280 -30.070  1.00  0.00    -0.646 OA
BRANCH  47  49
HETATM   49  O11 UNL     1      -6.519  48.449 -28.522  1.00  0.00    -0.773 OA
HETATM   50  H48 UNL     1      -5.730  48.864 -28.119  1.00  0.00     0.167 HD
ENDBRANCH  47  49
ENDBRANCH  45  47
ENDBRANCH  43  44
ENDBRANCH  42  43
ENDBRANCH  40  42
ENDBRANCH   1  40
TORSDOF 15
ENDMDL
MODEL 4
REMARK minimizedAffinity -7.79949474
REMARK CNNscore 0.462163121
REMARK CNNaffinity 6.72757959
REMARK  15 active torsions:
REMARK  status: ('A' for Active; 'I' for Inactive)
REMARK    1  A    between atoms: C2_2  and  C36_45 
REMARK    2  A    between atoms: C3_3  and  C4_4 
REMARK    3  A    between atoms: C4_4  and  C5_5 
REMARK    4  A    between atoms: C5_5  and  C6_6 
REMARK    5  A    between atoms: C6_6  and  C8_8 
REMARK    6  A    between atoms: C24_27  and  C26_29 
REMARK    7  A    between atoms: C26_29  and  O4_30 
REMARK    8  A    between atoms: O4_30  and  C27_31 
REMARK    9  A    between atoms: C27_31  and  C28_33 
REMARK   10  A    between atoms: C28_33  and  C29_34 
REMARK   11  A    between atoms: C29_34  and  O6_36 
REMARK   12  A    between atoms: C29_34  and  C31_37 
REMARK   13  A    between atoms: C31_37  and  C32_38 
REMARK   14  A    between atoms: C32_38  and  O8_40 
REMARK   15  A    between atoms: C36_45  and  O11_47 
ROOT
HETATM    1  C8  UNL     1      -1.007  50.588 -20.745  1.00  0.00     0.006 C 
HETATM    2  C9  UNL     1      -1.214  49.907 -19.372  1.00  0.00     0.085 C 
HETATM    3  C10 UNL     1      -2.366  48.938 -19.634  1.00  0.00     0.141 C 
HETATM    4  O1  UNL     1      -2.977  48.390 -18.728  1.00  0.00    -0.297 OA
HETATM    5  C11 UNL     1      -2.647  48.820 -21.143  1.00  0.00     0.056 C 
HETATM    6  C12 UNL     1      -1.611  47.799 -21.693  1.00  0.00     0.030 C 
HETATM    7  C13 UNL     1      -3.982  48.422 -21.735  1.00  0.00     0.015 C 
HETATM    8  C14 UNL     1      -4.480  48.936 -22.890  1.00  0.00     0.007 C 
HETATM    9  C15 UNL     1      -3.656  50.013 -23.587  1.00  0.00     0.157 C 
HETATM   10  O2  UNL     1      -4.036  50.512 -24.645  1.00  0.00    -0.293 OA
HETATM   11  C16 UNL     1      -2.339  50.488 -22.985  1.00  0.00     0.094 C 
HETATM   12  C17 UNL     1      -2.366  50.336 -21.469  1.00  0.00    -0.014 C 
HETATM   13  C18 UNL     1      -3.469  51.298 -20.917  1.00  0.00     0.018 C 
HETATM   14  C19 UNL     1      -5.838  48.515 -23.538  1.00  0.00    -0.007 C 
HETATM   15  C20 UNL     1      -6.814  49.688 -23.275  1.00  0.00     0.021 C 
HETATM   16  C21 UNL     1      -5.712  48.231 -25.062  1.00  0.00     0.022 C 
HETATM   17  C22 UNL     1      -6.914  47.553 -25.725  1.00  0.00     0.080 C 
HETATM   18  C23 UNL     1      -8.048  47.262 -24.773  1.00  0.00     0.137 C 
HETATM   19  O3  UNL     1      -9.207  47.523 -25.104  1.00  0.00    -0.297 OA
HETATM   20  C24 UNL     1      -7.716  46.615 -23.427  1.00  0.00     0.044 C 
HETATM   21  C25 UNL     1      -8.878  46.900 -22.450  1.00  0.00     0.026 C 
HETATM   22  C33 UNL     1      -6.328  47.157 -22.920  1.00  0.00     0.023 C 
HETATM   23  C34 UNL     1      -6.200  47.176 -21.398  1.00  0.00     0.090 C 
HETATM   24  C35 UNL     1      -4.737  47.320 -21.069  1.00  0.00     0.158 C 
HETATM   25  O9  UNL     1      -4.180  46.525 -20.317  1.00  0.00    -0.293 OA
ENDROOT
BRANCH  20  26
HETATM   26  C26 UNL     1      -7.589  45.083 -23.645  1.00  0.00     0.196 C 
BRANCH  26  27
HETATM   27  O4  UNL     1      -8.800  44.442 -24.076  1.00  0.00    -0.320 OA
BRANCH  27  28
HETATM   28  C27 UNL     1      -8.696  43.564 -25.107  1.00  0.00     0.261 C 
HETATM   29  O5  UNL     1      -7.683  42.938 -25.396  1.00  0.00    -0.265 OA
BRANCH  28  30
HETATM   30  C28 UNL     1     -10.006  43.408 -25.836  1.00  0.00     0.148 C 
BRANCH  30  31
HETATM   31  C29 UNL     1     -10.013  43.982 -27.261  1.00  0.00     0.072 C 
HETATM   32  C30 UNL     1     -10.014  42.794 -28.240  1.00  0.00     0.047 C 
BRANCH  31  33
HETATM   33  O6  UNL     1     -11.251  44.682 -27.437  1.00  0.00    -0.389 OA
HETATM   34  H41 UNL     1     -11.256  45.050 -28.346  1.00  0.00     0.210 HD
ENDBRANCH  31  33
BRANCH  31  35
HETATM   35  C31 UNL     1      -8.817  44.923 -27.513  1.00  0.00     0.147 C 
BRANCH  35  36
HETATM   36  C32 UNL     1      -9.146  46.045 -28.460  1.00  0.00     0.142 C 
HETATM   37  O7  UNL     1      -8.886  46.085 -29.652  1.00  0.00    -0.650 OA
BRANCH  36  38
HETATM   38  O8  UNL     1      -9.816  47.055 -27.871  1.00  0.00    -0.776 OA
HETATM   39  H44 UNL     1     -10.000  47.679 -28.604  1.00  0.00     0.167 HD
ENDBRANCH  36  38
ENDBRANCH  35  36
ENDBRANCH  31  35
ENDBRANCH  30  31
ENDBRANCH  28  30
ENDBRANCH  27  28
ENDBRANCH  26  27
ENDBRANCH  20  26
BRANCH   1  40
HETATM   40  C6  UNL     1      -0.406  52.026 -20.714  1.00  0.00    -0.013 C 
HETATM   41  C7  UNL     1       1.019  51.956 -21.309  1.00  0.00     0.010 C 
BRANCH  40  42
HETATM   42  C5  UNL     1      -0.355  52.693 -19.316  1.00  0.00     0.008 C 
BRANCH  42  43
HETATM   43  C4  UNL     1       1.011  52.630 -18.612  1.00  0.00     0.028 C 
BRANCH  43  44
HETATM   44  C3  UNL     1       0.966  52.100 -17.205  1.00  0.00    -0.013 C 
HETATM   45  C2  UNL     1       1.952  52.173 -16.291  1.00  0.00     0.008 C 
HETATM   46  C1  UNL     1       3.278  52.844 -16.511  1.00  0.00     0.055 C 
BRANCH  45  47
HETATM   47  C36 UNL     1       1.795  51.560 -14.946  1.00  0.00     0.171 C 
HETATM   48  O10 UNL     1       2.706  51.274 -14.190  1.00  0.00    -0.646 OA
BRANCH  47  49
HETATM   49  O11 UNL     1       0.513  51.342 -14.596  1.00  0.00    -0.773 OA
HETATM   50  H48 UNL     1       0.594  50.944 -13.706  1.00  0.00     0.167 HD
ENDBRANCH  47  49
ENDBRANCH  45  47
ENDBRANCH  43  44
ENDBRANCH  42  43
ENDBRANCH  40  42
ENDBRANCH   1  40
TORSDOF 15
ENDMDL
MODEL 5
REMARK minimizedAffinity -7.65744972
REMARK CNNscore 0.389790803
REMARK CNNaffinity 6.64982796
REMARK  15 active torsions:
REMARK  status: ('A' for Active; 'I' for Inactive)
REMARK    1  A    between atoms: C2_2  and  C36_45 
REMARK    2  A    between atoms: C3_3  and  C4_4 
REMARK    3  A    between atoms: C4_4  and  C5_5 
REMARK    4  A    between atoms: C5_5  and  C6_6 
REMARK    5  A    between atoms: C6_6  and  C8_8 
REMARK    6  A    between atoms: C24_27  and  C26_29 
REMARK    7  A    between atoms: C26_29  and  O4_30 
REMARK    8  A    between atoms: O4_30  and  C27_31 
REMARK    9  A    between atoms: C27_31  and  C28_33 
REMARK   10  A    between atoms: C28_33  and  C29_34 
REMARK   11  A    between atoms: C29_34  and  O6_36 
REMARK   12  A    between atoms: C29_34  and  C31_37 
REMARK   13  A    between atoms: C31_37  and  C32_38 
REMARK   14  A    between atoms: C32_38  and  O8_40 
REMARK   15  A    between atoms: C36_45  and  O11_47 
ROOT
HETATM    1  C8  UNL     1      -1.477  49.525 -16.964  1.00  0.00     0.006 C 
HETATM    2  C9  UNL     1      -2.873  48.961 -16.610  1.00  0.00     0.085 C 
HETATM    3  C10 UNL     1      -3.546  48.814 -17.974  1.00  0.00     0.141 C 
HETATM    4  O1  UNL     1      -4.747  48.620 -18.093  1.00  0.00    -0.297 OA
HETATM    5  C11 UNL     1      -2.522  48.995 -19.109  1.00  0.00     0.056 C 
HETATM    6  C12 UNL     1      -1.810  47.621 -19.267  1.00  0.00     0.030 C 
HETATM    7  C13 UNL     1      -2.871  49.449 -20.510  1.00  0.00     0.015 C 
HETATM    8  C14 UNL     1      -2.072  50.245 -21.267  1.00  0.00     0.007 C 
HETATM    9  C15 UNL     1      -0.778  50.743 -20.632  1.00  0.00     0.157 C 
HETATM   10  O2  UNL     1       0.002  51.454 -21.263  1.00  0.00    -0.293 OA
HETATM   11  C16 UNL     1      -0.426  50.361 -19.199  1.00  0.00     0.094 C 
HETATM   12  C17 UNL     1      -1.694  50.125 -18.388  1.00  0.00    -0.014 C 
HETATM   13  C18 UNL     1      -2.459  51.486 -18.300  1.00  0.00     0.018 C 
HETATM   14  C19 UNL     1      -2.395  50.698 -22.727  1.00  0.00    -0.007 C 
HETATM   15  C20 UNL     1      -2.804  52.188 -22.628  1.00  0.00     0.021 C 
HETATM   16  C21 UNL     1      -1.187  50.519 -23.691  1.00  0.00     0.022 C 
HETATM   17  C22 UNL     1      -1.486  50.674 -25.185  1.00  0.00     0.080 C 
HETATM   18  C23 UNL     1      -2.932  50.979 -25.486  1.00  0.00     0.137 C 
HETATM   19  O3  UNL     1      -3.215  51.862 -26.300  1.00  0.00    -0.297 OA
HETATM   20  C24 UNL     1      -4.009  50.147 -24.786  1.00  0.00     0.044 C 
HETATM   21  C25 UNL     1      -5.332  50.944 -24.812  1.00  0.00     0.026 C 
HETATM   22  C33 UNL     1      -3.524  49.790 -23.332  1.00  0.00     0.023 C 
HETATM   23  C34 UNL     1      -4.668  49.610 -22.335  1.00  0.00     0.090 C 
HETATM   24  C35 UNL     1      -4.110  48.896 -21.132  1.00  0.00     0.158 C 
HETATM   25  O9  UNL     1      -4.633  47.867 -20.713  1.00  0.00    -0.293 OA
ENDROOT
BRANCH  20  26
HETATM   26  C26 UNL     1      -4.189  48.823 -25.578  1.00  0.00     0.196 C 
BRANCH  26  27
HETATM   27  O4  UNL     1      -5.065  48.923 -26.711  1.00  0.00    -0.320 OA
BRANCH  27  28
HETATM   28  C27 UNL     1      -4.770  48.146 -27.785  1.00  0.00     0.261 C 
HETATM   29  O5  UNL     1      -3.675  48.090 -28.330  1.00  0.00    -0.265 OA
BRANCH  28  30
HETATM   30  C28 UNL     1      -5.952  47.309 -28.205  1.00  0.00     0.148 C 
BRANCH  30  31
HETATM   31  C29 UNL     1      -6.341  47.455 -29.685  1.00  0.00     0.072 C 
HETATM   32  C30 UNL     1      -5.658  48.727 -30.220  1.00  0.00     0.047 C 
BRANCH  31  33
HETATM   33  O6  UNL     1      -5.780  46.341 -30.388  1.00  0.00    -0.389 OA
HETATM   34  H41 UNL     1      -6.028  46.432 -31.332  1.00  0.00     0.210 HD
ENDBRANCH  31  33
BRANCH  31  35
HETATM   35  C31 UNL     1      -7.869  47.508 -29.880  1.00  0.00     0.147 C 
BRANCH  35  36
HETATM   36  C32 UNL     1      -8.408  48.913 -29.899  1.00  0.00     0.142 C 
HETATM   37  O7  UNL     1      -8.642  49.584 -30.892  1.00  0.00    -0.650 OA
BRANCH  36  38
HETATM   38  O8  UNL     1      -8.657  49.401 -28.668  1.00  0.00    -0.776 OA
HETATM   39  H44 UNL     1      -9.040  50.288 -28.836  1.00  0.00     0.167 HD
ENDBRANCH  36  38
ENDBRANCH  35  36
ENDBRANCH  31  35
ENDBRANCH  30  31
ENDBRANCH  28  30
ENDBRANCH  27  28
ENDBRANCH  26  27
ENDBRANCH  20  26
BRANCH   1  40
HETATM   40  C6  UNL     1      -0.785  50.385 -15.863  1.00  0.00    -0.013 C 
HETATM   41  C7  UNL     1       0.698  49.956 -15.791  1.00  0.00     0.010 C 
BRANCH  40  42
HETATM   42  C5  UNL     1      -1.423  50.295 -14.454  1.00  0.00     0.008 C 
BRANCH  42  43
HETATM   43  C4  UNL     1      -1.415  51.606 -13.650  1.00  0.00     0.028 C 
BRANCH  43  44
HETATM   44  C3  UNL     1      -2.691  51.890 -12.903  1.00  0.00    -0.013 C 
HETATM   45  C2  UNL     1      -2.910  51.685 -11.591  1.00  0.00     0.008 C 
HETATM   46  C1  UNL     1      -1.889  51.166 -10.619  1.00  0.00     0.055 C 
BRANCH  45  47
HETATM   47  C36 UNL     1      -4.241  51.960 -10.986  1.00  0.00     0.171 C 
HETATM   48  O10 UNL     1      -4.969  51.129 -10.475  1.00  0.00    -0.646 OA
BRANCH  47  49
HETATM   49  O11 UNL     1      -4.598  53.258 -11.033  1.00  0.00    -0.773 OA
HETATM   50  H48 UNL     1      -5.478  53.257 -10.603  1.00  0.00     0.167 HD
ENDBRANCH  47  49
ENDBRANCH  45  47
ENDBRANCH  43  44
ENDBRANCH  42  43
ENDBRANCH  40  42
ENDBRANCH   1  40
TORSDOF 15
ENDMDL
MODEL 6
REMARK minimizedAffinity -8.5139246
REMARK CNNscore 0.372371793
REMARK CNNaffinity 6.84359884
REMARK  15 active torsions:
REMARK  status: ('A' for Active; 'I' for Inactive)
REMARK    1  A    between atoms: C2_2  and  C36_45 
REMARK    2  A    between atoms: C3_3  and  C4_4 
REMARK    3  A    between atoms: C4_4  and  C5_5 
REMARK    4  A    between atoms: C5_5  and  C6_6 
REMARK    5  A    between atoms: C6_6  and  C8_8 
REMARK    6  A    between atoms: C24_27  and  C26_29 
REMARK    7  A    between atoms: C26_29  and  O4_30 
REMARK    8  A    between atoms: O4_30  and  C27_31 
REMARK    9  A    between atoms: C27_31  and  C28_33 
REMARK   10  A    between atoms: C28_33  and  C29_34 
REMARK   11  A    between atoms: C29_34  and  O6_36 
REMARK   12  A    between atoms: C29_34  and  C31_37 
REMARK   13  A    between atoms: C31_37  and  C32_38 
REMARK   14  A    between atoms: C32_38  and  O8_40 
REMARK   15  A    between atoms: C36_45  and  O11_47 
ROOT
HETATM    1  C8  UNL     1      -0.538  50.199 -21.174  1.00  0.00     0.006 C 
HETATM    2  C9  UNL     1      -0.773  49.715 -19.725  1.00  0.00     0.085 C 
HETATM    3  C10 UNL     1      -2.060  48.898 -19.835  1.00  0.00     0.141 C 
HETATM    4  O1  UNL     1      -2.698  48.548 -18.853  1.00  0.00    -0.297 OA
HETATM    5  C11 UNL     1      -2.424  48.650 -21.310  1.00  0.00     0.056 C 
HETATM    6  C12 UNL     1      -1.566  47.436 -21.765  1.00  0.00     0.030 C 
HETATM    7  C13 UNL     1      -3.827  48.383 -21.810  1.00  0.00     0.015 C 
HETATM    8  C14 UNL     1      -4.302  48.828 -23.003  1.00  0.00     0.007 C 
HETATM    9  C15 UNL     1      -3.370  49.690 -23.848  1.00  0.00     0.157 C 
HETATM   10  O2  UNL     1      -3.726  50.115 -24.945  1.00  0.00    -0.293 OA
HETATM   11  C16 UNL     1      -1.973  50.036 -23.346  1.00  0.00     0.094 C 
HETATM   12  C17 UNL     1      -1.951  50.063 -21.822  1.00  0.00    -0.014 C 
HETATM   13  C18 UNL     1      -2.883  51.229 -21.356  1.00  0.00     0.018 C 
HETATM   14  C19 UNL     1      -5.733  48.535 -23.555  1.00  0.00    -0.007 C 
HETATM   15  C20 UNL     1      -6.525  49.857 -23.405  1.00  0.00     0.021 C 
HETATM   16  C21 UNL     1      -5.719  48.064 -25.038  1.00  0.00     0.022 C 
HETATM   17  C22 UNL     1      -7.034  47.495 -25.579  1.00  0.00     0.080 C 
HETATM   18  C23 UNL     1      -8.151  47.479 -24.566  1.00  0.00     0.137 C 
HETATM   19  O3  UNL     1      -9.277  47.864 -24.891  1.00  0.00    -0.297 OA
HETATM   20  C24 UNL     1      -7.849  46.948 -23.163  1.00  0.00     0.044 C 
HETATM   21  C25 UNL     1      -8.915  47.505 -22.193  1.00  0.00     0.026 C 
HETATM   22  C33 UNL     1      -6.378  47.340 -22.766  1.00  0.00     0.023 C 
HETATM   23  C34 UNL     1      -6.179  47.513 -21.262  1.00  0.00     0.090 C 
HETATM   24  C35 UNL     1      -4.696  47.483 -20.995  1.00  0.00     0.158 C 
HETATM   25  O9  UNL     1      -4.220  46.707 -20.171  1.00  0.00    -0.293 OA
ENDROOT
BRANCH  20  26
HETATM   26  C26 UNL     1      -7.947  45.399 -23.201  1.00  0.00     0.196 C 
BRANCH  26  27
HETATM   27  O4  UNL     1      -9.239  44.875 -22.855  1.00  0.00    -0.320 OA
BRANCH  27  28
HETATM   28  C27 UNL     1      -9.901  44.187 -23.822  1.00  0.00     0.261 C 
HETATM   29  O5  UNL     1      -9.753  44.352 -25.026  1.00  0.00    -0.265 OA
BRANCH  28  30
HETATM   30  C28 UNL     1     -10.816  43.146 -23.230  1.00  0.00     0.148 C 
BRANCH  30  31
HETATM   31  C29 UNL     1     -10.413  41.695 -23.539  1.00  0.00     0.072 C 
HETATM   32  C30 UNL     1     -11.421  40.772 -22.832  1.00  0.00     0.047 C 
BRANCH  31  33
HETATM   33  O6  UNL     1     -10.568  41.498 -24.949  1.00  0.00    -0.389 OA
HETATM   34  H41 UNL     1     -10.310  40.573 -25.148  1.00  0.00     0.210 HD
ENDBRANCH  31  33
BRANCH  31  35
HETATM   35  C31 UNL     1      -8.965  41.391 -23.104  1.00  0.00     0.147 C 
BRANCH  35  36
HETATM   36  C32 UNL     1      -8.074  41.020 -24.259  1.00  0.00     0.142 C 
HETATM   37  O7  UNL     1      -7.811  39.888 -24.634  1.00  0.00    -0.650 OA
BRANCH  36  38
HETATM   38  O8  UNL     1      -7.577  42.090 -24.910  1.00  0.00    -0.776 OA
HETATM   39  H44 UNL     1      -7.066  41.702 -25.651  1.00  0.00     0.167 HD
ENDBRANCH  36  38
ENDBRANCH  35  36
ENDBRANCH  31  35
ENDBRANCH  30  31
ENDBRANCH  28  30
ENDBRANCH  27  28
ENDBRANCH  26  27
ENDBRANCH  20  26
BRANCH   1  40
HETATM   40  C6  UNL     1       0.258  51.530 -21.333  1.00  0.00    -0.013 C 
HETATM   41  C7  UNL     1       0.160  52.302 -19.998  1.00  0.00     0.010 C 
BRANCH  40  42
HETATM   42  C5  UNL     1      -0.203  52.442 -22.499  1.00  0.00     0.008 C 
BRANCH  42  43
HETATM   43  C4  UNL     1       0.756  52.499 -23.700  1.00  0.00     0.028 C 
BRANCH  43  44
HETATM   44  C3  UNL     1       0.176  53.140 -24.932  1.00  0.00    -0.013 C 
HETATM   45  C2  UNL     1       0.496  52.853 -26.208  1.00  0.00     0.008 C 
HETATM   46  C1  UNL     1       1.474  51.794 -26.631  1.00  0.00     0.055 C 
BRANCH  45  47
HETATM   47  C36 UNL     1      -0.116  53.602 -27.337  1.00  0.00     0.171 C 
HETATM   48  O10 UNL     1      -0.355  54.797 -27.345  1.00  0.00    -0.646 OA
BRANCH  47  49
HETATM   49  O11 UNL     1      -0.393  52.835 -28.409  1.00  0.00    -0.773 OA
HETATM   50  H48 UNL     1      -0.782  53.474 -29.040  1.00  0.00     0.167 HD
ENDBRANCH  47  49
ENDBRANCH  45  47
ENDBRANCH  43  44
ENDBRANCH  42  43
ENDBRANCH  40  42
ENDBRANCH   1  40
TORSDOF 15
ENDMDL
MODEL 7
REMARK minimizedAffinity -8.58983421
REMARK CNNscore 0.370765984
REMARK CNNaffinity 6.78386116
REMARK  15 active torsions:
REMARK  status: ('A' for Active; 'I' for Inactive)
REMARK    1  A    between atoms: C2_2  and  C36_45 
REMARK    2  A    between atoms: C3_3  and  C4_4 
REMARK    3  A    between atoms: C4_4  and  C5_5 
REMARK    4  A    between atoms: C5_5  and  C6_6 
REMARK    5  A    between atoms: C6_6  and  C8_8 
REMARK    6  A    between atoms: C24_27  and  C26_29 
REMARK    7  A    between atoms: C26_29  and  O4_30 
REMARK    8  A    between atoms: O4_30  and  C27_31 
REMARK    9  A    between atoms: C27_31  and  C28_33 
REMARK   10  A    between atoms: C28_33  and  C29_34 
REMARK   11  A    between atoms: C29_34  and  O6_36 
REMARK   12  A    between atoms: C29_34  and  C31_37 
REMARK   13  A    between atoms: C31_37  and  C32_38 
REMARK   14  A    between atoms: C32_38  and  O8_40 
REMARK   15  A    between atoms: C36_45  and  O11_47 
ROOT
HETATM    1  C8  UNL     1      -0.153  51.181 -20.802  1.00  0.00     0.006 C 
HETATM    2  C9  UNL     1      -0.419  51.826 -19.422  1.00  0.00     0.085 C 
HETATM    3  C10 UNL     1      -1.709  51.147 -18.963  1.00  0.00     0.141 C 
HETATM    4  O1  UNL     1      -2.368  51.565 -18.022  1.00  0.00    -0.297 OA
HETATM    5  C11 UNL     1      -2.047  49.949 -19.869  1.00  0.00     0.056 C 
HETATM    6  C12 UNL     1      -1.189  48.762 -19.347  1.00  0.00     0.030 C 
HETATM    7  C13 UNL     1      -3.442  49.400 -20.073  1.00  0.00     0.015 C 
HETATM    8  C14 UNL     1      -3.891  48.898 -21.253  1.00  0.00     0.007 C 
HETATM    9  C15 UNL     1      -2.938  48.949 -22.442  1.00  0.00     0.157 C 
HETATM   10  O2  UNL     1      -3.270  48.498 -23.537  1.00  0.00    -0.293 OA
HETATM   11  C16 UNL     1      -1.548  49.557 -22.291  1.00  0.00     0.094 C 
HETATM   12  C17 UNL     1      -1.554  50.625 -21.204  1.00  0.00    -0.014 C 
HETATM   13  C18 UNL     1      -2.487  51.785 -21.686  1.00  0.00     0.018 C 
HETATM   14  C19 UNL     1      -5.314  48.293 -21.478  1.00  0.00    -0.007 C 
HETATM   15  C20 UNL     1      -6.099  49.350 -22.294  1.00  0.00     0.021 C 
HETATM   16  C21 UNL     1      -5.275  46.931 -22.229  1.00  0.00     0.022 C 
HETATM   17  C22 UNL     1      -6.583  46.135 -22.253  1.00  0.00     0.080 C 
HETATM   18  C23 UNL     1      -7.719  46.812 -21.528  1.00  0.00     0.137 C 
HETATM   19  O3  UNL     1      -8.836  46.858 -22.050  1.00  0.00    -0.297 OA
HETATM   20  C24 UNL     1      -7.448  47.395 -20.140  1.00  0.00     0.044 C 
HETATM   21  C25 UNL     1      -8.528  48.459 -19.840  1.00  0.00     0.026 C 
HETATM   22  C33 UNL     1      -5.981  47.965 -20.095  1.00  0.00     0.023 C 
HETATM   23  C34 UNL     1      -5.809  49.128 -19.120  1.00  0.00     0.090 C 
HETATM   24  C35 UNL     1      -4.332  49.301 -18.879  1.00  0.00     0.158 C 
HETATM   25  O9  UNL     1      -3.877  49.310 -17.739  1.00  0.00    -0.293 OA
ENDROOT
BRANCH  20  26
HETATM   26  C26 UNL     1      -7.555  46.245 -19.103  1.00  0.00     0.196 C 
BRANCH  26  27
HETATM   27  O4  UNL     1      -8.330  46.566 -17.937  1.00  0.00    -0.320 OA
BRANCH  27  28
HETATM   28  C27 UNL     1      -9.311  45.691 -17.593  1.00  0.00     0.261 C 
HETATM   29  O5  UNL     1      -9.649  44.720 -18.258  1.00  0.00    -0.265 OA
BRANCH  28  30
HETATM   30  C28 UNL     1      -9.909  46.031 -16.252  1.00  0.00     0.148 C 
BRANCH  30  31
HETATM   31  C29 UNL     1      -8.924  45.941 -15.075  1.00  0.00     0.072 C 
HETATM   32  C30 UNL     1      -8.166  44.607 -15.205  1.00  0.00     0.047 C 
BRANCH  31  33
HETATM   33  O6  UNL     1      -7.966  46.994 -15.237  1.00  0.00    -0.389 OA
HETATM   34  H41 UNL     1      -7.337  46.939 -14.486  1.00  0.00     0.210 HD
ENDBRANCH  31  33
BRANCH  31  35
HETATM   35  C31 UNL     1      -9.636  46.059 -13.713  1.00  0.00     0.147 C 
BRANCH  35  36
HETATM   36  C32 UNL     1      -8.969  47.041 -12.788  1.00  0.00     0.142 C 
HETATM   37  O7  UNL     1      -7.939  46.856 -12.159  1.00  0.00    -0.650 OA
BRANCH  36  38
HETATM   38  O8  UNL     1      -9.611  48.223 -12.719  1.00  0.00    -0.776 OA
HETATM   39  H44 UNL     1      -9.048  48.767 -12.129  1.00  0.00     0.167 HD
ENDBRANCH  36  38
ENDBRANCH  35  36
ENDBRANCH  31  35
ENDBRANCH  30  31
ENDBRANCH  28  30
ENDBRANCH  27  28
ENDBRANCH  26  27
ENDBRANCH  20  26
BRANCH   1  40
HETATM   40  C6  UNL     1       0.655  52.044 -21.819  1.00  0.00    -0.013 C 
HETATM   41  C7  UNL     1       0.917  53.421 -21.169  1.00  0.00     0.010 C 
BRANCH  40  42
HETATM   42  C5  UNL     1      -0.017  52.239 -23.202  1.00  0.00     0.008 C 
BRANCH  42  43
HETATM   43  C4  UNL     1       0.607  53.336 -24.081  1.00  0.00     0.028 C 
BRANCH  43  44
HETATM   44  C3  UNL     1      -0.122  53.594 -25.372  1.00  0.00    -0.013 C 
HETATM   45  C2  UNL     1       0.097  52.979 -26.549  1.00  0.00     0.008 C 
HETATM   46  C1  UNL     1       1.098  51.881 -26.773  1.00  0.00     0.055 C 
BRANCH  45  47
HETATM   47  C36 UNL     1      -0.663  53.367 -27.767  1.00  0.00     0.171 C 
HETATM   48  O10 UNL     1      -1.699  54.006 -27.779  1.00  0.00    -0.646 OA
BRANCH  47  49
HETATM   49  O11 UNL     1      -0.093  52.953 -28.916  1.00  0.00    -0.773 OA
HETATM   50  H48 UNL     1      -0.711  53.285 -29.598  1.00  0.00     0.167 HD
ENDBRANCH  47  49
ENDBRANCH  45  47
ENDBRANCH  43  44
ENDBRANCH  42  43
ENDBRANCH  40  42
ENDBRANCH   1  40
TORSDOF 15
ENDMDL
MODEL 8
REMARK minimizedAffinity -9.06753731
REMARK CNNscore 0.331294984
REMARK CNNaffinity 6.66249084
REMARK  15 active torsions:
REMARK  status: ('A' for Active; 'I' for Inactive)
REMARK    1  A    between atoms: C2_2  and  C36_45 
REMARK    2  A    between atoms: C3_3  and  C4_4 
REMARK    3  A    between atoms: C4_4  and  C5_5 
REMARK    4  A    between atoms: C5_5  and  C6_6 
REMARK    5  A    between atoms: C6_6  and  C8_8 
REMARK    6  A    between atoms: C24_27  and  C26_29 
REMARK    7  A    between atoms: C26_29  and  O4_30 
REMARK    8  A    between atoms: O4_30  and  C27_31 
REMARK    9  A    between atoms: C27_31  and  C28_33 
REMARK   10  A    between atoms: C28_33  and  C29_34 
REMARK   11  A    between atoms: C29_34  and  O6_36 
REMARK   12  A    between atoms: C29_34  and  C31_37 
REMARK   13  A    between atoms: C31_37  and  C32_38 
REMARK   14  A    between atoms: C32_38  and  O8_40 
REMARK   15  A    between atoms: C36_45  and  O11_47 
ROOT
HETATM    1  C8  UNL     1      -0.788  50.074 -21.010  1.00  0.00     0.006 C 
HETATM    2  C9  UNL     1      -1.135  49.501 -19.616  1.00  0.00     0.085 C 
HETATM    3  C10 UNL     1      -2.384  48.662 -19.885  1.00  0.00     0.141 C 
HETATM    4  O1  UNL     1      -3.095  48.242 -18.984  1.00  0.00    -0.297 OA
HETATM    5  C11 UNL     1      -2.611  48.492 -21.398  1.00  0.00     0.056 C 
HETATM    6  C12 UNL     1      -1.683  47.326 -21.843  1.00  0.00     0.030 C 
HETATM    7  C13 UNL     1      -3.957  48.222 -22.034  1.00  0.00     0.015 C 
HETATM    8  C14 UNL     1      -4.339  48.724 -23.238  1.00  0.00     0.007 C 
HETATM    9  C15 UNL     1      -3.362  49.655 -23.948  1.00  0.00     0.157 C 
HETATM   10  O2  UNL     1      -3.633  50.135 -25.047  1.00  0.00    -0.293 OA
HETATM   11  C16 UNL     1      -2.024  50.004 -23.305  1.00  0.00     0.094 C 
HETATM   12  C17 UNL     1      -2.135  49.943 -21.787  1.00  0.00    -0.014 C 
HETATM   13  C18 UNL     1      -3.136  51.059 -21.340  1.00  0.00     0.018 C 
HETATM   14  C19 UNL     1      -5.708  48.431 -23.930  1.00  0.00    -0.007 C 
HETATM   15  C20 UNL     1      -6.546  49.724 -23.777  1.00  0.00     0.021 C 
HETATM   16  C21 UNL     1      -5.552  48.048 -25.430  1.00  0.00     0.022 C 
HETATM   17  C22 UNL     1      -6.798  47.480 -26.116  1.00  0.00     0.080 C 
HETATM   18  C23 UNL     1      -7.998  47.380 -25.208  1.00  0.00     0.137 C 
HETATM   19  O3  UNL     1      -9.102  47.757 -25.610  1.00  0.00    -0.297 OA
HETATM   20  C24 UNL     1      -7.805  46.776 -23.816  1.00  0.00     0.044 C 
HETATM   21  C25 UNL     1      -8.966  47.251 -22.914  1.00  0.00     0.026 C 
HETATM   22  C33 UNL     1      -6.385  47.178 -23.269  1.00  0.00     0.023 C 
HETATM   23  C34 UNL     1      -6.322  47.268 -21.746  1.00  0.00     0.090 C 
HETATM   24  C35 UNL     1      -4.868  47.257 -21.351  1.00  0.00     0.158 C 
HETATM   25  O9  UNL     1      -4.445  46.446 -20.533  1.00  0.00    -0.293 OA
ENDROOT
BRANCH  20  26
HETATM   26  C26 UNL     1      -7.855  45.229 -23.949  1.00  0.00     0.196 C 
BRANCH  26  27
HETATM   27  O4  UNL     1      -8.757  44.748 -24.958  1.00  0.00    -0.320 OA
BRANCH  27  28
HETATM   28  C27 UNL     1      -8.386  43.626 -25.628  1.00  0.00     0.261 C 
HETATM   29  O5  UNL     1      -7.479  42.875 -25.290  1.00  0.00    -0.265 OA
BRANCH  28  30
HETATM   30  C28 UNL     1      -9.265  43.382 -26.828  1.00  0.00     0.148 C 
BRANCH  30  31
HETATM   31  C29 UNL     1      -9.058  44.377 -27.981  1.00  0.00     0.072 C 
HETATM   32  C30 UNL     1      -9.797  43.822 -29.211  1.00  0.00     0.047 C 
BRANCH  31  33
HETATM   33  O6  UNL     1      -9.701  45.603 -27.612  1.00  0.00    -0.389 OA
HETATM   34  H41 UNL     1      -9.568  46.239 -28.347  1.00  0.00     0.210 HD
ENDBRANCH  31  33
BRANCH  31  35
HETATM   35  C31 UNL     1      -7.564  44.616 -28.278  1.00  0.00     0.147 C 
BRANCH  35  36
HETATM   36  C32 UNL     1      -7.226  44.459 -29.736  1.00  0.00     0.142 C 
HETATM   37  O7  UNL     1      -6.913  43.422 -30.298  1.00  0.00    -0.650 OA
BRANCH  36  38
HETATM   38  O8  UNL     1      -7.327  45.610 -30.430  1.00  0.00    -0.776 OA
HETATM   39  H44 UNL     1      -7.129  45.350 -31.354  1.00  0.00     0.167 HD
ENDBRANCH  36  38
ENDBRANCH  35  36
ENDBRANCH  31  35
ENDBRANCH  30  31
ENDBRANCH  28  30
ENDBRANCH  27  28
ENDBRANCH  26  27
ENDBRANCH  20  26
BRANCH   1  40
HETATM   40  C6  UNL     1      -0.020  51.430 -21.023  1.00  0.00    -0.013 C 
HETATM   41  C7  UNL     1      -0.318  52.157 -19.693  1.00  0.00     0.010 C 
BRANCH  40  42
HETATM   42  C5  UNL     1      -0.348  52.366 -22.215  1.00  0.00     0.008 C 
BRANCH  42  43
HETATM   43  C4  UNL     1       0.754  52.473 -23.283  1.00  0.00     0.028 C 
BRANCH  43  44
HETATM   44  C3  UNL     1       0.355  53.233 -24.518  1.00  0.00    -0.013 C 
HETATM   45  C2  UNL     1       0.368  52.768 -25.782  1.00  0.00     0.008 C 
HETATM   46  C1  UNL     1       0.753  51.371 -26.179  1.00  0.00     0.055 C 
BRANCH  45  47
HETATM   47  C36 UNL     1      -0.003  53.645 -26.923  1.00  0.00     0.171 C 
HETATM   48  O10 UNL     1       0.027  54.863 -26.918  1.00  0.00    -0.646 OA
BRANCH  47  49
HETATM   49  O11 UNL     1      -0.383  52.969 -28.025  1.00  0.00    -0.773 OA
HETATM   50  H48 UNL     1      -0.588  53.684 -28.660  1.00  0.00     0.167 HD
ENDBRANCH  47  49
ENDBRANCH  45  47
ENDBRANCH  43  44
ENDBRANCH  42  43
ENDBRANCH  40  42
ENDBRANCH   1  40
TORSDOF 15
ENDMDL
MODEL 9
REMARK minimizedAffinity -7.64355755
REMARK CNNscore 0.330820471
REMARK CNNaffinity 6.06750727
REMARK  15 active torsions:
REMARK  status: ('A' for Active; 'I' for Inactive)
REMARK    1  A    between atoms: C2_2  and  C36_45 
REMARK    2  A    between atoms: C3_3  and  C4_4 
REMARK    3  A    between atoms: C4_4  and  C5_5 
REMARK    4  A    between atoms: C5_5  and  C6_6 
REMARK    5  A    between atoms: C6_6  and  C8_8 
REMARK    6  A    between atoms: C24_27  and  C26_29 
REMARK    7  A    between atoms: C26_29  and  O4_30 
REMARK    8  A    between atoms: O4_30  and  C27_31 
REMARK    9  A    between atoms: C27_31  and  C28_33 
REMARK   10  A    between atoms: C28_33  and  C29_34 
REMARK   11  A    between atoms: C29_34  and  O6_36 
REMARK   12  A    between atoms: C29_34  and  C31_37 
REMARK   13  A    between atoms: C31_37  and  C32_38 
REMARK   14  A    between atoms: C32_38  and  O8_40 
REMARK   15  A    between atoms: C36_45  and  O11_47 
ROOT
HETATM    1  C8  UNL     1      -4.227  49.720 -21.893  1.00  0.00     0.006 C 
HETATM    2  C9  UNL     1      -4.124  49.114 -23.312  1.00  0.00     0.085 C 
HETATM    3  C10 UNL     1      -5.505  48.494 -23.526  1.00  0.00     0.141 C 
HETATM    4  O1  UNL     1      -5.736  47.713 -24.438  1.00  0.00    -0.297 OA
HETATM    5  C11 UNL     1      -6.484  48.951 -22.430  1.00  0.00     0.056 C 
HETATM    6  C12 UNL     1      -7.000  50.349 -22.872  1.00  0.00     0.030 C 
HETATM    7  C13 UNL     1      -7.707  48.171 -21.998  1.00  0.00     0.015 C 
HETATM    8  C14 UNL     1      -8.158  48.120 -20.717  1.00  0.00     0.007 C 
HETATM    9  C15 UNL     1      -7.340  48.854 -19.660  1.00  0.00     0.157 C 
HETATM   10  O2  UNL     1      -7.695  48.865 -18.483  1.00  0.00    -0.293 OA
HETATM   11  C16 UNL     1      -6.064  49.594 -20.047  1.00  0.00     0.094 C 
HETATM   12  C17 UNL     1      -5.423  48.940 -21.265  1.00  0.00    -0.014 C 
HETATM   13  C18 UNL     1      -4.981  47.498 -20.850  1.00  0.00     0.018 C 
HETATM   14  C19 UNL     1      -9.436  47.352 -20.254  1.00  0.00    -0.007 C 
HETATM   15  C20 UNL     1      -8.928  46.091 -19.512  1.00  0.00     0.021 C 
HETATM   16  C21 UNL     1     -10.348  48.208 -19.329  1.00  0.00     0.022 C 
HETATM   17  C22 UNL     1     -11.745  47.646 -19.049  1.00  0.00     0.080 C 
HETATM   18  C23 UNL     1     -12.017  46.329 -19.731  1.00  0.00     0.137 C 
HETATM   19  O3  UNL     1     -12.551  45.412 -19.101  1.00  0.00    -0.297 OA
HETATM   20  C24 UNL     1     -11.646  46.188 -21.209  1.00  0.00     0.044 C 
HETATM   21  C25 UNL     1     -11.506  44.684 -21.534  1.00  0.00     0.026 C 
HETATM   22  C33 UNL     1     -10.336  47.013 -21.495  1.00  0.00     0.023 C 
HETATM   23  C34 UNL     1      -9.495  46.444 -22.636  1.00  0.00     0.090 C 
HETATM   24  C35 UNL     1      -8.526  47.516 -23.061  1.00  0.00     0.158 C 
HETATM   25  O9  UNL     1      -8.452  47.870 -24.234  1.00  0.00    -0.293 OA
ENDROOT
BRANCH  20  26
HETATM   26  C26 UNL     1     -12.797  46.794 -22.057  1.00  0.00     0.196 C 
BRANCH  26  27
HETATM   27  O4  UNL     1     -14.054  46.110 -21.927  1.00  0.00    -0.320 OA
BRANCH  27  28
HETATM   28  C27 UNL     1     -14.842  46.061 -23.032  1.00  0.00     0.261 C 
HETATM   29  O5  UNL     1     -14.556  45.482 -24.073  1.00  0.00    -0.265 OA
BRANCH  28  30
HETATM   30  C28 UNL     1     -16.153  46.771 -22.808  1.00  0.00     0.148 C 
BRANCH  30  31
HETATM   31  C29 UNL     1     -17.388  45.859 -22.868  1.00  0.00     0.072 C 
HETATM   32  C30 UNL     1     -17.010  44.521 -22.208  1.00  0.00     0.047 C 
BRANCH  31  33
HETATM   33  O6  UNL     1     -18.407  46.461 -22.061  1.00  0.00    -0.389 OA
HETATM   34  H41 UNL     1     -19.196  45.881 -22.099  1.00  0.00     0.210 HD
ENDBRANCH  31  33
BRANCH  31  35
HETATM   35  C31 UNL     1     -17.889  45.656 -24.312  1.00  0.00     0.147 C 
BRANCH  35  36
HETATM   36  C32 UNL     1     -19.249  46.256 -24.549  1.00  0.00     0.142 C 
HETATM   37  O7  UNL     1     -20.319  45.674 -24.474  1.00  0.00    -0.650 OA
BRANCH  36  38
HETATM   38  O8  UNL     1     -19.203  47.571 -24.840  1.00  0.00    -0.776 OA
HETATM   39  H44 UNL     1     -20.145  47.831 -24.919  1.00  0.00     0.167 HD
ENDBRANCH  36  38
ENDBRANCH  35  36
ENDBRANCH  31  35
ENDBRANCH  30  31
ENDBRANCH  28  30
ENDBRANCH  27  28
ENDBRANCH  26  27
ENDBRANCH  20  26
BRANCH   1  40
HETATM   40  C6  UNL     1      -2.890  49.847 -21.103  1.00  0.00    -0.013 C 
HETATM   41  C7  UNL     1      -2.876  51.230 -20.413  1.00  0.00     0.010 C 
BRANCH  40  42
HETATM   42  C5  UNL     1      -1.602  49.672 -21.947  1.00  0.00     0.008 C 
BRANCH  42  43
HETATM   43  C4  UNL     1      -1.108  50.945 -22.655  1.00  0.00     0.028 C 
BRANCH  43  44
HETATM   44  C3  UNL     1      -0.319  51.881 -21.781  1.00  0.00    -0.013 C 
HETATM   45  C2  UNL     1       0.444  52.909 -22.196  1.00  0.00     0.008 C 
HETATM   46  C1  UNL     1       0.611  53.333 -23.628  1.00  0.00     0.055 C 
BRANCH  45  47
HETATM   47  C36 UNL     1       1.217  53.729 -21.225  1.00  0.00     0.171 C 
HETATM   48  O10 UNL     1       2.097  54.520 -21.513  1.00  0.00    -0.646 OA
BRANCH  47  49
HETATM   49  O11 UNL     1       0.852  53.537 -19.943  1.00  0.00    -0.773 OA
HETATM   50  H48 UNL     1       1.449  54.139 -19.454  1.00  0.00     0.167 HD
ENDBRANCH  47  49
ENDBRANCH  45  47
ENDBRANCH  43  44
ENDBRANCH  42  43
ENDBRANCH  40  42
ENDBRANCH   1  40
TORSDOF 15
ENDMDL
