MODEL 1
REMARK minimizedAffinity -6.89365005
REMARK CNNscore 0.375429779
REMARK CNNaffinity 6.4191494
REMARK  7 active torsions:
REMARK  status: ('A' for Active; 'I' for Inactive)
REMARK    1  A    between atoms: C3_3  and  C5_5 
REMARK    2  A    between atoms: C24_26  and  O3_27 
REMARK    3  A    between atoms: C30_35  and  O6_36 
REMARK    4  A    between atoms: C31_38  and  O8_39 
REMARK    5  A    between atoms: C32_40  and  O9_41 
REMARK    6  A    between atoms: O9_41  and  C33_42 
REMARK    7  A    between atoms: C33_42  and  C34_44 
ROOT
HETATM    1  C5  UNL     1       1.627   7.763  13.110  1.00  0.00     0.160 C 
HETATM    2  O1  UNL     1       1.731   9.061  13.705  1.00  0.00    -0.342 OA
HETATM    3  C6  UNL     1       2.129   9.027  15.080  1.00  0.00     0.196 C 
HETATM    4  C7  UNL     1       1.675  10.372  15.696  1.00  0.00     0.104 C 
HETATM    5  C8  UNL     1       2.600  10.816  16.825  1.00  0.00     0.139 C 
HETATM    6  C9  UNL     1       4.058  10.864  16.350  1.00  0.00     0.065 C 
HETATM    7  C10 UNL     1       4.241  10.130  15.021  1.00  0.00     0.131 C 
HETATM    8  C11 UNL     1       5.720   9.933  14.650  1.00  0.00     0.059 C 
HETATM    9  C12 UNL     1       6.359  11.275  14.394  1.00  0.00    -0.022 C 
HETATM   10  C13 UNL     1       6.398  11.943  13.221  1.00  0.00    -0.087 C 
HETATM   11  C14 UNL     1       5.970  11.354  11.905  1.00  0.00     0.043 C 
HETATM   12  C15 UNL     1       6.844  13.399  13.202  1.00  0.00     0.041 C 
HETATM   13  C16 UNL     1       5.744  14.471  12.947  1.00  0.00     0.008 C 
HETATM   14  C17 UNL     1       5.505  14.708  11.454  1.00  0.00     0.014 C 
HETATM   15  C18 UNL     1       4.428  14.167  13.634  1.00  0.00    -0.022 C 
HETATM   16  C19 UNL     1       3.914  14.864  14.660  1.00  0.00    -0.003 C 
HETATM   17  C20 UNL     1       2.660  14.492  15.280  1.00  0.00     0.008 C 
HETATM   18  C21 UNL     1       2.100  15.093  16.346  1.00  0.00    -0.019 C 
HETATM   19  C22 UNL     1       2.584  16.337  17.036  1.00  0.00     0.206 C 
HETATM   20  O2  UNL     1       1.492  16.780  17.872  1.00  0.00    -0.375 OA
HETATM   21  C23 UNL     1       0.316  16.124  17.336  1.00  0.00     0.194 C 
HETATM   22  C24 UNL     1      -0.868  16.191  18.315  1.00  0.00     0.179 C 
HETATM   23  C25 UNL     1      -0.905  15.102  19.356  1.00  0.00    -0.056 C 
HETATM   24  C26 UNL     1      -1.967  15.225  20.416  1.00  0.00     0.046 C 
HETATM   25  C27 UNL     1      -0.058  14.058  19.335  1.00  0.00    -0.004 C 
HETATM   26  C28 UNL     1       1.017  13.856  18.289  1.00  0.00     0.150 C 
HETATM   27  C29 UNL     1       1.144  12.368  17.951  1.00  0.00     0.270 C 
HETATM   28  O4  UNL     1       0.360  11.488  18.279  1.00  0.00    -0.264 OA
HETATM   29  O5  UNL     1       2.293  12.155  17.260  1.00  0.00    -0.315 OA
HETATM   30  C30 UNL     1       0.790  14.706  17.004  1.00  0.00     0.128 C 
HETATM   31  O7  UNL     1       3.570   8.874  15.149  1.00  0.00    -0.347 OA
HETATM   32  C31 UNL     1       1.510   7.811  15.840  1.00  0.00     0.210 C 
HETATM   33  C32 UNL     1       0.197   7.353  15.188  1.00  0.00     0.172 C 
HETATM   34  C37 UNL     1       0.374   7.052  13.675  1.00  0.00     0.047 C 
HETATM   35  C38 UNL     1       0.428   5.542  13.421  1.00  0.00     0.015 C 
ENDROOT
BRANCH  32  36
HETATM   36  O8  UNL     1       2.425   6.696  15.839  1.00  0.00    -0.387 OA
HETATM   37  H42 UNL     1       3.315   7.097  15.767  1.00  0.00     0.210 HD
ENDBRANCH  32  36
BRANCH   1  38
HETATM   38  C3  UNL     1       1.592   7.945  11.591  1.00  0.00    -0.059 C 
HETATM   39  C2  UNL     1       0.445   8.238  10.943  1.00  0.00    -0.026 C 
HETATM   40  C1  UNL     1       0.230   8.457   9.480  1.00  0.00     0.036 C 
HETATM   41  C4  UNL     1       2.931   7.834  10.906  1.00  0.00     0.046 C 
ENDBRANCH   1  38
BRANCH  33  42
HETATM   42  O9  UNL     1      -0.785   8.401  15.354  1.00  0.00    -0.312 OA
BRANCH  42  43
HETATM   43  C33 UNL     1      -2.065   8.096  14.993  1.00  0.00     0.262 C 
HETATM   44  O10 UNL     1      -2.675   7.100  15.360  1.00  0.00    -0.265 OA
BRANCH  43  45
HETATM   45  C34 UNL     1      -2.608   9.144  14.033  1.00  0.00     0.077 C 
HETATM   46  C35 UNL     1      -1.634  10.317  13.915  1.00  0.00     0.020 C 
HETATM   47  C36 UNL     1      -2.884   8.543  12.659  1.00  0.00     0.020 C 
ENDBRANCH  43  45
ENDBRANCH  42  43
ENDBRANCH  33  42
BRANCH  30  48
HETATM   48  O6  UNL     1      -0.100  14.079  16.085  1.00  0.00    -0.381 OA
HETATM   49  H40 UNL     1      -0.918  13.848  16.564  1.00  0.00     0.211 HD
ENDBRANCH  30  48
BRANCH  22  50
HETATM   50  O3  UNL     1      -0.868  17.458  18.968  1.00  0.00    -0.389 OA
HETATM   51  H34 UNL     1       0.076  17.688  19.086  1.00  0.00     0.210 HD
ENDBRANCH  22  50
TORSDOF 7
ENDMDL
MODEL 2
REMARK minimizedAffinity -7.32946539
REMARK CNNscore 0.262277842
REMARK CNNaffinity 6.13056183
REMARK  7 active torsions:
REMARK  status: ('A' for Active; 'I' for Inactive)
REMARK    1  A    between atoms: C3_3  and  C5_5 
REMARK    2  A    between atoms: C24_26  and  O3_27 
REMARK    3  A    between atoms: C30_35  and  O6_36 
REMARK    4  A    between atoms: C31_38  and  O8_39 
REMARK    5  A    between atoms: C32_40  and  O9_41 
REMARK    6  A    between atoms: O9_41  and  C33_42 
REMARK    7  A    between atoms: C33_42  and  C34_44 
ROOT
HETATM    1  C5  UNL     1     -16.334  -2.889  16.708  1.00  0.00     0.160 C 
HETATM    2  O1  UNL     1     -15.894  -3.643  15.574  1.00  0.00    -0.342 OA
HETATM    3  C6  UNL     1     -14.822  -3.020  14.856  1.00  0.00     0.196 C 
HETATM    4  C7  UNL     1     -14.841  -3.630  13.434  1.00  0.00     0.104 C 
HETATM    5  C8  UNL     1     -13.443  -3.677  12.824  1.00  0.00     0.139 C 
HETATM    6  C9  UNL     1     -12.465  -4.411  13.751  1.00  0.00     0.065 C 
HETATM    7  C10 UNL     1     -13.042  -4.577  15.158  1.00  0.00     0.131 C 
HETATM    8  C11 UNL     1     -11.997  -5.067  16.174  1.00  0.00     0.059 C 
HETATM    9  C12 UNL     1     -11.560  -6.465  15.813  1.00  0.00    -0.022 C 
HETATM   10  C13 UNL     1     -12.138  -7.620  16.204  1.00  0.00    -0.087 C 
HETATM   11  C14 UNL     1     -13.219  -7.708  17.245  1.00  0.00     0.043 C 
HETATM   12  C15 UNL     1     -11.733  -8.926  15.533  1.00  0.00     0.041 C 
HETATM   13  C16 UNL     1     -12.770  -9.575  14.569  1.00  0.00     0.008 C 
HETATM   14  C17 UNL     1     -13.765 -10.470  15.312  1.00  0.00     0.014 C 
HETATM   15  C18 UNL     1     -13.521  -8.571  13.718  1.00  0.00    -0.022 C 
HETATM   16  C19 UNL     1     -13.387  -8.432  12.390  1.00  0.00    -0.003 C 
HETATM   17  C20 UNL     1     -14.123  -7.428  11.651  1.00  0.00     0.008 C 
HETATM   18  C21 UNL     1     -14.010  -7.178  10.334  1.00  0.00    -0.019 C 
HETATM   19  C22 UNL     1     -13.199  -7.957   9.336  1.00  0.00     0.206 C 
HETATM   20  O2  UNL     1     -13.661  -7.537   8.033  1.00  0.00    -0.375 OA
HETATM   21  C23 UNL     1     -14.958  -6.935   8.269  1.00  0.00     0.194 C 
HETATM   22  C24 UNL     1     -15.431  -6.114   7.058  1.00  0.00     0.179 C 
HETATM   23  C25 UNL     1     -14.934  -4.693   7.009  1.00  0.00    -0.056 C 
HETATM   24  C26 UNL     1     -15.259  -3.912   5.764  1.00  0.00     0.046 C 
HETATM   25  C27 UNL     1     -14.258  -4.132   8.027  1.00  0.00    -0.004 C 
HETATM   26  C28 UNL     1     -13.916  -4.847   9.316  1.00  0.00     0.150 C 
HETATM   27  C29 UNL     1     -14.028  -3.878  10.497  1.00  0.00     0.270 C 
HETATM   28  O4  UNL     1     -14.538  -2.766  10.466  1.00  0.00    -0.264 OA
HETATM   29  O5  UNL     1     -13.434  -4.422  11.590  1.00  0.00    -0.315 OA
HETATM   30  C30 UNL     1     -14.773  -6.124   9.555  1.00  0.00     0.128 C 
HETATM   31  O7  UNL     1     -13.572  -3.304  15.537  1.00  0.00    -0.347 OA
HETATM   32  C31 UNL     1     -14.970  -1.466  14.816  1.00  0.00     0.210 C 
HETATM   33  C32 UNL     1     -16.439  -1.039  14.948  1.00  0.00     0.172 C 
HETATM   34  C37 UNL     1     -17.107  -1.644  16.212  1.00  0.00     0.047 C 
HETATM   35  C38 UNL     1     -17.237  -0.592  17.317  1.00  0.00     0.015 C 
ENDROOT
BRANCH  32  36
HETATM   36  O8  UNL     1     -14.227  -0.859  15.893  1.00  0.00    -0.387 OA
HETATM   37  H42 UNL     1     -13.503  -1.489  16.090  1.00  0.00     0.210 HD
ENDBRANCH  32  36
BRANCH   1  38
HETATM   38  C3  UNL     1     -17.172  -3.817  17.591  1.00  0.00    -0.059 C 
HETATM   39  C2  UNL     1     -16.887  -5.132  17.699  1.00  0.00    -0.026 C 
HETATM   40  C1  UNL     1     -17.586  -6.173  18.513  1.00  0.00     0.036 C 
HETATM   41  C4  UNL     1     -18.276  -3.137  18.359  1.00  0.00     0.046 C 
ENDBRANCH   1  38
BRANCH  33  42
HETATM   42  O9  UNL     1     -17.152  -1.486  13.772  1.00  0.00    -0.312 OA
BRANCH  42  43
HETATM   43  C33 UNL     1     -18.187  -0.701  13.355  1.00  0.00     0.262 C 
HETATM   44  O10 UNL     1     -19.268  -0.612  13.923  1.00  0.00    -0.265 OA
BRANCH  43  45
HETATM   45  C34 UNL     1     -17.823   0.009  12.060  1.00  0.00     0.077 C 
HETATM   46  C35 UNL     1     -18.852   1.094  11.737  1.00  0.00     0.020 C 
HETATM   47  C36 UNL     1     -16.424   0.610  12.134  1.00  0.00     0.020 C 
ENDBRANCH  43  45
ENDBRANCH  42  43
ENDBRANCH  33  42
BRANCH  30  48
HETATM   48  O6  UNL     1     -16.033  -5.833  10.153  1.00  0.00    -0.381 OA
HETATM   49  H40 UNL     1     -16.473  -5.148   9.615  1.00  0.00     0.211 HD
ENDBRANCH  30  48
BRANCH  22  50
HETATM   50  O3  UNL     1     -15.048  -6.781   5.858  1.00  0.00    -0.389 OA
HETATM   51  H34 UNL     1     -14.183  -7.192   6.055  1.00  0.00     0.210 HD
ENDBRANCH  22  50
TORSDOF 7
ENDMDL
MODEL 3
REMARK minimizedAffinity -7.8075819
REMARK CNNscore 0.245891094
REMARK CNNaffinity 6.43373108
REMARK  7 active torsions:
REMARK  status: ('A' for Active; 'I' for Inactive)
REMARK    1  A    between atoms: C3_3  and  C5_5 
REMARK    2  A    between atoms: C24_26  and  O3_27 
REMARK    3  A    between atoms: C30_35  and  O6_36 
REMARK    4  A    between atoms: C31_38  and  O8_39 
REMARK    5  A    between atoms: C32_40  and  O9_41 
REMARK    6  A    between atoms: O9_41  and  C33_42 
REMARK    7  A    between atoms: C33_42  and  C34_44 
ROOT
HETATM    1  C5  UNL     1     -11.916  -7.266   3.820  1.00  0.00     0.160 C 
HETATM    2  O1  UNL     1     -10.736  -7.919   3.340  1.00  0.00    -0.342 OA
HETATM    3  C6  UNL     1     -10.747  -9.337   3.540  1.00  0.00     0.196 C 
HETATM    4  C7  UNL     1      -9.269  -9.793   3.491  1.00  0.00     0.104 C 
HETATM    5  C8  UNL     1      -9.136 -11.215   2.953  1.00  0.00     0.139 C 
HETATM    6  C9  UNL     1      -9.825 -11.349   1.588  1.00  0.00     0.065 C 
HETATM    7  C10 UNL     1     -10.745 -10.161   1.303  1.00  0.00     0.131 C 
HETATM    8  C11 UNL     1     -11.643 -10.388   0.076  1.00  0.00     0.059 C 
HETATM    9  C12 UNL     1     -10.791 -10.469  -1.165  1.00  0.00    -0.022 C 
HETATM   10  C13 UNL     1     -10.390  -9.439  -1.941  1.00  0.00    -0.087 C 
HETATM   11  C14 UNL     1     -10.904  -8.032  -1.801  1.00  0.00     0.043 C 
HETATM   12  C15 UNL     1      -9.316  -9.668  -2.996  1.00  0.00     0.041 C 
HETATM   13  C16 UNL     1      -7.911  -9.059  -2.716  1.00  0.00     0.008 C 
HETATM   14  C17 UNL     1      -7.810  -7.604  -3.183  1.00  0.00     0.014 C 
HETATM   15  C18 UNL     1      -7.482  -9.162  -1.267  1.00  0.00    -0.022 C 
HETATM   16  C19 UNL     1      -6.487  -9.940  -0.810  1.00  0.00    -0.003 C 
HETATM   17  C20 UNL     1      -6.155 -10.002   0.598  1.00  0.00     0.008 C 
HETATM   18  C21 UNL     1      -5.218 -10.793   1.152  1.00  0.00    -0.019 C 
HETATM   19  C22 UNL     1      -4.244 -11.679   0.426  1.00  0.00     0.206 C 
HETATM   20  O2  UNL     1      -3.237 -12.044   1.397  1.00  0.00    -0.375 OA
HETATM   21  C23 UNL     1      -3.358 -11.060   2.454  1.00  0.00     0.194 C 
HETATM   22  C24 UNL     1      -2.620 -11.501   3.728  1.00  0.00     0.179 C 
HETATM   23  C25 UNL     1      -3.410 -12.389   4.655  1.00  0.00    -0.056 C 
HETATM   24  C26 UNL     1      -2.666 -12.956   5.835  1.00  0.00     0.046 C 
HETATM   25  C27 UNL     1      -4.715 -12.648   4.464  1.00  0.00    -0.004 C 
HETATM   26  C28 UNL     1      -5.533 -12.095   3.315  1.00  0.00     0.150 C 
HETATM   27  C29 UNL     1      -6.947 -11.760   3.795  1.00  0.00     0.270 C 
HETATM   28  O4  UNL     1      -7.318 -11.711   4.961  1.00  0.00    -0.264 OA
HETATM   29  O5  UNL     1      -7.756 -11.562   2.723  1.00  0.00    -0.315 OA
HETATM   30  C30 UNL     1      -4.868 -10.868   2.625  1.00  0.00     0.128 C 
HETATM   31  O7  UNL     1     -11.526  -9.956   2.483  1.00  0.00    -0.347 OA
HETATM   32  C31 UNL     1     -11.426  -9.733   4.890  1.00  0.00     0.210 C 
HETATM   33  C32 UNL     1     -11.327  -8.599   5.920  1.00  0.00     0.172 C 
HETATM   34  C37 UNL     1     -11.891  -7.262   5.368  1.00  0.00     0.047 C 
HETATM   35  C38 UNL     1     -13.279  -6.974   5.947  1.00  0.00     0.015 C 
ENDROOT
BRANCH  32  36
HETATM   36  O8  UNL     1     -12.822 -10.033   4.685  1.00  0.00    -0.387 OA
HETATM   37  H42 UNL     1     -12.884 -10.335   3.755  1.00  0.00     0.210 HD
ENDBRANCH  32  36
BRANCH   1  38
HETATM   38  C3  UNL     1     -11.960  -5.866   3.206  1.00  0.00    -0.059 C 
HETATM   39  C2  UNL     1     -12.235  -4.777   3.956  1.00  0.00    -0.026 C 
HETATM   40  C1  UNL     1     -12.311  -3.346   3.529  1.00  0.00     0.036 C 
HETATM   41  C4  UNL     1     -11.615  -5.803   1.740  1.00  0.00     0.046 C 
ENDBRANCH   1  38
BRANCH  33  42
HETATM   42  O9  UNL     1      -9.935  -8.420   6.271  1.00  0.00    -0.312 OA
BRANCH  42  43
HETATM   43  C33 UNL     1      -9.473  -9.161   7.319  1.00  0.00     0.262 C 
HETATM   44  O10 UNL     1      -9.016 -10.294   7.225  1.00  0.00    -0.265 OA
BRANCH  43  45
HETATM   45  C34 UNL     1      -9.652  -8.401   8.624  1.00  0.00     0.077 C 
HETATM   46  C35 UNL     1     -10.810  -8.989   9.432  1.00  0.00     0.020 C 
HETATM   47  C36 UNL     1      -8.370  -8.411   9.449  1.00  0.00     0.020 C 
ENDBRANCH  43  45
ENDBRANCH  42  43
ENDBRANCH  33  42
BRANCH  30  48
HETATM   48  O6  UNL     1      -5.148  -9.644   3.299  1.00  0.00    -0.381 OA
HETATM   49  H40 UNL     1      -4.911  -9.755   4.239  1.00  0.00     0.211 HD
ENDBRANCH  30  48
BRANCH  22  50
HETATM   50  O3  UNL     1      -1.412 -12.165   3.367  1.00  0.00    -0.389 OA
HETATM   51  H34 UNL     1      -1.621 -12.653   2.546  1.00  0.00     0.210 HD
ENDBRANCH  22  50
TORSDOF 7
ENDMDL
MODEL 4
REMARK minimizedAffinity -8.12169361
REMARK CNNscore 0.244886085
REMARK CNNaffinity 6.82095766
REMARK  7 active torsions:
REMARK  status: ('A' for Active; 'I' for Inactive)
REMARK    1  A    between atoms: C3_3  and  C5_5 
REMARK    2  A    between atoms: C24_26  and  O3_27 
REMARK    3  A    between atoms: C30_35  and  O6_36 
REMARK    4  A    between atoms: C31_38  and  O8_39 
REMARK    5  A    between atoms: C32_40  and  O9_41 
REMARK    6  A    between atoms: O9_41  and  C33_42 
REMARK    7  A    between atoms: C33_42  and  C34_44 
ROOT
HETATM    1  C5  UNL     1     -10.929  -8.937   1.779  1.00  0.00     0.160 C 
HETATM    2  O1  UNL     1      -9.952  -9.180   2.797  1.00  0.00    -0.342 OA
HETATM    3  C6  UNL     1     -10.280 -10.282   3.651  1.00  0.00     0.196 C 
HETATM    4  C7  UNL     1      -9.473 -10.075   4.954  1.00  0.00     0.104 C 
HETATM    5  C8  UNL     1      -9.111 -11.404   5.610  1.00  0.00     0.139 C 
HETATM    6  C9  UNL     1      -8.379 -12.321   4.621  1.00  0.00     0.065 C 
HETATM    7  C10 UNL     1      -8.522 -11.822   3.182  1.00  0.00     0.131 C 
HETATM    8  C11 UNL     1      -8.030 -12.848   2.147  1.00  0.00     0.059 C 
HETATM    9  C12 UNL     1      -6.542 -13.043   2.298  1.00  0.00    -0.022 C 
HETATM   10  C13 UNL     1      -5.566 -12.325   1.703  1.00  0.00    -0.087 C 
HETATM   11  C14 UNL     1      -5.811 -11.316   0.615  1.00  0.00     0.043 C 
HETATM   12  C15 UNL     1      -4.127 -12.481   2.173  1.00  0.00     0.041 C 
HETATM   13  C16 UNL     1      -3.514 -11.294   2.975  1.00  0.00     0.008 C 
HETATM   14  C17 UNL     1      -2.912 -10.228   2.056  1.00  0.00     0.014 C 
HETATM   15  C18 UNL     1      -4.485 -10.648   3.942  1.00  0.00    -0.022 C 
HETATM   16  C19 UNL     1      -4.398 -10.711   5.280  1.00  0.00    -0.003 C 
HETATM   17  C20 UNL     1      -5.384 -10.087   6.137  1.00  0.00     0.008 C 
HETATM   18  C21 UNL     1      -5.411 -10.147   7.480  1.00  0.00    -0.019 C 
HETATM   19  C22 UNL     1      -4.370 -10.760   8.376  1.00  0.00     0.206 C 
HETATM   20  O2  UNL     1      -4.656 -10.279   9.708  1.00  0.00    -0.375 OA
HETATM   21  C23 UNL     1      -5.488  -9.108   9.515  1.00  0.00     0.194 C 
HETATM   22  C24 UNL     1      -6.181  -8.682  10.820  1.00  0.00     0.179 C 
HETATM   23  C25 UNL     1      -7.480  -9.384  11.117  1.00  0.00    -0.056 C 
HETATM   24  C26 UNL     1      -8.106  -9.098  12.456  1.00  0.00     0.046 C 
HETATM   25  C27 UNL     1      -8.072 -10.206  10.233  1.00  0.00    -0.004 C 
HETATM   26  C28 UNL     1      -7.515 -10.523   8.861  1.00  0.00     0.150 C 
HETATM   27  C29 UNL     1      -8.657 -10.639   7.847  1.00  0.00     0.270 C 
HETATM   28  O4  UNL     1      -9.819 -10.302   8.033  1.00  0.00    -0.264 OA
HETATM   29  O5  UNL     1      -8.197 -11.216   6.708  1.00  0.00    -0.315 OA
HETATM   30  C30 UNL     1      -6.443  -9.500   8.384  1.00  0.00     0.128 C 
HETATM   31  O7  UNL     1      -9.906 -11.518   2.988  1.00  0.00    -0.347 OA
HETATM   32  C31 UNL     1     -11.814 -10.369   3.933  1.00  0.00     0.210 C 
HETATM   33  C32 UNL     1     -12.485  -8.994   3.807  1.00  0.00     0.172 C 
HETATM   34  C37 UNL     1     -12.193  -8.329   2.434  1.00  0.00     0.047 C 
HETATM   35  C38 UNL     1     -13.407  -8.435   1.507  1.00  0.00     0.015 C 
ENDROOT
BRANCH  32  36
HETATM   36  O8  UNL     1     -12.449 -11.266   2.999  1.00  0.00    -0.387 OA
HETATM   37  H42 UNL     1     -11.749 -11.898   2.736  1.00  0.00     0.210 HD
ENDBRANCH  32  36
BRANCH   1  38
HETATM   38  C3  UNL     1     -10.292  -8.030   0.724  1.00  0.00    -0.059 C 
HETATM   39  C2  UNL     1      -9.415  -8.513  -0.182  1.00  0.00    -0.026 C 
HETATM   40  C1  UNL     1      -8.710  -7.782  -1.278  1.00  0.00     0.036 C 
HETATM   41  C4  UNL     1     -10.766  -6.600   0.745  1.00  0.00     0.046 C 
ENDBRANCH   1  38
BRANCH  33  42
HETATM   42  O9  UNL     1     -11.985  -8.143   4.864  1.00  0.00    -0.312 OA
BRANCH  42  43
HETATM   43  C33 UNL     1     -12.524  -6.892   4.943  1.00  0.00     0.262 C 
HETATM   44  O10 UNL     1     -12.414  -6.029   4.080  1.00  0.00    -0.265 OA
BRANCH  43  45
HETATM   45  C34 UNL     1     -13.240  -6.707   6.272  1.00  0.00     0.077 C 
HETATM   46  C35 UNL     1     -12.411  -7.299   7.413  1.00  0.00     0.020 C 
HETATM   47  C36 UNL     1     -13.535  -5.235   6.539  1.00  0.00     0.020 C 
ENDBRANCH  43  45
ENDBRANCH  42  43
ENDBRANCH  33  42
BRANCH  30  48
HETATM   48  O6  UNL     1      -7.019  -8.342   7.787  1.00  0.00    -0.381 OA
HETATM   49  H40 UNL     1      -7.676  -7.976   8.408  1.00  0.00     0.211 HD
ENDBRANCH  30  48
BRANCH  22  50
HETATM   50  O3  UNL     1      -5.287  -8.878  11.913  1.00  0.00    -0.389 OA
HETATM   51  H34 UNL     1      -4.778  -9.683  11.691  1.00  0.00     0.210 HD
ENDBRANCH  22  50
TORSDOF 7
ENDMDL
MODEL 5
REMARK minimizedAffinity -6.71014595
REMARK CNNscore 0.244075805
REMARK CNNaffinity 6.12668848
REMARK  7 active torsions:
REMARK  status: ('A' for Active; 'I' for Inactive)
REMARK    1  A    between atoms: C3_3  and  C5_5 
REMARK    2  A    between atoms: C24_26  and  O3_27 
REMARK    3  A    between atoms: C30_35  and  O6_36 
REMARK    4  A    between atoms: C31_38  and  O8_39 
REMARK    5  A    between atoms: C32_40  and  O9_41 
REMARK    6  A    between atoms: O9_41  and  C33_42 
REMARK    7  A    between atoms: C33_42  and  C34_44 
ROOT
HETATM    1  C5  UNL     1      -4.255  16.120  20.721  1.00  0.00     0.160 C 
HETATM    2  O1  UNL     1      -3.680  14.997  20.044  1.00  0.00    -0.342 OA
HETATM    3  C6  UNL     1      -3.569  15.179  18.628  1.00  0.00     0.196 C 
HETATM    4  C7  UNL     1      -3.467  13.762  18.015  1.00  0.00     0.104 C 
HETATM    5  C8  UNL     1      -2.639  13.762  16.734  1.00  0.00     0.139 C 
HETATM    6  C9  UNL     1      -1.258  14.385  16.974  1.00  0.00     0.065 C 
HETATM    7  C10 UNL     1      -1.209  15.147  18.299  1.00  0.00     0.131 C 
HETATM    8  C11 UNL     1       0.064  15.997  18.447  1.00  0.00     0.059 C 
HETATM    9  C12 UNL     1       1.268  15.092  18.526  1.00  0.00    -0.022 C 
HETATM   10  C13 UNL     1       1.792  14.536  19.639  1.00  0.00    -0.087 C 
HETATM   11  C14 UNL     1       1.367  14.894  21.036  1.00  0.00     0.043 C 
HETATM   12  C15 UNL     1       2.839  13.438  19.507  1.00  0.00     0.041 C 
HETATM   13  C16 UNL     1       2.393  11.990  19.867  1.00  0.00     0.008 C 
HETATM   14  C17 UNL     1       2.533  11.700  21.364  1.00  0.00     0.014 C 
HETATM   15  C18 UNL     1       0.988  11.656  19.410  1.00  0.00    -0.022 C 
HETATM   16  C19 UNL     1       0.680  10.782  18.437  1.00  0.00    -0.003 C 
HETATM   17  C20 UNL     1      -0.690  10.537  18.040  1.00  0.00     0.008 C 
HETATM   18  C21 UNL     1      -1.088   9.728  17.042  1.00  0.00    -0.019 C 
HETATM   19  C22 UNL     1      -0.218   8.821  16.216  1.00  0.00     0.206 C 
HETATM   20  O2  UNL     1      -1.116   7.918  15.534  1.00  0.00    -0.375 OA
HETATM   21  C23 UNL     1      -2.356   7.985  16.282  1.00  0.00     0.194 C 
HETATM   22  C24 UNL     1      -3.527   7.372  15.495  1.00  0.00     0.179 C 
HETATM   23  C25 UNL     1      -4.217   8.307  14.536  1.00  0.00    -0.056 C 
HETATM   24  C26 UNL     1      -5.268   7.699  13.647  1.00  0.00     0.046 C 
HETATM   25  C27 UNL     1      -3.936   9.621  14.485  1.00  0.00    -0.004 C 
HETATM   26  C28 UNL     1      -2.910  10.306  15.362  1.00  0.00     0.150 C 
HETATM   27  C29 UNL     1      -3.409  11.698  15.759  1.00  0.00     0.270 C 
HETATM   28  O4  UNL     1      -4.546  12.124  15.607  1.00  0.00    -0.264 OA
HETATM   29  O5  UNL     1      -2.381  12.419  16.276  1.00  0.00    -0.315 OA
HETATM   30  C30 UNL     1      -2.520   9.470  16.616  1.00  0.00     0.128 C 
HETATM   31  O7  UNL     1      -2.381  15.964  18.346  1.00  0.00    -0.347 OA
HETATM   32  C31 UNL     1      -4.782  15.971  18.043  1.00  0.00     0.210 C 
HETATM   33  C32 UNL     1      -6.035  15.802  18.914  1.00  0.00     0.172 C 
HETATM   34  C37 UNL     1      -5.767  16.179  20.397  1.00  0.00     0.047 C 
HETATM   35  C38 UNL     1      -6.353  17.556  20.723  1.00  0.00     0.015 C 
ENDROOT
BRANCH  32  36
HETATM   36  O8  UNL     1      -4.476  17.379  17.966  1.00  0.00    -0.387 OA
HETATM   37  H42 UNL     1      -3.501  17.424  17.877  1.00  0.00     0.210 HD
ENDBRANCH  32  36
BRANCH   1  38
HETATM   38  C3  UNL     1      -3.956  15.971  22.214  1.00  0.00    -0.059 C 
HETATM   39  C2  UNL     1      -3.044  16.753  22.830  1.00  0.00    -0.026 C 
HETATM   40  C1  UNL     1      -2.635  16.751  24.268  1.00  0.00     0.036 C 
HETATM   41  C4  UNL     1      -4.794  14.943  22.931  1.00  0.00     0.046 C 
ENDBRANCH   1  38
BRANCH  33  42
HETATM   42  O9  UNL     1      -6.457  14.420  18.843  1.00  0.00    -0.312 OA
BRANCH  42  43
HETATM   43  C33 UNL     1      -7.722  14.194  18.386  1.00  0.00     0.262 C 
HETATM   44  O10 UNL     1      -8.055  14.234  17.208  1.00  0.00    -0.265 OA
BRANCH  43  45
HETATM   45  C34 UNL     1      -8.666  13.934  19.549  1.00  0.00     0.077 C 
HETATM   46  C35 UNL     1      -9.837  13.057  19.103  1.00  0.00     0.020 C 
HETATM   47  C36 UNL     1      -7.934  13.286  20.720  1.00  0.00     0.020 C 
ENDBRANCH  43  45
ENDBRANCH  42  43
ENDBRANCH  33  42
BRANCH  30  48
HETATM   48  O6  UNL     1      -3.433   9.646  17.696  1.00  0.00    -0.381 OA
HETATM   49  H40 UNL     1      -4.334   9.475  17.362  1.00  0.00     0.211 HD
ENDBRANCH  30  48
BRANCH  22  50
HETATM   50  O3  UNL     1      -3.067   6.229  14.780  1.00  0.00    -0.389 OA
HETATM   51  H34 UNL     1      -2.154   6.446  14.504  1.00  0.00     0.210 HD
ENDBRANCH  22  50
TORSDOF 7
ENDMDL
MODEL 6
REMARK minimizedAffinity -7.27624655
REMARK CNNscore 0.244066849
REMARK CNNaffinity 5.70240784
REMARK  7 active torsions:
REMARK  status: ('A' for Active; 'I' for Inactive)
REMARK    1  A    between atoms: C3_3  and  C5_5 
REMARK    2  A    between atoms: C24_26  and  O3_27 
REMARK    3  A    between atoms: C30_35  and  O6_36 
REMARK    4  A    between atoms: C31_38  and  O8_39 
REMARK    5  A    between atoms: C32_40  and  O9_41 
REMARK    6  A    between atoms: O9_41  and  C33_42 
REMARK    7  A    between atoms: C33_42  and  C34_44 
ROOT
HETATM    1  C5  UNL     1       3.693   9.987  15.785  1.00  0.00     0.160 C 
HETATM    2  O1  UNL     1       2.782  10.829  16.501  1.00  0.00    -0.342 OA
HETATM    3  C6  UNL     1       1.807  10.102  17.257  1.00  0.00     0.196 C 
HETATM    4  C7  UNL     1       0.631  11.077  17.499  1.00  0.00     0.104 C 
HETATM    5  C8  UNL     1      -0.084  10.781  18.814  1.00  0.00     0.139 C 
HETATM    6  C9  UNL     1       0.906  10.774  19.985  1.00  0.00     0.065 C 
HETATM    7  C10 UNL     1       2.353  10.706  19.497  1.00  0.00     0.131 C 
HETATM    8  C11 UNL     1       3.351  10.433  20.635  1.00  0.00     0.059 C 
HETATM    9  C12 UNL     1       3.363  11.603  21.587  1.00  0.00    -0.022 C 
HETATM   10  C13 UNL     1       4.128  12.713  21.498  1.00  0.00    -0.087 C 
HETATM   11  C14 UNL     1       5.259  12.876  20.520  1.00  0.00     0.043 C 
HETATM   12  C15 UNL     1       3.821  13.909  22.388  1.00  0.00     0.041 C 
HETATM   13  C16 UNL     1       3.199  15.160  21.699  1.00  0.00     0.008 C 
HETATM   14  C17 UNL     1       4.268  16.089  21.120  1.00  0.00     0.014 C 
HETATM   15  C18 UNL     1       2.180  14.821  20.631  1.00  0.00    -0.022 C 
HETATM   16  C19 UNL     1       0.861  15.055  20.720  1.00  0.00    -0.003 C 
HETATM   17  C20 UNL     1      -0.053  14.678  19.663  1.00  0.00     0.008 C 
HETATM   18  C21 UNL     1      -1.390  14.819  19.690  1.00  0.00    -0.019 C 
HETATM   19  C22 UNL     1      -2.203  15.502  20.754  1.00  0.00     0.206 C 
HETATM   20  O2  UNL     1      -3.515  15.706  20.186  1.00  0.00    -0.375 OA
HETATM   21  C23 UNL     1      -3.327  15.592  18.753  1.00  0.00     0.194 C 
HETATM   22  C24 UNL     1      -4.665  15.420  18.016  1.00  0.00     0.179 C 
HETATM   23  C25 UNL     1      -5.172  14.005  17.922  1.00  0.00    -0.056 C 
HETATM   24  C26 UNL     1      -6.548  13.823  17.338  1.00  0.00     0.046 C 
HETATM   25  C27 UNL     1      -4.435  12.950  18.312  1.00  0.00    -0.004 C 
HETATM   26  C28 UNL     1      -3.038  13.054  18.886  1.00  0.00     0.150 C 
HETATM   27  C29 UNL     1      -2.181  11.887  18.388  1.00  0.00     0.270 C 
HETATM   28  O4  UNL     1      -2.475  11.114  17.486  1.00  0.00    -0.264 OA
HETATM   29  O5  UNL     1      -1.047  11.807  19.130  1.00  0.00    -0.315 OA
HETATM   30  C30 UNL     1      -2.354  14.420  18.589  1.00  0.00     0.128 C 
HETATM   31  O7  UNL     1       2.405   9.674  18.509  1.00  0.00    -0.347 OA
HETATM   32  C31 UNL     1       1.338   8.809  16.517  1.00  0.00     0.210 C 
HETATM   33  C32 UNL     1       1.497   8.945  14.996  1.00  0.00     0.172 C 
HETATM   34  C37 UNL     1       2.945   9.339  14.596  1.00  0.00     0.047 C 
HETATM   35  C38 UNL     1       3.708   8.128  14.051  1.00  0.00     0.015 C 
ENDROOT
BRANCH  32  36
HETATM   36  O8  UNL     1       2.112   7.670  16.950  1.00  0.00    -0.387 OA
HETATM   37  H42 UNL     1       2.404   7.890  17.858  1.00  0.00     0.210 HD
ENDBRANCH  32  36
BRANCH   1  38
HETATM   38  C3  UNL     1       4.888  10.844  15.361  1.00  0.00    -0.059 C 
HETATM   39  C2  UNL     1       6.154  10.485  15.664  1.00  0.00    -0.026 C 
HETATM   40  C1  UNL     1       7.428  11.189  15.326  1.00  0.00     0.036 C 
HETATM   41  C4  UNL     1       4.539  12.059  14.540  1.00  0.00     0.046 C 
ENDBRANCH   1  38
BRANCH  33  42
HETATM   42  O9  UNL     1       0.580   9.962  14.531  1.00  0.00    -0.312 OA
BRANCH  42  43
HETATM   43  C33 UNL     1      -0.249   9.609  13.507  1.00  0.00     0.262 C 
HETATM   44  O10 UNL     1       0.106   9.025  12.491  1.00  0.00    -0.265 OA
BRANCH  43  45
HETATM   45  C34 UNL     1      -1.666  10.086  13.786  1.00  0.00     0.077 C 
HETATM   46  C35 UNL     1      -2.386   9.110  14.718  1.00  0.00     0.020 C 
HETATM   47  C36 UNL     1      -1.668  11.490  14.382  1.00  0.00     0.020 C 
ENDBRANCH  43  45
ENDBRANCH  42  43
ENDBRANCH  33  42
BRANCH  30  48
HETATM   48  O6  UNL     1      -1.736  14.454  17.306  1.00  0.00    -0.381 OA
HETATM   49  H40 UNL     1      -2.398  14.184  16.642  1.00  0.00     0.211 HD
ENDBRANCH  30  48
BRANCH  22  50
HETATM   50  O3  UNL     1      -5.656  16.227  18.646  1.00  0.00    -0.389 OA
HETATM   51  H34 UNL     1      -5.443  16.203  19.600  1.00  0.00     0.210 HD
ENDBRANCH  22  50
TORSDOF 7
ENDMDL
MODEL 7
REMARK minimizedAffinity -7.59612751
REMARK CNNscore 0.227813691
REMARK CNNaffinity 5.19648981
REMARK  7 active torsions:
REMARK  status: ('A' for Active; 'I' for Inactive)
REMARK    1  A    between atoms: C3_3  and  C5_5 
REMARK    2  A    between atoms: C24_26  and  O3_27 
REMARK    3  A    between atoms: C30_35  and  O6_36 
REMARK    4  A    between atoms: C31_38  and  O8_39 
REMARK    5  A    between atoms: C32_40  and  O9_41 
REMARK    6  A    between atoms: O9_41  and  C33_42 
REMARK    7  A    between atoms: C33_42  and  C34_44 
ROOT
HETATM    1  C5  UNL     1       1.927   9.440  15.181  1.00  0.00     0.160 C 
HETATM    2  O1  UNL     1       1.052  10.462  15.668  1.00  0.00    -0.342 OA
HETATM    3  C6  UNL     1      -0.023   9.959  16.469  1.00  0.00     0.196 C 
HETATM    4  C7  UNL     1      -1.125  11.045  16.448  1.00  0.00     0.104 C 
HETATM    5  C8  UNL     1      -1.936  11.049  17.740  1.00  0.00     0.139 C 
HETATM    6  C9  UNL     1      -1.019  11.184  18.963  1.00  0.00     0.065 C 
HETATM    7  C10 UNL     1       0.443  10.923  18.599  1.00  0.00     0.131 C 
HETATM    8  C11 UNL     1       1.348  10.791  19.836  1.00  0.00     0.059 C 
HETATM    9  C12 UNL     1       1.404  12.112  20.562  1.00  0.00    -0.022 C 
HETATM   10  C13 UNL     1       2.264  13.127  20.332  1.00  0.00    -0.087 C 
HETATM   11  C14 UNL     1       3.458  13.026  19.424  1.00  0.00     0.043 C 
HETATM   12  C15 UNL     1       2.009  14.486  20.970  1.00  0.00     0.041 C 
HETATM   13  C16 UNL     1       1.535  15.631  20.027  1.00  0.00     0.008 C 
HETATM   14  C17 UNL     1       2.711  16.358  19.369  1.00  0.00     0.014 C 
HETATM   15  C18 UNL     1       0.554  15.178  18.966  1.00  0.00    -0.022 C 
HETATM   16  C19 UNL     1      -0.743  15.520  18.917  1.00  0.00    -0.003 C 
HETATM   17  C20 UNL     1      -1.623  15.022  17.882  1.00  0.00     0.008 C 
HETATM   18  C21 UNL     1      -2.944  15.262  17.787  1.00  0.00    -0.019 C 
HETATM   19  C22 UNL     1      -3.755  16.187  18.652  1.00  0.00     0.206 C 
HETATM   20  O2  UNL     1      -5.011  16.378  17.963  1.00  0.00    -0.375 OA
HETATM   21  C23 UNL     1      -4.751  15.990  16.591  1.00  0.00     0.194 C 
HETATM   22  C24 UNL     1      -6.055  15.784  15.803  1.00  0.00     0.179 C 
HETATM   23  C25 UNL     1      -6.674  14.416  15.927  1.00  0.00    -0.056 C 
HETATM   24  C26 UNL     1      -8.024  14.231  15.288  1.00  0.00     0.046 C 
HETATM   25  C27 UNL     1      -6.052  13.400  16.550  1.00  0.00    -0.004 C 
HETATM   26  C28 UNL     1      -4.686  13.505  17.195  1.00  0.00     0.150 C 
HETATM   27  C29 UNL     1      -3.904  12.207  16.976  1.00  0.00     0.270 C 
HETATM   28  O4  UNL     1      -4.210  11.305  16.207  1.00  0.00    -0.264 OA
HETATM   29  O5  UNL     1      -2.825  12.182  17.799  1.00  0.00    -0.315 OA
HETATM   30  C30 UNL     1      -3.873  14.740  16.709  1.00  0.00     0.128 C 
HETATM   31  O7  UNL     1       0.464   9.726  17.817  1.00  0.00    -0.347 OA
HETATM   32  C31 UNL     1      -0.557   8.590  15.940  1.00  0.00     0.210 C 
HETATM   33  C32 UNL     1      -0.300   8.433  14.435  1.00  0.00     0.172 C 
HETATM   34  C37 UNL     1       1.196   8.640  14.076  1.00  0.00     0.047 C 
HETATM   35  C38 UNL     1       1.885   7.298  13.811  1.00  0.00     0.015 C 
ENDROOT
BRANCH  32  36
HETATM   36  O8  UNL     1       0.092   7.497  16.623  1.00  0.00    -0.387 OA
HETATM   37  H42 UNL     1       0.349   7.858  17.496  1.00  0.00     0.210 HD
ENDBRANCH  32  36
BRANCH   1  38
HETATM   38  C3  UNL     1       3.213  10.114  14.697  1.00  0.00    -0.059 C 
HETATM   39  C2  UNL     1       3.263  10.767  13.516  1.00  0.00    -0.026 C 
HETATM   40  C1  UNL     1       4.420  11.484  12.896  1.00  0.00     0.036 C 
HETATM   41  C4  UNL     1       4.370  10.041  15.659  1.00  0.00     0.046 C 
ENDBRANCH   1  38
BRANCH  33  42
HETATM   42  O9  UNL     1      -1.099   9.412  13.731  1.00  0.00    -0.312 OA
BRANCH  42  43
HETATM   43  C33 UNL     1      -1.925   8.934  12.756  1.00  0.00     0.262 C 
HETATM   44  O10 UNL     1      -1.863   9.247  11.573  1.00  0.00    -0.265 OA
BRANCH  43  45
HETATM   45  C34 UNL     1      -2.961   7.995  13.354  1.00  0.00     0.077 C 
HETATM   46  C35 UNL     1      -4.374   8.508  13.072  1.00  0.00     0.020 C 
HETATM   47  C36 UNL     1      -2.795   6.577  12.819  1.00  0.00     0.020 C 
ENDBRANCH  43  45
ENDBRANCH  42  43
ENDBRANCH  33  42
BRANCH  30  48
HETATM   48  O6  UNL     1      -3.182  14.493  15.488  1.00  0.00    -0.381 OA
HETATM   49  H40 UNL     1      -3.826  14.155  14.838  1.00  0.00     0.211 HD
ENDBRANCH  30  48
BRANCH  22  50
HETATM   50  O3  UNL     1      -7.009  16.763  16.207  1.00  0.00    -0.389 OA
HETATM   51  H34 UNL     1      -6.853  16.898  17.163  1.00  0.00     0.210 HD
ENDBRANCH  22  50
TORSDOF 7
ENDMDL
MODEL 8
REMARK minimizedAffinity -6.97749853
REMARK CNNscore 0.22611852
REMARK CNNaffinity 5.65540648
REMARK  7 active torsions:
REMARK  status: ('A' for Active; 'I' for Inactive)
REMARK    1  A    between atoms: C3_3  and  C5_5 
REMARK    2  A    between atoms: C24_26  and  O3_27 
REMARK    3  A    between atoms: C30_35  and  O6_36 
REMARK    4  A    between atoms: C31_38  and  O8_39 
REMARK    5  A    between atoms: C32_40  and  O9_41 
REMARK    6  A    between atoms: O9_41  and  C33_42 
REMARK    7  A    between atoms: C33_42  and  C34_44 
ROOT
HETATM    1  C5  UNL     1       0.009  12.089  16.649  1.00  0.00     0.160 C 
HETATM    2  O1  UNL     1       1.379  12.463  16.826  1.00  0.00    -0.342 OA
HETATM    3  C6  UNL     1       2.261  11.344  16.976  1.00  0.00     0.196 C 
HETATM    4  C7  UNL     1       3.529  11.883  17.679  1.00  0.00     0.104 C 
HETATM    5  C8  UNL     1       4.775  11.105  17.266  1.00  0.00     0.139 C 
HETATM    6  C9  UNL     1       4.927  11.087  15.739  1.00  0.00     0.065 C 
HETATM    7  C10 UNL     1       3.640  11.526  15.041  1.00  0.00     0.131 C 
HETATM    8  C11 UNL     1       3.670  11.270  13.525  1.00  0.00     0.059 C 
HETATM    9  C12 UNL     1       4.723  12.142  12.887  1.00  0.00    -0.022 C 
HETATM   10  C13 UNL     1       4.564  13.404  12.434  1.00  0.00    -0.087 C 
HETATM   11  C14 UNL     1       3.231  14.090  12.310  1.00  0.00     0.043 C 
HETATM   12  C15 UNL     1       5.790  14.229  12.068  1.00  0.00     0.041 C 
HETATM   13  C16 UNL     1       6.170  15.394  13.030  1.00  0.00     0.008 C 
HETATM   14  C17 UNL     1       5.418  16.685  12.695  1.00  0.00     0.014 C 
HETATM   15  C18 UNL     1       5.983  15.057  14.495  1.00  0.00    -0.022 C 
HETATM   16  C19 UNL     1       6.976  14.902  15.384  1.00  0.00    -0.003 C 
HETATM   17  C20 UNL     1       6.715  14.553  16.764  1.00  0.00     0.008 C 
HETATM   18  C21 UNL     1       7.645  14.321  17.708  1.00  0.00    -0.019 C 
HETATM   19  C22 UNL     1       9.132  14.490  17.567  1.00  0.00     0.206 C 
HETATM   20  O2  UNL     1       9.666  14.464  18.910  1.00  0.00    -0.375 OA
HETATM   21  C23 UNL     1       8.534  14.746  19.771  1.00  0.00     0.194 C 
HETATM   22  C24 UNL     1       8.837  14.401  21.238  1.00  0.00     0.179 C 
HETATM   23  C25 UNL     1       8.597  12.965  21.625  1.00  0.00    -0.056 C 
HETATM   24  C26 UNL     1       9.023  12.565  23.012  1.00  0.00     0.046 C 
HETATM   25  C27 UNL     1       8.011  12.085  20.795  1.00  0.00    -0.004 C 
HETATM   26  C28 UNL     1       7.536  12.421  19.397  1.00  0.00     0.150 C 
HETATM   27  C29 UNL     1       6.231  11.678  19.096  1.00  0.00     0.270 C 
HETATM   28  O4  UNL     1       5.535  11.089  19.913  1.00  0.00    -0.264 OA
HETATM   29  O5  UNL     1       5.974  11.731  17.765  1.00  0.00    -0.315 OA
HETATM   30  C30 UNL     1       7.380  13.951  19.154  1.00  0.00     0.128 C 
HETATM   31  O7  UNL     1       2.570  10.810  15.663  1.00  0.00    -0.347 OA
HETATM   32  C31 UNL     1       1.602  10.185  17.790  1.00  0.00     0.210 C 
HETATM   33  C32 UNL     1       0.519  10.713  18.742  1.00  0.00     0.172 C 
HETATM   34  C37 UNL     1      -0.545  11.563  17.995  1.00  0.00     0.047 C 
HETATM   35  C38 UNL     1      -1.837  10.766  17.793  1.00  0.00     0.015 C 
ENDROOT
BRANCH  32  36
HETATM   36  O8  UNL     1       0.991   9.227  16.902  1.00  0.00    -0.387 OA
HETATM   37  H42 UNL     1       1.497   9.296  16.066  1.00  0.00     0.210 HD
ENDBRANCH  32  36
BRANCH   1  38
HETATM   38  C3  UNL     1      -0.744  13.309  16.114  1.00  0.00    -0.059 C 
HETATM   39  C2  UNL     1      -0.758  14.479  16.788  1.00  0.00    -0.026 C 
HETATM   40  C1  UNL     1      -1.427  15.762  16.414  1.00  0.00     0.036 C 
HETATM   41  C4  UNL     1      -1.401  13.113  14.771  1.00  0.00     0.046 C 
ENDBRANCH   1  38
BRANCH  33  42
HETATM   42  O9  UNL     1       1.156  11.529  19.752  1.00  0.00    -0.312 OA
BRANCH  42  43
HETATM   43  C33 UNL     1       1.746  10.862  20.786  1.00  0.00     0.262 C 
HETATM   44  O10 UNL     1       1.459   9.724  21.137  1.00  0.00    -0.265 OA
BRANCH  43  45
HETATM   45  C34 UNL     1       2.775  11.750  21.469  1.00  0.00     0.077 C 
HETATM   46  C35 UNL     1       2.290  13.200  21.507  1.00  0.00     0.020 C 
HETATM   47  C36 UNL     1       3.081  11.256  22.879  1.00  0.00     0.020 C 
ENDBRANCH  43  45
ENDBRANCH  42  43
ENDBRANCH  33  42
BRANCH  30  48
HETATM   48  O6  UNL     1       6.125  14.450  19.607  1.00  0.00    -0.381 OA
HETATM   49  H40 UNL     1       6.007  14.177  20.536  1.00  0.00     0.211 HD
ENDBRANCH  30  48
BRANCH  22  50
HETATM   50  O3  UNL     1      10.190  14.741  21.532  1.00  0.00    -0.389 OA
HETATM   51  H34 UNL     1      10.689  14.550  20.713  1.00  0.00     0.210 HD
ENDBRANCH  22  50
TORSDOF 7
ENDMDL
MODEL 9
REMARK minimizedAffinity -6.78015518
REMARK CNNscore 0.217044592
REMARK CNNaffinity 5.93568563
REMARK  7 active torsions:
REMARK  status: ('A' for Active; 'I' for Inactive)
REMARK    1  A    between atoms: C3_3  and  C5_5 
REMARK    2  A    between atoms: C24_26  and  O3_27 
REMARK    3  A    between atoms: C30_35  and  O6_36 
REMARK    4  A    between atoms: C31_38  and  O8_39 
REMARK    5  A    between atoms: C32_40  and  O9_41 
REMARK    6  A    between atoms: O9_41  and  C33_42 
REMARK    7  A    between atoms: C33_42  and  C34_44 
ROOT
HETATM    1  C5  UNL     1       5.416  18.194   3.604  1.00  0.00     0.160 C 
HETATM    2  O1  UNL     1       4.559  17.569   2.643  1.00  0.00    -0.342 OA
HETATM    3  C6  UNL     1       4.929  16.219   2.340  1.00  0.00     0.196 C 
HETATM    4  C7  UNL     1       4.298  15.895   0.965  1.00  0.00     0.104 C 
HETATM    5  C8  UNL     1       3.949  14.415   0.841  1.00  0.00     0.139 C 
HETATM    6  C9  UNL     1       3.056  13.964   2.004  1.00  0.00     0.065 C 
HETATM    7  C10 UNL     1       3.049  14.990   3.138  1.00  0.00     0.131 C 
HETATM    8  C11 UNL     1       2.382  14.456   4.417  1.00  0.00     0.059 C 
HETATM    9  C12 UNL     1       0.915  14.218   4.159  1.00  0.00    -0.022 C 
HETATM   10  C13 UNL     1      -0.087  15.113   4.291  1.00  0.00    -0.087 C 
HETATM   11  C14 UNL     1       0.077  16.470   4.920  1.00  0.00     0.043 C 
HETATM   12  C15 UNL     1      -1.465  14.784   3.734  1.00  0.00     0.041 C 
HETATM   13  C16 UNL     1      -1.913  15.558   2.458  1.00  0.00     0.008 C 
HETATM   14  C17 UNL     1      -2.565  16.900   2.799  1.00  0.00     0.014 C 
HETATM   15  C18 UNL     1      -0.799  15.769   1.453  1.00  0.00    -0.022 C 
HETATM   16  C19 UNL     1      -0.726  15.183   0.248  1.00  0.00    -0.003 C 
HETATM   17  C20 UNL     1       0.388  15.418  -0.647  1.00  0.00     0.008 C 
HETATM   18  C21 UNL     1       0.574  14.833  -1.843  1.00  0.00    -0.019 C 
HETATM   19  C22 UNL     1      -0.381  13.916  -2.556  1.00  0.00     0.206 C 
HETATM   20  O2  UNL     1       0.089  13.831  -3.920  1.00  0.00    -0.375 OA
HETATM   21  C23 UNL     1       0.951  14.984  -4.093  1.00  0.00     0.194 C 
HETATM   22  C24 UNL     1       1.819  14.859  -5.356  1.00  0.00     0.179 C 
HETATM   23  C25 UNL     1       3.106  14.096  -5.181  1.00  0.00    -0.056 C 
HETATM   24  C26 UNL     1       3.904  13.831  -6.429  1.00  0.00     0.046 C 
HETATM   25  C27 UNL     1       3.543  13.691  -3.975  1.00  0.00    -0.004 C 
HETATM   26  C28 UNL     1       2.807  13.942  -2.676  1.00  0.00     0.150 C 
HETATM   27  C29 UNL     1       3.810  14.235  -1.556  1.00  0.00     0.270 C 
HETATM   28  O4  UNL     1       5.002  14.471  -1.704  1.00  0.00    -0.264 OA
HETATM   29  O5  UNL     1       3.186  14.154  -0.354  1.00  0.00    -0.315 OA
HETATM   30  C30 UNL     1       1.740  15.070  -2.784  1.00  0.00     0.128 C 
HETATM   31  O7  UNL     1       4.413  15.345   3.378  1.00  0.00    -0.347 OA
HETATM   32  C31 UNL     1       6.479  16.028   2.320  1.00  0.00     0.210 C 
HETATM   33  C32 UNL     1       7.201  17.341   1.985  1.00  0.00     0.172 C 
HETATM   34  C37 UNL     1       6.780  18.494   2.936  1.00  0.00     0.047 C 
HETATM   35  C38 UNL     1       7.866  18.762   3.983  1.00  0.00     0.015 C 
ENDROOT
BRANCH  32  36
HETATM   36  O8  UNL     1       6.949  15.572   3.605  1.00  0.00    -0.387 OA
HETATM   37  H42 UNL     1       6.189  15.095   4.000  1.00  0.00     0.210 HD
ENDBRANCH  32  36
BRANCH   1  38
HETATM   38  C3  UNL     1       4.704  19.444   4.126  1.00  0.00    -0.059 C 
HETATM   39  C2  UNL     1       5.280  20.251   5.042  1.00  0.00    -0.026 C 
HETATM   40  C1  UNL     1       4.739  21.504   5.651  1.00  0.00     0.036 C 
HETATM   41  C4  UNL     1       3.363  19.721   3.496  1.00  0.00     0.046 C 
ENDBRANCH   1  38
BRANCH  33  42
HETATM   42  O9  UNL     1       6.879  17.705   0.623  1.00  0.00    -0.312 OA
BRANCH  42  43
HETATM   43  C33 UNL     1       7.807  17.390  -0.325  1.00  0.00     0.262 C 
HETATM   44  O10 UNL     1       9.013  17.317  -0.124  1.00  0.00    -0.265 OA
BRANCH  43  45
HETATM   45  C34 UNL     1       7.137  17.191  -1.676  1.00  0.00     0.077 C 
HETATM   46  C35 UNL     1       5.813  17.953  -1.734  1.00  0.00     0.020 C 
HETATM   47  C36 UNL     1       8.052  17.628  -2.815  1.00  0.00     0.020 C 
ENDBRANCH  43  45
ENDBRANCH  42  43
ENDBRANCH  33  42
BRANCH  30  48
HETATM   48  O6  UNL     1       2.300  16.369  -2.616  1.00  0.00    -0.381 OA
HETATM   49  H40 UNL     1       3.046  16.461  -3.238  1.00  0.00     0.211 HD
ENDBRANCH  30  48
BRANCH  22  50
HETATM   50  O3  UNL     1       1.055  14.248  -6.393  1.00  0.00    -0.389 OA
HETATM   51  H34 UNL     1       0.481  13.597  -5.943  1.00  0.00     0.210 HD
ENDBRANCH  22  50
TORSDOF 7
ENDMDL
