MODEL 1
REMARK minimizedAffinity -7.13666534
REMARK CNNscore 0.6933074
REMARK CNNaffinity 6.71401405
REMARK  6 active torsions:
REMARK  status: ('A' for Active; 'I' for Inactive)
REMARK    1  A    between atoms: O1_2  and  C2_3 
REMARK    2  A    between atoms: C17_20  and  C18_21 
REMARK    3  A    between atoms: C22_27  and  O6_28 
REMARK    4  A    between atoms: O6_28  and  C23_29 
REMARK    5  A    between atoms: C26_33  and  O8_34 
REMARK    6  A    between atoms: C31_40  and  O10_41 
ROOT
HETATM    1  C2  UNL     1       7.402  55.903  -3.406  1.00  0.00     0.190 C 
HETATM    2  C3  UNL     1       8.183  57.099  -2.842  1.00  0.00     0.064 C 
HETATM    3  C4  UNL     1       7.434  58.411  -3.058  1.00  0.00     0.174 C 
HETATM    4  O2  UNL     1       7.084  58.607  -4.432  1.00  0.00    -0.356 OA
HETATM    5  C5  UNL     1       6.229  57.557  -4.895  1.00  0.00     0.325 C 
HETATM    6  O3  UNL     1       5.799  57.857  -6.241  1.00  0.00    -0.344 OA
HETATM    7  C6  UNL     1       4.953  56.786  -6.683  1.00  0.00     0.177 C 
HETATM    8  C7  UNL     1       4.351  57.111  -8.009  1.00  0.00     0.011 C 
HETATM    9  C8  UNL     1       4.129  56.192  -8.973  1.00  0.00    -0.072 C 
HETATM   10  C9  UNL     1       3.493  56.616 -10.273  1.00  0.00     0.035 C 
HETATM   11  C10 UNL     1       2.418  55.650 -10.771  1.00  0.00     0.012 C 
HETATM   12  C11 UNL     1       2.000  54.611  -9.718  1.00  0.00     0.026 C 
HETATM   13  C12 UNL     1       3.257  53.778  -9.299  1.00  0.00     0.005 C 
HETATM   14  C13 UNL     1       2.896  52.588  -8.367  1.00  0.00     0.007 C 
HETATM   15  C14 UNL     1       1.705  51.739  -8.850  1.00  0.00     0.013 C 
HETATM   16  C15 UNL     1       0.481  52.622  -9.159  1.00  0.00    -0.003 C 
HETATM   17  C16 UNL     1      -0.045  53.247  -7.834  1.00  0.00     0.019 C 
HETATM   18  C17 UNL     1      -0.676  51.908  -9.915  1.00  0.00     0.058 C 
HETATM   19  C22 UNL     1      -1.450  53.105 -10.558  1.00  0.00     0.143 C 
HETATM   20  C25 UNL     1      -0.441  54.281 -10.658  1.00  0.00     0.072 C 
HETATM   21  C26 UNL     1       0.892  53.669 -10.231  1.00  0.00     0.072 C 
HETATM   22  C27 UNL     1       4.461  54.695  -8.806  1.00  0.00    -0.014 C 
HETATM   23  C28 UNL     1       5.678  54.388  -9.722  1.00  0.00     0.020 C 
HETATM   24  C29 UNL     1       4.893  54.387  -7.335  1.00  0.00     0.049 C 
HETATM   25  C30 UNL     1       5.774  55.488  -6.750  1.00  0.00     0.159 C 
HETATM   26  O9  UNL     1       6.226  55.128  -5.433  1.00  0.00    -0.341 OA
HETATM   27  C31 UNL     1       7.012  56.198  -4.876  1.00  0.00     0.240 C 
ENDROOT
BRANCH  18  28
HETATM   28  C18 UNL     1      -1.502  50.937  -9.114  1.00  0.00    -0.043 A 
HETATM   29  C19 UNL     1      -2.550  50.245  -9.565  1.00  0.00     0.087 A 
HETATM   30  C20 UNL     1      -3.038  49.428  -8.455  1.00  0.00     0.283 A 
HETATM   31  O4  UNL     1      -3.966  48.647  -8.530  1.00  0.00    -0.260 OA
HETATM   32  O5  UNL     1      -2.283  49.676  -7.350  1.00  0.00    -0.314 OA
HETATM   33  C21 UNL     1      -1.283  50.641  -7.677  1.00  0.00     0.214 A 
ENDBRANCH  18  28
BRANCH  19  34
HETATM   34  O6  UNL     1      -1.910  52.722 -11.865  1.00  0.00    -0.316 OA
BRANCH  34  35
HETATM   35  C23 UNL     1      -3.226  52.948 -12.110  1.00  0.00     0.255 C 
HETATM   36  C24 UNL     1      -3.893  53.487 -10.880  1.00  0.00     0.126 C 
HETATM   37  O7  UNL     1      -3.801  52.731 -13.169  1.00  0.00    -0.266 OA
ENDBRANCH  34  35
ENDBRANCH  19  34
BRANCH  21  38
HETATM   38  O8  UNL     1       1.407  52.966 -11.382  1.00  0.00    -0.389 OA
HETATM   39  H35 UNL     1       1.440  53.580 -12.136  1.00  0.00     0.210 HD
ENDBRANCH  21  38
BRANCH  27  40
HETATM   40  O10 UNL     1       8.228  56.314  -5.636  1.00  0.00    -0.360 OA
HETATM   41  H42 UNL     1       8.135  57.145  -6.142  1.00  0.00     0.213 HD
ENDBRANCH  27  40
BRANCH   1  42
HETATM   42  O1  UNL     1       6.253  55.724  -2.557  1.00  0.00    -0.385 OA
HETATM   43  C1  UNL     1       5.735  54.398  -2.606  1.00  0.00     0.202 C 
ENDBRANCH   1  42
TORSDOF 6
ENDMDL
MODEL 2
REMARK minimizedAffinity -7.16743565
REMARK CNNscore 0.569289327
REMARK CNNaffinity 6.35440493
REMARK  6 active torsions:
REMARK  status: ('A' for Active; 'I' for Inactive)
REMARK    1  A    between atoms: O1_2  and  C2_3 
REMARK    2  A    between atoms: C17_20  and  C18_21 
REMARK    3  A    between atoms: C22_27  and  O6_28 
REMARK    4  A    between atoms: O6_28  and  C23_29 
REMARK    5  A    between atoms: C26_33  and  O8_34 
REMARK    6  A    between atoms: C31_40  and  O10_41 
ROOT
HETATM    1  C2  UNL     1      -3.438  42.552 -14.593  1.00  0.00     0.190 C 
HETATM    2  C3  UNL     1      -3.628  41.038 -14.419  1.00  0.00     0.064 C 
HETATM    3  C4  UNL     1      -3.231  40.274 -15.680  1.00  0.00     0.174 C 
HETATM    4  O2  UNL     1      -3.913  40.765 -16.838  1.00  0.00    -0.356 OA
HETATM    5  C5  UNL     1      -3.601  42.143 -17.069  1.00  0.00     0.325 C 
HETATM    6  O3  UNL     1      -4.205  42.562 -18.312  1.00  0.00    -0.344 OA
HETATM    7  C6  UNL     1      -3.885  43.945 -18.513  1.00  0.00     0.177 C 
HETATM    8  C7  UNL     1      -4.350  44.398 -19.857  1.00  0.00     0.011 C 
HETATM    9  C8  UNL     1      -4.843  45.631 -20.101  1.00  0.00    -0.072 C 
HETATM   10  C9  UNL     1      -5.266  46.001 -21.500  1.00  0.00     0.035 C 
HETATM   11  C10 UNL     1      -4.817  47.399 -21.925  1.00  0.00     0.012 C 
HETATM   12  C11 UNL     1      -3.790  48.024 -20.966  1.00  0.00     0.026 C 
HETATM   13  C12 UNL     1      -4.422  48.121 -19.537  1.00  0.00     0.005 C 
HETATM   14  C13 UNL     1      -3.518  48.901 -18.541  1.00  0.00     0.007 C 
HETATM   15  C14 UNL     1      -2.975  50.235 -19.085  1.00  0.00     0.013 C 
HETATM   16  C15 UNL     1      -2.293  50.042 -20.453  1.00  0.00    -0.003 C 
HETATM   17  C16 UNL     1      -1.006  49.187 -20.266  1.00  0.00     0.019 C 
HETATM   18  C17 UNL     1      -1.960  51.356 -21.218  1.00  0.00     0.058 C 
HETATM   19  C22 UNL     1      -1.837  50.864 -22.698  1.00  0.00     0.143 C 
HETATM   20  C25 UNL     1      -2.645  49.542 -22.794  1.00  0.00     0.072 C 
HETATM   21  C26 UNL     1      -3.328  49.420 -21.431  1.00  0.00     0.072 C 
HETATM   22  C27 UNL     1      -4.968  46.720 -19.015  1.00  0.00    -0.014 C 
HETATM   23  C28 UNL     1      -6.482  46.900 -18.715  1.00  0.00     0.020 C 
HETATM   24  C29 UNL     1      -4.280  46.258 -17.689  1.00  0.00     0.049 C 
HETATM   25  C30 UNL     1      -4.528  44.781 -17.395  1.00  0.00     0.159 C 
HETATM   26  O9  UNL     1      -3.959  44.416 -16.125  1.00  0.00    -0.341 OA
HETATM   27  C31 UNL     1      -4.157  43.010 -15.886  1.00  0.00     0.240 C 
ENDROOT
BRANCH  18  28
HETATM   28  C18 UNL     1      -0.808  52.167 -20.689  1.00  0.00    -0.043 A 
HETATM   29  C19 UNL     1       0.298  52.486 -21.364  1.00  0.00     0.087 A 
HETATM   30  C20 UNL     1       1.136  53.282 -20.468  1.00  0.00     0.283 A 
HETATM   31  O4  UNL     1       2.206  53.768 -20.777  1.00  0.00    -0.260 OA
HETATM   32  O5  UNL     1       0.520  53.393 -19.260  1.00  0.00    -0.314 OA
HETATM   33  C21 UNL     1      -0.725  52.697 -19.306  1.00  0.00     0.214 A 
ENDBRANCH  18  28
BRANCH  19  34
HETATM   34  O6  UNL     1      -2.391  51.859 -23.574  1.00  0.00    -0.316 OA
BRANCH  34  35
HETATM   35  C23 UNL     1      -2.587  51.462 -24.858  1.00  0.00     0.255 C 
HETATM   36  C24 UNL     1      -1.340  50.828 -25.397  1.00  0.00     0.126 C 
HETATM   37  O7  UNL     1      -3.619  51.611 -25.499  1.00  0.00    -0.266 OA
ENDBRANCH  34  35
ENDBRANCH  19  34
BRANCH  21  38
HETATM   38  O8  UNL     1      -4.487  50.279 -21.476  1.00  0.00    -0.389 OA
HETATM   39  H35 UNL     1      -5.027  50.036 -22.249  1.00  0.00     0.210 HD
ENDBRANCH  21  38
BRANCH  27  40
HETATM   40  O10 UNL     1      -5.565  42.770 -15.713  1.00  0.00    -0.360 OA
HETATM   41  H42 UNL     1      -5.844  42.293 -16.518  1.00  0.00     0.213 HD
ENDBRANCH  27  40
BRANCH   1  42
HETATM   42  O1  UNL     1      -2.019  42.787 -14.639  1.00  0.00    -0.385 OA
HETATM   43  C1  UNL     1      -1.632  43.959 -13.927  1.00  0.00     0.202 C 
ENDBRANCH   1  42
TORSDOF 6
ENDMDL
MODEL 3
REMARK minimizedAffinity -6.88158846
REMARK CNNscore 0.544805646
REMARK CNNaffinity 6.4007535
REMARK  6 active torsions:
REMARK  status: ('A' for Active; 'I' for Inactive)
REMARK    1  A    between atoms: O1_2  and  C2_3 
REMARK    2  A    between atoms: C17_20  and  C18_21 
REMARK    3  A    between atoms: C22_27  and  O6_28 
REMARK    4  A    between atoms: O6_28  and  C23_29 
REMARK    5  A    between atoms: C26_33  and  O8_34 
REMARK    6  A    between atoms: C31_40  and  O10_41 
ROOT
HETATM    1  C2  UNL     1      -0.924  43.315 -13.755  1.00  0.00     0.190 C 
HETATM    2  C3  UNL     1      -0.866  41.879 -13.214  1.00  0.00     0.064 C 
HETATM    3  C4  UNL     1      -0.785  40.856 -14.345  1.00  0.00     0.174 C 
HETATM    4  O2  UNL     1      -1.843  41.023 -15.293  1.00  0.00    -0.356 OA
HETATM    5  C5  UNL     1      -1.787  42.319 -15.897  1.00  0.00     0.325 C 
HETATM    6  O3  UNL     1      -2.790  42.401 -16.934  1.00  0.00    -0.344 OA
HETATM    7  C6  UNL     1      -2.719  43.710 -17.515  1.00  0.00     0.177 C 
HETATM    8  C7  UNL     1      -3.625  43.805 -18.697  1.00  0.00     0.011 C 
HETATM    9  C8  UNL     1      -4.315  44.920 -19.019  1.00  0.00    -0.072 C 
HETATM   10  C9  UNL     1      -5.189  44.926 -20.248  1.00  0.00     0.035 C 
HETATM   11  C10 UNL     1      -5.065  46.201 -21.081  1.00  0.00     0.012 C 
HETATM   12  C11 UNL     1      -3.878  47.086 -20.665  1.00  0.00     0.026 C 
HETATM   13  C12 UNL     1      -4.048  47.490 -19.162  1.00  0.00     0.005 C 
HETATM   14  C13 UNL     1      -2.985  48.527 -18.704  1.00  0.00     0.007 C 
HETATM   15  C14 UNL     1      -2.801  49.718 -19.664  1.00  0.00     0.013 C 
HETATM   16  C15 UNL     1      -2.553  49.236 -21.106  1.00  0.00    -0.003 C 
HETATM   17  C16 UNL     1      -1.177  48.513 -21.174  1.00  0.00     0.019 C 
HETATM   18  C17 UNL     1      -2.634  50.344 -22.196  1.00  0.00     0.058 C 
HETATM   19  C22 UNL     1      -2.911  49.520 -23.496  1.00  0.00     0.143 C 
HETATM   20  C25 UNL     1      -3.543  48.176 -23.042  1.00  0.00     0.072 C 
HETATM   21  C26 UNL     1      -3.754  48.350 -21.538  1.00  0.00     0.072 C 
HETATM   22  C27 UNL     1      -4.233  46.230 -18.208  1.00  0.00    -0.014 C 
HETATM   23  C28 UNL     1      -5.591  46.404 -17.475  1.00  0.00     0.020 C 
HETATM   24  C29 UNL     1      -3.120  46.131 -17.113  1.00  0.00     0.049 C 
HETATM   25  C30 UNL     1      -3.084  44.756 -16.450  1.00  0.00     0.159 C 
HETATM   26  O9  UNL     1      -2.113  44.732 -15.389  1.00  0.00    -0.341 OA
HETATM   27  C31 UNL     1      -2.055  43.416 -14.809  1.00  0.00     0.240 C 
ENDROOT
BRANCH  18  28
HETATM   28  C18 UNL     1      -1.483  51.312 -22.256  1.00  0.00    -0.043 A 
HETATM   29  C19 UNL     1      -0.751  51.590 -23.336  1.00  0.00     0.087 A 
HETATM   30  C20 UNL     1       0.247  52.582 -22.938  1.00  0.00     0.283 A 
HETATM   31  O4  UNL     1       1.058  53.084 -23.692  1.00  0.00    -0.260 OA
HETATM   32  O5  UNL     1       0.105  52.852 -21.612  1.00  0.00    -0.314 OA
HETATM   33  C21 UNL     1      -0.970  52.073 -21.090  1.00  0.00     0.214 A 
ENDBRANCH  18  28
BRANCH  19  34
HETATM   34  O6  UNL     1      -3.824  50.250 -24.333  1.00  0.00    -0.316 OA
BRANCH  34  35
HETATM   35  C23 UNL     1      -3.360  50.564 -25.569  1.00  0.00     0.255 C 
HETATM   36  C24 UNL     1      -3.415  52.048 -25.778  1.00  0.00     0.126 C 
HETATM   37  O7  UNL     1      -2.968  49.763 -26.407  1.00  0.00    -0.266 OA
ENDBRANCH  34  35
ENDBRANCH  19  34
BRANCH  21  38
HETATM   38  O8  UNL     1      -4.967  49.117 -21.382  1.00  0.00    -0.389 OA
HETATM   39  H35 UNL     1      -5.684  48.672 -21.866  1.00  0.00     0.210 HD
ENDBRANCH  21  38
BRANCH  27  40
HETATM   40  O10 UNL     1      -3.302  43.158 -14.138  1.00  0.00    -0.360 OA
HETATM   41  H42 UNL     1      -3.754  42.489 -14.689  1.00  0.00     0.213 HD
ENDBRANCH  27  40
BRANCH   1  42
HETATM   42  O1  UNL     1       0.373  43.600 -14.311  1.00  0.00    -0.385 OA
HETATM   43  C1  UNL     1       1.087  44.580 -13.565  1.00  0.00     0.202 C 
ENDBRANCH   1  42
TORSDOF 6
ENDMDL
MODEL 4
REMARK minimizedAffinity -7.70043802
REMARK CNNscore 0.542615116
REMARK CNNaffinity 5.70029402
REMARK  6 active torsions:
REMARK  status: ('A' for Active; 'I' for Inactive)
REMARK    1  A    between atoms: O1_2  and  C2_3 
REMARK    2  A    between atoms: C17_20  and  C18_21 
REMARK    3  A    between atoms: C22_27  and  O6_28 
REMARK    4  A    between atoms: O6_28  and  C23_29 
REMARK    5  A    between atoms: C26_33  and  O8_34 
REMARK    6  A    between atoms: C31_40  and  O10_41 
ROOT
HETATM    1  C2  UNL     1     -11.994  45.453 -15.316  1.00  0.00     0.190 C 
HETATM    2  C3  UNL     1     -11.990  44.782 -13.935  1.00  0.00     0.064 C 
HETATM    3  C4  UNL     1     -12.656  43.408 -13.977  1.00  0.00     0.174 C 
HETATM    4  O2  UNL     1     -13.973  43.470 -14.533  1.00  0.00    -0.356 OA
HETATM    5  C5  UNL     1     -13.936  43.958 -15.879  1.00  0.00     0.325 C 
HETATM    6  O3  UNL     1     -15.264  43.885 -16.443  1.00  0.00    -0.344 OA
HETATM    7  C6  UNL     1     -15.200  44.388 -17.785  1.00  0.00     0.177 C 
HETATM    8  C7  UNL     1     -16.509  44.195 -18.476  1.00  0.00     0.011 C 
HETATM    9  C8  UNL     1     -17.023  45.077 -19.361  1.00  0.00    -0.072 C 
HETATM   10  C9  UNL     1     -18.343  44.781 -20.025  1.00  0.00     0.035 C 
HETATM   11  C10 UNL     1     -18.358  45.092 -21.522  1.00  0.00     0.012 C 
HETATM   12  C11 UNL     1     -16.960  45.362 -22.100  1.00  0.00     0.026 C 
HETATM   13  C12 UNL     1     -16.326  46.580 -21.348  1.00  0.00     0.005 C 
HETATM   14  C13 UNL     1     -14.983  47.035 -21.985  1.00  0.00     0.007 C 
HETATM   15  C14 UNL     1     -15.023  47.187 -23.517  1.00  0.00     0.013 C 
HETATM   16  C15 UNL     1     -15.577  45.916 -24.187  1.00  0.00    -0.003 C 
HETATM   17  C16 UNL     1     -14.573  44.746 -23.974  1.00  0.00     0.019 C 
HETATM   18  C17 UNL     1     -15.922  46.061 -25.698  1.00  0.00     0.058 C 
HETATM   19  C22 UNL     1     -16.935  44.892 -25.928  1.00  0.00     0.143 C 
HETATM   20  C25 UNL     1     -17.547  44.557 -24.541  1.00  0.00     0.072 C 
HETATM   21  C26 UNL     1     -16.996  45.641 -23.616  1.00  0.00     0.072 C 
HETATM   22  C27 UNL     1     -16.304  46.379 -19.770  1.00  0.00    -0.014 C 
HETATM   23  C28 UNL     1     -17.099  47.559 -19.145  1.00  0.00     0.020 C 
HETATM   24  C29 UNL     1     -14.859  46.422 -19.174  1.00  0.00     0.049 C 
HETATM   25  C30 UNL     1     -14.805  45.873 -17.750  1.00  0.00     0.159 C 
HETATM   26  O9  UNL     1     -13.481  46.013 -17.205  1.00  0.00    -0.341 OA
HETATM   27  C31 UNL     1     -13.436  45.444 -15.883  1.00  0.00     0.240 C 
ENDROOT
BRANCH  18  28
HETATM   28  C18 UNL     1     -14.758  46.129 -26.649  1.00  0.00    -0.043 A 
HETATM   29  C19 UNL     1     -14.559  45.331 -27.699  1.00  0.00     0.087 A 
HETATM   30  C20 UNL     1     -13.315  45.759 -28.337  1.00  0.00     0.283 A 
HETATM   31  O4  UNL     1     -12.854  45.265 -29.348  1.00  0.00    -0.260 OA
HETATM   32  O5  UNL     1     -12.780  46.790 -27.629  1.00  0.00    -0.314 OA
HETATM   33  C21 UNL     1     -13.631  47.085 -26.522  1.00  0.00     0.214 A 
ENDBRANCH  18  28
BRANCH  19  34
HETATM   34  O6  UNL     1     -17.958  45.325 -26.840  1.00  0.00    -0.316 OA
BRANCH  34  35
HETATM   35  C23 UNL     1     -19.229  45.007 -26.484  1.00  0.00     0.255 C 
HETATM   36  C24 UNL     1     -19.604  43.672 -27.053  1.00  0.00     0.126 C 
HETATM   37  O7  UNL     1     -19.977  45.708 -25.814  1.00  0.00    -0.266 OA
ENDBRANCH  34  35
ENDBRANCH  19  34
BRANCH  21  38
HETATM   38  O8  UNL     1     -17.810  46.814 -23.831  1.00  0.00    -0.389 OA
HETATM   39  H35 UNL     1     -18.744  46.576 -23.702  1.00  0.00     0.210 HD
ENDBRANCH  21  38
BRANCH  27  40
HETATM   40  O10 UNL     1     -14.253  46.247 -15.012  1.00  0.00    -0.360 OA
HETATM   41  H42 UNL     1     -15.036  45.696 -14.817  1.00  0.00     0.213 HD
ENDBRANCH  27  40
BRANCH   1  42
HETATM   42  O1  UNL     1     -11.074  44.710 -16.139  1.00  0.00    -0.385 OA
HETATM   43  C1  UNL     1      -9.713  44.948 -15.794  1.00  0.00     0.202 C 
ENDBRANCH   1  42
TORSDOF 6
ENDMDL
MODEL 5
REMARK minimizedAffinity -6.57477522
REMARK CNNscore 0.526766598
REMARK CNNaffinity 6.03409719
REMARK  6 active torsions:
REMARK  status: ('A' for Active; 'I' for Inactive)
REMARK    1  A    between atoms: O1_2  and  C2_3 
REMARK    2  A    between atoms: C17_20  and  C18_21 
REMARK    3  A    between atoms: C22_27  and  O6_28 
REMARK    4  A    between atoms: O6_28  and  C23_29 
REMARK    5  A    between atoms: C26_33  and  O8_34 
REMARK    6  A    between atoms: C31_40  and  O10_41 
ROOT
HETATM    1  C2  UNL     1      10.176  47.285  -8.819  1.00  0.00     0.190 C 
HETATM    2  C3  UNL     1      10.616  46.272  -9.886  1.00  0.00     0.064 C 
HETATM    3  C4  UNL     1      10.509  46.857 -11.292  1.00  0.00     0.174 C 
HETATM    4  O2  UNL     1       9.201  47.373 -11.558  1.00  0.00    -0.356 OA
HETATM    5  C5  UNL     1       8.871  48.422 -10.643  1.00  0.00     0.325 C 
HETATM    6  O3  UNL     1       7.602  48.998 -11.023  1.00  0.00    -0.344 OA
HETATM    7  C6  UNL     1       7.291  50.038 -10.086  1.00  0.00     0.177 C 
HETATM    8  C7  UNL     1       6.066  50.776 -10.515  1.00  0.00     0.011 C 
HETATM    9  C8  UNL     1       5.147  51.261  -9.652  1.00  0.00    -0.072 C 
HETATM   10  C9  UNL     1       3.953  52.014 -10.182  1.00  0.00     0.035 C 
HETATM   11  C10 UNL     1       3.621  53.273  -9.382  1.00  0.00     0.012 C 
HETATM   12  C11 UNL     1       4.726  53.673  -8.391  1.00  0.00     0.026 C 
HETATM   13  C12 UNL     1       4.958  52.495  -7.386  1.00  0.00     0.005 C 
HETATM   14  C13 UNL     1       5.936  52.878  -6.240  1.00  0.00     0.007 C 
HETATM   15  C14 UNL     1       5.634  54.232  -5.571  1.00  0.00     0.013 C 
HETATM   16  C15 UNL     1       5.506  55.354  -6.618  1.00  0.00    -0.003 C 
HETATM   17  C16 UNL     1       6.892  55.590  -7.286  1.00  0.00     0.019 C 
HETATM   18  C17 UNL     1       4.930  56.696  -6.083  1.00  0.00     0.058 C 
HETATM   19  C22 UNL     1       4.403  57.383  -7.386  1.00  0.00     0.143 C 
HETATM   20  C25 UNL     1       4.154  56.247  -8.415  1.00  0.00     0.072 C 
HETATM   21  C26 UNL     1       4.383  54.962  -7.619  1.00  0.00     0.072 C 
HETATM   22  C27 UNL     1       5.267  51.118  -8.121  1.00  0.00    -0.014 C 
HETATM   23  C28 UNL     1       4.184  50.101  -7.666  1.00  0.00     0.020 C 
HETATM   24  C29 UNL     1       6.660  50.523  -7.730  1.00  0.00     0.049 C 
HETATM   25  C30 UNL     1       7.107  49.423  -8.690  1.00  0.00     0.159 C 
HETATM   26  O9  UNL     1       8.345  48.839  -8.248  1.00  0.00    -0.341 OA
HETATM   27  C31 UNL     1       8.778  47.840  -9.190  1.00  0.00     0.240 C 
ENDROOT
BRANCH  18  28
HETATM   28  C18 UNL     1       5.844  57.523  -5.220  1.00  0.00    -0.043 A 
HETATM   29  C19 UNL     1       6.653  58.496  -5.645  1.00  0.00     0.087 A 
HETATM   30  C20 UNL     1       7.346  59.025  -4.471  1.00  0.00     0.283 A 
HETATM   31  O4  UNL     1       8.134  59.950  -4.496  1.00  0.00    -0.260 OA
HETATM   32  O5  UNL     1       6.956  58.329  -3.369  1.00  0.00    -0.314 OA
HETATM   33  C21 UNL     1       6.005  57.337  -3.756  1.00  0.00     0.214 A 
ENDBRANCH  18  28
BRANCH  19  34
HETATM   34  O6  UNL     1       3.179  58.076  -7.093  1.00  0.00    -0.316 OA
BRANCH  34  35
HETATM   35  C23 UNL     1       2.892  58.223  -5.774  1.00  0.00     0.255 C 
HETATM   36  C24 UNL     1       1.957  57.139  -5.327  1.00  0.00     0.126 C 
HETATM   37  O7  UNL     1       3.311  59.115  -5.049  1.00  0.00    -0.266 OA
ENDBRANCH  34  35
ENDBRANCH  19  34
BRANCH  21  38
HETATM   38  O8  UNL     1       3.171  54.722  -6.872  1.00  0.00    -0.389 OA
HETATM   39  H35 UNL     1       2.418  54.715  -7.490  1.00  0.00     0.210 HD
ENDBRANCH  21  38
BRANCH  27  40
HETATM   40  O10 UNL     1       7.848  46.742  -9.152  1.00  0.00    -0.360 OA
HETATM   41  H42 UNL     1       7.359  46.793  -9.997  1.00  0.00     0.213 HD
ENDBRANCH  27  40
BRANCH   1  42
HETATM   42  O1  UNL     1      11.184  48.312  -8.783  1.00  0.00    -0.385 OA
HETATM   43  C1  UNL     1      11.820  48.414  -7.513  1.00  0.00     0.202 C 
ENDBRANCH   1  42
TORSDOF 6
ENDMDL
MODEL 6
REMARK minimizedAffinity -8.15579319
REMARK CNNscore 0.524464428
REMARK CNNaffinity 5.79559851
REMARK  6 active torsions:
REMARK  status: ('A' for Active; 'I' for Inactive)
REMARK    1  A    between atoms: O1_2  and  C2_3 
REMARK    2  A    between atoms: C17_20  and  C18_21 
REMARK    3  A    between atoms: C22_27  and  O6_28 
REMARK    4  A    between atoms: O6_28  and  C23_29 
REMARK    5  A    between atoms: C26_33  and  O8_34 
REMARK    6  A    between atoms: C31_40  and  O10_41 
ROOT
HETATM    1  C2  UNL     1      -7.862  42.699 -33.990  1.00  0.00     0.190 C 
HETATM    2  C3  UNL     1      -6.577  42.013 -34.476  1.00  0.00     0.064 C 
HETATM    3  C4  UNL     1      -5.823  41.352 -33.325  1.00  0.00     0.174 C 
HETATM    4  O2  UNL     1      -5.563  42.272 -32.260  1.00  0.00    -0.356 OA
HETATM    5  C5  UNL     1      -6.785  42.785 -31.719  1.00  0.00     0.325 C 
HETATM    6  O3  UNL     1      -6.484  43.607 -30.570  1.00  0.00    -0.344 OA
HETATM    7  C6  UNL     1      -7.723  44.115 -30.055  1.00  0.00     0.177 C 
HETATM    8  C7  UNL     1      -7.493  44.846 -28.774  1.00  0.00     0.011 C 
HETATM    9  C8  UNL     1      -8.180  45.952 -28.413  1.00  0.00    -0.072 C 
HETATM   10  C9  UNL     1      -7.891  46.607 -27.086  1.00  0.00     0.035 C 
HETATM   11  C10 UNL     1      -9.148  47.031 -26.326  1.00  0.00     0.012 C 
HETATM   12  C11 UNL     1     -10.442  46.451 -26.922  1.00  0.00     0.026 C 
HETATM   13  C12 UNL     1     -10.575  46.929 -28.407  1.00  0.00     0.005 C 
HETATM   14  C13 UNL     1     -11.942  46.535 -29.035  1.00  0.00     0.007 C 
HETATM   15  C14 UNL     1     -13.164  46.854 -28.154  1.00  0.00     0.013 C 
HETATM   16  C15 UNL     1     -12.993  46.277 -26.736  1.00  0.00    -0.003 C 
HETATM   17  C16 UNL     1     -13.008  44.723 -26.811  1.00  0.00     0.019 C 
HETATM   18  C17 UNL     1     -14.031  46.776 -25.689  1.00  0.00     0.058 C 
HETATM   19  C22 UNL     1     -13.300  46.509 -24.333  1.00  0.00     0.143 C 
HETATM   20  C25 UNL     1     -11.781  46.462 -24.651  1.00  0.00     0.072 C 
HETATM   21  C26 UNL     1     -11.692  46.866 -26.122  1.00  0.00     0.072 C 
HETATM   22  C27 UNL     1      -9.292  46.577 -29.280  1.00  0.00    -0.014 C 
HETATM   23  C28 UNL     1      -8.739  47.915 -29.844  1.00  0.00     0.020 C 
HETATM   24  C29 UNL     1      -9.623  45.656 -30.499  1.00  0.00     0.049 C 
HETATM   25  C30 UNL     1      -8.370  45.030 -31.107  1.00  0.00     0.159 C 
HETATM   26  O9  UNL     1      -8.704  44.265 -32.279  1.00  0.00    -0.341 OA
HETATM   27  C31 UNL     1      -7.520  43.641 -32.808  1.00  0.00     0.240 C 
ENDROOT
BRANCH  18  28
HETATM   28  C18 UNL     1     -15.426  46.225 -25.812  1.00  0.00    -0.043 A 
HETATM   29  C19 UNL     1     -15.903  45.529 -26.846  1.00  0.00     0.087 A 
HETATM   30  C20 UNL     1     -17.292  45.194 -26.536  1.00  0.00     0.283 A 
HETATM   31  O4  UNL     1     -18.017  44.530 -27.252  1.00  0.00    -0.260 OA
HETATM   32  O5  UNL     1     -17.624  45.728 -25.330  1.00  0.00    -0.314 OA
HETATM   33  C21 UNL     1     -16.493  46.419 -24.799  1.00  0.00     0.214 A 
ENDBRANCH  18  28
BRANCH  19  34
HETATM   34  O6  UNL     1     -13.592  47.579 -23.419  1.00  0.00    -0.316 OA
BRANCH  34  35
HETATM   35  C23 UNL     1     -13.955  47.196 -22.168  1.00  0.00     0.255 C 
HETATM   36  C24 UNL     1     -14.095  45.704 -22.107  1.00  0.00     0.126 C 
HETATM   37  O7  UNL     1     -14.161  47.948 -21.225  1.00  0.00    -0.266 OA
ENDBRANCH  34  35
ENDBRANCH  19  34
BRANCH  21  38
HETATM   38  O8  UNL     1     -11.783  48.307 -26.157  1.00  0.00    -0.389 OA
HETATM   39  H35 UNL     1     -11.102  48.678 -25.569  1.00  0.00     0.210 HD
ENDBRANCH  21  38
BRANCH  27  40
HETATM   40  O10 UNL     1      -6.646  44.669 -33.308  1.00  0.00    -0.360 OA
HETATM   41  H42 UNL     1      -5.899  44.696 -32.678  1.00  0.00     0.213 HD
ENDBRANCH  27  40
BRANCH   1  42
HETATM   42  O1  UNL     1      -8.773  41.650 -33.612  1.00  0.00    -0.385 OA
HETATM   43  C1  UNL     1      -9.328  40.973 -34.736  1.00  0.00     0.202 C 
ENDBRANCH   1  42
TORSDOF 6
ENDMDL
MODEL 7
REMARK minimizedAffinity -6.72228956
REMARK CNNscore 0.492517918
REMARK CNNaffinity 6.68979597
REMARK  6 active torsions:
REMARK  status: ('A' for Active; 'I' for Inactive)
REMARK    1  A    between atoms: O1_2  and  C2_3 
REMARK    2  A    between atoms: C17_20  and  C18_21 
REMARK    3  A    between atoms: C22_27  and  O6_28 
REMARK    4  A    between atoms: O6_28  and  C23_29 
REMARK    5  A    between atoms: C26_33  and  O8_34 
REMARK    6  A    between atoms: C31_40  and  O10_41 
ROOT
HETATM    1  C2  UNL     1      -7.876  48.065 -10.194  1.00  0.00     0.190 C 
HETATM    2  C3  UNL     1      -8.420  46.643 -10.395  1.00  0.00     0.064 C 
HETATM    3  C4  UNL     1      -7.353  45.589 -10.110  1.00  0.00     0.174 C 
HETATM    4  O2  UNL     1      -6.163  45.814 -10.871  1.00  0.00    -0.356 OA
HETATM    5  C5  UNL     1      -5.588  47.086 -10.555  1.00  0.00     0.325 C 
HETATM    6  O3  UNL     1      -4.327  47.219 -11.247  1.00  0.00    -0.344 OA
HETATM    7  C6  UNL     1      -3.779  48.504 -10.921  1.00  0.00     0.177 C 
HETATM    8  C7  UNL     1      -2.402  48.640 -11.482  1.00  0.00     0.011 C 
HETATM    9  C8  UNL     1      -1.907  49.797 -11.972  1.00  0.00    -0.072 C 
HETATM   10  C9  UNL     1      -0.494  49.840 -12.496  1.00  0.00     0.035 C 
HETATM   11  C10 UNL     1       0.283  51.080 -12.057  1.00  0.00     0.012 C 
HETATM   12  C11 UNL     1      -0.422  51.879 -10.949  1.00  0.00     0.026 C 
HETATM   13  C12 UNL     1      -1.828  52.333 -11.467  1.00  0.00     0.005 C 
HETATM   14  C13 UNL     1      -2.541  53.296 -10.476  1.00  0.00     0.007 C 
HETATM   15  C14 UNL     1      -1.657  54.443  -9.955  1.00  0.00     0.013 C 
HETATM   16  C15 UNL     1      -0.330  53.908  -9.384  1.00  0.00    -0.003 C 
HETATM   17  C16 UNL     1      -0.623  53.078  -8.101  1.00  0.00     0.019 C 
HETATM   18  C17 UNL     1       0.749  54.991  -9.090  1.00  0.00     0.058 C 
HETATM   19  C22 UNL     1       2.073  54.159  -9.090  1.00  0.00     0.143 C 
HETATM   20  C25 UNL     1       1.792  52.880  -9.925  1.00  0.00     0.072 C 
HETATM   21  C26 UNL     1       0.395  53.108 -10.502  1.00  0.00     0.072 C 
HETATM   22  C27 UNL     1      -2.707  51.116 -11.994  1.00  0.00    -0.014 C 
HETATM   23  C28 UNL     1      -3.063  51.414 -13.477  1.00  0.00     0.020 C 
HETATM   24  C29 UNL     1      -4.053  50.958 -11.213  1.00  0.00     0.049 C 
HETATM   25  C30 UNL     1      -4.708  49.602 -11.462  1.00  0.00     0.159 C 
HETATM   26  O9  UNL     1      -5.985  49.529 -10.802  1.00  0.00    -0.341 OA
HETATM   27  C31 UNL     1      -6.566  48.228 -11.004  1.00  0.00     0.240 C 
ENDROOT
BRANCH  18  28
HETATM   28  C18 UNL     1       0.513  55.864  -7.887  1.00  0.00    -0.043 A 
HETATM   29  C19 UNL     1       1.087  55.719  -6.691  1.00  0.00     0.087 A 
HETATM   30  C20 UNL     1       0.573  56.785  -5.833  1.00  0.00     0.283 A 
HETATM   31  O4  UNL     1       0.917  56.969  -4.682  1.00  0.00    -0.260 OA
HETATM   32  O5  UNL     1      -0.327  57.528  -6.533  1.00  0.00    -0.314 OA
HETATM   33  C21 UNL     1      -0.439  57.001  -7.855  1.00  0.00     0.214 A 
ENDBRANCH  18  28
BRANCH  19  34
HETATM   34  O6  UNL     1       3.120  54.936  -9.694  1.00  0.00    -0.316 OA
BRANCH  34  35
HETATM   35  C23 UNL     1       4.095  55.359  -8.848  1.00  0.00     0.255 C 
HETATM   36  C24 UNL     1       4.024  56.847  -8.685  1.00  0.00     0.126 C 
HETATM   37  O7  UNL     1       4.928  54.643  -8.308  1.00  0.00    -0.266 OA
ENDBRANCH  34  35
ENDBRANCH  19  34
BRANCH  21  38
HETATM   38  O8  UNL     1       0.561  53.971 -11.647  1.00  0.00    -0.389 OA
HETATM   39  H35 UNL     1       1.213  53.571 -12.249  1.00  0.00     0.210 HD
ENDBRANCH  21  38
BRANCH  27  40
HETATM   40  O10 UNL     1      -6.892  48.084 -12.398  1.00  0.00    -0.360 OA
HETATM   41  H42 UNL     1      -6.245  47.440 -12.746  1.00  0.00     0.213 HD
ENDBRANCH  27  40
BRANCH   1  42
HETATM   42  O1  UNL     1      -7.674  48.234  -8.779  1.00  0.00    -0.385 OA
HETATM   43  C1  UNL     1      -8.507  49.246  -8.222  1.00  0.00     0.202 C 
ENDBRANCH   1  42
TORSDOF 6
ENDMDL
MODEL 8
REMARK minimizedAffinity -8.18195724
REMARK CNNscore 0.466572791
REMARK CNNaffinity 6.37544489
REMARK  6 active torsions:
REMARK  status: ('A' for Active; 'I' for Inactive)
REMARK    1  A    between atoms: O1_2  and  C2_3 
REMARK    2  A    between atoms: C17_20  and  C18_21 
REMARK    3  A    between atoms: C22_27  and  O6_28 
REMARK    4  A    between atoms: O6_28  and  C23_29 
REMARK    5  A    between atoms: C26_33  and  O8_34 
REMARK    6  A    between atoms: C31_40  and  O10_41 
ROOT
HETATM    1  C2  UNL     1      -1.790  52.592 -11.905  1.00  0.00     0.190 C 
HETATM    2  C3  UNL     1      -2.030  51.384 -12.823  1.00  0.00     0.064 C 
HETATM    3  C4  UNL     1      -1.134  50.207 -12.447  1.00  0.00     0.174 C 
HETATM    4  O2  UNL     1       0.248  50.578 -12.409  1.00  0.00    -0.356 OA
HETATM    5  C5  UNL     1       0.475  51.602 -11.436  1.00  0.00     0.325 C 
HETATM    6  O3  UNL     1       1.893  51.857 -11.341  1.00  0.00    -0.344 OA
HETATM    7  C6  UNL     1       2.091  52.893 -10.368  1.00  0.00     0.177 C 
HETATM    8  C7  UNL     1       3.547  53.094 -10.110  1.00  0.00     0.011 C 
HETATM    9  C8  UNL     1       4.102  54.301  -9.865  1.00  0.00    -0.072 C 
HETATM   10  C9  UNL     1       5.581  54.398  -9.592  1.00  0.00     0.035 C 
HETATM   11  C10 UNL     1       5.930  55.333  -8.435  1.00  0.00     0.012 C 
HETATM   12  C11 UNL     1       4.706  55.753  -7.604  1.00  0.00     0.026 C 
HETATM   13  C12 UNL     1       3.684  56.482  -8.539  1.00  0.00     0.005 C 
HETATM   14  C13 UNL     1       2.493  57.096  -7.749  1.00  0.00     0.007 C 
HETATM   15  C14 UNL     1       2.904  57.906  -6.505  1.00  0.00     0.013 C 
HETATM   16  C15 UNL     1       3.840  57.090  -5.594  1.00  0.00    -0.003 C 
HETATM   17  C16 UNL     1       3.050  55.892  -4.991  1.00  0.00     0.019 C 
HETATM   18  C17 UNL     1       4.535  57.901  -4.463  1.00  0.00     0.058 C 
HETATM   19  C22 UNL     1       5.771  57.008  -4.115  1.00  0.00     0.143 C 
HETATM   20  C25 UNL     1       6.050  56.132  -5.367  1.00  0.00     0.072 C 
HETATM   21  C26 UNL     1       5.085  56.670  -6.424  1.00  0.00     0.072 C 
HETATM   22  C27 UNL     1       3.287  55.609  -9.808  1.00  0.00    -0.014 C 
HETATM   23  C28 UNL     1       3.658  56.438 -11.070  1.00  0.00     0.020 C 
HETATM   24  C29 UNL     1       1.754  55.308  -9.881  1.00  0.00     0.049 C 
HETATM   25  C30 UNL     1       1.433  54.188 -10.869  1.00  0.00     0.159 C 
HETATM   26  O9  UNL     1       0.010  54.002 -10.976  1.00  0.00    -0.341 OA
HETATM   27  C31 UNL     1      -0.274  52.911 -11.870  1.00  0.00     0.240 C 
ENDROOT
BRANCH  18  28
HETATM   28  C18 UNL     1       3.668  58.315  -3.304  1.00  0.00    -0.043 A 
HETATM   29  C19 UNL     1       2.773  59.304  -3.313  1.00  0.00     0.087 A 
HETATM   30  C20 UNL     1       2.163  59.346  -1.984  1.00  0.00     0.283 A 
HETATM   31  O4  UNL     1       1.277  60.112  -1.657  1.00  0.00    -0.260 OA
HETATM   32  O5  UNL     1       2.736  58.395  -1.198  1.00  0.00    -0.314 OA
HETATM   33  C21 UNL     1       3.721  57.695  -1.958  1.00  0.00     0.214 A 
ENDBRANCH  18  28
BRANCH  19  34
HETATM   34  O6  UNL     1       6.898  57.851  -3.828  1.00  0.00    -0.316 OA
BRANCH  34  35
HETATM   35  C23 UNL     1       7.860  57.887  -4.786  1.00  0.00     0.255 C 
HETATM   36  C24 UNL     1       8.167  59.308  -5.153  1.00  0.00     0.126 C 
HETATM   37  O7  UNL     1       8.392  56.911  -5.298  1.00  0.00    -0.266 OA
ENDBRANCH  34  35
ENDBRANCH  19  34
BRANCH  21  38
HETATM   38  O8  UNL     1       5.695  57.861  -6.966  1.00  0.00    -0.389 OA
HETATM   39  H35 UNL     1       6.591  57.641  -7.276  1.00  0.00     0.210 HD
ENDBRANCH  21  38
BRANCH  27  40
HETATM   40  O10 UNL     1       0.123  53.294 -13.199  1.00  0.00    -0.360 OA
HETATM   41  H42 UNL     1       0.917  52.757 -13.393  1.00  0.00     0.213 HD
ENDBRANCH  27  40
BRANCH   1  42
HETATM   42  O1  UNL     1      -2.308  52.236 -10.610  1.00  0.00    -0.385 OA
HETATM   43  C1  UNL     1      -3.400  53.057 -10.211  1.00  0.00     0.202 C 
ENDBRANCH   1  42
TORSDOF 6
ENDMDL
MODEL 9
REMARK minimizedAffinity -6.70818424
REMARK CNNscore 0.460208505
REMARK CNNaffinity 6.26339102
REMARK  6 active torsions:
REMARK  status: ('A' for Active; 'I' for Inactive)
REMARK    1  A    between atoms: O1_2  and  C2_3 
REMARK    2  A    between atoms: C17_20  and  C18_21 
REMARK    3  A    between atoms: C22_27  and  O6_28 
REMARK    4  A    between atoms: O6_28  and  C23_29 
REMARK    5  A    between atoms: C26_33  and  O8_34 
REMARK    6  A    between atoms: C31_40  and  O10_41 
ROOT
HETATM    1  C2  UNL     1       7.142  55.674  -5.464  1.00  0.00     0.190 C 
HETATM    2  C3  UNL     1       7.277  56.561  -4.218  1.00  0.00     0.064 C 
HETATM    3  C4  UNL     1       5.987  56.583  -3.401  1.00  0.00     0.174 C 
HETATM    4  O2  UNL     1       4.858  56.955  -4.197  1.00  0.00    -0.356 OA
HETATM    5  C5  UNL     1       4.659  56.025  -5.267  1.00  0.00     0.325 C 
HETATM    6  O3  UNL     1       3.441  56.364  -5.966  1.00  0.00    -0.344 OA
HETATM    7  C6  UNL     1       3.272  55.425  -7.037  1.00  0.00     0.177 C 
HETATM    8  C7  UNL     1       1.951  55.626  -7.702  1.00  0.00     0.011 C 
HETATM    9  C8  UNL     1       1.753  55.473  -9.030  1.00  0.00    -0.072 C 
HETATM   10  C9  UNL     1       0.374  55.676  -9.605  1.00  0.00     0.035 C 
HETATM   11  C10 UNL     1      -0.021  54.618 -10.634  1.00  0.00     0.012 C 
HETATM   12  C11 UNL     1       0.932  53.412 -10.662  1.00  0.00     0.026 C 
HETATM   13  C12 UNL     1       2.376  53.914 -10.997  1.00  0.00     0.005 C 
HETATM   14  C13 UNL     1       3.374  52.742 -11.219  1.00  0.00     0.007 C 
HETATM   15  C14 UNL     1       2.856  51.632 -12.151  1.00  0.00     0.013 C 
HETATM   16  C15 UNL     1       1.469  51.132 -11.704  1.00  0.00    -0.003 C 
HETATM   17  C16 UNL     1       1.605  50.407 -10.334  1.00  0.00     0.019 C 
HETATM   18  C17 UNL     1       0.734  50.217 -12.727  1.00  0.00     0.058 C 
HETATM   19  C22 UNL     1      -0.761  50.351 -12.288  1.00  0.00     0.143 C 
HETATM   20  C25 UNL     1      -0.876  51.693 -11.514  1.00  0.00     0.072 C 
HETATM   21  C26 UNL     1       0.496  52.343 -11.684  1.00  0.00     0.072 C 
HETATM   22  C27 UNL     1       2.871  55.058 -10.008  1.00  0.00    -0.014 C 
HETATM   23  C28 UNL     1       3.209  56.302 -10.876  1.00  0.00     0.020 C 
HETATM   24  C29 UNL     1       4.169  54.666  -9.229  1.00  0.00     0.049 C 
HETATM   25  C30 UNL     1       4.427  55.586  -8.038  1.00  0.00     0.159 C 
HETATM   26  O9  UNL     1       5.674  55.252  -7.403  1.00  0.00    -0.341 OA
HETATM   27  C31 UNL     1       5.877  56.095  -6.253  1.00  0.00     0.240 C 
ENDROOT
BRANCH  18  28
HETATM   28  C18 UNL     1       1.261  48.815 -12.873  1.00  0.00    -0.043 A 
HETATM   29  C19 UNL     1       2.346  48.456 -13.561  1.00  0.00     0.087 A 
HETATM   30  C20 UNL     1       2.483  47.006 -13.425  1.00  0.00     0.283 A 
HETATM   31  O4  UNL     1       3.390  46.352 -13.901  1.00  0.00    -0.260 OA
HETATM   32  O5  UNL     1       1.450  46.527 -12.680  1.00  0.00    -0.314 OA
HETATM   33  C21 UNL     1       0.609  47.614 -12.295  1.00  0.00     0.214 A 
ENDBRANCH  18  28
BRANCH  19  34
HETATM   34  O6  UNL     1      -1.597  50.369 -13.456  1.00  0.00    -0.316 OA
BRANCH  34  35
HETATM   35  C23 UNL     1      -2.912  50.621 -13.229  1.00  0.00     0.255 C 
HETATM   36  C24 UNL     1      -3.356  51.804 -14.036  1.00  0.00     0.126 C 
HETATM   37  O7  UNL     1      -3.635  49.994 -12.466  1.00  0.00    -0.266 OA
ENDBRANCH  34  35
ENDBRANCH  19  34
BRANCH  21  38
HETATM   38  O8  UNL     1       0.500  52.954 -12.992  1.00  0.00    -0.389 OA
HETATM   39  H35 UNL     1      -0.267  53.548 -13.063  1.00  0.00     0.210 HD
ENDBRANCH  21  38
BRANCH  27  40
HETATM   40  O10 UNL     1       6.074  57.446  -6.706  1.00  0.00    -0.360 OA
HETATM   41  H42 UNL     1       5.261  57.923  -6.448  1.00  0.00     0.213 HD
ENDBRANCH  27  40
BRANCH   1  42
HETATM   42  O1  UNL     1       7.072  54.314  -4.997  1.00  0.00    -0.385 OA
HETATM   43  C1  UNL     1       8.348  53.787  -4.646  1.00  0.00     0.202 C 
ENDBRANCH   1  42
TORSDOF 6
ENDMDL
