MODEL 1
REMARK minimizedAffinity -9.8660326
REMARK CNNscore 0.780357361
REMARK CNNaffinity 7.60906792
REMARK  5 active torsions:
REMARK  status: ('A' for Active; 'I' for Inactive)
REMARK    1  A    between atoms: C2_2  and  C3_3 
REMARK    2  A    between atoms: C2_2  and  C25_27 
REMARK    3  A    between atoms: C3_3  and  C4_4 
REMARK    4  A    between atoms: C4_4  and  C5_5 
REMARK    5  A    between atoms: C15_15  and  O1_16 
ROOT
HETATM    1  C5  UNL     1      -0.868   6.871  11.895  1.00  0.00    -0.023 C 
HETATM    2  C6  UNL     1      -1.874   6.140  12.404  1.00  0.00    -0.075 C 
HETATM    3  C7  UNL     1      -2.132   4.672  12.111  1.00  0.00     0.035 C 
HETATM    4  C8  UNL     1      -3.487   4.371  12.767  1.00  0.00     0.013 C 
HETATM    5  C9  UNL     1      -4.131   5.751  12.854  1.00  0.00     0.033 C 
HETATM    6  C10 UNL     1      -5.435   5.918  13.635  1.00  0.00     0.070 C 
HETATM    7  C11 UNL     1      -6.557   5.040  13.022  1.00  0.00     0.039 C 
HETATM    8  C12 UNL     1      -7.876   5.139  13.793  1.00  0.00     0.009 C 
HETATM    9  C13 UNL     1      -8.175   6.591  14.180  1.00  0.00    -0.001 C 
HETATM   10  C14 UNL     1      -9.393   6.711  15.096  1.00  0.00     0.037 C 
HETATM   11  C15 UNL     1      -9.824   8.176  15.235  1.00  0.00     0.118 C 
HETATM   12  C16 UNL     1      -8.682   9.175  15.015  1.00  0.00     0.032 C 
HETATM   13  C17 UNL     1      -7.344   8.625  15.507  1.00  0.00     0.015 C 
HETATM   14  C18 UNL     1      -6.928   7.311  14.803  1.00  0.00    -0.009 C 
HETATM   15  C19 UNL     1      -6.168   6.395  15.791  1.00  0.00     0.179 C 
HETATM   16  O2  UNL     1      -5.317   5.529  15.013  1.00  0.00    -0.379 OA
HETATM   17  C20 UNL     1      -5.872   7.403  13.679  1.00  0.00     0.032 C 
HETATM   18  C21 UNL     1      -4.716   8.398  13.946  1.00  0.00     0.009 C 
HETATM   19  C22 UNL     1      -3.441   8.112  13.138  1.00  0.00     0.014 C 
HETATM   20  C23 UNL     1      -2.975   6.658  13.324  1.00  0.00    -0.014 C 
HETATM   21  C24 UNL     1      -2.471   6.442  14.769  1.00  0.00     0.020 C 
ENDROOT
BRANCH   1  22
HETATM   22  C4  UNL     1       0.210   6.369  10.969  1.00  0.00     0.031 C 
BRANCH  22  23
HETATM   23  C3  UNL     1       1.125   7.511  10.514  1.00  0.00     0.037 C 
BRANCH  23  24
HETATM   24  C2  UNL     1       1.055   7.810   9.025  1.00  0.00    -0.086 C 
HETATM   25  C1  UNL     1      -0.046   8.391   8.512  1.00  0.00     0.014 C 
BRANCH  24  26
HETATM   26  C25 UNL     1       2.198   7.404   8.100  1.00  0.00     0.005 C 
HETATM   27  C26 UNL     1       2.920   6.146   8.591  1.00  0.00     0.014 C 
HETATM   28  C27 UNL     1       1.785   7.257   6.635  1.00  0.00     0.014 C 
ENDBRANCH  24  26
ENDBRANCH  23  24
ENDBRANCH  22  23
ENDBRANCH   1  22
BRANCH  11  29
HETATM   29  O1  UNL     1     -10.402   8.371  16.523  1.00  0.00    -0.396 OA
HETATM   30  H21 UNL     1      -9.713   8.228  17.192  1.00  0.00     0.210 HD
ENDBRANCH  11  29
TORSDOF 5
ENDMDL
MODEL 2
REMARK minimizedAffinity -6.87738609
REMARK CNNscore 0.698918104
REMARK CNNaffinity 6.53620768
REMARK  5 active torsions:
REMARK  status: ('A' for Active; 'I' for Inactive)
REMARK    1  A    between atoms: C2_2  and  C3_3 
REMARK    2  A    between atoms: C2_2  and  C25_27 
REMARK    3  A    between atoms: C3_3  and  C4_4 
REMARK    4  A    between atoms: C4_4  and  C5_5 
REMARK    5  A    between atoms: C15_15  and  O1_16 
ROOT
HETATM    1  C5  UNL     1     -12.750 -12.898  26.021  1.00  0.00    -0.023 C 
HETATM    2  C6  UNL     1     -13.483 -11.775  26.122  1.00  0.00    -0.075 C 
HETATM    3  C7  UNL     1     -14.326 -11.172  25.011  1.00  0.00     0.035 C 
HETATM    4  C8  UNL     1     -14.792  -9.816  25.562  1.00  0.00     0.013 C 
HETATM    5  C9  UNL     1     -13.749  -9.513  26.631  1.00  0.00     0.033 C 
HETATM    6  C10 UNL     1     -13.962  -8.321  27.565  1.00  0.00     0.070 C 
HETATM    7  C11 UNL     1     -14.038  -6.999  26.757  1.00  0.00     0.039 C 
HETATM    8  C12 UNL     1     -14.292  -5.776  27.643  1.00  0.00     0.009 C 
HETATM    9  C13 UNL     1     -13.444  -5.838  28.917  1.00  0.00    -0.001 C 
HETATM   10  C14 UNL     1     -13.794  -4.725  29.904  1.00  0.00     0.037 C 
HETATM   11  C15 UNL     1     -12.753  -4.650  31.028  1.00  0.00     0.118 C 
HETATM   12  C16 UNL     1     -12.036  -5.980  31.289  1.00  0.00     0.032 C 
HETATM   13  C17 UNL     1     -12.956  -7.177  31.051  1.00  0.00     0.015 C 
HETATM   14  C18 UNL     1     -13.508  -7.245  29.607  1.00  0.00    -0.009 C 
HETATM   15  C19 UNL     1     -14.945  -7.819  29.614  1.00  0.00     0.179 C 
HETATM   16  O2  UNL     1     -15.181  -8.410  28.320  1.00  0.00    -0.379 OA
HETATM   17  C20 UNL     1     -12.841  -8.240  28.631  1.00  0.00     0.032 C 
HETATM   18  C21 UNL     1     -12.454  -9.606  29.250  1.00  0.00     0.009 C 
HETATM   19  C22 UNL     1     -12.306 -10.741  28.226  1.00  0.00     0.014 C 
HETATM   20  C23 UNL     1     -13.560 -10.868  27.345  1.00  0.00    -0.014 C 
HETATM   21  C24 UNL     1     -14.752 -11.375  28.188  1.00  0.00     0.020 C 
ENDROOT
BRANCH   1  22
HETATM   22  C4  UNL     1     -12.653 -13.785  24.808  1.00  0.00     0.031 C 
BRANCH  22  23
HETATM   23  C3  UNL     1     -11.201 -14.183  24.527  1.00  0.00     0.037 C 
BRANCH  23  24
HETATM   24  C2  UNL     1     -10.299 -13.020  24.143  1.00  0.00    -0.086 C 
HETATM   25  C1  UNL     1     -10.664 -12.194  23.145  1.00  0.00     0.014 C 
BRANCH  24  26
HETATM   26  C25 UNL     1      -8.958 -12.818  24.842  1.00  0.00     0.005 C 
HETATM   27  C26 UNL     1      -8.223 -11.575  24.335  1.00  0.00     0.014 C 
HETATM   28  C27 UNL     1      -9.053 -12.809  26.369  1.00  0.00     0.014 C 
ENDBRANCH  24  26
ENDBRANCH  23  24
ENDBRANCH  22  23
ENDBRANCH   1  22
BRANCH  11  29
HETATM   29  O1  UNL     1     -13.386  -4.194  32.220  1.00  0.00    -0.396 OA
HETATM   30  H21 UNL     1     -14.034  -4.863  32.497  1.00  0.00     0.210 HD
ENDBRANCH  11  29
TORSDOF 5
ENDMDL
MODEL 3
REMARK minimizedAffinity -6.63875771
REMARK CNNscore 0.679747939
REMARK CNNaffinity 6.47215271
REMARK  5 active torsions:
REMARK  status: ('A' for Active; 'I' for Inactive)
REMARK    1  A    between atoms: C2_2  and  C3_3 
REMARK    2  A    between atoms: C2_2  and  C25_27 
REMARK    3  A    between atoms: C3_3  and  C4_4 
REMARK    4  A    between atoms: C4_4  and  C5_5 
REMARK    5  A    between atoms: C15_15  and  O1_16 
ROOT
HETATM    1  C5  UNL     1     -11.502 -11.914  27.391  1.00  0.00    -0.023 C 
HETATM    2  C6  UNL     1     -12.580 -11.153  27.138  1.00  0.00    -0.075 C 
HETATM    3  C7  UNL     1     -13.339 -11.110  25.823  1.00  0.00     0.035 C 
HETATM    4  C8  UNL     1     -14.344  -9.960  25.984  1.00  0.00     0.013 C 
HETATM    5  C9  UNL     1     -13.705  -9.109  27.076  1.00  0.00     0.033 C 
HETATM    6  C10 UNL     1     -14.498  -7.947  27.676  1.00  0.00     0.070 C 
HETATM    7  C11 UNL     1     -14.861  -6.909  26.582  1.00  0.00     0.039 C 
HETATM    8  C12 UNL     1     -15.692  -5.743  27.123  1.00  0.00     0.009 C 
HETATM    9  C13 UNL     1     -15.148  -5.263  28.472  1.00  0.00    -0.001 C 
HETATM   10  C14 UNL     1     -16.050  -4.216  29.126  1.00  0.00     0.037 C 
HETATM   11  C15 UNL     1     -15.345  -3.564  30.322  1.00  0.00     0.118 C 
HETATM   12  C16 UNL     1     -14.282  -4.460  30.969  1.00  0.00     0.032 C 
HETATM   13  C17 UNL     1     -14.666  -5.937  30.902  1.00  0.00     0.015 C 
HETATM   14  C18 UNL     1     -14.860  -6.452  29.455  1.00  0.00    -0.009 C 
HETATM   15  C19 UNL     1     -15.982  -7.516  29.415  1.00  0.00     0.179 C 
HETATM   16  O2  UNL     1     -15.736  -8.362  28.274  1.00  0.00    -0.379 OA
HETATM   17  C20 UNL     1     -13.711  -7.269  28.825  1.00  0.00     0.032 C 
HETATM   18  C21 UNL     1     -13.009  -8.261  29.785  1.00  0.00     0.009 C 
HETATM   19  C22 UNL     1     -12.278  -9.411  29.077  1.00  0.00     0.014 C 
HETATM   20  C23 UNL     1     -13.208 -10.150  28.101  1.00  0.00    -0.014 C 
HETATM   21  C24 UNL     1     -14.296 -10.921  28.883  1.00  0.00     0.020 C 
ENDROOT
BRANCH   1  22
HETATM   22  C4  UNL     1     -10.865 -12.890  26.437  1.00  0.00     0.031 C 
BRANCH  22  23
HETATM   23  C3  UNL     1      -9.339 -12.753  26.440  1.00  0.00     0.037 C 
BRANCH  23  24
HETATM   24  C2  UNL     1      -8.600 -14.003  25.991  1.00  0.00    -0.086 C 
HETATM   25  C1  UNL     1      -8.486 -14.275  24.677  1.00  0.00     0.014 C 
BRANCH  24  26
HETATM   26  C25 UNL     1      -8.037 -14.980  27.019  1.00  0.00     0.005 C 
HETATM   27  C26 UNL     1      -9.029 -15.266  28.148  1.00  0.00     0.014 C 
HETATM   28  C27 UNL     1      -7.515 -16.283  26.410  1.00  0.00     0.014 C 
ENDBRANCH  24  26
ENDBRANCH  23  24
ENDBRANCH  22  23
ENDBRANCH   1  22
BRANCH  11  29
HETATM   29  O1  UNL     1     -16.321  -3.187  31.289  1.00  0.00    -0.396 OA
HETATM   30  H21 UNL     1     -16.741  -3.995  31.630  1.00  0.00     0.210 HD
ENDBRANCH  11  29
TORSDOF 5
ENDMDL
MODEL 4
REMARK minimizedAffinity -9.48652554
REMARK CNNscore 0.669265747
REMARK CNNaffinity 7.20424318
REMARK  5 active torsions:
REMARK  status: ('A' for Active; 'I' for Inactive)
REMARK    1  A    between atoms: C2_2  and  C3_3 
REMARK    2  A    between atoms: C2_2  and  C25_27 
REMARK    3  A    between atoms: C3_3  and  C4_4 
REMARK    4  A    between atoms: C4_4  and  C5_5 
REMARK    5  A    between atoms: C15_15  and  O1_16 
ROOT
HETATM    1  C5  UNL     1       0.090   8.400  11.680  1.00  0.00    -0.023 C 
HETATM    2  C6  UNL     1      -0.658   7.413  12.203  1.00  0.00    -0.075 C 
HETATM    3  C7  UNL     1      -0.472   5.930  11.934  1.00  0.00     0.035 C 
HETATM    4  C8  UNL     1      -1.680   5.253  12.598  1.00  0.00     0.013 C 
HETATM    5  C9  UNL     1      -2.701   6.383  12.664  1.00  0.00     0.033 C 
HETATM    6  C10 UNL     1      -3.999   6.171  13.444  1.00  0.00     0.070 C 
HETATM    7  C11 UNL     1      -4.811   4.992  12.848  1.00  0.00     0.039 C 
HETATM    8  C12 UNL     1      -6.103   4.710  13.620  1.00  0.00     0.009 C 
HETATM    9  C13 UNL     1      -6.818   6.015  13.984  1.00  0.00    -0.001 C 
HETATM   10  C14 UNL     1      -8.019   5.785  14.900  1.00  0.00     0.037 C 
HETATM   11  C15 UNL     1      -8.864   7.061  15.017  1.00  0.00     0.118 C 
HETATM   12  C16 UNL     1      -8.065   8.348  14.779  1.00  0.00     0.032 C 
HETATM   13  C17 UNL     1      -6.626   8.225  15.276  1.00  0.00     0.015 C 
HETATM   14  C18 UNL     1      -5.840   7.081  14.593  1.00  0.00    -0.009 C 
HETATM   15  C19 UNL     1      -4.847   6.445  15.594  1.00  0.00     0.179 C 
HETATM   16  O2  UNL     1      -3.776   5.856  14.829  1.00  0.00    -0.379 OA
HETATM   17  C20 UNL     1      -4.854   7.462  13.466  1.00  0.00     0.032 C 
HETATM   18  C21 UNL     1      -4.043   8.757  13.715  1.00  0.00     0.009 C 
HETATM   19  C22 UNL     1      -2.739   8.847  12.909  1.00  0.00     0.014 C 
HETATM   20  C23 UNL     1      -1.865   7.599  13.117  1.00  0.00    -0.014 C 
HETATM   21  C24 UNL     1      -1.325   7.563  14.564  1.00  0.00     0.020 C 
ENDROOT
BRANCH   1  22
HETATM   22  C4  UNL     1       1.269   8.223  10.760  1.00  0.00     0.031 C 
BRANCH  22  23
HETATM   23  C3  UNL     1       0.942   7.255   9.619  1.00  0.00     0.037 C 
BRANCH  23  24
HETATM   24  C2  UNL     1       2.162   6.725   8.882  1.00  0.00    -0.086 C 
HETATM   25  C1  UNL     1       2.876   5.715   9.413  1.00  0.00     0.014 C 
BRANCH  24  26
HETATM   26  C25 UNL     1       2.614   7.369   7.575  1.00  0.00     0.005 C 
HETATM   27  C26 UNL     1       1.540   7.287   6.487  1.00  0.00     0.014 C 
HETATM   28  C27 UNL     1       3.117   8.805   7.735  1.00  0.00     0.014 C 
ENDBRANCH  24  26
ENDBRANCH  23  24
ENDBRANCH  22  23
ENDBRANCH   1  22
BRANCH  11  29
HETATM   29  O1  UNL     1      -9.477   7.097  16.303  1.00  0.00    -0.396 OA
HETATM   30  H21 UNL     1      -8.777   7.174  16.973  1.00  0.00     0.210 HD
ENDBRANCH  11  29
TORSDOF 5
ENDMDL
MODEL 5
REMARK minimizedAffinity -8.38324261
REMARK CNNscore 0.614612877
REMARK CNNaffinity 6.87530184
REMARK  5 active torsions:
REMARK  status: ('A' for Active; 'I' for Inactive)
REMARK    1  A    between atoms: C2_2  and  C3_3 
REMARK    2  A    between atoms: C2_2  and  C25_27 
REMARK    3  A    between atoms: C3_3  and  C4_4 
REMARK    4  A    between atoms: C4_4  and  C5_5 
REMARK    5  A    between atoms: C15_15  and  O1_16 
ROOT
HETATM    1  C5  UNL     1      -6.839   5.839  15.037  1.00  0.00    -0.023 C 
HETATM    2  C6  UNL     1      -5.824   6.699  14.854  1.00  0.00    -0.075 C 
HETATM    3  C7  UNL     1      -5.944   8.214  14.845  1.00  0.00     0.035 C 
HETATM    4  C8  UNL     1      -4.561   8.717  14.407  1.00  0.00     0.013 C 
HETATM    5  C9  UNL     1      -3.987   7.514  13.667  1.00  0.00     0.033 C 
HETATM    6  C10 UNL     1      -2.522   7.537  13.229  1.00  0.00     0.070 C 
HETATM    7  C11 UNL     1      -2.260   8.714  12.253  1.00  0.00     0.039 C 
HETATM    8  C12 UNL     1      -0.795   8.807  11.816  1.00  0.00     0.009 C 
HETATM    9  C13 UNL     1      -0.230   7.419  11.499  1.00  0.00    -0.001 C 
HETATM   10  C14 UNL     1       1.273   7.451  11.224  1.00  0.00     0.037 C 
HETATM   11  C15 UNL     1       1.747   6.111  10.647  1.00  0.00     0.118 C 
HETATM   12  C16 UNL     1       0.866   4.923  11.051  1.00  0.00     0.032 C 
HETATM   13  C17 UNL     1       0.291   5.095  12.457  1.00  0.00     0.015 C 
HETATM   14  C18 UNL     1      -0.578   6.366  12.609  1.00  0.00    -0.009 C 
HETATM   15  C19 UNL     1      -0.417   6.954  14.031  1.00  0.00     0.179 C 
HETATM   16  O2  UNL     1      -1.611   7.705  14.328  1.00  0.00    -0.379 OA
HETATM   17  C20 UNL     1      -2.113   6.192  12.579  1.00  0.00     0.032 C 
HETATM   18  C21 UNL     1      -2.645   4.941  13.319  1.00  0.00     0.009 C 
HETATM   19  C22 UNL     1      -4.117   5.043  13.747  1.00  0.00     0.014 C 
HETATM   20  C23 UNL     1      -4.375   6.320  14.564  1.00  0.00    -0.014 C 
HETATM   21  C24 UNL     1      -3.667   6.228  15.934  1.00  0.00     0.020 C 
ENDROOT
BRANCH   1  22
HETATM   22  C4  UNL     1      -8.275   6.208  15.303  1.00  0.00     0.031 C 
BRANCH  22  23
HETATM   23  C3  UNL     1      -8.990   6.618  14.011  1.00  0.00     0.037 C 
BRANCH  23  24
HETATM   24  C2  UNL     1     -10.286   7.381  14.231  1.00  0.00    -0.086 C 
HETATM   25  C1  UNL     1     -10.434   8.143  15.331  1.00  0.00     0.014 C 
BRANCH  24  26
HETATM   26  C25 UNL     1     -11.442   7.243  13.244  1.00  0.00     0.005 C 
HETATM   27  C26 UNL     1     -12.703   6.682  13.905  1.00  0.00     0.014 C 
HETATM   28  C27 UNL     1     -11.756   8.529  12.477  1.00  0.00     0.014 C 
ENDBRANCH  24  26
ENDBRANCH  23  24
ENDBRANCH  22  23
ENDBRANCH   1  22
BRANCH  11  29
HETATM   29  O1  UNL     1       3.094   5.881  11.050  1.00  0.00    -0.396 OA
HETATM   30  H21 UNL     1       3.111   5.779  12.016  1.00  0.00     0.210 HD
ENDBRANCH  11  29
TORSDOF 5
ENDMDL
MODEL 6
REMARK minimizedAffinity -7.46284008
REMARK CNNscore 0.606960237
REMARK CNNaffinity 6.6657939
REMARK  5 active torsions:
REMARK  status: ('A' for Active; 'I' for Inactive)
REMARK    1  A    between atoms: C2_2  and  C3_3 
REMARK    2  A    between atoms: C2_2  and  C25_27 
REMARK    3  A    between atoms: C3_3  and  C4_4 
REMARK    4  A    between atoms: C4_4  and  C5_5 
REMARK    5  A    between atoms: C15_15  and  O1_16 
ROOT
HETATM    1  C5  UNL     1     -13.426   5.495  24.257  1.00  0.00    -0.023 C 
HETATM    2  C6  UNL     1     -13.475   6.507  23.374  1.00  0.00    -0.075 C 
HETATM    3  C7  UNL     1     -14.033   6.418  21.964  1.00  0.00     0.035 C 
HETATM    4  C8  UNL     1     -13.682   7.764  21.314  1.00  0.00     0.013 C 
HETATM    5  C9  UNL     1     -12.502   8.242  22.153  1.00  0.00     0.033 C 
HETATM    6  C10 UNL     1     -11.967   9.660  21.950  1.00  0.00     0.070 C 
HETATM    7  C11 UNL     1     -11.470   9.855  20.493  1.00  0.00     0.039 C 
HETATM    8  C12 UNL     1     -10.961  11.273  20.225  1.00  0.00     0.009 C 
HETATM    9  C13 UNL     1     -10.106  11.778  21.392  1.00  0.00    -0.001 C 
HETATM   10  C14 UNL     1      -9.721  13.249  21.239  1.00  0.00     0.037 C 
HETATM   11  C15 UNL     1      -8.651  13.639  22.266  1.00  0.00     0.118 C 
HETATM   12  C16 UNL     1      -8.674  12.775  23.533  1.00  0.00     0.032 C 
HETATM   13  C17 UNL     1     -10.092  12.338  23.896  1.00  0.00     0.015 C 
HETATM   14  C18 UNL     1     -10.781  11.513  22.783  1.00  0.00    -0.009 C 
HETATM   15  C19 UNL     1     -12.297  11.818  22.755  1.00  0.00     0.179 C 
HETATM   16  O2  UNL     1     -12.959  10.673  22.183  1.00  0.00    -0.379 OA
HETATM   17  C20 UNL     1     -10.834   9.979  22.956  1.00  0.00     0.032 C 
HETATM   18  C21 UNL     1     -11.111   9.492  24.400  1.00  0.00     0.009 C 
HETATM   19  C22 UNL     1     -11.683   8.069  24.484  1.00  0.00     0.014 C 
HETATM   20  C23 UNL     1     -12.931   7.914  23.599  1.00  0.00    -0.014 C 
HETATM   21  C24 UNL     1     -14.100   8.745  24.176  1.00  0.00     0.020 C 
ENDROOT
BRANCH   1  22
HETATM   22  C4  UNL     1     -13.942   4.098  24.032  1.00  0.00     0.031 C 
BRANCH  22  23
HETATM   23  C3  UNL     1     -12.796   3.123  23.744  1.00  0.00     0.037 C 
BRANCH  23  24
HETATM   24  C2  UNL     1     -12.419   2.240  24.922  1.00  0.00    -0.086 C 
HETATM   25  C1  UNL     1     -11.387   1.382  24.810  1.00  0.00     0.014 C 
BRANCH  24  26
HETATM   26  C25 UNL     1     -13.237   2.276  26.209  1.00  0.00     0.005 C 
HETATM   27  C26 UNL     1     -14.444   1.336  26.154  1.00  0.00     0.014 C 
HETATM   28  C27 UNL     1     -12.411   2.027  27.473  1.00  0.00     0.014 C 
ENDBRANCH  24  26
ENDBRANCH  23  24
ENDBRANCH  22  23
ENDBRANCH   1  22
BRANCH  11  29
HETATM   29  O1  UNL     1      -8.813  15.013  22.608  1.00  0.00    -0.396 OA
HETATM   30  H21 UNL     1      -9.669  15.117  23.057  1.00  0.00     0.210 HD
ENDBRANCH  11  29
TORSDOF 5
ENDMDL
MODEL 7
REMARK minimizedAffinity -6.23739386
REMARK CNNscore 0.520920455
REMARK CNNaffinity 6.20178604
REMARK  5 active torsions:
REMARK  status: ('A' for Active; 'I' for Inactive)
REMARK    1  A    between atoms: C2_2  and  C3_3 
REMARK    2  A    between atoms: C2_2  and  C25_27 
REMARK    3  A    between atoms: C3_3  and  C4_4 
REMARK    4  A    between atoms: C4_4  and  C5_5 
REMARK    5  A    between atoms: C15_15  and  O1_16 
ROOT
HETATM    1  C5  UNL     1     -13.467   6.736  23.993  1.00  0.00    -0.023 C 
HETATM    2  C6  UNL     1     -13.395   8.007  24.423  1.00  0.00    -0.075 C 
HETATM    3  C7  UNL     1     -14.443   8.711  25.269  1.00  0.00     0.035 C 
HETATM    4  C8  UNL     1     -13.990  10.177  25.320  1.00  0.00     0.013 C 
HETATM    5  C9  UNL     1     -13.111  10.298  24.080  1.00  0.00     0.033 C 
HETATM    6  C10 UNL     1     -12.296  11.574  23.865  1.00  0.00     0.070 C 
HETATM    7  C11 UNL     1     -13.229  12.809  23.762  1.00  0.00     0.039 C 
HETATM    8  C12 UNL     1     -12.459  14.121  23.586  1.00  0.00     0.009 C 
HETATM    9  C13 UNL     1     -11.312  13.952  22.586  1.00  0.00    -0.001 C 
HETATM   10  C14 UNL     1     -10.417  15.189  22.512  1.00  0.00     0.037 C 
HETATM   11  C15 UNL     1      -9.458  15.094  21.318  1.00  0.00     0.118 C 
HETATM   12  C16 UNL     1      -9.149  13.654  20.893  1.00  0.00     0.032 C 
HETATM   13  C17 UNL     1      -9.126  12.702  22.089  1.00  0.00     0.015 C 
HETATM   14  C18 UNL     1     -10.466  12.660  22.861  1.00  0.00    -0.009 C 
HETATM   15  C19 UNL     1     -10.203  12.455  24.372  1.00  0.00     0.179 C 
HETATM   16  O2  UNL     1     -11.379  11.842  24.938  1.00  0.00    -0.379 OA
HETATM   17  C20 UNL     1     -11.405  11.461  22.603  1.00  0.00     0.032 C 
HETATM   18  C21 UNL     1     -10.695  10.094  22.447  1.00  0.00     0.009 C 
HETATM   19  C22 UNL     1     -11.597   8.882  22.725  1.00  0.00     0.014 C 
HETATM   20  C23 UNL     1     -12.281   8.997  24.098  1.00  0.00    -0.014 C 
HETATM   21  C24 UNL     1     -11.235   8.861  25.227  1.00  0.00     0.020 C 
ENDROOT
BRANCH   1  22
HETATM   22  C4  UNL     1     -14.575   5.761  24.294  1.00  0.00     0.031 C 
BRANCH  22  23
HETATM   23  C3  UNL     1     -14.067   4.588  25.139  1.00  0.00     0.037 C 
BRANCH  23  24
HETATM   24  C2  UNL     1     -13.679   3.361  24.331  1.00  0.00    -0.086 C 
HETATM   25  C1  UNL     1     -14.088   3.245  23.053  1.00  0.00     0.014 C 
BRANCH  24  26
HETATM   26  C25 UNL     1     -12.878   2.233  24.975  1.00  0.00     0.005 C 
HETATM   27  C26 UNL     1     -11.471   2.113  24.385  1.00  0.00     0.014 C 
HETATM   28  C27 UNL     1     -12.823   2.309  26.502  1.00  0.00     0.014 C 
ENDBRANCH  24  26
ENDBRANCH  23  24
ENDBRANCH  22  23
ENDBRANCH   1  22
BRANCH  11  29
HETATM   29  O1  UNL     1      -8.251  15.781  21.634  1.00  0.00    -0.396 OA
HETATM   30  H21 UNL     1      -7.816  15.313  22.366  1.00  0.00     0.210 HD
ENDBRANCH  11  29
TORSDOF 5
ENDMDL
MODEL 8
REMARK minimizedAffinity -8.94671917
REMARK CNNscore 0.516145229
REMARK CNNaffinity 6.72163773
REMARK  5 active torsions:
REMARK  status: ('A' for Active; 'I' for Inactive)
REMARK    1  A    between atoms: C2_2  and  C3_3 
REMARK    2  A    between atoms: C2_2  and  C25_27 
REMARK    3  A    between atoms: C3_3  and  C4_4 
REMARK    4  A    between atoms: C4_4  and  C5_5 
REMARK    5  A    between atoms: C15_15  and  O1_16 
ROOT
HETATM    1  C5  UNL     1       2.044   7.724  10.958  1.00  0.00    -0.023 C 
HETATM    2  C6  UNL     1       1.231   6.786  11.474  1.00  0.00    -0.075 C 
HETATM    3  C7  UNL     1       1.271   5.305  11.137  1.00  0.00     0.035 C 
HETATM    4  C8  UNL     1       0.035   4.710  11.827  1.00  0.00     0.013 C 
HETATM    5  C9  UNL     1      -0.877   5.923  11.983  1.00  0.00     0.033 C 
HETATM    6  C10 UNL     1      -2.155   5.793  12.812  1.00  0.00     0.070 C 
HETATM    7  C11 UNL     1      -3.094   4.718  12.206  1.00  0.00     0.039 C 
HETATM    8  C12 UNL     1      -4.374   4.519  13.022  1.00  0.00     0.009 C 
HETATM    9  C13 UNL     1      -4.952   5.866  13.470  1.00  0.00    -0.001 C 
HETATM   10  C14 UNL     1      -6.131   5.704  14.429  1.00  0.00     0.037 C 
HETATM   11  C15 UNL     1      -6.851   7.043  14.634  1.00  0.00     0.118 C 
HETATM   12  C16 UNL     1      -5.949   8.264  14.412  1.00  0.00     0.032 C 
HETATM   13  C17 UNL     1      -4.508   7.990  14.840  1.00  0.00     0.015 C 
HETATM   14  C18 UNL     1      -3.857   6.812  14.077  1.00  0.00    -0.009 C 
HETATM   15  C19 UNL     1      -2.886   6.047  15.007  1.00  0.00     0.179 C 
HETATM   16  O2  UNL     1      -1.906   5.400  14.171  1.00  0.00    -0.379 OA
HETATM   17  C20 UNL     1      -2.888   7.153  12.923  1.00  0.00     0.032 C 
HETATM   18  C21 UNL     1      -1.954   8.359  13.187  1.00  0.00     0.009 C 
HETATM   19  C22 UNL     1      -0.680   8.367  12.328  1.00  0.00     0.014 C 
HETATM   20  C23 UNL     1       0.084   7.038  12.447  1.00  0.00    -0.014 C 
HETATM   21  C24 UNL     1       0.678   6.891  13.867  1.00  0.00     0.020 C 
ENDROOT
BRANCH   1  22
HETATM   22  C4  UNL     1       3.164   7.484   9.980  1.00  0.00     0.031 C 
BRANCH  22  23
HETATM   23  C3  UNL     1       3.428   5.986   9.797  1.00  0.00     0.037 C 
BRANCH  23  24
HETATM   24  C2  UNL     1       3.138   5.468   8.398  1.00  0.00    -0.086 C 
HETATM   25  C1  UNL     1       2.527   6.267   7.503  1.00  0.00     0.014 C 
BRANCH  24  26
HETATM   26  C25 UNL     1       3.482   4.030   8.019  1.00  0.00     0.005 C 
HETATM   27  C26 UNL     1       3.809   3.887   6.530  1.00  0.00     0.014 C 
HETATM   28  C27 UNL     1       4.585   3.412   8.880  1.00  0.00     0.014 C 
ENDBRANCH  24  26
ENDBRANCH  23  24
ENDBRANCH  22  23
ENDBRANCH   1  22
BRANCH  11  29
HETATM   29  O1  UNL     1      -7.405   7.078  15.946  1.00  0.00    -0.396 OA
HETATM   30  H21 UNL     1      -6.675   7.062  16.587  1.00  0.00     0.210 HD
ENDBRANCH  11  29
TORSDOF 5
ENDMDL
MODEL 9
REMARK minimizedAffinity -8.99095154
REMARK CNNscore 0.506017208
REMARK CNNaffinity 6.67908335
REMARK  5 active torsions:
REMARK  status: ('A' for Active; 'I' for Inactive)
REMARK    1  A    between atoms: C2_2  and  C3_3 
REMARK    2  A    between atoms: C2_2  and  C25_27 
REMARK    3  A    between atoms: C3_3  and  C4_4 
REMARK    4  A    between atoms: C4_4  and  C5_5 
REMARK    5  A    between atoms: C15_15  and  O1_16 
ROOT
HETATM    1  C5  UNL     1      -5.199   4.443  12.882  1.00  0.00    -0.023 C 
HETATM    2  C6  UNL     1      -4.266   5.380  13.118  1.00  0.00    -0.075 C 
HETATM    3  C7  UNL     1      -4.536   6.782  13.639  1.00  0.00     0.035 C 
HETATM    4  C8  UNL     1      -3.185   7.505  13.547  1.00  0.00     0.013 C 
HETATM    5  C9  UNL     1      -2.445   6.697  12.486  1.00  0.00     0.033 C 
HETATM    6  C10 UNL     1      -0.964   6.980  12.231  1.00  0.00     0.070 C 
HETATM    7  C11 UNL     1      -0.758   8.447  11.770  1.00  0.00     0.039 C 
HETATM    8  C12 UNL     1       0.716   8.794  11.540  1.00  0.00     0.009 C 
HETATM    9  C13 UNL     1       1.437   7.660  10.805  1.00  0.00    -0.001 C 
HETATM   10  C14 UNL     1       2.944   7.895  10.708  1.00  0.00     0.037 C 
HETATM   11  C15 UNL     1       3.588   6.894   9.740  1.00  0.00     0.118 C 
HETATM   12  C16 UNL     1       2.806   5.582   9.606  1.00  0.00     0.032 C 
HETATM   13  C17 UNL     1       2.125   5.190  10.917  1.00  0.00     0.015 C 
HETATM   14  C18 UNL     1       1.124   6.254  11.427  1.00  0.00    -0.009 C 
HETATM   15  C19 UNL     1       1.132   6.293  12.973  1.00  0.00     0.179 C 
HETATM   16  O2  UNL     1      -0.149   6.800  13.400  1.00  0.00    -0.379 OA
HETATM   17  C20 UNL     1      -0.380   5.996  11.186  1.00  0.00     0.032 C 
HETATM   18  C21 UNL     1      -0.832   4.527  11.375  1.00  0.00     0.009 C 
HETATM   19  C22 UNL     1      -2.331   4.363  11.666  1.00  0.00     0.014 C 
HETATM   20  C23 UNL     1      -2.770   5.234  12.855  1.00  0.00    -0.014 C 
HETATM   21  C24 UNL     1      -2.148   4.699  14.165  1.00  0.00     0.020 C 
ENDROOT
BRANCH   1  22
HETATM   22  C4  UNL     1      -6.679   4.589  13.120  1.00  0.00     0.031 C 
BRANCH  22  23
HETATM   23  C3  UNL     1      -7.053   6.048  13.405  1.00  0.00     0.037 C 
BRANCH  23  24
HETATM   24  C2  UNL     1      -7.803   6.255  14.711  1.00  0.00    -0.086 C 
HETATM   25  C1  UNL     1      -7.557   5.444  15.758  1.00  0.00     0.014 C 
BRANCH  24  26
HETATM   26  C25 UNL     1      -8.873   7.337  14.826  1.00  0.00     0.005 C 
HETATM   27  C26 UNL     1     -10.135   6.987  14.034  1.00  0.00     0.014 C 
HETATM   28  C27 UNL     1      -9.221   7.711  16.268  1.00  0.00     0.014 C 
ENDBRANCH  24  26
ENDBRANCH  23  24
ENDBRANCH  22  23
ENDBRANCH   1  22
BRANCH  11  29
HETATM   29  O1  UNL     1       4.921   6.627  10.164  1.00  0.00    -0.396 OA
HETATM   30  H21 UNL     1       4.884   6.182  11.027  1.00  0.00     0.210 HD
ENDBRANCH  11  29
TORSDOF 5
ENDMDL
