MODEL 1
REMARK minimizedAffinity -9.92428493
REMARK CNNscore 0.156074405
REMARK CNNaffinity 6.77373362
REMARK  13 active torsions:
REMARK  status: ('A' for Active; 'I' for Inactive)
REMARK    1  A    between atoms: C2_2  and  O1_3 
REMARK    2  A    between atoms: O1_3  and  C3_4 
REMARK       I    between atoms: C3_4  and  N1_6 
REMARK       I    between atoms: N2_9  and  C6_10 
REMARK    3  A    between atoms: C6_10  and  C7_12 
REMARK    4  A    between atoms: C7_12  and  C8_13 
REMARK    5  A    between atoms: C7_12  and  N5_24 
REMARK    6  A    between atoms: C8_13  and  C9_14 
REMARK    7  A    between atoms: C13_18  and  C14_19 
REMARK    8  A    between atoms: C14_19  and  N4_22 
REMARK    9  A    between atoms: N5_24  and  S1_25 
REMARK   10  A    between atoms: S1_25  and  C16_28 
REMARK   11  A    between atoms: C17_29  and  C18_30 
REMARK   12  A    between atoms: C22_34  and  C23_35 
REMARK   13  A    between atoms: C27_39  and  C28_40 
ROOT
HETATM    1  C7  UNL     1      -0.333   8.017  11.497  1.00  0.00     0.189 C 
ENDROOT
BRANCH   1   2
HETATM    2  C6  UNL     1      -0.826   9.093  12.485  1.00  0.00     0.243 C 
HETATM    3  N2  UNL     1      -0.146   9.299  13.683  1.00  0.00    -0.347 N 
HETATM    4  C5  UNL     1       1.152   8.703  14.026  1.00  0.00     0.146 C 
HETATM    5  C31 UNL     1      -0.462  10.531  14.416  1.00  0.00     0.146 C 
HETATM    6  C4  UNL     1       1.387   8.593  15.540  1.00  0.00     0.148 C 
HETATM    7  N1  UNL     1       1.057   9.821  16.252  1.00  0.00    -0.325 N 
HETATM    8  C3  UNL     1       1.685  10.061  17.463  1.00  0.00     0.362 C 
HETATM    9  C32 UNL     1      -0.241  10.410  15.926  1.00  0.00     0.148 C 
HETATM   10  O2  UNL     1       2.607   9.381  17.897  1.00  0.00    -0.238 OA
HETATM   11  O3  UNL     1      -1.827   9.760  12.195  1.00  0.00    -0.271 OA
BRANCH   8  12
HETATM   12  O1  UNL     1       1.161  11.134  18.114  1.00  0.00    -0.304 OA
BRANCH  12  13
HETATM   13  C2  UNL     1       1.739  11.444  19.390  1.00  0.00     0.176 C 
HETATM   14  C1  UNL     1       0.892  10.839  20.495  1.00  0.00     0.034 C 
ENDBRANCH  12  13
ENDBRANCH   8  12
ENDBRANCH   1   2
BRANCH   1  15
HETATM   15  C8  UNL     1      -0.002   8.591  10.105  1.00  0.00     0.074 C 
BRANCH  15  16
HETATM   16  C9  UNL     1       0.944   7.758   9.268  1.00  0.00    -0.055 A 
HETATM   17  C10 UNL     1       1.095   8.004   7.898  1.00  0.00     0.007 A 
HETATM   18  C11 UNL     1       1.977   7.238   7.134  1.00  0.00     0.002 A 
HETATM   19  C12 UNL     1       2.726   6.222   7.730  1.00  0.00     0.014 A 
HETATM   20  C13 UNL     1       2.598   5.973   9.101  1.00  0.00     0.002 A 
HETATM   21  C15 UNL     1       1.700   6.734   9.860  1.00  0.00     0.022 A 
BRANCH  20  22
HETATM   22  C14 UNL     1       3.399   4.902   9.771  1.00  0.00     0.081 C 
HETATM   23  N3  UNL     1       4.654   5.105  10.016  1.00  0.00    -0.389 N 
HETATM   24  H16 UNL     1       5.042   4.299  10.509  1.00  0.00     0.157 HD
ATOM     25  H3  UNL     1       5.176   5.942   9.756  1.00  0.00     0.157 HD
BRANCH  22  26
HETATM   26  N4  UNL     1       2.828   3.708  10.113  1.00  0.00    -0.288 NA
HETATM   27  H17 UNL     1       2.042   3.418   9.540  1.00  0.00     0.125 HD
HETATM   28  H18 UNL     1       3.474   2.943  10.260  1.00  0.00     0.125 HD
ENDBRANCH  22  26
ENDBRANCH  20  22
ENDBRANCH  15  16
ENDBRANCH   1  15
BRANCH   1  29
HETATM   29  N5  UNL     1      -1.402   6.995  11.340  1.00  0.00    -0.301 N 
HETATM   30  H20 UNL     1      -2.336   7.405  11.434  1.00  0.00     0.173 HD
BRANCH  29  31
HETATM   31  S1  UNL     1      -1.262   5.488  12.058  1.00  0.00     0.260 S 
HETATM   32  O4  UNL     1      -0.660   4.615  11.080  1.00  0.00    -0.200 OA
HETATM   33  O5  UNL     1      -0.560   5.691  13.306  1.00  0.00    -0.200 OA
BRANCH  31  34
HETATM   34  C16 UNL     1      -2.975   4.960  12.352  1.00  0.00     0.092 A 
HETATM   35  C17 UNL     1      -3.391   3.627  12.026  1.00  0.00    -0.030 A 
HETATM   36  C21 UNL     1      -4.730   3.257  12.335  1.00  0.00     0.016 A 
HETATM   37  C22 UNL     1      -5.643   4.110  12.947  1.00  0.00    -0.054 A 
HETATM   38  C26 UNL     1      -5.209   5.388  13.277  1.00  0.00     0.016 A 
HETATM   39  C27 UNL     1      -3.905   5.855  12.988  1.00  0.00    -0.030 A 
BRANCH  35  40
HETATM   40  C18 UNL     1      -2.596   2.453  11.429  1.00  0.00     0.012 C 
HETATM   41  C19 UNL     1      -1.126   2.275  11.806  1.00  0.00     0.015 C 
HETATM   42  C20 UNL     1      -3.390   1.141  11.433  1.00  0.00     0.015 C 
ENDBRANCH  35  40
BRANCH  37  43
HETATM   43  C23 UNL     1      -7.059   3.676  13.277  1.00  0.00     0.010 C 
HETATM   44  C24 UNL     1      -7.305   2.216  12.887  1.00  0.00     0.015 C 
HETATM   45  C25 UNL     1      -8.097   4.597  12.631  1.00  0.00     0.015 C 
ENDBRANCH  37  43
BRANCH  39  46
HETATM   46  C28 UNL     1      -3.598   7.281  13.460  1.00  0.00     0.012 C 
HETATM   47  C29 UNL     1      -3.371   7.306  14.975  1.00  0.00     0.015 C 
HETATM   48  C30 UNL     1      -4.662   8.329  13.083  1.00  0.00     0.015 C 
ENDBRANCH  39  46
ENDBRANCH  31  34
ENDBRANCH  29  31
ENDBRANCH   1  29
TORSDOF 13
ENDMDL
MODEL 2
REMARK minimizedAffinity -10.2725725
REMARK CNNscore 0.110929579
REMARK CNNaffinity 6.50082779
REMARK  13 active torsions:
REMARK  status: ('A' for Active; 'I' for Inactive)
REMARK    1  A    between atoms: C2_2  and  O1_3 
REMARK    2  A    between atoms: O1_3  and  C3_4 
REMARK       I    between atoms: C3_4  and  N1_6 
REMARK       I    between atoms: N2_9  and  C6_10 
REMARK    3  A    between atoms: C6_10  and  C7_12 
REMARK    4  A    between atoms: C7_12  and  C8_13 
REMARK    5  A    between atoms: C7_12  and  N5_24 
REMARK    6  A    between atoms: C8_13  and  C9_14 
REMARK    7  A    between atoms: C13_18  and  C14_19 
REMARK    8  A    between atoms: C14_19  and  N4_22 
REMARK    9  A    between atoms: N5_24  and  S1_25 
REMARK   10  A    between atoms: S1_25  and  C16_28 
REMARK   11  A    between atoms: C17_29  and  C18_30 
REMARK   12  A    between atoms: C22_34  and  C23_35 
REMARK   13  A    between atoms: C27_39  and  C28_40 
ROOT
HETATM    1  C7  UNL     1      -0.161   7.999  11.651  1.00  0.00     0.189 C 
ENDROOT
BRANCH   1   2
HETATM    2  C6  UNL     1      -0.754   9.045  12.615  1.00  0.00     0.243 C 
HETATM    3  N2  UNL     1      -0.124   9.305  13.829  1.00  0.00    -0.347 N 
HETATM    4  C5  UNL     1       1.202   8.803  14.214  1.00  0.00     0.146 C 
HETATM    5  C31 UNL     1      -0.544  10.518  14.542  1.00  0.00     0.146 C 
HETATM    6  C4  UNL     1       1.401   8.719  15.734  1.00  0.00     0.148 C 
HETATM    7  N1  UNL     1       0.967   9.927  16.426  1.00  0.00    -0.325 N 
HETATM    8  C3  UNL     1       1.543  10.218  17.651  1.00  0.00     0.362 C 
HETATM    9  C32 UNL     1      -0.358  10.423  16.059  1.00  0.00     0.148 C 
HETATM   10  O2  UNL     1       2.497   9.606  18.117  1.00  0.00    -0.238 OA
HETATM   11  O3  UNL     1      -1.790   9.640  12.292  1.00  0.00    -0.271 OA
BRANCH   8  12
HETATM   12  O1  UNL     1       0.929  11.257  18.279  1.00  0.00    -0.304 OA
BRANCH  12  13
HETATM   13  C2  UNL     1       0.480  11.011  19.619  1.00  0.00     0.176 C 
HETATM   14  C1  UNL     1       1.443  11.644  20.605  1.00  0.00     0.034 C 
ENDBRANCH  12  13
ENDBRANCH   8  12
ENDBRANCH   1   2
BRANCH   1  15
HETATM   15  C8  UNL     1       0.111   8.570  10.244  1.00  0.00     0.074 C 
BRANCH  15  16
HETATM   16  C9  UNL     1       1.001   7.721   9.361  1.00  0.00    -0.055 A 
HETATM   17  C10 UNL     1       1.057   7.940   7.979  1.00  0.00     0.007 A 
HETATM   18  C11 UNL     1       1.888   7.162   7.172  1.00  0.00     0.002 A 
HETATM   19  C12 UNL     1       2.678   6.159   7.736  1.00  0.00     0.014 A 
HETATM   20  C13 UNL     1       2.645   5.937   9.116  1.00  0.00     0.002 A 
HETATM   21  C15 UNL     1       1.798   6.711   9.920  1.00  0.00     0.022 A 
BRANCH  20  22
HETATM   22  C14 UNL     1       3.493   4.880   9.751  1.00  0.00     0.081 C 
HETATM   23  N3  UNL     1       4.674   5.188  10.185  1.00  0.00    -0.389 N 
HETATM   24  H16 UNL     1       5.102   4.371  10.623  1.00  0.00     0.157 HD
ATOM     25  H3  UNL     1       5.110   6.106  10.102  1.00  0.00     0.157 HD
BRANCH  22  26
HETATM   26  N4  UNL     1       3.045   3.594   9.864  1.00  0.00    -0.288 NA
HETATM   27  H17 UNL     1       2.377   3.299   9.160  1.00  0.00     0.125 HD
HETATM   28  H18 UNL     1       3.763   2.894  10.002  1.00  0.00     0.125 HD
ENDBRANCH  22  26
ENDBRANCH  20  22
ENDBRANCH  15  16
ENDBRANCH   1  15
BRANCH   1  29
HETATM   29  N5  UNL     1      -1.126   6.875  11.521  1.00  0.00    -0.301 N 
HETATM   30  H20 UNL     1      -2.072   7.209  11.312  1.00  0.00     0.173 HD
BRANCH  29  31
HETATM   31  S1  UNL     1      -1.097   5.591  12.596  1.00  0.00     0.260 S 
HETATM   32  O4  UNL     1      -0.537   4.466  11.887  1.00  0.00    -0.200 OA
HETATM   33  O5  UNL     1      -0.407   6.058  13.778  1.00  0.00    -0.200 OA
BRANCH  31  34
HETATM   34  C16 UNL     1      -2.846   5.255  12.954  1.00  0.00     0.092 A 
HETATM   35  C17 UNL     1      -3.608   6.153  13.772  1.00  0.00    -0.030 A 
HETATM   36  C21 UNL     1      -4.988   5.864  13.966  1.00  0.00     0.016 A 
HETATM   37  C22 UNL     1      -5.634   4.774  13.393  1.00  0.00    -0.054 A 
HETATM   38  C26 UNL     1      -4.882   3.931  12.584  1.00  0.00     0.016 A 
HETATM   39  C27 UNL     1      -3.500   4.122  12.352  1.00  0.00    -0.030 A 
BRANCH  35  40
HETATM   40  C18 UNL     1      -3.195   7.465  14.461  1.00  0.00     0.012 C 
HETATM   41  C19 UNL     1      -4.112   8.684  14.362  1.00  0.00     0.015 C 
HETATM   42  C20 UNL     1      -2.630   7.239  15.868  1.00  0.00     0.015 C 
ENDBRANCH  35  40
BRANCH  37  43
HETATM   43  C23 UNL     1      -7.112   4.505  13.609  1.00  0.00     0.010 C 
HETATM   44  C24 UNL     1      -7.562   4.928  15.010  1.00  0.00     0.015 C 
HETATM   45  C25 UNL     1      -7.466   3.041  13.340  1.00  0.00     0.015 C 
ENDBRANCH  37  43
BRANCH  39  46
HETATM   46  C28 UNL     1      -2.847   3.111  11.402  1.00  0.00     0.012 C 
HETATM   47  C29 UNL     1      -3.127   3.490   9.944  1.00  0.00     0.015 C 
HETATM   48  C30 UNL     1      -3.257   1.645  11.638  1.00  0.00     0.015 C 
ENDBRANCH  39  46
ENDBRANCH  31  34
ENDBRANCH  29  31
ENDBRANCH   1  29
TORSDOF 13
ENDMDL
MODEL 3
REMARK minimizedAffinity -9.56499863
REMARK CNNscore 0.0890942812
REMARK CNNaffinity 6.17790842
REMARK  13 active torsions:
REMARK  status: ('A' for Active; 'I' for Inactive)
REMARK    1  A    between atoms: C2_2  and  O1_3 
REMARK    2  A    between atoms: O1_3  and  C3_4 
REMARK       I    between atoms: C3_4  and  N1_6 
REMARK       I    between atoms: N2_9  and  C6_10 
REMARK    3  A    between atoms: C6_10  and  C7_12 
REMARK    4  A    between atoms: C7_12  and  C8_13 
REMARK    5  A    between atoms: C7_12  and  N5_24 
REMARK    6  A    between atoms: C8_13  and  C9_14 
REMARK    7  A    between atoms: C13_18  and  C14_19 
REMARK    8  A    between atoms: C14_19  and  N4_22 
REMARK    9  A    between atoms: N5_24  and  S1_25 
REMARK   10  A    between atoms: S1_25  and  C16_28 
REMARK   11  A    between atoms: C17_29  and  C18_30 
REMARK   12  A    between atoms: C22_34  and  C23_35 
REMARK   13  A    between atoms: C27_39  and  C28_40 
ROOT
HETATM    1  C7  UNL     1      -0.322   7.946  13.157  1.00  0.00     0.189 C 
ENDROOT
BRANCH   1   2
HETATM    2  C6  UNL     1      -1.052   9.295  13.309  1.00  0.00     0.243 C 
HETATM    3  N2  UNL     1      -1.067   9.940  14.543  1.00  0.00    -0.347 N 
HETATM    4  C5  UNL     1      -0.267   9.544  15.710  1.00  0.00     0.146 C 
HETATM    5  C31 UNL     1      -1.489  11.347  14.544  1.00  0.00     0.146 C 
HETATM    6  C4  UNL     1      -0.876  10.000  17.044  1.00  0.00     0.148 C 
HETATM    7  N1  UNL     1      -1.300  11.394  17.023  1.00  0.00    -0.325 N 
HETATM    8  C3  UNL     1      -1.359  12.075  18.228  1.00  0.00     0.362 C 
HETATM    9  C32 UNL     1      -2.109  11.790  15.872  1.00  0.00     0.148 C 
HETATM   10  O2  UNL     1      -0.935  11.624  19.286  1.00  0.00    -0.238 OA
HETATM   11  O3  UNL     1      -1.619   9.784  12.324  1.00  0.00    -0.271 OA
BRANCH   8  12
HETATM   12  O1  UNL     1      -1.941  13.298  18.103  1.00  0.00    -0.304 OA
BRANCH  12  13
HETATM   13  C2  UNL     1      -2.891  13.653  19.118  1.00  0.00     0.176 C 
HETATM   14  C1  UNL     1      -4.210  12.952  18.851  1.00  0.00     0.034 C 
ENDBRANCH  12  13
ENDBRANCH   8  12
ENDBRANCH   1   2
BRANCH   1  15
HETATM   15  C8  UNL     1       1.103   8.099  12.589  1.00  0.00     0.074 C 
BRANCH  15  16
HETATM   16  C9  UNL     1       1.260   7.740  11.127  1.00  0.00    -0.055 A 
HETATM   17  C10 UNL     1       0.522   8.408  10.142  1.00  0.00     0.007 A 
HETATM   18  C11 UNL     1       0.680   8.079   8.794  1.00  0.00     0.002 A 
HETATM   19  C12 UNL     1       1.582   7.085   8.413  1.00  0.00     0.014 A 
HETATM   20  C13 UNL     1       2.338   6.418   9.383  1.00  0.00     0.002 A 
HETATM   21  C15 UNL     1       2.164   6.741  10.735  1.00  0.00     0.022 A 
BRANCH  20  22
HETATM   22  C14 UNL     1       3.323   5.358   9.004  1.00  0.00     0.081 C 
HETATM   23  N3  UNL     1       4.223   4.992   9.860  1.00  0.00    -0.389 N 
HETATM   24  H16 UNL     1       4.787   4.238   9.464  1.00  0.00     0.157 HD
ATOM     25  H3  UNL     1       4.350   5.394  10.789  1.00  0.00     0.157 HD
BRANCH  22  26
HETATM   26  N4  UNL     1       3.298   4.786   7.764  1.00  0.00    -0.288 NA
HETATM   27  H17 UNL     1       2.924   5.367   7.020  1.00  0.00     0.125 HD
HETATM   28  H18 UNL     1       4.156   4.332   7.475  1.00  0.00     0.125 HD
ENDBRANCH  22  26
ENDBRANCH  20  22
ENDBRANCH  15  16
ENDBRANCH   1  15
BRANCH   1  29
HETATM   29  N5  UNL     1      -1.105   7.086  12.230  1.00  0.00    -0.301 N 
HETATM   30  H20 UNL     1      -2.037   7.472  12.050  1.00  0.00     0.173 HD
BRANCH  29  31
HETATM   31  S1  UNL     1      -1.096   5.419  12.392  1.00  0.00     0.260 S 
HETATM   32  O4  UNL     1      -0.566   4.883  11.161  1.00  0.00    -0.200 OA
HETATM   33  O5  UNL     1      -0.386   5.128  13.618  1.00  0.00    -0.200 OA
BRANCH  31  34
HETATM   34  C16 UNL     1      -2.849   4.963  12.531  1.00  0.00     0.092 A 
HETATM   35  C17 UNL     1      -3.313   3.696  12.047  1.00  0.00    -0.030 A 
HETATM   36  C21 UNL     1      -4.686   3.375  12.238  1.00  0.00     0.016 A 
HETATM   37  C22 UNL     1      -5.590   4.214  12.882  1.00  0.00    -0.054 A 
HETATM   38  C26 UNL     1      -5.113   5.426  13.366  1.00  0.00     0.016 A 
HETATM   39  C27 UNL     1      -3.771   5.843  13.202  1.00  0.00    -0.030 A 
BRANCH  35  40
HETATM   40  C18 UNL     1      -2.543   2.543  11.379  1.00  0.00     0.012 C 
HETATM   41  C19 UNL     1      -1.030   2.443  11.568  1.00  0.00     0.015 C 
HETATM   42  C20 UNL     1      -3.265   1.197  11.514  1.00  0.00     0.015 C 
ENDBRANCH  35  40
BRANCH  37  43
HETATM   43  C23 UNL     1      -7.045   3.832  13.084  1.00  0.00     0.010 C 
HETATM   44  C24 UNL     1      -7.322   2.403  12.610  1.00  0.00     0.015 C 
HETATM   45  C25 UNL     1      -7.990   4.826  12.404  1.00  0.00     0.015 C 
ENDBRANCH  37  43
BRANCH  39  46
HETATM   46  C28 UNL     1      -3.421   7.195  13.834  1.00  0.00     0.012 C 
HETATM   47  C29 UNL     1      -3.167   7.033  15.336  1.00  0.00     0.015 C 
HETATM   48  C30 UNL     1      -4.466   8.304  13.608  1.00  0.00     0.015 C 
ENDBRANCH  39  46
ENDBRANCH  31  34
ENDBRANCH  29  31
ENDBRANCH   1  29
TORSDOF 13
ENDMDL
MODEL 4
REMARK minimizedAffinity -9.98185444
REMARK CNNscore 0.0784518495
REMARK CNNaffinity 6.50428391
REMARK  13 active torsions:
REMARK  status: ('A' for Active; 'I' for Inactive)
REMARK    1  A    between atoms: C2_2  and  O1_3 
REMARK    2  A    between atoms: O1_3  and  C3_4 
REMARK       I    between atoms: C3_4  and  N1_6 
REMARK       I    between atoms: N2_9  and  C6_10 
REMARK    3  A    between atoms: C6_10  and  C7_12 
REMARK    4  A    between atoms: C7_12  and  C8_13 
REMARK    5  A    between atoms: C7_12  and  N5_24 
REMARK    6  A    between atoms: C8_13  and  C9_14 
REMARK    7  A    between atoms: C13_18  and  C14_19 
REMARK    8  A    between atoms: C14_19  and  N4_22 
REMARK    9  A    between atoms: N5_24  and  S1_25 
REMARK   10  A    between atoms: S1_25  and  C16_28 
REMARK   11  A    between atoms: C17_29  and  C18_30 
REMARK   12  A    between atoms: C22_34  and  C23_35 
REMARK   13  A    between atoms: C27_39  and  C28_40 
ROOT
HETATM    1  C7  UNL     1       0.274   7.697  11.857  1.00  0.00     0.189 C 
ENDROOT
BRANCH   1   2
HETATM    2  C6  UNL     1       0.524   8.685  13.014  1.00  0.00     0.243 C 
HETATM    3  N2  UNL     1       1.800   8.809  13.556  1.00  0.00    -0.347 N 
HETATM    4  C5  UNL     1       3.017   8.211  12.990  1.00  0.00     0.146 C 
HETATM    5  C31 UNL     1       2.040   9.975  14.416  1.00  0.00     0.146 C 
HETATM    6  C4  UNL     1       4.123   7.988  14.031  1.00  0.00     0.148 C 
HETATM    7  N1  UNL     1       4.339   9.151  14.882  1.00  0.00    -0.325 N 
HETATM    8  C3  UNL     1       5.584   9.308  15.469  1.00  0.00     0.362 C 
HETATM    9  C32 UNL     1       3.133   9.742  15.462  1.00  0.00     0.148 C 
HETATM   10  O2  UNL     1       6.556   8.612  15.198  1.00  0.00    -0.238 OA
HETATM   11  O3  UNL     1      -0.423   9.355  13.446  1.00  0.00    -0.271 OA
BRANCH   8  12
HETATM   12  O1  UNL     1       5.604  10.318  16.380  1.00  0.00    -0.304 OA
BRANCH  12  13
HETATM   13  C2  UNL     1       6.406  11.459  16.043  1.00  0.00     0.176 C 
HETATM   14  C1  UNL     1       7.731  11.387  16.778  1.00  0.00     0.034 C 
ENDBRANCH  12  13
ENDBRANCH   8  12
ENDBRANCH   1   2
BRANCH   1  15
HETATM   15  C8  UNL     1       0.220   8.391  10.481  1.00  0.00     0.074 C 
BRANCH  15  16
HETATM   16  C9  UNL     1       1.001   7.707   9.379  1.00  0.00    -0.055 A 
HETATM   17  C10 UNL     1       0.842   8.094   8.042  1.00  0.00     0.007 A 
HETATM   18  C11 UNL     1       1.573   7.467   7.032  1.00  0.00     0.002 A 
HETATM   19  C12 UNL     1       2.477   6.450   7.345  1.00  0.00     0.014 A 
HETATM   20  C13 UNL     1       2.658   6.062   8.677  1.00  0.00     0.002 A 
HETATM   21  C15 UNL     1       1.910   6.684   9.685  1.00  0.00     0.022 A 
BRANCH  20  22
HETATM   22  C14 UNL     1       3.631   4.986   9.045  1.00  0.00     0.081 C 
HETATM   23  N3  UNL     1       4.394   5.146  10.079  1.00  0.00    -0.389 N 
HETATM   24  H16 UNL     1       4.966   4.311  10.215  1.00  0.00     0.157 HD
ATOM     25  H3  UNL     1       4.420   5.979  10.668  1.00  0.00     0.157 HD
BRANCH  22  26
HETATM   26  N4  UNL     1       3.737   3.848   8.296  1.00  0.00    -0.288 NA
HETATM   27  H17 UNL     1       3.491   3.943   7.316  1.00  0.00     0.125 HD
HETATM   28  H18 UNL     1       4.601   3.332   8.407  1.00  0.00     0.125 HD
ENDBRANCH  22  26
ENDBRANCH  20  22
ENDBRANCH  15  16
ENDBRANCH   1  15
BRANCH   1  29
HETATM   29  N5  UNL     1      -1.029   7.018  12.090  1.00  0.00    -0.301 N 
HETATM   30  H20 UNL     1      -1.559   7.461  12.846  1.00  0.00     0.173 HD
BRANCH  29  31
HETATM   31  S1  UNL     1      -1.135   5.346  12.094  1.00  0.00     0.260 S 
HETATM   32  O4  UNL     1      -0.783   4.902  10.767  1.00  0.00    -0.200 OA
HETATM   33  O5  UNL     1      -0.325   4.884  13.199  1.00  0.00    -0.200 OA
BRANCH  31  34
HETATM   34  C16 UNL     1      -2.894   5.000  12.387  1.00  0.00     0.092 A 
HETATM   35  C17 UNL     1      -3.457   3.732  12.027  1.00  0.00    -0.030 A 
HETATM   36  C21 UNL     1      -4.827   3.502  12.336  1.00  0.00     0.016 A 
HETATM   37  C22 UNL     1      -5.636   4.432  12.981  1.00  0.00    -0.054 A 
HETATM   38  C26 UNL     1      -5.063   5.645  13.344  1.00  0.00     0.016 A 
HETATM   39  C27 UNL     1      -3.718   5.973  13.057  1.00  0.00    -0.030 A 
BRANCH  35  40
HETATM   40  C18 UNL     1      -2.799   2.496  11.390  1.00  0.00     0.012 C 
HETATM   41  C19 UNL     1      -1.297   2.273  11.562  1.00  0.00     0.015 C 
HETATM   42  C20 UNL     1      -3.631   1.221  11.581  1.00  0.00     0.015 C 
ENDBRANCH  35  40
BRANCH  37  43
HETATM   43  C23 UNL     1      -7.090   4.147  13.311  1.00  0.00     0.010 C 
HETATM   44  C24 UNL     1      -7.465   2.697  12.992  1.00  0.00     0.015 C 
HETATM   45  C25 UNL     1      -8.032   5.123  12.602  1.00  0.00     0.015 C 
ENDBRANCH  37  43
BRANCH  39  46
HETATM   46  C28 UNL     1      -3.252   7.342  13.566  1.00  0.00     0.012 C 
HETATM   47  C29 UNL     1      -3.040   7.305  15.084  1.00  0.00     0.015 C 
HETATM   48  C30 UNL     1      -4.185   8.515  13.209  1.00  0.00     0.015 C 
ENDBRANCH  39  46
ENDBRANCH  31  34
ENDBRANCH  29  31
ENDBRANCH   1  29
TORSDOF 13
ENDMDL
MODEL 5
REMARK minimizedAffinity -9.69239902
REMARK CNNscore 0.0667328164
REMARK CNNaffinity 6.50618887
REMARK  13 active torsions:
REMARK  status: ('A' for Active; 'I' for Inactive)
REMARK    1  A    between atoms: C2_2  and  O1_3 
REMARK    2  A    between atoms: O1_3  and  C3_4 
REMARK       I    between atoms: C3_4  and  N1_6 
REMARK       I    between atoms: N2_9  and  C6_10 
REMARK    3  A    between atoms: C6_10  and  C7_12 
REMARK    4  A    between atoms: C7_12  and  C8_13 
REMARK    5  A    between atoms: C7_12  and  N5_24 
REMARK    6  A    between atoms: C8_13  and  C9_14 
REMARK    7  A    between atoms: C13_18  and  C14_19 
REMARK    8  A    between atoms: C14_19  and  N4_22 
REMARK    9  A    between atoms: N5_24  and  S1_25 
REMARK   10  A    between atoms: S1_25  and  C16_28 
REMARK   11  A    between atoms: C17_29  and  C18_30 
REMARK   12  A    between atoms: C22_34  and  C23_35 
REMARK   13  A    between atoms: C27_39  and  C28_40 
ROOT
HETATM    1  C7  UNL     1       0.155   7.218  12.100  1.00  0.00     0.189 C 
ENDROOT
BRANCH   1   2
HETATM    2  C6  UNL     1       0.855   7.973  13.247  1.00  0.00     0.243 C 
HETATM    3  N2  UNL     1       0.181   8.986  13.923  1.00  0.00    -0.347 N 
HETATM    4  C5  UNL     1      -1.249   9.290  13.775  1.00  0.00     0.146 C 
HETATM    5  C31 UNL     1       0.770   9.436  15.191  1.00  0.00     0.146 C 
HETATM    6  C4  UNL     1      -1.599  10.742  14.133  1.00  0.00     0.148 C 
HETATM    7  N1  UNL     1      -0.997  11.174  15.388  1.00  0.00    -0.325 N 
HETATM    8  C3  UNL     1      -1.613  12.198  16.088  1.00  0.00     0.362 C 
HETATM    9  C32 UNL     1       0.430  10.888  15.535  1.00  0.00     0.148 C 
HETATM   10  O2  UNL     1      -2.710  12.659  15.794  1.00  0.00    -0.238 OA
HETATM   11  O3  UNL     1       2.015   7.665  13.548  1.00  0.00    -0.271 OA
BRANCH   8  12
HETATM   12  O1  UNL     1      -0.862  12.635  17.134  1.00  0.00    -0.304 OA
BRANCH  12  13
HETATM   13  C2  UNL     1      -1.469  12.542  18.431  1.00  0.00     0.176 C 
HETATM   14  C1  UNL     1      -1.773  13.934  18.954  1.00  0.00     0.034 C 
ENDBRANCH  12  13
ENDBRANCH   8  12
ENDBRANCH   1   2
BRANCH   1  15
HETATM   15  C8  UNL     1       0.016   8.068  10.821  1.00  0.00     0.074 C 
BRANCH  15  16
HETATM   16  C9  UNL     1       0.828   7.593   9.635  1.00  0.00    -0.055 A 
HETATM   17  C10 UNL     1       0.674   8.188   8.377  1.00  0.00     0.007 A 
HETATM   18  C11 UNL     1       1.434   7.753   7.290  1.00  0.00     0.002 A 
HETATM   19  C12 UNL     1       2.363   6.723   7.448  1.00  0.00     0.014 A 
HETATM   20  C13 UNL     1       2.540   6.128   8.701  1.00  0.00     0.002 A 
HETATM   21  C15 UNL     1       1.763   6.558   9.785  1.00  0.00     0.022 A 
BRANCH  20  22
HETATM   22  C14 UNL     1       3.538   5.032   8.905  1.00  0.00     0.081 C 
HETATM   23  N3  UNL     1       4.343   5.086   9.918  1.00  0.00    -0.389 N 
HETATM   24  H16 UNL     1       4.929   4.250   9.936  1.00  0.00     0.157 HD
ATOM     25  H3  UNL     1       4.386   5.848  10.596  1.00  0.00     0.157 HD
BRANCH  22  26
HETATM   26  N4  UNL     1       3.624   3.987   8.029  1.00  0.00    -0.288 NA
HETATM   27  H17 UNL     1       3.335   4.188   7.077  1.00  0.00     0.125 HD
HETATM   28  H18 UNL     1       4.497   3.475   8.046  1.00  0.00     0.125 HD
ENDBRANCH  22  26
ENDBRANCH  20  22
ENDBRANCH  15  16
ENDBRANCH   1  15
BRANCH   1  29
HETATM   29  N5  UNL     1      -1.207   6.829  12.553  1.00  0.00    -0.301 N 
HETATM   30  H20 UNL     1      -1.703   7.615  12.984  1.00  0.00     0.173 HD
BRANCH  29  31
HETATM   31  S1  UNL     1      -1.468   5.370  13.335  1.00  0.00     0.260 S 
HETATM   32  O4  UNL     1      -0.726   4.369  12.606  1.00  0.00    -0.200 OA
HETATM   33  O5  UNL     1      -1.133   5.582  14.725  1.00  0.00    -0.200 OA
BRANCH  31  34
HETATM   34  C16 UNL     1      -3.245   5.054  13.133  1.00  0.00     0.092 A 
HETATM   35  C17 UNL     1      -4.212   5.977  13.650  1.00  0.00    -0.030 A 
HETATM   36  C21 UNL     1      -5.587   5.703  13.408  1.00  0.00     0.016 A 
HETATM   37  C22 UNL     1      -6.036   4.602  12.685  1.00  0.00    -0.054 A 
HETATM   38  C26 UNL     1      -5.081   3.734  12.172  1.00  0.00     0.016 A 
HETATM   39  C27 UNL     1      -3.693   3.911  12.381  1.00  0.00    -0.030 A 
BRANCH  35  40
HETATM   40  C18 UNL     1      -4.018   7.304  14.404  1.00  0.00     0.012 C 
HETATM   41  C19 UNL     1      -4.898   8.503  14.052  1.00  0.00     0.015 C 
HETATM   42  C20 UNL     1      -3.837   7.103  15.914  1.00  0.00     0.015 C 
ENDBRANCH  35  40
BRANCH  37  43
HETATM   43  C23 UNL     1      -7.511   4.349  12.432  1.00  0.00     0.010 C 
HETATM   44  C24 UNL     1      -8.381   5.468  13.010  1.00  0.00     0.015 C 
HETATM   45  C25 UNL     1      -7.950   2.983  12.966  1.00  0.00     0.015 C 
ENDBRANCH  37  43
BRANCH  39  46
HETATM   46  C28 UNL     1      -2.789   2.872  11.707  1.00  0.00     0.012 C 
HETATM   47  C29 UNL     1      -2.512   3.268  10.252  1.00  0.00     0.015 C 
HETATM   48  C30 UNL     1      -3.321   1.427  11.751  1.00  0.00     0.015 C 
ENDBRANCH  39  46
ENDBRANCH  31  34
ENDBRANCH  29  31
ENDBRANCH   1  29
TORSDOF 13
ENDMDL
MODEL 6
REMARK minimizedAffinity -8.38864422
REMARK CNNscore 0.0637705028
REMARK CNNaffinity 6.07107353
REMARK  13 active torsions:
REMARK  status: ('A' for Active; 'I' for Inactive)
REMARK    1  A    between atoms: C2_2  and  O1_3 
REMARK    2  A    between atoms: O1_3  and  C3_4 
REMARK       I    between atoms: C3_4  and  N1_6 
REMARK       I    between atoms: N2_9  and  C6_10 
REMARK    3  A    between atoms: C6_10  and  C7_12 
REMARK    4  A    between atoms: C7_12  and  C8_13 
REMARK    5  A    between atoms: C7_12  and  N5_24 
REMARK    6  A    between atoms: C8_13  and  C9_14 
REMARK    7  A    between atoms: C13_18  and  C14_19 
REMARK    8  A    between atoms: C14_19  and  N4_22 
REMARK    9  A    between atoms: N5_24  and  S1_25 
REMARK   10  A    between atoms: S1_25  and  C16_28 
REMARK   11  A    between atoms: C17_29  and  C18_30 
REMARK   12  A    between atoms: C22_34  and  C23_35 
REMARK   13  A    between atoms: C27_39  and  C28_40 
ROOT
HETATM    1  C7  UNL     1      -0.620   8.806  13.419  1.00  0.00     0.189 C 
ENDROOT
BRANCH   1   2
HETATM    2  C6  UNL     1      -0.779  10.063  14.296  1.00  0.00     0.243 C 
HETATM    3  N2  UNL     1       0.177  10.359  15.264  1.00  0.00    -0.347 N 
HETATM    4  C5  UNL     1       1.468   9.673  15.409  1.00  0.00     0.146 C 
HETATM    5  C31 UNL     1       0.142  11.713  15.832  1.00  0.00     0.146 C 
HETATM    6  C4  UNL     1       2.041   9.756  16.831  1.00  0.00     0.148 C 
HETATM    7  N1  UNL     1       1.987  11.104  17.383  1.00  0.00    -0.325 N 
HETATM    8  C3  UNL     1       2.899  11.442  18.368  1.00  0.00     0.362 C 
HETATM    9  C32 UNL     1       0.700  11.787  17.255  1.00  0.00     0.148 C 
HETATM   10  O2  UNL     1       3.840  10.729  18.698  1.00  0.00    -0.238 OA
HETATM   11  O3  UNL     1      -1.764  10.793  14.125  1.00  0.00    -0.271 OA
BRANCH   8  12
HETATM   12  O1  UNL     1       2.631  12.651  18.930  1.00  0.00    -0.304 OA
BRANCH  12  13
HETATM   13  C2  UNL     1       3.076  12.835  20.281  1.00  0.00     0.176 C 
HETATM   14  C1  UNL     1       1.932  12.559  21.239  1.00  0.00     0.034 C 
ENDBRANCH  12  13
ENDBRANCH   8  12
ENDBRANCH   1   2
BRANCH   1  15
HETATM   15  C8  UNL     1      -0.961   9.064  11.937  1.00  0.00     0.074 C 
BRANCH  15  16
HETATM   16  C9  UNL     1       0.097   8.633  10.944  1.00  0.00    -0.055 A 
HETATM   17  C10 UNL     1      -0.177   8.612   9.570  1.00  0.00     0.007 A 
HETATM   18  C11 UNL     1       0.806   8.224   8.659  1.00  0.00     0.002 A 
HETATM   19  C12 UNL     1       2.077   7.858   9.107  1.00  0.00     0.014 A 
HETATM   20  C13 UNL     1       2.371   7.887  10.474  1.00  0.00     0.002 A 
HETATM   21  C15 UNL     1       1.375   8.263  11.386  1.00  0.00     0.022 A 
BRANCH  20  22
HETATM   22  C14 UNL     1       3.728   7.516  10.983  1.00  0.00     0.081 C 
HETATM   23  N3  UNL     1       3.864   7.145  12.216  1.00  0.00    -0.389 N 
HETATM   24  H16 UNL     1       4.837   6.889  12.392  1.00  0.00     0.157 HD
ATOM     25  H3  UNL     1       3.114   7.113  12.907  1.00  0.00     0.157 HD
BRANCH  22  26
HETATM   26  N4  UNL     1       4.824   7.579  10.171  1.00  0.00    -0.288 NA
HETATM   27  H17 UNL     1       4.775   8.259   9.419  1.00  0.00     0.125 HD
HETATM   28  H18 UNL     1       5.717   7.625  10.647  1.00  0.00     0.125 HD
ENDBRANCH  22  26
ENDBRANCH  20  22
ENDBRANCH  15  16
ENDBRANCH   1  15
BRANCH   1  29
HETATM   29  N5  UNL     1      -1.536   7.753  13.932  1.00  0.00    -0.301 N 
HETATM   30  H20 UNL     1      -1.116   6.821  13.871  1.00  0.00     0.173 HD
BRANCH  29  31
HETATM   31  S1  UNL     1      -3.167   7.773  13.549  1.00  0.00     0.260 S 
HETATM   32  O4  UNL     1      -3.877   8.089  14.766  1.00  0.00    -0.200 OA
HETATM   33  O5  UNL     1      -3.315   8.671  12.426  1.00  0.00    -0.200 OA
BRANCH  31  34
HETATM   34  C16 UNL     1      -3.545   6.062  13.070  1.00  0.00     0.092 A 
HETATM   35  C17 UNL     1      -2.510   5.195  12.588  1.00  0.00    -0.030 A 
HETATM   36  C21 UNL     1      -2.860   3.850  12.285  1.00  0.00     0.016 A 
HETATM   37  C22 UNL     1      -4.141   3.332  12.448  1.00  0.00    -0.054 A 
HETATM   38  C26 UNL     1      -5.122   4.183  12.940  1.00  0.00     0.016 A 
HETATM   39  C27 UNL     1      -4.876   5.542  13.246  1.00  0.00    -0.030 A 
BRANCH  35  40
HETATM   40  C18 UNL     1      -1.007   5.455  12.386  1.00  0.00     0.012 C 
HETATM   41  C19 UNL     1      -0.013   4.960  13.436  1.00  0.00     0.015 C 
HETATM   42  C20 UNL     1      -0.552   5.196  10.945  1.00  0.00     0.015 C 
ENDBRANCH  35  40
BRANCH  37  43
HETATM   43  C23 UNL     1      -4.474   1.886  12.129  1.00  0.00     0.010 C 
HETATM   44  C24 UNL     1      -3.269   1.146  11.544  1.00  0.00     0.015 C 
HETATM   45  C25 UNL     1      -5.687   1.777  11.201  1.00  0.00     0.015 C 
ENDBRANCH  37  43
BRANCH  39  46
HETATM   46  C28 UNL     1      -6.073   6.315  13.813  1.00  0.00     0.012 C 
HETATM   47  C29 UNL     1      -6.272   5.981  15.295  1.00  0.00     0.015 C 
HETATM   48  C30 UNL     1      -7.397   6.100  13.057  1.00  0.00     0.015 C 
ENDBRANCH  39  46
ENDBRANCH  31  34
ENDBRANCH  29  31
ENDBRANCH   1  29
TORSDOF 13
ENDMDL
MODEL 7
REMARK minimizedAffinity -8.83687019
REMARK CNNscore 0.061848674
REMARK CNNaffinity 6.07262564
REMARK  13 active torsions:
REMARK  status: ('A' for Active; 'I' for Inactive)
REMARK    1  A    between atoms: C2_2  and  O1_3 
REMARK    2  A    between atoms: O1_3  and  C3_4 
REMARK       I    between atoms: C3_4  and  N1_6 
REMARK       I    between atoms: N2_9  and  C6_10 
REMARK    3  A    between atoms: C6_10  and  C7_12 
REMARK    4  A    between atoms: C7_12  and  C8_13 
REMARK    5  A    between atoms: C7_12  and  N5_24 
REMARK    6  A    between atoms: C8_13  and  C9_14 
REMARK    7  A    between atoms: C13_18  and  C14_19 
REMARK    8  A    between atoms: C14_19  and  N4_22 
REMARK    9  A    between atoms: N5_24  and  S1_25 
REMARK   10  A    between atoms: S1_25  and  C16_28 
REMARK   11  A    between atoms: C17_29  and  C18_30 
REMARK   12  A    between atoms: C22_34  and  C23_35 
REMARK   13  A    between atoms: C27_39  and  C28_40 
ROOT
HETATM    1  C7  UNL     1      -1.872   8.841  15.141  1.00  0.00     0.189 C 
ENDROOT
BRANCH   1   2
HETATM    2  C6  UNL     1      -0.470   8.762  14.506  1.00  0.00     0.243 C 
HETATM    3  N2  UNL     1      -0.335   8.752  13.120  1.00  0.00    -0.347 N 
HETATM    4  C5  UNL     1      -1.423   9.010  12.167  1.00  0.00     0.146 C 
HETATM    5  C31 UNL     1       1.011   9.001  12.587  1.00  0.00     0.146 C 
HETATM    6  C4  UNL     1      -1.183   8.378  10.789  1.00  0.00     0.148 C 
HETATM    7  N1  UNL     1       0.161   8.625  10.281  1.00  0.00    -0.325 N 
HETATM    8  C3  UNL     1       0.355   8.599   8.910  1.00  0.00     0.362 C 
HETATM    9  C32 UNL     1       1.249   8.355  11.220  1.00  0.00     0.148 C 
HETATM   10  O2  UNL     1      -0.558   8.529   8.095  1.00  0.00    -0.238 OA
HETATM   11  O3  UNL     1       0.522   8.708  15.245  1.00  0.00    -0.271 OA
BRANCH   8  12
HETATM   12  O1  UNL     1       1.671   8.656   8.572  1.00  0.00    -0.304 OA
BRANCH  12  13
HETATM   13  C2  UNL     1       2.273   7.423   8.157  1.00  0.00     0.176 C 
HETATM   14  C1  UNL     1       1.926   7.146   6.706  1.00  0.00     0.034 C 
ENDBRANCH  12  13
ENDBRANCH   8  12
ENDBRANCH   1   2
BRANCH   1  15
HETATM   15  C8  UNL     1      -1.827   9.117  16.657  1.00  0.00     0.074 C 
BRANCH  15  16
HETATM   16  C9  UNL     1      -2.672  10.281  17.129  1.00  0.00    -0.055 A 
HETATM   17  C10 UNL     1      -3.050  10.393  18.473  1.00  0.00     0.007 A 
HETATM   18  C11 UNL     1      -3.820  11.474  18.904  1.00  0.00     0.002 A 
HETATM   19  C12 UNL     1      -4.217  12.461  18.000  1.00  0.00     0.014 A 
HETATM   20  C13 UNL     1      -3.836  12.372  16.657  1.00  0.00     0.002 A 
HETATM   21  C15 UNL     1      -3.075  11.276  16.227  1.00  0.00     0.022 A 
BRANCH  20  22
HETATM   22  C14 UNL     1      -4.232  13.422  15.668  1.00  0.00     0.081 C 
HETATM   23  N3  UNL     1      -3.551  13.555  14.575  1.00  0.00    -0.389 N 
HETATM   24  H16 UNL     1      -3.972  14.282  13.994  1.00  0.00     0.157 HD
ATOM     25  H3  UNL     1      -2.720  13.016  14.330  1.00  0.00     0.157 HD
BRANCH  22  26
HETATM   26  N4  UNL     1      -5.290  14.251  15.909  1.00  0.00    -0.288 NA
HETATM   27  H17 UNL     1      -5.496  14.427  16.888  1.00  0.00     0.125 HD
HETATM   28  H18 UNL     1      -5.302  15.111  15.374  1.00  0.00     0.125 HD
ENDBRANCH  22  26
ENDBRANCH  20  22
ENDBRANCH  15  16
ENDBRANCH   1  15
BRANCH   1  29
HETATM   29  N5  UNL     1      -2.562   7.541  14.923  1.00  0.00    -0.301 N 
HETATM   30  H20 UNL     1      -1.994   6.898  14.363  1.00  0.00     0.173 HD
BRANCH  29  31
HETATM   31  S1  UNL     1      -4.193   7.489  14.543  1.00  0.00     0.260 S 
HETATM   32  O4  UNL     1      -4.907   7.344  15.789  1.00  0.00    -0.200 OA
HETATM   33  O5  UNL     1      -4.467   8.660  13.740  1.00  0.00    -0.200 OA
BRANCH  31  34
HETATM   34  C16 UNL     1      -4.387   5.970  13.567  1.00  0.00     0.092 A 
HETATM   35  C17 UNL     1      -3.238   5.258  13.091  1.00  0.00    -0.030 A 
HETATM   36  C21 UNL     1      -3.456   4.043  12.383  1.00  0.00     0.016 A 
HETATM   37  C22 UNL     1      -4.717   3.506  12.147  1.00  0.00    -0.054 A 
HETATM   38  C26 UNL     1      -5.816   4.200  12.639  1.00  0.00     0.016 A 
HETATM   39  C27 UNL     1      -5.700   5.427  13.333  1.00  0.00    -0.030 A 
BRANCH  35  40
HETATM   40  C18 UNL     1      -1.738   5.556  13.268  1.00  0.00     0.012 C 
HETATM   41  C19 UNL     1      -1.039   5.143  14.563  1.00  0.00     0.015 C 
HETATM   42  C20 UNL     1      -0.923   5.244  12.008  1.00  0.00     0.015 C 
ENDBRANCH  35  40
BRANCH  37  43
HETATM   43  C23 UNL     1      -4.912   2.199  11.401  1.00  0.00     0.010 C 
HETATM   44  C24 UNL     1      -6.304   1.611  11.652  1.00  0.00     0.015 C 
HETATM   45  C25 UNL     1      -3.820   1.183  11.746  1.00  0.00     0.015 C 
ENDBRANCH  37  43
BRANCH  39  46
HETATM   46  C28 UNL     1      -7.020   6.027  13.833  1.00  0.00     0.012 C 
HETATM   47  C29 UNL     1      -7.482   5.314  15.108  1.00  0.00     0.015 C 
HETATM   48  C30 UNL     1      -8.163   6.022  12.800  1.00  0.00     0.015 C 
ENDBRANCH  39  46
ENDBRANCH  31  34
ENDBRANCH  29  31
ENDBRANCH   1  29
TORSDOF 13
ENDMDL
MODEL 8
REMARK minimizedAffinity -10.0292797
REMARK CNNscore 0.0595340021
REMARK CNNaffinity 6.43198967
REMARK  13 active torsions:
REMARK  status: ('A' for Active; 'I' for Inactive)
REMARK    1  A    between atoms: C2_2  and  O1_3 
REMARK    2  A    between atoms: O1_3  and  C3_4 
REMARK       I    between atoms: C3_4  and  N1_6 
REMARK       I    between atoms: N2_9  and  C6_10 
REMARK    3  A    between atoms: C6_10  and  C7_12 
REMARK    4  A    between atoms: C7_12  and  C8_13 
REMARK    5  A    between atoms: C7_12  and  N5_24 
REMARK    6  A    between atoms: C8_13  and  C9_14 
REMARK    7  A    between atoms: C13_18  and  C14_19 
REMARK    8  A    between atoms: C14_19  and  N4_22 
REMARK    9  A    between atoms: N5_24  and  S1_25 
REMARK   10  A    between atoms: S1_25  and  C16_28 
REMARK   11  A    between atoms: C17_29  and  C18_30 
REMARK   12  A    between atoms: C22_34  and  C23_35 
REMARK   13  A    between atoms: C27_39  and  C28_40 
ROOT
HETATM    1  C7  UNL     1      -0.077   7.730  12.060  1.00  0.00     0.189 C 
ENDROOT
BRANCH   1   2
HETATM    2  C6  UNL     1       0.198   8.839  13.095  1.00  0.00     0.243 C 
HETATM    3  N2  UNL     1       1.451   8.930  13.697  1.00  0.00    -0.347 N 
HETATM    4  C5  UNL     1       2.638   8.167  13.290  1.00  0.00     0.146 C 
HETATM    5  C31 UNL     1       1.746  10.177  14.415  1.00  0.00     0.146 C 
HETATM    6  C4  UNL     1       3.664   7.995  14.419  1.00  0.00     0.148 C 
HETATM    7  N1  UNL     1       3.936   9.239  15.127  1.00  0.00    -0.325 N 
HETATM    8  C3  UNL     1       5.157   9.372  15.767  1.00  0.00     0.362 C 
HETATM    9  C32 UNL     1       2.758   9.996  15.549  1.00  0.00     0.148 C 
HETATM   10  O2  UNL     1       6.077   8.570  15.649  1.00  0.00    -0.238 OA
HETATM   11  O3  UNL     1      -0.707   9.634  13.378  1.00  0.00    -0.271 OA
BRANCH   8  12
HETATM   12  O1  UNL     1       5.219  10.488  16.541  1.00  0.00    -0.304 OA
BRANCH  12  13
HETATM   13  C2  UNL     1       6.532  10.987  16.831  1.00  0.00     0.176 C 
HETATM   14  C1  UNL     1       6.988  11.907  15.714  1.00  0.00     0.034 C 
ENDBRANCH  12  13
ENDBRANCH   8  12
ENDBRANCH   1   2
BRANCH   1  15
HETATM   15  C8  UNL     1      -0.150   8.267  10.616  1.00  0.00     0.074 C 
BRANCH  15  16
HETATM   16  C9  UNL     1       0.798   7.613   9.633  1.00  0.00    -0.055 A 
HETATM   17  C10 UNL     1       0.819   8.007   8.289  1.00  0.00     0.007 A 
HETATM   18  C11 UNL     1       1.703   7.408   7.390  1.00  0.00     0.002 A 
HETATM   19  C12 UNL     1       2.582   6.414   7.824  1.00  0.00     0.014 A 
HETATM   20  C13 UNL     1       2.584   6.019   9.166  1.00  0.00     0.002 A 
HETATM   21  C15 UNL     1       1.683   6.613  10.060  1.00  0.00     0.022 A 
BRANCH  20  22
HETATM   22  C14 UNL     1       3.524   4.968   9.663  1.00  0.00     0.081 C 
HETATM   23  N3  UNL     1       4.681   5.318  10.129  1.00  0.00    -0.389 N 
HETATM   24  H16 UNL     1       5.181   4.492  10.462  1.00  0.00     0.157 HD
ATOM     25  H3  UNL     1       5.038   6.273  10.160  1.00  0.00     0.157 HD
BRANCH  22  26
HETATM   26  N4  UNL     1       3.187   3.645   9.617  1.00  0.00    -0.288 NA
HETATM   27  H17 UNL     1       2.537   3.383   8.883  1.00  0.00     0.125 HD
HETATM   28  H18 UNL     1       3.963   2.995   9.665  1.00  0.00     0.125 HD
ENDBRANCH  22  26
ENDBRANCH  20  22
ENDBRANCH  15  16
ENDBRANCH   1  15
BRANCH   1  29
HETATM   29  N5  UNL     1      -1.379   7.091  12.388  1.00  0.00    -0.301 N 
HETATM   30  H20 UNL     1      -2.043   7.762  12.786  1.00  0.00     0.173 HD
BRANCH  29  31
HETATM   31  S1  UNL     1      -1.435   5.586  13.122  1.00  0.00     0.260 S 
HETATM   32  O4  UNL     1      -0.782   4.661  12.227  1.00  0.00    -0.200 OA
HETATM   33  O5  UNL     1      -0.879   5.753  14.446  1.00  0.00    -0.200 OA
BRANCH  31  34
HETATM   34  C16 UNL     1      -3.204   5.182  13.204  1.00  0.00     0.092 A 
HETATM   35  C17 UNL     1      -4.110   6.024  13.929  1.00  0.00    -0.030 A 
HETATM   36  C21 UNL     1      -5.492   5.686  13.906  1.00  0.00     0.016 A 
HETATM   37  C22 UNL     1      -6.007   4.600  13.206  1.00  0.00    -0.054 A 
HETATM   38  C26 UNL     1      -5.114   3.813  12.489  1.00  0.00     0.016 A 
HETATM   39  C27 UNL     1      -3.720   4.055  12.472  1.00  0.00    -0.030 A 
BRANCH  35  40
HETATM   40  C18 UNL     1      -3.851   7.320  14.717  1.00  0.00     0.012 C 
HETATM   41  C19 UNL     1      -2.777   7.336  15.804  1.00  0.00     0.015 C 
HETATM   42  C20 UNL     1      -3.825   8.561  13.816  1.00  0.00     0.015 C 
ENDBRANCH  35  40
BRANCH  37  43
HETATM   43  C23 UNL     1      -7.490   4.278  13.190  1.00  0.00     0.010 C 
HETATM   44  C24 UNL     1      -7.742   2.805  12.855  1.00  0.00     0.015 C 
HETATM   45  C25 UNL     1      -8.257   5.194  12.233  1.00  0.00     0.015 C 
ENDBRANCH  37  43
BRANCH  39  46
HETATM   46  C28 UNL     1      -2.898   3.103  11.596  1.00  0.00     0.012 C 
HETATM   47  C29 UNL     1      -2.998   3.511  10.122  1.00  0.00     0.015 C 
HETATM   48  C30 UNL     1      -3.265   1.613  11.741  1.00  0.00     0.015 C 
ENDBRANCH  39  46
ENDBRANCH  31  34
ENDBRANCH  29  31
ENDBRANCH   1  29
TORSDOF 13
ENDMDL
MODEL 9
REMARK minimizedAffinity -9.60557842
REMARK CNNscore 0.0588198155
REMARK CNNaffinity 6.27945089
REMARK  13 active torsions:
REMARK  status: ('A' for Active; 'I' for Inactive)
REMARK    1  A    between atoms: C2_2  and  O1_3 
REMARK    2  A    between atoms: O1_3  and  C3_4 
REMARK       I    between atoms: C3_4  and  N1_6 
REMARK       I    between atoms: N2_9  and  C6_10 
REMARK    3  A    between atoms: C6_10  and  C7_12 
REMARK    4  A    between atoms: C7_12  and  C8_13 
REMARK    5  A    between atoms: C7_12  and  N5_24 
REMARK    6  A    between atoms: C8_13  and  C9_14 
REMARK    7  A    between atoms: C13_18  and  C14_19 
REMARK    8  A    between atoms: C14_19  and  N4_22 
REMARK    9  A    between atoms: N5_24  and  S1_25 
REMARK   10  A    between atoms: S1_25  and  C16_28 
REMARK   11  A    between atoms: C17_29  and  C18_30 
REMARK   12  A    between atoms: C22_34  and  C23_35 
REMARK   13  A    between atoms: C27_39  and  C28_40 
ROOT
HETATM    1  C7  UNL     1       0.012   7.280  12.192  1.00  0.00     0.189 C 
ENDROOT
BRANCH   1   2
HETATM    2  C6  UNL     1       0.820   7.939  13.326  1.00  0.00     0.243 C 
HETATM    3  N2  UNL     1       0.298   9.039  14.002  1.00  0.00    -0.347 N 
HETATM    4  C5  UNL     1      -1.078   9.535  13.865  1.00  0.00     0.146 C 
HETATM    5  C31 UNL     1       0.955   9.412  15.261  1.00  0.00     0.146 C 
HETATM    6  C4  UNL     1      -1.224  11.023  14.215  1.00  0.00     0.148 C 
HETATM    7  N1  UNL     1      -0.555  11.376  15.461  1.00  0.00    -0.325 N 
HETATM    8  C3  UNL     1      -1.018  12.480  16.159  1.00  0.00     0.362 C 
HETATM    9  C32 UNL     1       0.820  10.899  15.597  1.00  0.00     0.148 C 
HETATM   10  O2  UNL     1      -2.044  13.085  15.872  1.00  0.00    -0.238 OA
HETATM   11  O3  UNL     1       1.930   7.477  13.619  1.00  0.00    -0.271 OA
BRANCH   8  12
HETATM   12  O1  UNL     1      -0.204  12.816  17.196  1.00  0.00    -0.304 OA
BRANCH  12  13
HETATM   13  C2  UNL     1      -0.790  12.763  18.504  1.00  0.00     0.176 C 
HETATM   14  C1  UNL     1      -0.379  11.477  19.197  1.00  0.00     0.034 C 
ENDBRANCH  12  13
ENDBRANCH   8  12
ENDBRANCH   1   2
BRANCH   1  15
HETATM   15  C8  UNL     1      -0.095   8.171  10.938  1.00  0.00     0.074 C 
BRANCH  15  16
HETATM   16  C9  UNL     1       0.716   7.711   9.745  1.00  0.00    -0.055 A 
HETATM   17  C10 UNL     1       0.563   8.325   8.496  1.00  0.00     0.007 A 
HETATM   18  C11 UNL     1       1.322   7.903   7.403  1.00  0.00     0.002 A 
HETATM   19  C12 UNL     1       2.249   6.869   7.546  1.00  0.00     0.014 A 
HETATM   20  C13 UNL     1       2.424   6.255   8.790  1.00  0.00     0.002 A 
HETATM   21  C15 UNL     1       1.648   6.672   9.880  1.00  0.00     0.022 A 
BRANCH  20  22
HETATM   22  C14 UNL     1       3.420   5.155   8.978  1.00  0.00     0.081 C 
HETATM   23  N3  UNL     1       4.204   5.176  10.008  1.00  0.00    -0.389 N 
HETATM   24  H16 UNL     1       4.791   4.340  10.010  1.00  0.00     0.157 HD
ATOM     25  H3  UNL     1       4.233   5.915  10.711  1.00  0.00     0.157 HD
BRANCH  22  26
HETATM   26  N4  UNL     1       3.524   4.139   8.071  1.00  0.00    -0.288 NA
HETATM   27  H17 UNL     1       3.254   4.370   7.120  1.00  0.00     0.125 HD
HETATM   28  H18 UNL     1       4.397   3.627   8.087  1.00  0.00     0.125 HD
ENDBRANCH  22  26
ENDBRANCH  20  22
ENDBRANCH  15  16
ENDBRANCH   1  15
BRANCH   1  29
HETATM   29  N5  UNL     1      -1.363   7.006  12.689  1.00  0.00    -0.301 N 
HETATM   30  H20 UNL     1      -1.842   7.866  12.975  1.00  0.00     0.173 HD
BRANCH  29  31
HETATM   31  S1  UNL     1      -1.666   5.708  13.704  1.00  0.00     0.260 S 
HETATM   32  O4  UNL     1      -0.870   4.606  13.219  1.00  0.00    -0.200 OA
HETATM   33  O5  UNL     1      -1.427   6.174  15.052  1.00  0.00    -0.200 OA
BRANCH  31  34
HETATM   34  C16 UNL     1      -3.424   5.327  13.447  1.00  0.00     0.092 A 
HETATM   35  C17 UNL     1      -3.816   4.202  12.651  1.00  0.00    -0.030 A 
HETATM   36  C21 UNL     1      -5.207   3.923  12.537  1.00  0.00     0.016 A 
HETATM   37  C22 UNL     1      -6.196   4.670  13.169  1.00  0.00    -0.054 A 
HETATM   38  C26 UNL     1      -5.791   5.741  13.956  1.00  0.00     0.016 A 
HETATM   39  C27 UNL     1      -4.434   6.111  14.109  1.00  0.00    -0.030 A 
BRANCH  35  40
HETATM   40  C18 UNL     1      -2.961   3.158  11.912  1.00  0.00     0.012 C 
HETATM   41  C19 UNL     1      -3.418   1.700  11.881  1.00  0.00     0.015 C 
HETATM   42  C20 UNL     1      -2.451   3.667  10.558  1.00  0.00     0.015 C 
ENDBRANCH  35  40
BRANCH  37  43
HETATM   43  C23 UNL     1      -7.670   4.334  13.038  1.00  0.00     0.010 C 
HETATM   44  C24 UNL     1      -7.880   2.868  12.651  1.00  0.00     0.015 C 
HETATM   45  C25 UNL     1      -8.378   5.267  12.052  1.00  0.00     0.015 C 
ENDBRANCH  37  43
BRANCH  39  46
HETATM   46  C28 UNL     1      -4.178   7.297  15.046  1.00  0.00     0.012 C 
HETATM   47  C29 UNL     1      -4.002   8.588  14.237  1.00  0.00     0.015 C 
HETATM   48  C30 UNL     1      -2.980   7.121  15.998  1.00  0.00     0.015 C 
ENDBRANCH  39  46
ENDBRANCH  31  34
ENDBRANCH  29  31
ENDBRANCH   1  29
TORSDOF 13
ENDMDL
