MODEL 1
REMARK minimizedAffinity -9.861166
REMARK  8 active torsions:
REMARK  status: ('A' for Active; 'I' for Inactive)
REMARK    1  A    between atoms: C4_4  and  C5_5 
REMARK    2  A    between atoms: C5_5  and  C6_6 
REMARK    3  A    between atoms: C6_6  and  C7_7 
REMARK    4  A    between atoms: C7_7  and  C9_9 
REMARK    5  A    between atoms: C25_26  and  C27_28 
REMARK    6  A    between atoms: C27_28  and  O3_30 
REMARK    7  A    between atoms: C28_31  and  O4_32 
REMARK    8  A    between atoms: C30_34  and  O5_35 
ROOT
HETATM    1  C9  UNL     1      -1.194  49.372 -18.333  1.00  0.00    -0.002 C 
HETATM    2  C10 UNL     1      -2.364  48.359 -18.509  1.00  0.00     0.007 C 
HETATM    3  C11 UNL     1      -2.773  48.375 -19.993  1.00  0.00     0.015 C 
HETATM    4  C12 UNL     1      -1.643  49.130 -20.718  1.00  0.00    -0.005 C 
HETATM    5  C13 UNL     1      -0.505  48.096 -20.989  1.00  0.00     0.021 C 
HETATM    6  C14 UNL     1      -1.892  49.784 -22.074  1.00  0.00    -0.000 C 
HETATM    7  C15 UNL     1      -1.226  50.912 -22.450  1.00  0.00    -0.058 C 
HETATM    8  C16 UNL     1      -0.236  51.581 -21.494  1.00  0.00     0.036 C 
HETATM    9  C17 UNL     1      -0.041  50.951 -20.101  1.00  0.00     0.015 C 
HETATM   10  C18 UNL     1      -1.308  50.229 -19.631  1.00  0.00    -0.028 C 
HETATM   11  C19 UNL     1      -2.445  51.286 -19.451  1.00  0.00     0.016 C 
HETATM   12  C20 UNL     1      -1.469  51.618 -23.831  1.00  0.00     0.011 C 
HETATM   13  C21 UNL     1      -2.639  52.589 -23.559  1.00  0.00     0.023 C 
HETATM   14  C22 UNL     1      -1.790  50.470 -24.850  1.00  0.00     0.029 C 
HETATM   15  C23 UNL     1      -3.023  49.678 -24.412  1.00  0.00     0.090 C 
HETATM   16  C24 UNL     1      -2.848  49.116 -23.020  1.00  0.00     0.157 C 
HETATM   17  O1  UNL     1      -3.492  48.124 -22.681  1.00  0.00    -0.293 OA
HETATM   18  C25 UNL     1      -1.674  50.801 -26.389  1.00  0.00     0.072 C 
HETATM   19  C26 UNL     1      -0.461  49.975 -26.928  1.00  0.00     0.030 C 
HETATM   20  C28 UNL     1      -1.374  52.280 -26.711  1.00  0.00     0.139 C 
HETATM   21  C29 UNL     1      -0.313  52.917 -25.822  1.00  0.00     0.065 C 
HETATM   22  C30 UNL     1      -0.212  52.375 -24.386  1.00  0.00     0.133 C 
ENDROOT
BRANCH   1  23
HETATM   23  C7  UNL     1      -1.238  50.063 -16.939  1.00  0.00    -0.014 C 
HETATM   24  C8  UNL     1      -2.284  49.394 -16.028  1.00  0.00     0.010 C 
BRANCH  23  25
HETATM   25  C6  UNL     1       0.118  50.137 -16.198  1.00  0.00     0.008 C 
BRANCH  25  26
HETATM   26  C5  UNL     1       0.496  51.524 -15.668  1.00  0.00     0.028 C 
BRANCH  26  27
HETATM   27  C4  UNL     1       1.833  51.965 -16.199  1.00  0.00    -0.025 C 
HETATM   28  C2  UNL     1       3.013  51.991 -15.547  1.00  0.00    -0.091 C 
HETATM   29  C1  UNL     1       3.206  51.633 -14.099  1.00  0.00     0.042 C 
HETATM   30  C3  UNL     1       4.276  52.401 -16.258  1.00  0.00     0.042 C 
ENDBRANCH  26  27
ENDBRANCH  25  26
ENDBRANCH  23  25
ENDBRANCH   1  23
BRANCH  22  31
HETATM   31  O5  UNL     1       0.194  53.475 -23.567  1.00  0.00    -0.394 OA
HETATM   32  H46 UNL     1      -0.513  54.144 -23.579  1.00  0.00     0.210 HD
ENDBRANCH  22  31
BRANCH  18  33
HETATM   33  C27 UNL     1      -2.864  50.373 -27.260  1.00  0.00     0.151 C 
HETATM   34  O2  UNL     1      -3.735  49.573 -26.938  1.00  0.00    -0.649 OA
BRANCH  33  35
HETATM   35  O3  UNL     1      -2.908  50.921 -28.488  1.00  0.00    -0.776 OA
HETATM   36  H40 UNL     1      -3.696  50.509 -28.903  1.00  0.00     0.167 HD
ENDBRANCH  33  35
ENDBRANCH  18  33
BRANCH  20  37
HETATM   37  O4  UNL     1      -2.548  53.086 -26.628  1.00  0.00    -0.394 OA
HETATM   38  H42 UNL     1      -2.380  53.913 -27.116  1.00  0.00     0.210 HD
ENDBRANCH  20  37
TORSDOF 8
ENDMDL
MODEL 2
REMARK minimizedAffinity -9.82764244
REMARK  8 active torsions:
REMARK  status: ('A' for Active; 'I' for Inactive)
REMARK    1  A    between atoms: C4_4  and  C5_5 
REMARK    2  A    between atoms: C5_5  and  C6_6 
REMARK    3  A    between atoms: C6_6  and  C7_7 
REMARK    4  A    between atoms: C7_7  and  C9_9 
REMARK    5  A    between atoms: C25_26  and  C27_28 
REMARK    6  A    between atoms: C27_28  and  O3_30 
REMARK    7  A    between atoms: C28_31  and  O4_32 
REMARK    8  A    between atoms: C30_34  and  O5_35 
ROOT
HETATM    1  C9  UNL     1      -0.660  52.356 -24.362  1.00  0.00    -0.002 C 
HETATM    2  C10 UNL     1      -0.232  51.477 -25.575  1.00  0.00     0.007 C 
HETATM    3  C11 UNL     1      -1.362  50.465 -25.836  1.00  0.00     0.015 C 
HETATM    4  C12 UNL     1      -2.558  50.967 -25.006  1.00  0.00    -0.005 C 
HETATM    5  C13 UNL     1      -3.274  52.063 -25.857  1.00  0.00     0.021 C 
HETATM    6  C14 UNL     1      -3.677  50.012 -24.599  1.00  0.00    -0.000 C 
HETATM    7  C15 UNL     1      -4.367  50.184 -23.437  1.00  0.00    -0.058 C 
HETATM    8  C16 UNL     1      -4.004  51.323 -22.482  1.00  0.00     0.036 C 
HETATM    9  C17 UNL     1      -2.830  52.241 -22.870  1.00  0.00     0.015 C 
HETATM   10  C18 UNL     1      -1.798  51.501 -23.726  1.00  0.00    -0.028 C 
HETATM   11  C19 UNL     1      -1.164  50.361 -22.865  1.00  0.00     0.016 C 
HETATM   12  C20 UNL     1      -5.513  49.211 -22.982  1.00  0.00     0.011 C 
HETATM   13  C21 UNL     1      -4.778  48.101 -22.197  1.00  0.00     0.023 C 
HETATM   14  C22 UNL     1      -6.217  48.731 -24.298  1.00  0.00     0.029 C 
HETATM   15  C23 UNL     1      -5.226  48.020 -25.221  1.00  0.00     0.090 C 
HETATM   16  C24 UNL     1      -4.046  48.907 -25.546  1.00  0.00     0.157 C 
HETATM   17  O1  UNL     1      -3.405  48.708 -26.577  1.00  0.00    -0.293 OA
HETATM   18  C25 UNL     1      -7.651  48.082 -24.168  1.00  0.00     0.072 C 
HETATM   19  C26 UNL     1      -8.648  49.081 -24.841  1.00  0.00     0.030 C 
HETATM   20  C28 UNL     1      -8.141  47.882 -22.719  1.00  0.00     0.139 C 
HETATM   21  C29 UNL     1      -7.869  49.062 -21.793  1.00  0.00     0.065 C 
HETATM   22  C30 UNL     1      -6.617  49.898 -22.104  1.00  0.00     0.133 C 
ENDROOT
BRANCH   1  23
HETATM   23  C7  UNL     1       0.566  52.783 -23.502  1.00  0.00    -0.014 C 
HETATM   24  C8  UNL     1       0.995  54.224 -23.838  1.00  0.00     0.010 C 
BRANCH  23  25
HETATM   25  C6  UNL     1       0.379  52.644 -21.974  1.00  0.00     0.008 C 
BRANCH  25  26
HETATM   26  C5  UNL     1       0.890  53.826 -21.144  1.00  0.00     0.028 C 
BRANCH  26  27
HETATM   27  C4  UNL     1       1.262  53.395 -19.751  1.00  0.00    -0.025 C 
HETATM   28  C2  UNL     1       0.499  52.729 -18.862  1.00  0.00    -0.091 C 
HETATM   29  C1  UNL     1      -0.937  52.335 -19.080  1.00  0.00     0.042 C 
HETATM   30  C3  UNL     1       1.059  52.315 -17.526  1.00  0.00     0.042 C 
ENDBRANCH  26  27
ENDBRANCH  25  26
ENDBRANCH  23  25
ENDBRANCH   1  23
BRANCH  22  31
HETATM   31  O5  UNL     1      -6.127  50.376 -20.848  1.00  0.00    -0.394 OA
HETATM   32  H46 UNL     1      -5.844  49.610 -20.319  1.00  0.00     0.210 HD
ENDBRANCH  22  31
BRANCH  18  33
HETATM   33  C27 UNL     1      -7.857  46.754 -24.911  1.00  0.00     0.151 C 
HETATM   34  O2  UNL     1      -7.594  46.545 -26.089  1.00  0.00    -0.649 OA
BRANCH  33  35
HETATM   35  O3  UNL     1      -8.404  45.764 -24.183  1.00  0.00    -0.776 OA
HETATM   36  H40 UNL     1      -8.494  45.024 -24.820  1.00  0.00     0.167 HD
ENDBRANCH  33  35
ENDBRANCH  18  33
BRANCH  20  37
HETATM   37  O4  UNL     1      -7.565  46.722 -22.123  1.00  0.00    -0.394 OA
HETATM   38  H42 UNL     1      -8.113  46.476 -21.356  1.00  0.00     0.210 HD
ENDBRANCH  20  37
TORSDOF 8
ENDMDL
MODEL 3
REMARK minimizedAffinity -9.70654964
REMARK  8 active torsions:
REMARK  status: ('A' for Active; 'I' for Inactive)
REMARK    1  A    between atoms: C4_4  and  C5_5 
REMARK    2  A    between atoms: C5_5  and  C6_6 
REMARK    3  A    between atoms: C6_6  and  C7_7 
REMARK    4  A    between atoms: C7_7  and  C9_9 
REMARK    5  A    between atoms: C25_26  and  C27_28 
REMARK    6  A    between atoms: C27_28  and  O3_30 
REMARK    7  A    between atoms: C28_31  and  O4_32 
REMARK    8  A    between atoms: C30_34  and  O5_35 
ROOT
HETATM    1  C9  UNL     1      -3.249  48.216 -19.357  1.00  0.00    -0.002 C 
HETATM    2  C10 UNL     1      -4.294  47.480 -20.248  1.00  0.00     0.007 C 
HETATM    3  C11 UNL     1      -4.039  47.903 -21.707  1.00  0.00     0.015 C 
HETATM    4  C12 UNL     1      -2.668  48.604 -21.693  1.00  0.00    -0.005 C 
HETATM    5  C13 UNL     1      -1.583  47.483 -21.775  1.00  0.00     0.021 C 
HETATM    6  C14 UNL     1      -2.285  49.583 -22.800  1.00  0.00    -0.000 C 
HETATM    7  C15 UNL     1      -1.459  50.639 -22.557  1.00  0.00    -0.058 C 
HETATM    8  C16 UNL     1      -0.925  50.896 -21.147  1.00  0.00     0.036 C 
HETATM    9  C17 UNL     1      -1.370  49.940 -20.023  1.00  0.00     0.015 C 
HETATM   10  C18 UNL     1      -2.756  49.353 -20.304  1.00  0.00    -0.028 C 
HETATM   11  C19 UNL     1      -3.801  50.516 -20.294  1.00  0.00     0.016 C 
HETATM   12  C20 UNL     1      -1.058  51.673 -23.669  1.00  0.00     0.011 C 
HETATM   13  C21 UNL     1      -2.175  52.738 -23.616  1.00  0.00     0.023 C 
HETATM   14  C22 UNL     1      -0.987  50.858 -25.008  1.00  0.00     0.029 C 
HETATM   15  C23 UNL     1      -2.334  50.206 -25.323  1.00  0.00     0.090 C 
HETATM   16  C24 UNL     1      -2.793  49.319 -24.188  1.00  0.00     0.157 C 
HETATM   17  O1  UNL     1      -3.576  48.399 -24.417  1.00  0.00    -0.293 OA
HETATM   18  C25 UNL     1      -0.217  51.509 -26.222  1.00  0.00     0.072 C 
HETATM   19  C26 UNL     1       1.060  50.637 -26.452  1.00  0.00     0.030 C 
HETATM   20  C28 UNL     1       0.276  52.951 -25.978  1.00  0.00     0.139 C 
HETATM   21  C29 UNL     1       0.902  53.180 -24.607  1.00  0.00     0.065 C 
HETATM   22  C30 UNL     1       0.358  52.315 -23.457  1.00  0.00     0.133 C 
ENDROOT
BRANCH   1  23
HETATM   23  C7  UNL     1      -3.833  48.566 -17.958  1.00  0.00    -0.014 C 
HETATM   24  C8  UNL     1      -5.063  47.694 -17.643  1.00  0.00     0.010 C 
BRANCH  23  25
HETATM   25  C6  UNL     1      -2.829  48.482 -16.785  1.00  0.00     0.008 C 
BRANCH  25  26
HETATM   26  C5  UNL     1      -2.698  49.758 -15.946  1.00  0.00     0.028 C 
BRANCH  26  27
HETATM   27  C4  UNL     1      -1.640  50.671 -16.505  1.00  0.00    -0.025 C 
HETATM   28  C2  UNL     1      -0.316  50.438 -16.602  1.00  0.00    -0.091 C 
HETATM   29  C1  UNL     1       0.383  49.205 -16.096  1.00  0.00     0.042 C 
HETATM   30  C3  UNL     1       0.596  51.444 -17.255  1.00  0.00     0.042 C 
ENDBRANCH  26  27
ENDBRANCH  25  26
ENDBRANCH  23  25
ENDBRANCH   1  23
BRANCH  22  31
HETATM   31  O5  UNL     1       0.446  53.114 -22.274  1.00  0.00    -0.394 OA
HETATM   32  H46 UNL     1      -0.150  53.877 -22.374  1.00  0.00     0.210 HD
ENDBRANCH  22  31
BRANCH  18  33
HETATM   33  C27 UNL     1      -0.953  51.498 -27.570  1.00  0.00     0.151 C 
HETATM   34  O2  UNL     1      -1.971  50.862 -27.823  1.00  0.00    -0.649 OA
BRANCH  33  35
HETATM   35  O3  UNL     1      -0.391  52.236 -28.542  1.00  0.00    -0.776 OA
HETATM   36  H40 UNL     1      -0.965  52.079 -29.322  1.00  0.00     0.167 HD
ENDBRANCH  33  35
ENDBRANCH  18  33
BRANCH  20  37
HETATM   37  O4  UNL     1      -0.775  53.902 -26.138  1.00  0.00    -0.394 OA
HETATM   38  H42 UNL     1      -0.369  54.777 -26.272  1.00  0.00     0.210 HD
ENDBRANCH  20  37
TORSDOF 8
ENDMDL
MODEL 4
REMARK minimizedAffinity -9.65560055
REMARK  8 active torsions:
REMARK  status: ('A' for Active; 'I' for Inactive)
REMARK    1  A    between atoms: C4_4  and  C5_5 
REMARK    2  A    between atoms: C5_5  and  C6_6 
REMARK    3  A    between atoms: C6_6  and  C7_7 
REMARK    4  A    between atoms: C7_7  and  C9_9 
REMARK    5  A    between atoms: C25_26  and  C27_28 
REMARK    6  A    between atoms: C27_28  and  O3_30 
REMARK    7  A    between atoms: C28_31  and  O4_32 
REMARK    8  A    between atoms: C30_34  and  O5_35 
ROOT
HETATM    1  C9  UNL     1      -0.577  52.202 -21.839  1.00  0.00    -0.002 C 
HETATM    2  C10 UNL     1      -0.042  52.003 -23.288  1.00  0.00     0.007 C 
HETATM    3  C11 UNL     1      -1.098  51.196 -24.065  1.00  0.00     0.015 C 
HETATM    4  C12 UNL     1      -2.359  51.218 -23.181  1.00  0.00    -0.005 C 
HETATM    5  C13 UNL     1      -3.097  52.563 -23.474  1.00  0.00     0.021 C 
HETATM    6  C14 UNL     1      -3.438  50.151 -23.341  1.00  0.00    -0.000 C 
HETATM    7  C15 UNL     1      -4.191  49.740 -22.282  1.00  0.00    -0.058 C 
HETATM    8  C16 UNL     1      -3.940  50.313 -20.885  1.00  0.00     0.036 C 
HETATM    9  C17 UNL     1      -2.804  51.341 -20.722  1.00  0.00     0.015 C 
HETATM   10  C18 UNL     1      -1.692  51.116 -21.751  1.00  0.00    -0.028 C 
HETATM   11  C19 UNL     1      -1.034  49.725 -21.475  1.00  0.00     0.016 C 
HETATM   12  C20 UNL     1      -5.299  48.634 -22.409  1.00  0.00     0.011 C 
HETATM   13  C21 UNL     1      -4.538  47.309 -22.180  1.00  0.00     0.023 C 
HETATM   14  C22 UNL     1      -5.911  48.802 -23.843  1.00  0.00     0.029 C 
HETATM   15  C23 UNL     1      -4.838  48.633 -24.920  1.00  0.00     0.090 C 
HETATM   16  C24 UNL     1      -3.698  49.604 -24.715  1.00  0.00     0.157 C 
HETATM   17  O1  UNL     1      -2.998  49.927 -25.674  1.00  0.00    -0.293 OA
HETATM   18  C25 UNL     1      -7.309  48.126 -24.127  1.00  0.00     0.072 C 
HETATM   19  C26 UNL     1      -8.330  49.293 -24.326  1.00  0.00     0.030 C 
HETATM   20  C28 UNL     1      -7.855  47.260 -22.973  1.00  0.00     0.139 C 
HETATM   21  C29 UNL     1      -7.696  47.879 -21.589  1.00  0.00     0.065 C 
HETATM   22  C30 UNL     1      -6.481  48.801 -21.391  1.00  0.00     0.133 C 
ENDROOT
BRANCH   1  23
HETATM   23  C7  UNL     1       0.580  52.215 -20.797  1.00  0.00    -0.014 C 
HETATM   24  C8  UNL     1       1.523  53.409 -21.040  1.00  0.00     0.010 C 
BRANCH  23  25
HETATM   25  C6  UNL     1       0.134  52.205 -19.317  1.00  0.00     0.008 C 
BRANCH  25  26
HETATM   26  C5  UNL     1       1.100  52.882 -18.339  1.00  0.00     0.028 C 
BRANCH  26  27
HETATM   27  C4  UNL     1       1.151  52.149 -17.026  1.00  0.00    -0.025 C 
HETATM   28  C2  UNL     1       2.165  52.113 -16.140  1.00  0.00    -0.091 C 
HETATM   29  C1  UNL     1       3.505  52.770 -16.334  1.00  0.00     0.042 C 
HETATM   30  C3  UNL     1       2.019  51.378 -14.833  1.00  0.00     0.042 C 
ENDBRANCH  26  27
ENDBRANCH  25  26
ENDBRANCH  23  25
ENDBRANCH   1  23
BRANCH  22  31
HETATM   31  O5  UNL     1      -6.079  48.652 -20.026  1.00  0.00    -0.394 OA
HETATM   32  H46 UNL     1      -5.777  47.737 -19.894  1.00  0.00     0.210 HD
ENDBRANCH  22  31
BRANCH  18  33
HETATM   33  C27 UNL     1      -7.404  47.291 -25.412  1.00  0.00     0.151 C 
HETATM   34  O2  UNL     1      -7.589  46.081 -25.467  1.00  0.00    -0.649 OA
BRANCH  33  35
HETATM   35  O3  UNL     1      -7.235  47.974 -26.558  1.00  0.00    -0.776 OA
HETATM   36  H40 UNL     1      -7.288  47.285 -27.255  1.00  0.00     0.167 HD
ENDBRANCH  33  35
ENDBRANCH  18  33
BRANCH  20  37
HETATM   37  O4  UNL     1      -7.241  45.972 -22.944  1.00  0.00    -0.394 OA
HETATM   38  H42 UNL     1      -7.809  45.381 -22.418  1.00  0.00     0.210 HD
ENDBRANCH  20  37
TORSDOF 8
ENDMDL
MODEL 5
REMARK minimizedAffinity -9.19244957
REMARK  8 active torsions:
REMARK  status: ('A' for Active; 'I' for Inactive)
REMARK    1  A    between atoms: C4_4  and  C5_5 
REMARK    2  A    between atoms: C5_5  and  C6_6 
REMARK    3  A    between atoms: C6_6  and  C7_7 
REMARK    4  A    between atoms: C7_7  and  C9_9 
REMARK    5  A    between atoms: C25_26  and  C27_28 
REMARK    6  A    between atoms: C27_28  and  O3_30 
REMARK    7  A    between atoms: C28_31  and  O4_32 
REMARK    8  A    between atoms: C30_34  and  O5_35 
ROOT
HETATM    1  C9  UNL     1      -4.087  47.857 -19.998  1.00  0.00    -0.002 C 
HETATM    2  C10 UNL     1      -4.947  47.213 -21.126  1.00  0.00     0.007 C 
HETATM    3  C11 UNL     1      -4.448  47.777 -22.469  1.00  0.00     0.015 C 
HETATM    4  C12 UNL     1      -3.112  48.473 -22.146  1.00  0.00    -0.005 C 
HETATM    5  C13 UNL     1      -2.011  47.367 -22.143  1.00  0.00     0.021 C 
HETATM    6  C14 UNL     1      -2.559  49.557 -23.068  1.00  0.00    -0.000 C 
HETATM    7  C15 UNL     1      -1.806  50.584 -22.583  1.00  0.00    -0.058 C 
HETATM    8  C16 UNL     1      -1.533  50.702 -21.082  1.00  0.00     0.036 C 
HETATM    9  C17 UNL     1      -2.152  49.640 -20.152  1.00  0.00     0.015 C 
HETATM   10  C18 UNL     1      -3.456  49.082 -20.728  1.00  0.00    -0.028 C 
HETATM   11  C19 UNL     1      -4.507  50.239 -20.790  1.00  0.00     0.016 C 
HETATM   12  C20 UNL     1      -1.235  51.722 -23.501  1.00  0.00     0.011 C 
HETATM   13  C21 UNL     1      -2.363  52.777 -23.543  1.00  0.00     0.023 C 
HETATM   14  C22 UNL     1      -0.917  51.043 -24.879  1.00  0.00     0.029 C 
HETATM   15  C23 UNL     1      -2.176  50.425 -25.488  1.00  0.00     0.090 C 
HETATM   16  C24 UNL     1      -2.811  49.430 -24.543  1.00  0.00     0.157 C 
HETATM   17  O1  UNL     1      -3.526  48.537 -24.994  1.00  0.00    -0.293 OA
HETATM   18  C25 UNL     1       0.043  51.810 -25.870  1.00  0.00     0.072 C 
HETATM   19  C26 UNL     1       1.356  50.965 -25.954  1.00  0.00     0.030 C 
HETATM   20  C28 UNL     1       0.460  53.221 -25.404  1.00  0.00     0.139 C 
HETATM   21  C29 UNL     1       0.831  53.315 -23.929  1.00  0.00     0.065 C 
HETATM   22  C30 UNL     1       0.109  52.341 -22.982  1.00  0.00     0.133 C 
ENDROOT
BRANCH   1  23
HETATM   23  C7  UNL     1      -4.914  48.068 -18.696  1.00  0.00    -0.014 C 
HETATM   24  C8  UNL     1      -4.063  48.754 -17.611  1.00  0.00     0.010 C 
BRANCH  23  25
HETATM   25  C6  UNL     1      -6.240  48.843 -18.876  1.00  0.00     0.008 C 
BRANCH  25  26
HETATM   26  C5  UNL     1      -7.416  48.328 -18.039  1.00  0.00     0.028 C 
BRANCH  26  27
HETATM   27  C4  UNL     1      -8.688  48.304 -18.842  1.00  0.00    -0.025 C 
HETATM   28  C2  UNL     1      -9.940  48.074 -18.398  1.00  0.00    -0.091 C 
HETATM   29  C1  UNL     1     -10.303  47.725 -16.980  1.00  0.00     0.042 C 
HETATM   30  C3  UNL     1     -11.116  48.156 -19.337  1.00  0.00     0.042 C 
ENDBRANCH  26  27
ENDBRANCH  25  26
ENDBRANCH  23  25
ENDBRANCH   1  23
BRANCH  22  31
HETATM   31  O5  UNL     1      -0.025  53.020 -21.730  1.00  0.00    -0.394 OA
HETATM   32  H46 UNL     1      -0.607  53.789 -21.860  1.00  0.00     0.210 HD
ENDBRANCH  22  31
BRANCH  18  33
HETATM   33  C27 UNL     1      -0.445  51.931 -27.321  1.00  0.00     0.151 C 
HETATM   34  O2  UNL     1      -1.511  52.422 -27.678  1.00  0.00    -0.649 OA
BRANCH  33  35
HETATM   35  O3  UNL     1       0.378  51.419 -28.252  1.00  0.00    -0.776 OA
HETATM   36  H40 UNL     1      -0.107  51.550 -29.095  1.00  0.00     0.167 HD
ENDBRANCH  33  35
ENDBRANCH  18  33
BRANCH  20  37
HETATM   37  O4  UNL     1      -0.563  54.183 -25.655  1.00  0.00    -0.394 OA
HETATM   38  H42 UNL     1      -0.156  55.068 -25.629  1.00  0.00     0.210 HD
ENDBRANCH  20  37
TORSDOF 8
ENDMDL
MODEL 6
REMARK minimizedAffinity -9.1619606
REMARK  8 active torsions:
REMARK  status: ('A' for Active; 'I' for Inactive)
REMARK    1  A    between atoms: C4_4  and  C5_5 
REMARK    2  A    between atoms: C5_5  and  C6_6 
REMARK    3  A    between atoms: C6_6  and  C7_7 
REMARK    4  A    between atoms: C7_7  and  C9_9 
REMARK    5  A    between atoms: C25_26  and  C27_28 
REMARK    6  A    between atoms: C27_28  and  O3_30 
REMARK    7  A    between atoms: C28_31  and  O4_32 
REMARK    8  A    between atoms: C30_34  and  O5_35 
ROOT
HETATM    1  C9  UNL     1      -0.093  51.710 -23.402  1.00  0.00    -0.002 C 
HETATM    2  C10 UNL     1       0.035  52.566 -22.108  1.00  0.00     0.007 C 
HETATM    3  C11 UNL     1      -1.077  52.118 -21.142  1.00  0.00     0.015 C 
HETATM    4  C12 UNL     1      -1.623  50.804 -21.733  1.00  0.00    -0.005 C 
HETATM    5  C13 UNL     1      -0.674  49.660 -21.254  1.00  0.00     0.021 C 
HETATM    6  C14 UNL     1      -3.022  50.313 -21.373  1.00  0.00    -0.000 C 
HETATM    7  C15 UNL     1      -3.769  49.592 -22.255  1.00  0.00    -0.058 C 
HETATM    8  C16 UNL     1      -3.236  49.292 -23.658  1.00  0.00     0.036 C 
HETATM    9  C17 UNL     1      -1.850  49.849 -24.035  1.00  0.00     0.015 C 
HETATM   10  C18 UNL     1      -1.540  51.143 -23.276  1.00  0.00    -0.028 C 
HETATM   11  C19 UNL     1      -2.561  52.239 -23.723  1.00  0.00     0.016 C 
HETATM   12  C20 UNL     1      -5.218  49.084 -21.922  1.00  0.00     0.011 C 
HETATM   13  C21 UNL     1      -6.135  50.254 -22.344  1.00  0.00     0.023 C 
HETATM   14  C22 UNL     1      -5.219  48.768 -20.386  1.00  0.00     0.029 C 
HETATM   15  C23 UNL     1      -4.870  50.014 -19.570  1.00  0.00     0.090 C 
HETATM   16  C24 UNL     1      -3.537  50.590 -19.990  1.00  0.00     0.157 C 
HETATM   17  O1  UNL     1      -2.898  51.278 -19.196  1.00  0.00    -0.293 OA
HETATM   18  C25 UNL     1      -6.381  47.859 -19.825  1.00  0.00     0.072 C 
HETATM   19  C26 UNL     1      -5.716  46.517 -19.380  1.00  0.00     0.030 C 
HETATM   20  C28 UNL     1      -7.467  47.489 -20.856  1.00  0.00     0.139 C 
HETATM   21  C29 UNL     1      -6.928  47.091 -22.225  1.00  0.00     0.065 C 
HETATM   22  C30 UNL     1      -5.609  47.755 -22.656  1.00  0.00     0.133 C 
ENDROOT
BRANCH   1  23
HETATM   23  C7  UNL     1       0.319  52.517 -24.668  1.00  0.00    -0.014 C 
HETATM   24  C8  UNL     1       0.713  53.959 -24.294  1.00  0.00     0.010 C 
BRANCH  23  25
HETATM   25  C6  UNL     1       1.442  51.881 -25.519  1.00  0.00     0.008 C 
BRANCH  25  26
HETATM   26  C5  UNL     1       1.042  51.504 -26.950  1.00  0.00     0.028 C 
BRANCH  26  27
HETATM   27  C4  UNL     1      -0.382  51.022 -27.009  1.00  0.00    -0.025 C 
HETATM   28  C2  UNL     1      -1.474  51.721 -27.377  1.00  0.00    -0.091 C 
HETATM   29  C1  UNL     1      -1.483  53.178 -27.750  1.00  0.00     0.042 C 
HETATM   30  C3  UNL     1      -2.825  51.056 -27.444  1.00  0.00     0.042 C 
ENDBRANCH  26  27
ENDBRANCH  25  26
ENDBRANCH  23  25
ENDBRANCH   1  23
BRANCH  22  31
HETATM   31  O5  UNL     1      -5.671  47.890 -24.079  1.00  0.00    -0.394 OA
HETATM   32  H46 UNL     1      -6.392  48.505 -24.297  1.00  0.00     0.210 HD
ENDBRANCH  22  31
BRANCH  18  33
HETATM   33  C27 UNL     1      -7.098  48.382 -18.571  1.00  0.00     0.151 C 
HETATM   34  O2  UNL     1      -7.996  49.217 -18.557  1.00  0.00    -0.649 OA
BRANCH  33  35
HETATM   35  O3  UNL     1      -6.658  47.882 -17.403  1.00  0.00    -0.776 OA
HETATM   36  H40 UNL     1      -7.194  48.350 -16.728  1.00  0.00     0.167 HD
ENDBRANCH  33  35
ENDBRANCH  18  33
BRANCH  20  37
HETATM   37  O4  UNL     1      -8.396  48.554 -21.050  1.00  0.00    -0.394 OA
HETATM   38  H42 UNL     1      -9.199  48.182 -21.457  1.00  0.00     0.210 HD
ENDBRANCH  20  37
TORSDOF 8
ENDMDL
MODEL 7
REMARK minimizedAffinity -9.14077377
REMARK  8 active torsions:
REMARK  status: ('A' for Active; 'I' for Inactive)
REMARK    1  A    between atoms: C4_4  and  C5_5 
REMARK    2  A    between atoms: C5_5  and  C6_6 
REMARK    3  A    between atoms: C6_6  and  C7_7 
REMARK    4  A    between atoms: C7_7  and  C9_9 
REMARK    5  A    between atoms: C25_26  and  C27_28 
REMARK    6  A    between atoms: C27_28  and  O3_30 
REMARK    7  A    between atoms: C28_31  and  O4_32 
REMARK    8  A    between atoms: C30_34  and  O5_35 
ROOT
HETATM    1  C9  UNL     1      -0.429  51.685 -24.175  1.00  0.00    -0.002 C 
HETATM    2  C10 UNL     1       0.221  53.086 -23.970  1.00  0.00     0.007 C 
HETATM    3  C11 UNL     1       0.431  53.283 -22.457  1.00  0.00     0.015 C 
HETATM    4  C12 UNL     1       0.217  51.892 -21.833  1.00  0.00    -0.005 C 
HETATM    5  C13 UNL     1       1.566  51.118 -21.971  1.00  0.00     0.021 C 
HETATM    6  C14 UNL     1      -0.150  51.751 -20.358  1.00  0.00    -0.000 C 
HETATM    7  C15 UNL     1      -0.924  50.720 -19.915  1.00  0.00    -0.058 C 
HETATM    8  C16 UNL     1      -1.484  49.694 -20.902  1.00  0.00     0.036 C 
HETATM    9  C17 UNL     1      -1.162  49.882 -22.398  1.00  0.00     0.015 C 
HETATM   10  C18 UNL     1      -0.959  51.360 -22.745  1.00  0.00    -0.028 C 
HETATM   11  C19 UNL     1      -2.309  52.115 -22.515  1.00  0.00     0.016 C 
HETATM   12  C20 UNL     1      -1.333  50.555 -18.408  1.00  0.00     0.011 C 
HETATM   13  C21 UNL     1      -2.633  51.380 -18.276  1.00  0.00     0.023 C 
HETATM   14  C22 UNL     1      -0.122  51.097 -17.573  1.00  0.00     0.029 C 
HETATM   15  C23 UNL     1       0.163  52.562 -17.908  1.00  0.00     0.090 C 
HETATM   16  C24 UNL     1       0.416  52.747 -19.387  1.00  0.00     0.157 C 
HETATM   17  O1  UNL     1       1.078  53.710 -19.773  1.00  0.00    -0.293 OA
HETATM   18  C25 UNL     1      -0.043  50.694 -16.048  1.00  0.00     0.072 C 
HETATM   19  C26 UNL     1       1.195  49.751 -15.905  1.00  0.00     0.030 C 
HETATM   20  C28 UNL     1      -1.260  49.902 -15.525  1.00  0.00     0.139 C 
HETATM   21  C29 UNL     1      -1.754  48.811 -16.467  1.00  0.00     0.065 C 
HETATM   22  C30 UNL     1      -1.552  49.065 -17.971  1.00  0.00     0.133 C 
ENDROOT
BRANCH   1  23
HETATM   23  C7  UNL     1      -1.404  51.677 -25.388  1.00  0.00    -0.014 C 
HETATM   24  C8  UNL     1      -0.636  51.474 -26.707  1.00  0.00     0.010 C 
BRANCH  23  25
HETATM   25  C6  UNL     1      -2.557  50.651 -25.299  1.00  0.00     0.008 C 
BRANCH  25  26
HETATM   26  C5  UNL     1      -2.199  49.227 -25.741  1.00  0.00     0.028 C 
BRANCH  26  27
HETATM   27  C4  UNL     1      -3.075  48.772 -26.877  1.00  0.00    -0.025 C 
HETATM   28  C2  UNL     1      -4.363  48.379 -26.819  1.00  0.00    -0.091 C 
HETATM   29  C1  UNL     1      -5.173  48.258 -25.557  1.00  0.00     0.042 C 
HETATM   30  C3  UNL     1      -5.113  48.017 -28.074  1.00  0.00     0.042 C 
ENDBRANCH  26  27
ENDBRANCH  25  26
ENDBRANCH  23  25
ENDBRANCH   1  23
BRANCH  22  31
HETATM   31  O5  UNL     1      -2.648  48.433 -18.638  1.00  0.00    -0.394 OA
HETATM   32  H46 UNL     1      -3.468  48.883 -18.373  1.00  0.00     0.210 HD
ENDBRANCH  22  31
BRANCH  18  33
HETATM   33  C27 UNL     1       0.216  51.842 -15.062  1.00  0.00     0.151 C 
HETATM   34  O2  UNL     1      -0.362  52.012 -13.994  1.00  0.00    -0.649 OA
BRANCH  33  35
HETATM   35  O3  UNL     1       1.143  52.737 -15.447  1.00  0.00    -0.776 OA
HETATM   36  H40 UNL     1       1.144  53.402 -14.726  1.00  0.00     0.167 HD
ENDBRANCH  33  35
ENDBRANCH  18  33
BRANCH  20  37
HETATM   37  O4  UNL     1      -2.364  50.759 -15.240  1.00  0.00    -0.394 OA
HETATM   38  H42 UNL     1      -2.972  50.278 -14.651  1.00  0.00     0.210 HD
ENDBRANCH  20  37
TORSDOF 8
ENDMDL
MODEL 8
REMARK minimizedAffinity -9.04860973
REMARK  8 active torsions:
REMARK  status: ('A' for Active; 'I' for Inactive)
REMARK    1  A    between atoms: C4_4  and  C5_5 
REMARK    2  A    between atoms: C5_5  and  C6_6 
REMARK    3  A    between atoms: C6_6  and  C7_7 
REMARK    4  A    between atoms: C7_7  and  C9_9 
REMARK    5  A    between atoms: C25_26  and  C27_28 
REMARK    6  A    between atoms: C27_28  and  O3_30 
REMARK    7  A    between atoms: C28_31  and  O4_32 
REMARK    8  A    between atoms: C30_34  and  O5_35 
ROOT
HETATM    1  C9  UNL     1      -0.863  51.134 -21.879  1.00  0.00    -0.002 C 
HETATM    2  C10 UNL     1      -1.159  51.271 -20.356  1.00  0.00     0.007 C 
HETATM    3  C11 UNL     1      -2.470  50.516 -20.068  1.00  0.00     0.015 C 
HETATM    4  C12 UNL     1      -2.744  49.682 -21.334  1.00  0.00    -0.005 C 
HETATM    5  C13 UNL     1      -1.903  48.373 -21.208  1.00  0.00     0.021 C 
HETATM    6  C14 UNL     1      -4.156  49.196 -21.652  1.00  0.00    -0.000 C 
HETATM    7  C15 UNL     1      -4.577  49.036 -22.938  1.00  0.00    -0.058 C 
HETATM    8  C16 UNL     1      -3.651  49.385 -24.105  1.00  0.00     0.036 C 
HETATM    9  C17 UNL     1      -2.251  49.938 -23.773  1.00  0.00     0.015 C 
HETATM   10  C18 UNL     1      -2.249  50.695 -22.442  1.00  0.00    -0.028 C 
HETATM   11  C19 UNL     1      -3.167  51.953 -22.584  1.00  0.00     0.016 C 
HETATM   12  C20 UNL     1      -6.027  48.553 -23.300  1.00  0.00     0.011 C 
HETATM   13  C21 UNL     1      -6.856  49.855 -23.357  1.00  0.00     0.023 C 
HETATM   14  C22 UNL     1      -6.443  47.556 -22.164  1.00  0.00     0.029 C 
HETATM   15  C23 UNL     1      -6.417  48.241 -20.796  1.00  0.00     0.090 C 
HETATM   16  C24 UNL     1      -5.057  48.835 -20.507  1.00  0.00     0.157 C 
HETATM   17  O1  UNL     1      -4.712  49.016 -19.340  1.00  0.00    -0.293 OA
HETATM   18  C25 UNL     1      -7.659  46.589 -22.445  1.00  0.00     0.072 C 
HETATM   19  C26 UNL     1      -7.066  45.145 -22.521  1.00  0.00     0.030 C 
HETATM   20  C28 UNL     1      -8.384  46.835 -23.785  1.00  0.00     0.139 C 
HETATM   21  C29 UNL     1      -7.456  47.082 -24.968  1.00  0.00     0.065 C 
HETATM   22  C30 UNL     1      -6.112  47.759 -24.650  1.00  0.00     0.133 C 
ENDROOT
BRANCH   1  23
HETATM   23  C7  UNL     1      -0.160  52.403 -22.443  1.00  0.00    -0.014 C 
HETATM   24  C8  UNL     1       0.771  53.030 -21.388  1.00  0.00     0.010 C 
BRANCH  23  25
HETATM   25  C6  UNL     1       0.623  52.192 -23.760  1.00  0.00     0.008 C 
BRANCH  25  26
HETATM   26  C5  UNL     1       0.621  53.387 -24.719  1.00  0.00     0.028 C 
BRANCH  26  27
HETATM   27  C4  UNL     1       0.332  52.952 -26.130  1.00  0.00    -0.025 C 
HETATM   28  C2  UNL     1       1.071  52.139 -26.911  1.00  0.00    -0.091 C 
HETATM   29  C1  UNL     1       2.398  51.545 -26.527  1.00  0.00     0.042 C 
HETATM   30  C3  UNL     1       0.594  51.753 -28.288  1.00  0.00     0.042 C 
ENDBRANCH  26  27
ENDBRANCH  25  26
ENDBRANCH  23  25
ENDBRANCH   1  23
BRANCH  22  31
HETATM   31  O5  UNL     1      -5.777  48.549 -25.795  1.00  0.00    -0.394 OA
HETATM   32  H46 UNL     1      -6.443  49.252 -25.888  1.00  0.00     0.210 HD
ENDBRANCH  22  31
BRANCH  18  33
HETATM   33  C27 UNL     1      -8.732  46.521 -21.348  1.00  0.00     0.151 C 
HETATM   34  O2  UNL     1      -9.089  45.507 -20.760  1.00  0.00    -0.649 OA
BRANCH  33  35
HETATM   35  O3  UNL     1      -9.332  47.688 -21.054  1.00  0.00    -0.776 OA
HETATM   36  H40 UNL     1      -9.999  47.447 -20.376  1.00  0.00     0.167 HD
ENDBRANCH  33  35
ENDBRANCH  18  33
BRANCH  20  37
HETATM   37  O4  UNL     1      -9.283  47.939 -23.703  1.00  0.00    -0.394 OA
HETATM   38  H42 UNL     1      -9.914  47.868 -24.442  1.00  0.00     0.210 HD
ENDBRANCH  20  37
TORSDOF 8
ENDMDL
MODEL 9
REMARK minimizedAffinity -8.60794258
REMARK  8 active torsions:
REMARK  status: ('A' for Active; 'I' for Inactive)
REMARK    1  A    between atoms: C4_4  and  C5_5 
REMARK    2  A    between atoms: C5_5  and  C6_6 
REMARK    3  A    between atoms: C6_6  and  C7_7 
REMARK    4  A    between atoms: C7_7  and  C9_9 
REMARK    5  A    between atoms: C25_26  and  C27_28 
REMARK    6  A    between atoms: C27_28  and  O3_30 
REMARK    7  A    between atoms: C28_31  and  O4_32 
REMARK    8  A    between atoms: C30_34  and  O5_35 
ROOT
HETATM    1  C9  UNL     1      -2.958  50.691 -22.471  1.00  0.00    -0.002 C 
HETATM    2  C10 UNL     1      -1.913  51.838 -22.608  1.00  0.00     0.007 C 
HETATM    3  C11 UNL     1      -1.121  51.904 -21.288  1.00  0.00     0.015 C 
HETATM    4  C12 UNL     1      -1.476  50.607 -20.537  1.00  0.00    -0.005 C 
HETATM    5  C13 UNL     1      -0.545  49.486 -21.099  1.00  0.00     0.021 C 
HETATM    6  C14 UNL     1      -1.306  50.517 -19.023  1.00  0.00    -0.000 C 
HETATM    7  C15 UNL     1      -2.122  49.732 -18.264  1.00  0.00    -0.058 C 
HETATM    8  C16 UNL     1      -3.267  48.951 -18.912  1.00  0.00     0.036 C 
HETATM    9  C17 UNL     1      -3.471  49.101 -20.432  1.00  0.00     0.015 C 
HETATM   10  C18 UNL     1      -3.002  50.472 -20.928  1.00  0.00    -0.028 C 
HETATM   11  C19 UNL     1      -3.905  51.571 -20.279  1.00  0.00     0.016 C 
HETATM   12  C20 UNL     1      -1.985  49.629 -16.703  1.00  0.00     0.011 C 
HETATM   13  C21 UNL     1      -2.860  50.784 -16.168  1.00  0.00     0.023 C 
HETATM   14  C22 UNL     1      -0.453  49.767 -16.397  1.00  0.00     0.029 C 
HETATM   15  C23 UNL     1       0.090  51.102 -16.910  1.00  0.00     0.090 C 
HETATM   16  C24 UNL     1      -0.171  51.268 -18.389  1.00  0.00     0.157 C 
HETATM   17  O1  UNL     1       0.547  52.017 -19.050  1.00  0.00    -0.293 OA
HETATM   18  C25 UNL     1       0.057  49.296 -14.979  1.00  0.00     0.072 C 
HETATM   19  C26 UNL     1       0.944  48.032 -15.227  1.00  0.00     0.030 C 
HETATM   20  C28 UNL     1      -1.056  48.863 -14.002  1.00  0.00     0.139 C 
HETATM   21  C29 UNL     1      -2.144  47.998 -14.628  1.00  0.00     0.065 C 
HETATM   22  C30 UNL     1      -2.439  48.246 -16.117  1.00  0.00     0.133 C 
ENDROOT
BRANCH   1  23
HETATM   23  C7  UNL     1      -4.267  51.012 -23.249  1.00  0.00    -0.014 C 
HETATM   24  C8  UNL     1      -3.955  51.732 -24.575  1.00  0.00     0.010 C 
BRANCH  23  25
HETATM   25  C6  UNL     1      -5.184  49.798 -23.526  1.00  0.00     0.008 C 
BRANCH  25  26
HETATM   26  C5  UNL     1      -4.480  48.570 -24.112  1.00  0.00     0.028 C 
BRANCH  26  27
HETATM   27  C4  UNL     1      -4.838  48.376 -25.561  1.00  0.00    -0.025 C 
HETATM   28  C2  UNL     1      -4.024  48.471 -26.631  1.00  0.00    -0.091 C 
HETATM   29  C1  UNL     1      -2.572  48.863 -26.580  1.00  0.00     0.042 C 
HETATM   30  C3  UNL     1      -4.539  48.177 -28.017  1.00  0.00     0.042 C 
ENDBRANCH  26  27
ENDBRANCH  25  26
ENDBRANCH  23  25
ENDBRANCH   1  23
BRANCH  22  31
HETATM   31  O5  UNL     1      -3.833  47.982 -16.302  1.00  0.00    -0.394 OA
HETATM   32  H46 UNL     1      -4.339  48.637 -15.791  1.00  0.00     0.210 HD
ENDBRANCH  22  31
BRANCH  18  33
HETATM   33  C27 UNL     1       0.968  50.280 -14.231  1.00  0.00     0.151 C 
HETATM   34  O2  UNL     1       0.617  51.345 -13.738  1.00  0.00    -0.649 OA
BRANCH  33  35
HETATM   35  O3  UNL     1       2.263  49.924 -14.153  1.00  0.00    -0.776 OA
HETATM   36  H40 UNL     1       2.687  50.675 -13.686  1.00  0.00     0.167 HD
ENDBRANCH  33  35
ENDBRANCH  18  33
BRANCH  20  37
HETATM   37  O4  UNL     1      -1.693  49.988 -13.397  1.00  0.00    -0.394 OA
HETATM   38  H42 UNL     1      -2.155  49.677 -12.598  1.00  0.00     0.210 HD
ENDBRANCH  20  37
TORSDOF 8
ENDMDL
