MODEL 1
REMARK minimizedAffinity -8.96789074
REMARK CNNscore 0.557010829
REMARK CNNaffinity 6.64587069
REMARK  15 active torsions:
REMARK  status: ('A' for Active; 'I' for Inactive)
REMARK    1  A    between atoms: N1_2  and  C2_3 
REMARK    2  A    between atoms: C2_3  and  C3_4 
REMARK    3  A    between atoms: C3_4  and  C4_5 
REMARK    4  A    between atoms: C4_5  and  C5_6 
REMARK    5  A    between atoms: C4_5  and  C6_9 
REMARK    6  A    between atoms: C5_6  and  O2_8 
REMARK    7  A    between atoms: C6_9  and  C7_11 
REMARK    8  A    between atoms: C7_11  and  O4_12 
REMARK    9  A    between atoms: C7_11  and  C8_13 
REMARK   10  A    between atoms: C8_13  and  C9_14 
REMARK   11  A    between atoms: C9_14  and  C11_16 
REMARK   12  A    between atoms: C13_18  and  O5_19 
REMARK   13  A    between atoms: C16_22  and  O6_23 
REMARK   14  A    between atoms: C34_43  and  C35_44 
REMARK   15  A    between atoms: C36_45  and  C37_46 
ROOT
HETATM    1  C11 UNL     1     -14.112  44.460 -26.700  1.00  0.00     0.002 C 
HETATM    2  C12 UNL     1     -14.214  46.017 -26.452  1.00  0.00     0.049 C 
HETATM    3  C13 UNL     1     -12.791  46.532 -26.720  1.00  0.00     0.088 C 
HETATM    4  C14 UNL     1     -12.448  47.953 -27.025  1.00  0.00     0.011 C 
HETATM    5  C15 UNL     1     -11.253  48.190 -27.617  1.00  0.00     0.015 C 
HETATM    6  C16 UNL     1     -10.258  47.063 -27.976  1.00  0.00     0.108 C 
HETATM    7  C17 UNL     1     -10.961  45.758 -28.373  1.00  0.00    -0.018 C 
HETATM    8  C18 UNL     1     -10.406  44.768 -29.123  1.00  0.00     0.003 C 
HETATM    9  C19 UNL     1     -11.289  43.558 -29.454  1.00  0.00     0.157 C 
HETATM   10  O7  UNL     1     -10.988  42.782 -30.360  1.00  0.00    -0.293 OA
HETATM   11  C20 UNL     1     -12.634  43.324 -28.711  1.00  0.00     0.094 C 
HETATM   12  C21 UNL     1     -12.754  44.221 -27.478  1.00  0.00    -0.019 C 
HETATM   13  C22 UNL     1     -11.772  43.558 -26.435  1.00  0.00     0.017 C 
HETATM   14  C23 UNL     1     -12.399  45.659 -27.941  1.00  0.00     0.026 C 
HETATM   15  C24 UNL     1     -13.206  46.140 -29.216  1.00  0.00     0.025 C 
HETATM   16  C25 UNL     1      -8.971  44.955 -29.671  1.00  0.00    -0.007 C 
HETATM   17  C26 UNL     1      -7.992  44.620 -28.519  1.00  0.00     0.021 C 
HETATM   18  C27 UNL     1      -8.521  44.032 -30.844  1.00  0.00     0.022 C 
HETATM   19  C28 UNL     1      -8.951  44.542 -32.206  1.00  0.00     0.080 C 
HETATM   20  C29 UNL     1      -8.198  45.821 -32.502  1.00  0.00     0.135 C 
HETATM   21  O8  UNL     1      -7.834  46.066 -33.655  1.00  0.00    -0.297 OA
HETATM   22  C30 UNL     1      -7.930  46.796 -31.327  1.00  0.00     0.018 C 
HETATM   23  C31 UNL     1      -8.178  48.216 -31.889  1.00  0.00     0.023 C 
HETATM   24  C32 UNL     1      -6.447  46.685 -30.951  1.00  0.00     0.023 C 
HETATM   25  C33 UNL     1      -8.957  46.462 -30.179  1.00  0.00     0.025 C 
HETATM   26  C34 UNL     1      -9.199  47.538 -29.055  1.00  0.00     0.057 C 
ENDROOT
BRANCH   1  27
HETATM   27  C9  UNL     1     -15.407  43.730 -27.148  1.00  0.00    -0.011 C 
HETATM   28  C10 UNL     1     -16.257  44.461 -28.193  1.00  0.00     0.010 C 
BRANCH  27  29
HETATM   29  C8  UNL     1     -16.289  43.434 -25.901  1.00  0.00     0.044 C 
BRANCH  29  30
HETATM   30  C7  UNL     1     -17.452  44.418 -25.709  1.00  0.00     0.188 C 
BRANCH  30  31
HETATM   31  C6  UNL     1     -17.382  45.009 -24.288  1.00  0.00     0.169 C 
HETATM   32  O3  UNL     1     -16.312  45.016 -23.669  1.00  0.00    -0.294 OA
BRANCH  31  33
HETATM   33  C4  UNL     1     -18.668  45.554 -23.685  1.00  0.00     0.157 C 
BRANCH  33  34
HETATM   34  C3  UNL     1     -18.434  46.297 -22.357  1.00  0.00     0.053 C 
BRANCH  34  35
HETATM   35  C2  UNL     1     -19.016  45.581 -21.132  1.00  0.00     0.270 C 
BRANCH  35  36
HETATM   36  N1  UNL     1     -18.464  46.027 -19.849  1.00  0.00     0.079 N 
HETATM   37  C1  UNL     1     -17.221  46.775 -20.010  1.00  0.00     0.306 C 
HETATM   38  H4  UNL     1     -18.265  45.196 -19.285  1.00  0.00     0.315 HD
ENDBRANCH  35  36
ENDBRANCH  34  35
ENDBRANCH  33  34
BRANCH  33  39
HETATM   39  C5  UNL     1     -19.355  46.496 -24.636  1.00  0.00     0.151 C 
HETATM   40  O1  UNL     1     -20.378  46.293 -25.266  1.00  0.00    -0.649 OA
BRANCH  39  41
HETATM   41  O2  UNL     1     -18.691  47.662 -24.778  1.00  0.00    -0.776 OA
HETATM   42  H10 UNL     1     -19.242  48.179 -25.403  1.00  0.00     0.167 HD
ENDBRANCH  39  41
ENDBRANCH  33  39
ENDBRANCH  31  33
ENDBRANCH  30  31
BRANCH  30  43
HETATM   43  O4  UNL     1     -17.453  45.389 -26.738  1.00  0.00    -0.388 OA
HETATM   44  H12 UNL     1     -18.355  45.754 -26.803  1.00  0.00     0.210 HD
ENDBRANCH  30  43
ENDBRANCH  29  30
ENDBRANCH  27  29
ENDBRANCH   1  27
BRANCH   3  45
HETATM   45  O5  UNL     1     -12.006  46.238 -25.559  1.00  0.00    -0.385 OA
HETATM   46  H22 UNL     1     -12.249  46.902 -24.877  1.00  0.00     0.211 HD
ENDBRANCH   3  45
BRANCH   6  47
HETATM   47  O6  UNL     1      -9.603  46.786 -26.730  1.00  0.00    -0.380 OA
HETATM   48  H25 UNL     1     -10.272  46.372 -26.144  1.00  0.00     0.211 HD
ENDBRANCH   6  47
BRANCH  26  49
HETATM   49  C35 UNL     1      -7.941  48.076 -28.399  1.00  0.00    -0.017 C 
HETATM   50  C36 UNL     1      -7.079  47.324 -27.696  1.00  0.00     0.008 C 
BRANCH  50  51
HETATM   51  C37 UNL     1      -5.834  47.847 -27.118  1.00  0.00    -0.036 A 
HETATM   52  C38 UNL     1      -5.749  48.028 -25.730  1.00  0.00     0.011 A 
HETATM   53  C39 UNL     1      -4.565  48.488 -25.145  1.00  0.00     0.001 A 
HETATM   54  C40 UNL     1      -3.454  48.765 -25.942  1.00  0.00     0.000 A 
HETATM   55  C41 UNL     1      -3.522  48.577 -27.321  1.00  0.00     0.001 A 
HETATM   56  C42 UNL     1      -4.705  48.116 -27.907  1.00  0.00     0.011 A 
ENDBRANCH  50  51
ENDBRANCH  26  49
TORSDOF 15
ENDMDL
MODEL 2
REMARK minimizedAffinity -10.1213083
REMARK CNNscore 0.500322819
REMARK CNNaffinity 7.43651819
REMARK  15 active torsions:
REMARK  status: ('A' for Active; 'I' for Inactive)
REMARK    1  A    between atoms: N1_2  and  C2_3 
REMARK    2  A    between atoms: C2_3  and  C3_4 
REMARK    3  A    between atoms: C3_4  and  C4_5 
REMARK    4  A    between atoms: C4_5  and  C5_6 
REMARK    5  A    between atoms: C4_5  and  C6_9 
REMARK    6  A    between atoms: C5_6  and  O2_8 
REMARK    7  A    between atoms: C6_9  and  C7_11 
REMARK    8  A    between atoms: C7_11  and  O4_12 
REMARK    9  A    between atoms: C7_11  and  C8_13 
REMARK   10  A    between atoms: C8_13  and  C9_14 
REMARK   11  A    between atoms: C9_14  and  C11_16 
REMARK   12  A    between atoms: C13_18  and  O5_19 
REMARK   13  A    between atoms: C16_22  and  O6_23 
REMARK   14  A    between atoms: C34_43  and  C35_44 
REMARK   15  A    between atoms: C36_45  and  C37_46 
ROOT
HETATM    1  C11 UNL     1      -0.984  49.944 -17.689  1.00  0.00     0.002 C 
HETATM    2  C12 UNL     1      -1.571  48.494 -17.910  1.00  0.00     0.049 C 
HETATM    3  C13 UNL     1      -2.400  48.619 -19.198  1.00  0.00     0.088 C 
HETATM    4  C14 UNL     1      -2.814  47.467 -20.054  1.00  0.00     0.011 C 
HETATM    5  C15 UNL     1      -3.183  47.742 -21.328  1.00  0.00     0.015 C 
HETATM    6  C16 UNL     1      -3.189  49.175 -21.908  1.00  0.00     0.108 C 
HETATM    7  C17 UNL     1      -2.077  50.055 -21.323  1.00  0.00    -0.018 C 
HETATM    8  C18 UNL     1      -1.570  51.170 -21.914  1.00  0.00     0.003 C 
HETATM    9  C19 UNL     1      -0.423  51.889 -21.191  1.00  0.00     0.157 C 
HETATM   10  O7  UNL     1       0.289  52.700 -21.781  1.00  0.00    -0.293 OA
HETATM   11  C20 UNL     1      -0.074  51.552 -19.714  1.00  0.00     0.094 C 
HETATM   12  C21 UNL     1      -1.174  50.715 -19.058  1.00  0.00    -0.019 C 
HETATM   13  C22 UNL     1      -2.337  51.751 -18.810  1.00  0.00     0.017 C 
HETATM   14  C23 UNL     1      -1.484  49.550 -20.036  1.00  0.00     0.026 C 
HETATM   15  C24 UNL     1      -0.202  48.746 -20.504  1.00  0.00     0.025 C 
HETATM   16  C25 UNL     1      -2.102  51.592 -23.304  1.00  0.00    -0.007 C 
HETATM   17  C26 UNL     1      -3.443  52.332 -23.077  1.00  0.00     0.021 C 
HETATM   18  C27 UNL     1      -1.241  52.593 -24.133  1.00  0.00     0.022 C 
HETATM   19  C28 UNL     1      -0.135  51.921 -24.922  1.00  0.00     0.080 C 
HETATM   20  C29 UNL     1      -0.763  51.071 -26.006  1.00  0.00     0.135 C 
HETATM   21  O8  UNL     1      -0.216  50.976 -27.107  1.00  0.00    -0.297 OA
HETATM   22  C30 UNL     1      -2.080  50.324 -25.672  1.00  0.00     0.018 C 
HETATM   23  C31 UNL     1      -1.944  48.920 -26.307  1.00  0.00     0.023 C 
HETATM   24  C32 UNL     1      -3.229  51.056 -26.378  1.00  0.00     0.023 C 
HETATM   25  C33 UNL     1      -2.192  50.220 -24.103  1.00  0.00     0.025 C 
HETATM   26  C34 UNL     1      -3.190  49.166 -23.492  1.00  0.00     0.057 C 
ENDROOT
BRANCH   1  27
HETATM   27  C9  UNL     1       0.355  50.052 -16.911  1.00  0.00    -0.011 C 
HETATM   28  C10 UNL     1       0.509  49.109 -15.713  1.00  0.00     0.010 C 
BRANCH  27  29
HETATM   29  C8  UNL     1       0.553  51.517 -16.425  1.00  0.00     0.044 C 
BRANCH  29  30
HETATM   30  C7  UNL     1       0.919  51.639 -14.938  1.00  0.00     0.188 C 
BRANCH  30  31
HETATM   31  C6  UNL     1       2.447  51.512 -14.785  1.00  0.00     0.169 C 
HETATM   32  O3  UNL     1       3.194  51.823 -15.719  1.00  0.00    -0.294 OA
BRANCH  31  33
HETATM   33  C4  UNL     1       2.983  50.979 -13.464  1.00  0.00     0.157 C 
BRANCH  33  34
HETATM   34  C3  UNL     1       1.897  50.884 -12.377  1.00  0.00     0.053 C 
BRANCH  34  35
HETATM   35  C2  UNL     1       2.008  51.961 -11.291  1.00  0.00     0.270 C 
BRANCH  35  36
HETATM   36  N1  UNL     1       1.583  53.298 -11.717  1.00  0.00     0.079 N 
HETATM   37  C1  UNL     1       0.394  53.756 -11.005  1.00  0.00     0.306 C 
HETATM   38  H4  UNL     1       1.360  53.256 -12.715  1.00  0.00     0.315 HD
ENDBRANCH  35  36
ENDBRANCH  34  35
ENDBRANCH  33  34
BRANCH  33  39
HETATM   39  C5  UNL     1       3.594  49.616 -13.639  1.00  0.00     0.151 C 
HETATM   40  O1  UNL     1       3.071  48.538 -13.415  1.00  0.00    -0.649 OA
BRANCH  39  41
HETATM   41  O2  UNL     1       4.872  49.674 -14.067  1.00  0.00    -0.776 OA
HETATM   42  H10 UNL     1       5.141  48.735 -14.149  1.00  0.00     0.167 HD
ENDBRANCH  39  41
ENDBRANCH  33  39
ENDBRANCH  31  33
ENDBRANCH  30  31
BRANCH  30  43
HETATM   43  O4  UNL     1       0.381  52.828 -14.392  1.00  0.00    -0.388 OA
HETATM   44  H12 UNL     1       0.314  52.708 -13.427  1.00  0.00     0.210 HD
ENDBRANCH  30  43
ENDBRANCH  29  30
ENDBRANCH  27  29
ENDBRANCH   1  27
BRANCH   3  45
HETATM   45  O5  UNL     1      -3.641  49.241 -18.847  1.00  0.00    -0.385 OA
HETATM   46  H22 UNL     1      -4.192  48.550 -18.415  1.00  0.00     0.211 HD
ENDBRANCH   3  45
BRANCH   6  47
HETATM   47  O6  UNL     1      -4.419  49.728 -21.417  1.00  0.00    -0.380 OA
HETATM   48  H25 UNL     1      -4.314  49.835 -20.447  1.00  0.00     0.211 HD
ENDBRANCH   6  47
BRANCH  26  49
HETATM   49  C35 UNL     1      -4.601  49.221 -24.047  1.00  0.00    -0.017 C 
HETATM   50  C36 UNL     1      -5.244  48.168 -24.577  1.00  0.00     0.008 C 
BRANCH  50  51
HETATM   51  C37 UNL     1      -6.632  48.223 -25.054  1.00  0.00    -0.036 A 
HETATM   52  C38 UNL     1      -6.957  47.622 -26.278  1.00  0.00     0.011 A 
HETATM   53  C39 UNL     1      -8.277  47.623 -26.742  1.00  0.00     0.001 A 
HETATM   54  C40 UNL     1      -9.283  48.221 -25.982  1.00  0.00     0.000 A 
HETATM   55  C41 UNL     1      -8.974  48.811 -24.758  1.00  0.00     0.001 A 
HETATM   56  C42 UNL     1      -7.655  48.809 -24.294  1.00  0.00     0.011 A 
ENDBRANCH  50  51
ENDBRANCH  26  49
TORSDOF 15
ENDMDL
MODEL 3
REMARK minimizedAffinity -7.78751945
REMARK CNNscore 0.436968386
REMARK CNNaffinity 6.59814835
REMARK  15 active torsions:
REMARK  status: ('A' for Active; 'I' for Inactive)
REMARK    1  A    between atoms: N1_2  and  C2_3 
REMARK    2  A    between atoms: C2_3  and  C3_4 
REMARK    3  A    between atoms: C3_4  and  C4_5 
REMARK    4  A    between atoms: C4_5  and  C5_6 
REMARK    5  A    between atoms: C4_5  and  C6_9 
REMARK    6  A    between atoms: C5_6  and  O2_8 
REMARK    7  A    between atoms: C6_9  and  C7_11 
REMARK    8  A    between atoms: C7_11  and  O4_12 
REMARK    9  A    between atoms: C7_11  and  C8_13 
REMARK   10  A    between atoms: C8_13  and  C9_14 
REMARK   11  A    between atoms: C9_14  and  C11_16 
REMARK   12  A    between atoms: C13_18  and  O5_19 
REMARK   13  A    between atoms: C16_22  and  O6_23 
REMARK   14  A    between atoms: C34_43  and  C35_44 
REMARK   15  A    between atoms: C36_45  and  C37_46 
ROOT
HETATM    1  C11 UNL     1      -8.709  46.549 -21.838  1.00  0.00     0.002 C 
HETATM    2  C12 UNL     1      -8.953  47.063 -20.364  1.00  0.00     0.049 C 
HETATM    3  C13 UNL     1      -7.537  47.267 -19.801  1.00  0.00     0.088 C 
HETATM    4  C14 UNL     1      -7.213  48.119 -18.618  1.00  0.00     0.011 C 
HETATM    5  C15 UNL     1      -5.927  48.521 -18.477  1.00  0.00     0.015 C 
HETATM    6  C16 UNL     1      -4.814  48.134 -19.479  1.00  0.00     0.108 C 
HETATM    7  C17 UNL     1      -5.330  48.014 -20.919  1.00  0.00    -0.018 C 
HETATM    8  C18 UNL     1      -4.560  48.111 -22.035  1.00  0.00     0.003 C 
HETATM    9  C19 UNL     1      -5.272  48.011 -23.391  1.00  0.00     0.157 C 
HETATM   10  O7  UNL     1      -4.723  48.389 -24.425  1.00  0.00    -0.293 OA
HETATM   11  C20 UNL     1      -6.739  47.506 -23.486  1.00  0.00     0.094 C 
HETATM   12  C21 UNL     1      -7.195  46.864 -22.175  1.00  0.00    -0.019 C 
HETATM   13  C22 UNL     1      -6.452  45.473 -22.159  1.00  0.00     0.017 C 
HETATM   14  C23 UNL     1      -6.821  47.859 -21.043  1.00  0.00     0.026 C 
HETATM   15  C24 UNL     1      -7.331  49.337 -21.294  1.00  0.00     0.025 C 
HETATM   16  C25 UNL     1      -3.049  48.408 -21.883  1.00  0.00    -0.007 C 
HETATM   17  C26 UNL     1      -2.352  47.072 -21.529  1.00  0.00     0.021 C 
HETATM   18  C27 UNL     1      -2.285  48.925 -23.140  1.00  0.00     0.022 C 
HETATM   19  C28 UNL     1      -2.409  50.422 -23.344  1.00  0.00     0.080 C 
HETATM   20  C29 UNL     1      -1.680  51.124 -22.219  1.00  0.00     0.135 C 
HETATM   21  O8  UNL     1      -1.070  52.172 -22.443  1.00  0.00    -0.297 OA
HETATM   22  C30 UNL     1      -1.751  50.498 -20.803  1.00  0.00     0.018 C 
HETATM   23  C31 UNL     1      -1.938  51.681 -19.824  1.00  0.00     0.023 C 
HETATM   24  C32 UNL     1      -0.394  49.845 -20.507  1.00  0.00     0.023 C 
HETATM   25  C33 UNL     1      -2.999  49.536 -20.762  1.00  0.00     0.025 C 
HETATM   26  C34 UNL     1      -3.559  49.094 -19.358  1.00  0.00     0.057 C 
ENDROOT
BRANCH   1  27
HETATM   27  C9  UNL     1      -9.820  46.845 -22.882  1.00  0.00    -0.011 C 
HETATM   28  C10 UNL     1     -11.258  46.598 -22.414  1.00  0.00     0.010 C 
BRANCH  27  29
HETATM   29  C8  UNL     1      -9.558  46.005 -24.165  1.00  0.00     0.044 C 
BRANCH  29  30
HETATM   30  C7  UNL     1      -9.780  46.777 -25.474  1.00  0.00     0.188 C 
BRANCH  30  31
HETATM   31  C6  UNL     1     -10.932  46.119 -26.258  1.00  0.00     0.169 C 
HETATM   32  O3  UNL     1     -11.435  45.065 -25.856  1.00  0.00    -0.294 OA
BRANCH  31  33
HETATM   33  C4  UNL     1     -11.399  46.803 -27.534  1.00  0.00     0.157 C 
BRANCH  33  34
HETATM   34  C3  UNL     1     -11.685  45.806 -28.672  1.00  0.00     0.053 C 
BRANCH  34  35
HETATM   35  C2  UNL     1     -11.617  46.426 -30.073  1.00  0.00     0.270 C 
BRANCH  35  36
HETATM   36  N1  UNL     1     -10.305  46.319 -30.721  1.00  0.00     0.079 N 
HETATM   37  C1  UNL     1     -10.352  46.681 -32.134  1.00  0.00     0.306 C 
HETATM   38  H4  UNL     1      -9.997  45.346 -30.651  1.00  0.00     0.315 HD
ENDBRANCH  35  36
ENDBRANCH  34  35
ENDBRANCH  33  34
BRANCH  33  39
HETATM   39  C5  UNL     1     -12.646  47.609 -27.291  1.00  0.00     0.151 C 
HETATM   40  O1  UNL     1     -13.795  47.203 -27.268  1.00  0.00    -0.649 OA
BRANCH  39  41
HETATM   41  O2  UNL     1     -12.387  48.921 -27.116  1.00  0.00    -0.776 OA
HETATM   42  H10 UNL     1     -13.268  49.322 -26.958  1.00  0.00     0.167 HD
ENDBRANCH  39  41
ENDBRANCH  33  39
ENDBRANCH  31  33
ENDBRANCH  30  31
BRANCH  30  43
HETATM   43  O4  UNL     1      -9.974  48.153 -25.210  1.00  0.00    -0.388 OA
HETATM   44  H12 UNL     1      -9.755  48.646 -26.022  1.00  0.00     0.210 HD
ENDBRANCH  30  43
ENDBRANCH  29  30
ENDBRANCH  27  29
ENDBRANCH   1  27
BRANCH   3  45
HETATM   45  O5  UNL     1      -7.034  45.978 -19.437  1.00  0.00    -0.385 OA
HETATM   46  H22 UNL     1      -7.467  45.732 -18.590  1.00  0.00     0.211 HD
ENDBRANCH   3  45
BRANCH   6  47
HETATM   47  O6  UNL     1      -4.456  46.803 -19.083  1.00  0.00    -0.380 OA
HETATM   48  H25 UNL     1      -5.221  46.227 -19.301  1.00  0.00     0.211 HD
ENDBRANCH   6  47
BRANCH  26  49
HETATM   49  C35 UNL     1      -2.523  48.536 -18.401  1.00  0.00    -0.017 C 
HETATM   50  C36 UNL     1      -2.270  49.045 -17.184  1.00  0.00     0.008 C 
BRANCH  50  51
HETATM   51  C37 UNL     1      -1.307  48.456 -16.245  1.00  0.00    -0.036 A 
HETATM   52  C38 UNL     1       0.025  48.897 -16.267  1.00  0.00     0.011 A 
HETATM   53  C39 UNL     1       0.957  48.384 -15.360  1.00  0.00     0.001 A 
HETATM   54  C40 UNL     1       0.566  47.430 -14.420  1.00  0.00     0.000 A 
HETATM   55  C41 UNL     1      -0.757  46.994 -14.380  1.00  0.00     0.001 A 
HETATM   56  C42 UNL     1      -1.690  47.507 -15.286  1.00  0.00     0.011 A 
ENDBRANCH  50  51
ENDBRANCH  26  49
TORSDOF 15
ENDMDL
MODEL 4
REMARK minimizedAffinity -7.85441256
REMARK CNNscore 0.432879478
REMARK CNNaffinity 6.33024979
REMARK  15 active torsions:
REMARK  status: ('A' for Active; 'I' for Inactive)
REMARK    1  A    between atoms: N1_2  and  C2_3 
REMARK    2  A    between atoms: C2_3  and  C3_4 
REMARK    3  A    between atoms: C3_4  and  C4_5 
REMARK    4  A    between atoms: C4_5  and  C5_6 
REMARK    5  A    between atoms: C4_5  and  C6_9 
REMARK    6  A    between atoms: C5_6  and  O2_8 
REMARK    7  A    between atoms: C6_9  and  C7_11 
REMARK    8  A    between atoms: C7_11  and  O4_12 
REMARK    9  A    between atoms: C7_11  and  C8_13 
REMARK   10  A    between atoms: C8_13  and  C9_14 
REMARK   11  A    between atoms: C9_14  and  C11_16 
REMARK   12  A    between atoms: C13_18  and  O5_19 
REMARK   13  A    between atoms: C16_22  and  O6_23 
REMARK   14  A    between atoms: C34_43  and  C35_44 
REMARK   15  A    between atoms: C36_45  and  C37_46 
ROOT
HETATM    1  C11 UNL     1     -12.816  46.739 -26.008  1.00  0.00     0.002 C 
HETATM    2  C12 UNL     1     -13.089  47.890 -27.056  1.00  0.00     0.049 C 
HETATM    3  C13 UNL     1     -12.093  47.604 -28.191  1.00  0.00     0.088 C 
HETATM    4  C14 UNL     1     -12.219  48.136 -29.581  1.00  0.00     0.011 C 
HETATM    5  C15 UNL     1     -11.519  47.504 -30.554  1.00  0.00     0.015 C 
HETATM    6  C16 UNL     1     -10.615  46.281 -30.274  1.00  0.00     0.108 C 
HETATM    7  C17 UNL     1     -11.153  45.393 -29.145  1.00  0.00    -0.018 C 
HETATM    8  C18 UNL     1     -10.839  44.083 -28.963  1.00  0.00     0.003 C 
HETATM    9  C19 UNL     1     -11.520  43.351 -27.799  1.00  0.00     0.157 C 
HETATM   10  O7  UNL     1     -11.539  42.122 -27.747  1.00  0.00    -0.293 OA
HETATM   11  C20 UNL     1     -12.278  44.140 -26.695  1.00  0.00     0.094 C 
HETATM   12  C21 UNL     1     -11.971  45.637 -26.767  1.00  0.00    -0.019 C 
HETATM   13  C22 UNL     1     -10.506  45.748 -26.193  1.00  0.00     0.017 C 
HETATM   14  C23 UNL     1     -12.165  46.056 -28.249  1.00  0.00     0.026 C 
HETATM   15  C24 UNL     1     -13.556  45.614 -28.864  1.00  0.00     0.025 C 
HETATM   16  C25 UNL     1      -9.903  43.387 -29.980  1.00  0.00    -0.007 C 
HETATM   17  C26 UNL     1      -8.452  43.777 -29.608  1.00  0.00     0.021 C 
HETATM   18  C27 UNL     1      -9.893  41.828 -30.002  1.00  0.00     0.022 C 
HETATM   19  C28 UNL     1     -11.005  41.233 -30.842  1.00  0.00     0.080 C 
HETATM   20  C29 UNL     1     -10.747  41.572 -32.294  1.00  0.00     0.135 C 
HETATM   21  O8  UNL     1     -11.029  40.756 -33.174  1.00  0.00    -0.297 OA
HETATM   22  C30 UNL     1     -10.150  42.965 -32.621  1.00  0.00     0.018 C 
HETATM   23  C31 UNL     1     -10.905  43.466 -33.875  1.00  0.00     0.023 C 
HETATM   24  C32 UNL     1      -8.676  42.769 -33.000  1.00  0.00     0.023 C 
HETATM   25  C33 UNL     1     -10.424  43.909 -31.389  1.00  0.00     0.025 C 
HETATM   26  C34 UNL     1     -10.309  45.466 -31.598  1.00  0.00     0.057 C 
ENDROOT
BRANCH   1  27
HETATM   27  C9  UNL     1     -13.999  46.323 -25.093  1.00  0.00    -0.011 C 
HETATM   28  C10 UNL     1     -13.624  45.528 -23.838  1.00  0.00     0.010 C 
BRANCH  27  29
HETATM   29  C8  UNL     1     -15.027  45.498 -25.921  1.00  0.00     0.044 C 
BRANCH  29  30
HETATM   30  C7  UNL     1     -15.909  44.568 -25.076  1.00  0.00     0.188 C 
BRANCH  30  31
HETATM   31  C6  UNL     1     -17.390  44.887 -25.356  1.00  0.00     0.169 C 
HETATM   32  O3  UNL     1     -17.883  44.632 -26.460  1.00  0.00    -0.294 OA
BRANCH  31  33
HETATM   33  C4  UNL     1     -18.196  45.535 -24.241  1.00  0.00     0.157 C 
BRANCH  33  34
HETATM   34  C3  UNL     1     -17.308  46.214 -23.182  1.00  0.00     0.053 C 
BRANCH  34  35
HETATM   35  C2  UNL     1     -17.539  45.701 -21.755  1.00  0.00     0.270 C 
BRANCH  35  36
HETATM   36  N1  UNL     1     -18.072  46.705 -20.828  1.00  0.00     0.079 N 
HETATM   37  C1  UNL     1     -17.294  46.793 -19.597  1.00  0.00     0.306 C 
HETATM   38  H4  UNL     1     -19.028  46.432 -20.583  1.00  0.00     0.315 HD
ENDBRANCH  35  36
ENDBRANCH  34  35
ENDBRANCH  33  34
BRANCH  33  39
HETATM   39  C5  UNL     1     -19.146  46.565 -24.788  1.00  0.00     0.151 C 
HETATM   40  O1  UNL     1     -19.046  47.777 -24.709  1.00  0.00    -0.649 OA
BRANCH  39  41
HETATM   41  O2  UNL     1     -20.216  46.011 -25.393  1.00  0.00    -0.776 OA
HETATM   42  H10 UNL     1     -20.739  46.778 -25.709  1.00  0.00     0.167 HD
ENDBRANCH  39  41
ENDBRANCH  33  39
ENDBRANCH  31  33
ENDBRANCH  30  31
BRANCH  30  43
HETATM   43  O4  UNL     1     -15.558  43.216 -25.300  1.00  0.00    -0.388 OA
HETATM   44  H12 UNL     1     -15.856  42.699 -24.528  1.00  0.00     0.210 HD
ENDBRANCH  30  43
ENDBRANCH  29  30
ENDBRANCH  27  29
ENDBRANCH   1  27
BRANCH   3  45
HETATM   45  O5  UNL     1     -10.812  48.080 -27.764  1.00  0.00    -0.385 OA
HETATM   46  H22 UNL     1     -10.827  49.059 -27.858  1.00  0.00     0.211 HD
ENDBRANCH   3  45
BRANCH   6  47
HETATM   47  O6  UNL     1      -9.409  46.867 -29.766  1.00  0.00    -0.380 OA
HETATM   48  H25 UNL     1      -9.625  47.243 -28.885  1.00  0.00     0.211 HD
ENDBRANCH   6  47
BRANCH  26  49
HETATM   49  C35 UNL     1      -9.022  45.932 -32.252  1.00  0.00    -0.017 C 
HETATM   50  C36 UNL     1      -7.834  45.981 -31.627  1.00  0.00     0.008 C 
BRANCH  50  51
HETATM   51  C37 UNL     1      -6.586  46.377 -32.291  1.00  0.00    -0.036 A 
HETATM   52  C38 UNL     1      -6.627  47.361 -33.290  1.00  0.00     0.011 A 
HETATM   53  C39 UNL     1      -5.451  47.788 -33.915  1.00  0.00     0.001 A 
HETATM   54  C40 UNL     1      -4.223  47.239 -33.542  1.00  0.00     0.000 A 
HETATM   55  C41 UNL     1      -4.169  46.270 -32.542  1.00  0.00     0.001 A 
HETATM   56  C42 UNL     1      -5.344  45.843 -31.916  1.00  0.00     0.011 A 
ENDBRANCH  50  51
ENDBRANCH  26  49
TORSDOF 15
ENDMDL
MODEL 5
REMARK minimizedAffinity -8.35123825
REMARK CNNscore 0.418525457
REMARK CNNaffinity 6.71551323
REMARK  15 active torsions:
REMARK  status: ('A' for Active; 'I' for Inactive)
REMARK    1  A    between atoms: N1_2  and  C2_3 
REMARK    2  A    between atoms: C2_3  and  C3_4 
REMARK    3  A    between atoms: C3_4  and  C4_5 
REMARK    4  A    between atoms: C4_5  and  C5_6 
REMARK    5  A    between atoms: C4_5  and  C6_9 
REMARK    6  A    between atoms: C5_6  and  O2_8 
REMARK    7  A    between atoms: C6_9  and  C7_11 
REMARK    8  A    between atoms: C7_11  and  O4_12 
REMARK    9  A    between atoms: C7_11  and  C8_13 
REMARK   10  A    between atoms: C8_13  and  C9_14 
REMARK   11  A    between atoms: C9_14  and  C11_16 
REMARK   12  A    between atoms: C13_18  and  O5_19 
REMARK   13  A    between atoms: C16_22  and  O6_23 
REMARK   14  A    between atoms: C34_43  and  C35_44 
REMARK   15  A    between atoms: C36_45  and  C37_46 
ROOT
HETATM    1  C11 UNL     1     -12.312  45.986 -27.444  1.00  0.00     0.002 C 
HETATM    2  C12 UNL     1     -12.516  44.586 -28.147  1.00  0.00     0.049 C 
HETATM    3  C13 UNL     1     -11.781  44.733 -29.489  1.00  0.00     0.088 C 
HETATM    4  C14 UNL     1     -11.324  43.588 -30.333  1.00  0.00     0.011 C 
HETATM    5  C15 UNL     1     -10.368  43.842 -31.258  1.00  0.00     0.015 C 
HETATM    6  C16 UNL     1      -9.752  45.245 -31.462  1.00  0.00     0.108 C 
HETATM    7  C17 UNL     1      -9.657  46.046 -30.157  1.00  0.00    -0.018 C 
HETATM    8  C18 UNL     1      -8.809  47.086 -29.937  1.00  0.00     0.003 C 
HETATM    9  C19 UNL     1      -8.830  47.728 -28.543  1.00  0.00     0.157 C 
HETATM   10  O7  UNL     1      -7.908  48.447 -28.163  1.00  0.00    -0.293 OA
HETATM   11  C20 UNL     1      -9.978  47.422 -27.541  1.00  0.00     0.094 C 
HETATM   12  C21 UNL     1     -11.146  46.714 -28.230  1.00  0.00    -0.019 C 
HETATM   13  C22 UNL     1     -11.841  47.859 -29.064  1.00  0.00     0.017 C 
HETATM   14  C23 UNL     1     -10.535  45.542 -29.043  1.00  0.00     0.026 C 
HETATM   15  C24 UNL     1      -9.573  44.609 -28.200  1.00  0.00     0.025 C 
HETATM   16  C25 UNL     1      -7.818  47.496 -31.053  1.00  0.00    -0.007 C 
HETATM   17  C26 UNL     1      -8.603  48.361 -32.068  1.00  0.00     0.021 C 
HETATM   18  C27 UNL     1      -6.601  48.381 -30.646  1.00  0.00     0.022 C 
HETATM   19  C28 UNL     1      -5.432  47.581 -30.105  1.00  0.00     0.080 C 
HETATM   20  C29 UNL     1      -4.856  46.747 -31.229  1.00  0.00     0.135 C 
HETATM   21  O8  UNL     1      -3.639  46.559 -31.293  1.00  0.00    -0.297 OA
HETATM   22  C30 UNL     1      -5.841  46.135 -32.258  1.00  0.00     0.018 C 
HETATM   23  C31 UNL     1      -5.332  44.699 -32.530  1.00  0.00     0.023 C 
HETATM   24  C32 UNL     1      -5.720  46.937 -33.561  1.00  0.00     0.023 C 
HETATM   25  C33 UNL     1      -7.272  46.106 -31.600  1.00  0.00     0.025 C 
HETATM   26  C34 UNL     1      -8.370  45.171 -32.234  1.00  0.00     0.057 C 
ENDROOT
BRANCH   1  27
HETATM   27  C9  UNL     1     -12.337  46.005 -25.891  1.00  0.00    -0.011 C 
HETATM   28  C10 UNL     1     -12.401  44.636 -25.208  1.00  0.00     0.010 C 
BRANCH  27  29
HETATM   29  C8  UNL     1     -13.541  46.865 -25.406  1.00  0.00     0.044 C 
BRANCH  29  30
HETATM   30  C7  UNL     1     -14.860  46.087 -25.295  1.00  0.00     0.188 C 
BRANCH  30  31
HETATM   31  C6  UNL     1     -15.812  46.843 -24.348  1.00  0.00     0.169 C 
HETATM   32  O3  UNL     1     -15.485  47.940 -23.884  1.00  0.00    -0.294 OA
BRANCH  31  33
HETATM   33  C4  UNL     1     -17.138  46.181 -24.002  1.00  0.00     0.157 C 
BRANCH  33  34
HETATM   34  C3  UNL     1     -17.577  46.452 -22.552  1.00  0.00     0.053 C 
BRANCH  34  35
HETATM   35  C2  UNL     1     -16.632  45.866 -21.496  1.00  0.00     0.270 C 
BRANCH  35  36
HETATM   36  N1  UNL     1     -15.758  46.851 -20.850  1.00  0.00     0.079 N 
HETATM   37  C1  UNL     1     -15.807  46.766 -19.394  1.00  0.00     0.306 C 
HETATM   38  H4  UNL     1     -16.076  47.784 -21.125  1.00  0.00     0.315 HD
ENDBRANCH  35  36
ENDBRANCH  34  35
ENDBRANCH  33  34
BRANCH  33  39
HETATM   39  C5  UNL     1     -18.233  46.650 -24.921  1.00  0.00     0.151 C 
HETATM   40  O1  UNL     1     -18.996  47.584 -24.743  1.00  0.00    -0.649 OA
BRANCH  39  41
HETATM   41  O2  UNL     1     -18.341  45.887 -26.028  1.00  0.00    -0.776 OA
HETATM   42  H10 UNL     1     -19.070  46.302 -26.536  1.00  0.00     0.167 HD
ENDBRANCH  39  41
ENDBRANCH  33  39
ENDBRANCH  31  33
ENDBRANCH  30  31
BRANCH  30  43
HETATM   43  O4  UNL     1     -15.400  45.843 -26.581  1.00  0.00    -0.388 OA
HETATM   44  H12 UNL     1     -16.001  45.078 -26.511  1.00  0.00     0.210 HD
ENDBRANCH  30  43
ENDBRANCH  29  30
ENDBRANCH  27  29
ENDBRANCH   1  27
BRANCH   3  45
HETATM   45  O5  UNL     1     -12.636  45.476 -30.364  1.00  0.00    -0.385 OA
HETATM   46  H22 UNL     1     -13.333  44.856 -30.675  1.00  0.00     0.211 HD
ENDBRANCH   3  45
BRANCH   6  47
HETATM   47  O6  UNL     1     -10.728  45.926 -32.263  1.00  0.00    -0.380 OA
HETATM   48  H25 UNL     1     -11.516  46.063 -31.694  1.00  0.00     0.211 HD
ENDBRANCH   6  47
BRANCH  26  49
HETATM   49  C35 UNL     1      -8.561  45.330 -33.731  1.00  0.00    -0.017 C 
HETATM   50  C36 UNL     1      -9.100  46.414 -34.310  1.00  0.00     0.008 C 
BRANCH  50  51
HETATM   51  C37 UNL     1      -9.223  46.578 -35.764  1.00  0.00    -0.036 A 
HETATM   52  C38 UNL     1     -10.328  46.021 -36.424  1.00  0.00     0.011 A 
HETATM   53  C39 UNL     1     -10.494  46.192 -37.802  1.00  0.00     0.001 A 
HETATM   54  C40 UNL     1      -9.559  46.927 -38.532  1.00  0.00     0.000 A 
HETATM   55  C41 UNL     1      -8.463  47.496 -37.886  1.00  0.00     0.001 A 
HETATM   56  C42 UNL     1      -8.297  47.326 -36.508  1.00  0.00     0.011 A 
ENDBRANCH  50  51
ENDBRANCH  26  49
TORSDOF 15
ENDMDL
MODEL 6
REMARK minimizedAffinity -8.6889677
REMARK CNNscore 0.342213452
REMARK CNNaffinity 7.13670731
REMARK  15 active torsions:
REMARK  status: ('A' for Active; 'I' for Inactive)
REMARK    1  A    between atoms: N1_2  and  C2_3 
REMARK    2  A    between atoms: C2_3  and  C3_4 
REMARK    3  A    between atoms: C3_4  and  C4_5 
REMARK    4  A    between atoms: C4_5  and  C5_6 
REMARK    5  A    between atoms: C4_5  and  C6_9 
REMARK    6  A    between atoms: C5_6  and  O2_8 
REMARK    7  A    between atoms: C6_9  and  C7_11 
REMARK    8  A    between atoms: C7_11  and  O4_12 
REMARK    9  A    between atoms: C7_11  and  C8_13 
REMARK   10  A    between atoms: C8_13  and  C9_14 
REMARK   11  A    between atoms: C9_14  and  C11_16 
REMARK   12  A    between atoms: C13_18  and  O5_19 
REMARK   13  A    between atoms: C16_22  and  O6_23 
REMARK   14  A    between atoms: C34_43  and  C35_44 
REMARK   15  A    between atoms: C36_45  and  C37_46 
ROOT
HETATM    1  C11 UNL     1      -1.415  51.779 -21.766  1.00  0.00     0.002 C 
HETATM    2  C12 UNL     1      -0.380  51.937 -20.583  1.00  0.00     0.049 C 
HETATM    3  C13 UNL     1      -1.049  51.213 -19.403  1.00  0.00     0.088 C 
HETATM    4  C14 UNL     1      -0.325  50.720 -18.193  1.00  0.00     0.011 C 
HETATM    5  C15 UNL     1      -0.943  49.776 -17.443  1.00  0.00     0.015 C 
HETATM    6  C16 UNL     1      -2.338  49.209 -17.792  1.00  0.00     0.108 C 
HETATM    7  C17 UNL     1      -2.586  49.137 -19.304  1.00  0.00    -0.018 C 
HETATM    8  C18 UNL     1      -3.493  48.325 -19.910  1.00  0.00     0.003 C 
HETATM    9  C19 UNL     1      -3.558  48.364 -21.443  1.00  0.00     0.157 C 
HETATM   10  O7  UNL     1      -4.110  47.465 -22.076  1.00  0.00    -0.293 OA
HETATM   11  C20 UNL     1      -2.857  49.496 -22.243  1.00  0.00     0.094 C 
HETATM   12  C21 UNL     1      -2.425  50.642 -21.326  1.00  0.00    -0.019 C 
HETATM   13  C22 UNL     1      -3.777  51.379 -20.982  1.00  0.00     0.017 C 
HETATM   14  C23 UNL     1      -1.670  49.993 -20.135  1.00  0.00     0.026 C 
HETATM   15  C24 UNL     1      -0.519  48.997 -20.571  1.00  0.00     0.025 C 
HETATM   16  C25 UNL     1      -4.328  47.353 -19.043  1.00  0.00    -0.007 C 
HETATM   17  C26 UNL     1      -5.487  48.171 -18.423  1.00  0.00     0.021 C 
HETATM   18  C27 UNL     1      -5.033  46.165 -19.765  1.00  0.00     0.022 C 
HETATM   19  C28 UNL     1      -4.127  44.968 -19.975  1.00  0.00     0.080 C 
HETATM   20  C29 UNL     1      -3.801  44.367 -18.624  1.00  0.00     0.135 C 
HETATM   21  O8  UNL     1      -3.691  43.145 -18.506  1.00  0.00    -0.297 OA
HETATM   22  C30 UNL     1      -3.593  45.334 -17.430  1.00  0.00     0.018 C 
HETATM   23  C31 UNL     1      -2.385  44.778 -16.639  1.00  0.00     0.023 C 
HETATM   24  C32 UNL     1      -4.832  45.246 -16.530  1.00  0.00     0.023 C 
HETATM   25  C33 UNL     1      -3.268  46.762 -18.015  1.00  0.00     0.025 C 
HETATM   26  C34 UNL     1      -2.608  47.828 -17.063  1.00  0.00     0.057 C 
ENDROOT
BRANCH   1  27
HETATM   27  C9  UNL     1      -0.843  51.799 -23.210  1.00  0.00    -0.011 C 
HETATM   28  C10 UNL     1       0.571  52.368 -23.359  1.00  0.00     0.010 C 
BRANCH  27  29
HETATM   29  C8  UNL     1      -1.806  52.600 -24.134  1.00  0.00     0.044 C 
BRANCH  29  30
HETATM   30  C7  UNL     1      -1.993  51.983 -25.528  1.00  0.00     0.188 C 
BRANCH  30  31
HETATM   31  C6  UNL     1      -3.168  50.987 -25.484  1.00  0.00     0.169 C 
HETATM   32  O3  UNL     1      -4.239  51.311 -24.961  1.00  0.00    -0.294 OA
BRANCH  31  33
HETATM   33  C4  UNL     1      -2.947  49.607 -26.084  1.00  0.00     0.157 C 
BRANCH  33  34
HETATM   34  C3  UNL     1      -3.661  48.494 -25.296  1.00  0.00     0.053 C 
BRANCH  34  35
HETATM   35  C2  UNL     1      -5.146  48.338 -25.646  1.00  0.00     0.270 C 
BRANCH  35  36
HETATM   36  N1  UNL     1      -6.064  48.967 -24.691  1.00  0.00     0.079 N 
HETATM   37  C1  UNL     1      -7.063  48.032 -24.184  1.00  0.00     0.306 C 
HETATM   38  H4  UNL     1      -6.553  49.724 -25.176  1.00  0.00     0.315 HD
ENDBRANCH  35  36
ENDBRANCH  34  35
ENDBRANCH  33  34
BRANCH  33  39
HETATM   39  C5  UNL     1      -3.424  49.554 -27.509  1.00  0.00     0.151 C 
HETATM   40  O1  UNL     1      -3.473  48.576 -28.236  1.00  0.00    -0.649 OA
BRANCH  39  41
HETATM   41  O2  UNL     1      -3.795  50.764 -27.975  1.00  0.00    -0.776 OA
HETATM   42  H10 UNL     1      -4.091  50.589 -28.894  1.00  0.00     0.167 HD
ENDBRANCH  39  41
ENDBRANCH  33  39
ENDBRANCH  31  33
ENDBRANCH  30  31
BRANCH  30  43
HETATM   43  O4  UNL     1      -2.135  52.999 -26.503  1.00  0.00    -0.388 OA
HETATM   44  H12 UNL     1      -1.894  52.616 -27.367  1.00  0.00     0.210 HD
ENDBRANCH  30  43
ENDBRANCH  29  30
ENDBRANCH  27  29
ENDBRANCH   1  27
BRANCH   3  45
HETATM   45  O5  UNL     1      -2.040  52.096 -18.867  1.00  0.00    -0.385 OA
HETATM   46  H22 UNL     1      -1.561  52.772 -18.338  1.00  0.00     0.211 HD
ENDBRANCH   3  45
BRANCH   6  47
HETATM   47  O6  UNL     1      -3.238  50.211 -17.299  1.00  0.00    -0.380 OA
HETATM   48  H25 UNL     1      -3.123  51.001 -17.869  1.00  0.00     0.211 HD
ENDBRANCH   6  47
BRANCH  26  49
HETATM   49  C35 UNL     1      -3.316  48.030 -15.736  1.00  0.00    -0.017 C 
HETATM   50  C36 UNL     1      -2.684  48.262 -14.574  1.00  0.00     0.008 C 
BRANCH  50  51
HETATM   51  C37 UNL     1      -3.385  48.516 -13.309  1.00  0.00    -0.036 A 
HETATM   52  C38 UNL     1      -3.265  49.774 -12.702  1.00  0.00     0.011 A 
HETATM   53  C39 UNL     1      -3.951  50.060 -11.517  1.00  0.00     0.001 A 
HETATM   54  C40 UNL     1      -4.768  49.092 -10.932  1.00  0.00     0.000 A 
HETATM   55  C41 UNL     1      -4.905  47.842 -11.532  1.00  0.00     0.001 A 
HETATM   56  C42 UNL     1      -4.221  47.556 -12.718  1.00  0.00     0.011 A 
ENDBRANCH  50  51
ENDBRANCH  26  49
TORSDOF 15
ENDMDL
MODEL 7
REMARK minimizedAffinity -7.98655224
REMARK CNNscore 0.331711084
REMARK CNNaffinity 6.57371759
REMARK  15 active torsions:
REMARK  status: ('A' for Active; 'I' for Inactive)
REMARK    1  A    between atoms: N1_2  and  C2_3 
REMARK    2  A    between atoms: C2_3  and  C3_4 
REMARK    3  A    between atoms: C3_4  and  C4_5 
REMARK    4  A    between atoms: C4_5  and  C5_6 
REMARK    5  A    between atoms: C4_5  and  C6_9 
REMARK    6  A    between atoms: C5_6  and  O2_8 
REMARK    7  A    between atoms: C6_9  and  C7_11 
REMARK    8  A    between atoms: C7_11  and  O4_12 
REMARK    9  A    between atoms: C7_11  and  C8_13 
REMARK   10  A    between atoms: C8_13  and  C9_14 
REMARK   11  A    between atoms: C9_14  and  C11_16 
REMARK   12  A    between atoms: C13_18  and  O5_19 
REMARK   13  A    between atoms: C16_22  and  O6_23 
REMARK   14  A    between atoms: C34_43  and  C35_44 
REMARK   15  A    between atoms: C36_45  and  C37_46 
ROOT
HETATM    1  C11 UNL     1      -6.875  47.440 -22.838  1.00  0.00     0.002 C 
HETATM    2  C12 UNL     1      -7.708  46.390 -22.002  1.00  0.00     0.049 C 
HETATM    3  C13 UNL     1      -9.072  46.348 -22.711  1.00  0.00     0.088 C 
HETATM    4  C14 UNL     1     -10.060  45.236 -22.578  1.00  0.00     0.011 C 
HETATM    5  C15 UNL     1     -11.013  45.134 -23.536  1.00  0.00     0.015 C 
HETATM    6  C16 UNL     1     -11.106  46.111 -24.731  1.00  0.00     0.108 C 
HETATM    7  C17 UNL     1      -9.731  46.609 -25.196  1.00  0.00    -0.018 C 
HETATM    8  C18 UNL     1      -9.457  47.107 -26.432  1.00  0.00     0.003 C 
HETATM    9  C19 UNL     1      -8.005  47.510 -26.721  1.00  0.00     0.157 C 
HETATM   10  O7  UNL     1      -7.611  47.671 -27.875  1.00  0.00    -0.293 OA
HETATM   11  C20 UNL     1      -6.969  47.643 -25.570  1.00  0.00     0.094 C 
HETATM   12  C21 UNL     1      -7.652  47.643 -24.202  1.00  0.00    -0.019 C 
HETATM   13  C22 UNL     1      -8.313  49.072 -24.111  1.00  0.00     0.017 C 
HETATM   14  C23 UNL     1      -8.623  46.432 -24.193  1.00  0.00     0.026 C 
HETATM   15  C24 UNL     1      -7.948  45.065 -24.620  1.00  0.00     0.025 C 
HETATM   16  C25 UNL     1     -10.585  47.151 -27.491  1.00  0.00    -0.007 C 
HETATM   17  C26 UNL     1     -11.450  48.399 -27.189  1.00  0.00     0.021 C 
HETATM   18  C27 UNL     1     -10.166  47.320 -28.983  1.00  0.00     0.022 C 
HETATM   19  C28 UNL     1      -9.789  46.013 -29.651  1.00  0.00     0.080 C 
HETATM   20  C29 UNL     1     -11.030  45.153 -29.766  1.00  0.00     0.135 C 
HETATM   21  O8  UNL     1     -11.191  44.437 -30.756  1.00  0.00    -0.297 OA
HETATM   22  C30 UNL     1     -12.053  45.196 -28.602  1.00  0.00     0.018 C 
HETATM   23  C31 UNL     1     -12.508  43.733 -28.384  1.00  0.00     0.023 C 
HETATM   24  C32 UNL     1     -13.268  46.007 -29.070  1.00  0.00     0.023 C 
HETATM   25  C33 UNL     1     -11.310  45.746 -27.325  1.00  0.00     0.025 C 
HETATM   26  C34 UNL     1     -11.968  45.506 -25.914  1.00  0.00     0.057 C 
ENDROOT
BRANCH   1  27
HETATM   27  C9  UNL     1      -5.331  47.277 -22.836  1.00  0.00    -0.011 C 
HETATM   28  C10 UNL     1      -4.726  46.657 -21.572  1.00  0.00     0.010 C 
BRANCH  27  29
HETATM   29  C8  UNL     1      -4.665  48.662 -23.084  1.00  0.00     0.044 C 
BRANCH  29  30
HETATM   30  C7  UNL     1      -3.185  48.582 -23.484  1.00  0.00     0.188 C 
BRANCH  30  31
HETATM   31  C6  UNL     1      -3.005  49.218 -24.876  1.00  0.00     0.169 C 
HETATM   32  O3  UNL     1      -3.130  48.530 -25.895  1.00  0.00    -0.294 OA
BRANCH  31  33
HETATM   33  C4  UNL     1      -2.652  50.697 -24.938  1.00  0.00     0.157 C 
BRANCH  33  34
HETATM   34  C3  UNL     1      -1.143  50.955 -24.783  1.00  0.00     0.053 C 
BRANCH  34  35
HETATM   35  C2  UNL     1      -0.349  50.804 -26.087  1.00  0.00     0.270 C 
BRANCH  35  36
HETATM   36  N1  UNL     1       0.213  52.056 -26.604  1.00  0.00     0.079 N 
HETATM   37  C1  UNL     1       0.090  52.162 -28.055  1.00  0.00     0.306 C 
HETATM   38  H4  UNL     1       1.208  52.078 -26.367  1.00  0.00     0.315 HD
ENDBRANCH  35  36
ENDBRANCH  34  35
ENDBRANCH  33  34
BRANCH  33  39
HETATM   39  C5  UNL     1      -3.103  51.307 -26.236  1.00  0.00     0.151 C 
HETATM   40  O1  UNL     1      -3.442  50.720 -27.249  1.00  0.00    -0.649 OA
BRANCH  39  41
HETATM   41  O2  UNL     1      -3.075  52.655 -26.210  1.00  0.00    -0.776 OA
HETATM   42  H10 UNL     1      -3.398  52.920 -27.098  1.00  0.00     0.167 HD
ENDBRANCH  39  41
ENDBRANCH  33  39
ENDBRANCH  31  33
ENDBRANCH  30  31
BRANCH  30  43
HETATM   43  O4  UNL     1      -2.369  49.154 -22.479  1.00  0.00    -0.388 OA
HETATM   44  H12 UNL     1      -1.473  48.783 -22.576  1.00  0.00     0.210 HD
ENDBRANCH  30  43
ENDBRANCH  29  30
ENDBRANCH  27  29
ENDBRANCH   1  27
BRANCH   3  45
HETATM   45  O5  UNL     1      -9.806  47.503 -22.291  1.00  0.00    -0.385 OA
HETATM   46  H22 UNL     1     -10.135  47.317 -21.384  1.00  0.00     0.211 HD
ENDBRANCH   3  45
BRANCH   6  47
HETATM   47  O6  UNL     1     -11.766  47.257 -24.175  1.00  0.00    -0.380 OA
HETATM   48  H25 UNL     1     -11.136  47.669 -23.545  1.00  0.00     0.211 HD
ENDBRANCH   6  47
BRANCH  26  49
HETATM   49  C35 UNL     1     -13.424  45.919 -25.807  1.00  0.00    -0.017 C 
HETATM   50  C36 UNL     1     -14.443  45.056 -25.660  1.00  0.00     0.008 C 
BRANCH  50  51
HETATM   51  C37 UNL     1     -15.841  45.475 -25.497  1.00  0.00    -0.036 A 
HETATM   52  C38 UNL     1     -16.846  44.782 -26.186  1.00  0.00     0.011 A 
HETATM   53  C39 UNL     1     -18.190  45.131 -26.022  1.00  0.00     0.001 A 
HETATM   54  C40 UNL     1     -18.541  46.172 -25.162  1.00  0.00     0.000 A 
HETATM   55  C41 UNL     1     -17.552  46.860 -24.462  1.00  0.00     0.001 A 
HETATM   56  C42 UNL     1     -16.208  46.511 -24.625  1.00  0.00     0.011 A 
ENDBRANCH  50  51
ENDBRANCH  26  49
TORSDOF 15
ENDMDL
MODEL 8
REMARK minimizedAffinity -8.28511238
REMARK CNNscore 0.324057132
REMARK CNNaffinity 6.49377394
REMARK  15 active torsions:
REMARK  status: ('A' for Active; 'I' for Inactive)
REMARK    1  A    between atoms: N1_2  and  C2_3 
REMARK    2  A    between atoms: C2_3  and  C3_4 
REMARK    3  A    between atoms: C3_4  and  C4_5 
REMARK    4  A    between atoms: C4_5  and  C5_6 
REMARK    5  A    between atoms: C4_5  and  C6_9 
REMARK    6  A    between atoms: C5_6  and  O2_8 
REMARK    7  A    between atoms: C6_9  and  C7_11 
REMARK    8  A    between atoms: C7_11  and  O4_12 
REMARK    9  A    between atoms: C7_11  and  C8_13 
REMARK   10  A    between atoms: C8_13  and  C9_14 
REMARK   11  A    between atoms: C9_14  and  C11_16 
REMARK   12  A    between atoms: C13_18  and  O5_19 
REMARK   13  A    between atoms: C16_22  and  O6_23 
REMARK   14  A    between atoms: C34_43  and  C35_44 
REMARK   15  A    between atoms: C36_45  and  C37_46 
ROOT
HETATM    1  C11 UNL     1      -8.742  46.757 -22.285  1.00  0.00     0.002 C 
HETATM    2  C12 UNL     1      -9.017  47.482 -20.909  1.00  0.00     0.049 C 
HETATM    3  C13 UNL     1      -7.613  47.762 -20.348  1.00  0.00     0.088 C 
HETATM    4  C14 UNL     1      -7.310  48.776 -19.294  1.00  0.00     0.011 C 
HETATM    5  C15 UNL     1      -6.024  49.190 -19.183  1.00  0.00     0.015 C 
HETATM    6  C16 UNL     1      -4.892  48.656 -20.091  1.00  0.00     0.108 C 
HETATM    7  C17 UNL     1      -5.375  48.328 -21.509  1.00  0.00    -0.018 C 
HETATM    8  C18 UNL     1      -4.579  48.258 -22.610  1.00  0.00     0.003 C 
HETATM    9  C19 UNL     1      -5.260  47.963 -23.953  1.00  0.00     0.157 C 
HETATM   10  O7  UNL     1      -4.684  48.183 -25.017  1.00  0.00    -0.293 OA
HETATM   11  C20 UNL     1      -6.728  47.455 -24.008  1.00  0.00     0.094 C 
HETATM   12  C21 UNL     1      -7.219  47.014 -22.628  1.00  0.00    -0.019 C 
HETATM   13  C22 UNL     1      -6.486  45.637 -22.391  1.00  0.00     0.017 C 
HETATM   14  C23 UNL     1      -6.864  48.162 -21.646  1.00  0.00     0.026 C 
HETATM   15  C24 UNL     1      -7.358  49.590 -22.122  1.00  0.00     0.025 C 
HETATM   16  C25 UNL     1      -3.069  48.569 -22.466  1.00  0.00    -0.007 C 
HETATM   17  C26 UNL     1      -2.391  47.296 -21.904  1.00  0.00     0.021 C 
HETATM   18  C27 UNL     1      -2.273  48.892 -23.766  1.00  0.00     0.022 C 
HETATM   19  C28 UNL     1      -2.382  50.344 -24.190  1.00  0.00     0.080 C 
HETATM   20  C29 UNL     1      -1.673  51.201 -23.163  1.00  0.00     0.135 C 
HETATM   21  O8  UNL     1      -1.051  52.202 -23.524  1.00  0.00    -0.297 OA
HETATM   22  C30 UNL     1      -1.782  50.788 -21.673  1.00  0.00     0.018 C 
HETATM   23  C31 UNL     1      -1.983  52.103 -20.882  1.00  0.00     0.023 C 
HETATM   24  C32 UNL     1      -0.437  50.181 -21.252  1.00  0.00     0.023 C 
HETATM   25  C33 UNL     1      -3.038  49.848 -21.522  1.00  0.00     0.025 C 
HETATM   26  C34 UNL     1      -3.633  49.619 -20.082  1.00  0.00     0.057 C 
ENDROOT
BRANCH   1  27
HETATM   27  C9  UNL     1      -9.826  46.901 -23.387  1.00  0.00    -0.011 C 
HETATM   28  C10 UNL     1     -11.273  46.688 -22.931  1.00  0.00     0.010 C 
BRANCH  27  29
HETATM   29  C8  UNL     1      -9.515  45.913 -24.549  1.00  0.00     0.044 C 
BRANCH  29  30
HETATM   30  C7  UNL     1     -10.651  45.775 -25.574  1.00  0.00     0.188 C 
BRANCH  30  31
HETATM   31  C6  UNL     1     -10.244  46.492 -26.875  1.00  0.00     0.169 C 
HETATM   32  O3  UNL     1     -10.581  46.030 -27.971  1.00  0.00    -0.294 OA
BRANCH  31  33
HETATM   33  C4  UNL     1      -9.411  47.759 -26.754  1.00  0.00     0.157 C 
BRANCH  33  34
HETATM   34  C3  UNL     1      -8.627  48.080 -28.039  1.00  0.00     0.053 C 
BRANCH  34  35
HETATM   35  C2  UNL     1      -7.163  47.622 -28.006  1.00  0.00     0.270 C 
BRANCH  35  36
HETATM   36  N1  UNL     1      -6.249  48.455 -28.794  1.00  0.00     0.079 N 
HETATM   37  C1  UNL     1      -4.859  48.303 -28.374  1.00  0.00     0.306 C 
HETATM   38  H4  UNL     1      -6.517  49.433 -28.658  1.00  0.00     0.315 HD
ENDBRANCH  35  36
ENDBRANCH  34  35
ENDBRANCH  33  34
BRANCH  33  39
HETATM   39  C5  UNL     1     -10.274  48.945 -26.421  1.00  0.00     0.151 C 
HETATM   40  O1  UNL     1     -11.491  49.001 -26.439  1.00  0.00    -0.649 OA
BRANCH  39  41
HETATM   41  O2  UNL     1      -9.550  50.038 -26.105  1.00  0.00    -0.776 OA
HETATM   42  H10 UNL     1     -10.222  50.722 -25.902  1.00  0.00     0.167 HD
ENDBRANCH  39  41
ENDBRANCH  33  39
ENDBRANCH  31  33
ENDBRANCH  30  31
BRANCH  30  43
HETATM   43  O4  UNL     1     -10.995  44.414 -25.749  1.00  0.00    -0.388 OA
HETATM   44  H12 UNL     1     -11.905  44.380 -26.098  1.00  0.00     0.210 HD
ENDBRANCH  30  43
ENDBRANCH  29  30
ENDBRANCH  27  29
ENDBRANCH   1  27
BRANCH   3  45
HETATM   45  O5  UNL     1      -7.127  46.537 -19.787  1.00  0.00    -0.385 OA
HETATM   46  H22 UNL     1      -7.581  46.420 -18.923  1.00  0.00     0.211 HD
ENDBRANCH   3  45
BRANCH   6  47
HETATM   47  O6  UNL     1      -4.553  47.396 -19.495  1.00  0.00    -0.380 OA
HETATM   48  H25 UNL     1      -5.316  46.797 -19.645  1.00  0.00     0.211 HD
ENDBRANCH   6  47
BRANCH  26  49
HETATM   49  C35 UNL     1      -2.623  49.202 -19.029  1.00  0.00    -0.017 C 
HETATM   50  C36 UNL     1      -2.269  49.966 -17.982  1.00  0.00     0.008 C 
BRANCH  50  51
HETATM   51  C37 UNL     1      -1.336  49.524 -16.938  1.00  0.00    -0.036 A 
HETATM   52  C38 UNL     1      -1.632  48.367 -16.203  1.00  0.00     0.011 A 
HETATM   53  C39 UNL     1      -0.745  47.899 -15.228  1.00  0.00     0.001 A 
HETATM   54  C40 UNL     1       0.448  48.580 -14.984  1.00  0.00     0.000 A 
HETATM   55  C41 UNL     1       0.759  49.723 -15.716  1.00  0.00     0.001 A 
HETATM   56  C42 UNL     1      -0.127  50.192 -16.692  1.00  0.00     0.011 A 
ENDBRANCH  50  51
ENDBRANCH  26  49
TORSDOF 15
ENDMDL
MODEL 9
REMARK minimizedAffinity -7.95381832
REMARK CNNscore 0.322039872
REMARK CNNaffinity 6.12383318
REMARK  15 active torsions:
REMARK  status: ('A' for Active; 'I' for Inactive)
REMARK    1  A    between atoms: N1_2  and  C2_3 
REMARK    2  A    between atoms: C2_3  and  C3_4 
REMARK    3  A    between atoms: C3_4  and  C4_5 
REMARK    4  A    between atoms: C4_5  and  C5_6 
REMARK    5  A    between atoms: C4_5  and  C6_9 
REMARK    6  A    between atoms: C5_6  and  O2_8 
REMARK    7  A    between atoms: C6_9  and  C7_11 
REMARK    8  A    between atoms: C7_11  and  O4_12 
REMARK    9  A    between atoms: C7_11  and  C8_13 
REMARK   10  A    between atoms: C8_13  and  C9_14 
REMARK   11  A    between atoms: C9_14  and  C11_16 
REMARK   12  A    between atoms: C13_18  and  O5_19 
REMARK   13  A    between atoms: C16_22  and  O6_23 
REMARK   14  A    between atoms: C34_43  and  C35_44 
REMARK   15  A    between atoms: C36_45  and  C37_46 
ROOT
HETATM    1  C11 UNL     1     -13.250  45.419 -25.851  1.00  0.00     0.002 C 
HETATM    2  C12 UNL     1     -13.228  43.963 -26.463  1.00  0.00     0.049 C 
HETATM    3  C13 UNL     1     -12.582  44.149 -27.845  1.00  0.00     0.088 C 
HETATM    4  C14 UNL     1     -11.961  43.050 -28.643  1.00  0.00     0.011 C 
HETATM    5  C15 UNL     1     -11.100  43.407 -29.627  1.00  0.00     0.015 C 
HETATM    6  C16 UNL     1     -10.753  44.881 -29.940  1.00  0.00     0.108 C 
HETATM    7  C17 UNL     1     -10.753  45.768 -28.689  1.00  0.00    -0.018 C 
HETATM    8  C18 UNL     1     -10.096  46.953 -28.571  1.00  0.00     0.003 C 
HETATM    9  C19 UNL     1     -10.180  47.671 -27.217  1.00  0.00     0.157 C 
HETATM   10  O7  UNL     1      -9.387  48.564 -26.924  1.00  0.00    -0.293 OA
HETATM   11  C20 UNL     1     -11.215  47.233 -26.144  1.00  0.00     0.094 C 
HETATM   12  C21 UNL     1     -12.264  46.288 -26.733  1.00  0.00    -0.019 C 
HETATM   13  C22 UNL     1     -13.183  47.237 -27.596  1.00  0.00     0.017 C 
HETATM   14  C23 UNL     1     -11.484  45.192 -27.507  1.00  0.00     0.026 C 
HETATM   15  C24 UNL     1     -10.340  44.499 -26.660  1.00  0.00     0.025 C 
HETATM   16  C25 UNL     1      -9.237  47.458 -29.755  1.00  0.00    -0.007 C 
HETATM   17  C26 UNL     1     -10.202  48.104 -30.779  1.00  0.00     0.021 C 
HETATM   18  C27 UNL     1      -8.183  48.568 -29.460  1.00  0.00     0.022 C 
HETATM   19  C28 UNL     1      -6.871  48.023 -28.931  1.00  0.00     0.080 C 
HETATM   20  C29 UNL     1      -6.198  47.231 -30.033  1.00  0.00     0.135 C 
HETATM   21  O8  UNL     1      -4.971  47.256 -30.144  1.00  0.00    -0.297 OA
HETATM   22  C30 UNL     1      -7.096  46.391 -30.976  1.00  0.00     0.018 C 
HETATM   23  C31 UNL     1      -6.351  45.052 -31.190  1.00  0.00     0.023 C 
HETATM   24  C32 UNL     1      -7.170  47.115 -32.327  1.00  0.00     0.023 C 
HETATM   25  C33 UNL     1      -8.474  46.153 -30.248  1.00  0.00     0.025 C 
HETATM   26  C34 UNL     1      -9.410  45.001 -30.773  1.00  0.00     0.057 C 
ENDROOT
BRANCH   1  27
HETATM   27  C9  UNL     1     -13.220  45.535 -24.303  1.00  0.00    -0.011 C 
HETATM   28  C10 UNL     1     -12.330  44.522 -23.575  1.00  0.00     0.010 C 
BRANCH  27  29
HETATM   29  C8  UNL     1     -14.670  45.418 -23.749  1.00  0.00     0.044 C 
BRANCH  29  30
HETATM   30  C7  UNL     1     -15.652  46.436 -24.345  1.00  0.00     0.188 C 
BRANCH  30  31
HETATM   31  C6  UNL     1     -17.042  46.222 -23.718  1.00  0.00     0.169 C 
HETATM   32  O3  UNL     1     -17.266  46.589 -22.560  1.00  0.00    -0.294 OA
BRANCH  31  33
HETATM   33  C4  UNL     1     -18.102  45.534 -24.566  1.00  0.00     0.157 C 
BRANCH  33  34
HETATM   34  C3  UNL     1     -18.725  44.314 -23.864  1.00  0.00     0.053 C 
BRANCH  34  35
HETATM   35  C2  UNL     1     -19.750  44.675 -22.781  1.00  0.00     0.270 C 
BRANCH  35  36
HETATM   36  N1  UNL     1     -19.234  44.605 -21.410  1.00  0.00     0.079 N 
HETATM   37  C1  UNL     1     -19.922  43.596 -20.610  1.00  0.00     0.306 C 
HETATM   38  H4  UNL     1     -19.383  45.517 -20.970  1.00  0.00     0.315 HD
ENDBRANCH  35  36
ENDBRANCH  34  35
ENDBRANCH  33  34
BRANCH  33  39
HETATM   39  C5  UNL     1     -19.209  46.486 -24.927  1.00  0.00     0.151 C 
HETATM   40  O1  UNL     1     -20.303  46.206 -25.386  1.00  0.00    -0.649 OA
BRANCH  39  41
HETATM   41  O2  UNL     1     -18.870  47.774 -24.718  1.00  0.00    -0.776 OA
HETATM   42  H10 UNL     1     -19.670  48.279 -24.977  1.00  0.00     0.167 HD
ENDBRANCH  39  41
ENDBRANCH  33  39
ENDBRANCH  31  33
ENDBRANCH  30  31
BRANCH  30  43
HETATM   43  O4  UNL     1     -15.150  47.751 -24.199  1.00  0.00    -0.388 OA
HETATM   44  H12 UNL     1     -15.582  48.311 -24.870  1.00  0.00     0.210 HD
ENDBRANCH  30  43
ENDBRANCH  29  30
ENDBRANCH  27  29
ENDBRANCH   1  27
BRANCH   3  45
HETATM   45  O5  UNL     1     -13.588  44.672 -28.718  1.00  0.00    -0.385 OA
HETATM   46  H22 UNL     1     -14.175  43.920 -28.959  1.00  0.00     0.211 HD
ENDBRANCH   3  45
BRANCH   6  47
HETATM   47  O6  UNL     1     -11.864  45.325 -30.731  1.00  0.00    -0.380 OA
HETATM   48  H25 UNL     1     -12.642  45.358 -30.133  1.00  0.00     0.211 HD
ENDBRANCH   6  47
BRANCH  26  49
HETATM   49  C35 UNL     1      -9.683  45.026 -32.266  1.00  0.00    -0.017 C 
HETATM   50  C36 UNL     1     -10.453  45.942 -32.875  1.00  0.00     0.008 C 
BRANCH  50  51
HETATM   51  C37 UNL     1     -10.658  45.988 -34.328  1.00  0.00    -0.036 A 
HETATM   52  C38 UNL     1      -9.549  46.162 -35.169  1.00  0.00     0.011 A 
HETATM   53  C39 UNL     1      -9.706  46.172 -36.559  1.00  0.00     0.001 A 
HETATM   54  C40 UNL     1     -10.972  46.003 -37.120  1.00  0.00     0.000 A 
HETATM   55  C41 UNL     1     -12.080  45.817 -36.295  1.00  0.00     0.001 A 
HETATM   56  C42 UNL     1     -11.924  45.806 -34.905  1.00  0.00     0.011 A 
ENDBRANCH  50  51
ENDBRANCH  26  49
TORSDOF 15
ENDMDL
