MODEL 1
REMARK minimizedAffinity -9.46939945
REMARK CNNscore 0.727459252
REMARK CNNaffinity 7.61202049
REMARK  9 active torsions:
REMARK  status: ('A' for Active; 'I' for Inactive)
REMARK    1  A    between atoms: C6_6  and  C8_8 
REMARK    2  A    between atoms: C8_8  and  O2_10 
REMARK    3  A    between atoms: O2_10  and  C9_11 
REMARK    4  A    between atoms: C9_11  and  C10_12 
REMARK    5  A    between atoms: C10_12  and  O3_13 
REMARK    6  A    between atoms: C27_33  and  O7_34 
REMARK    7  A    between atoms: C38_45  and  O8_46 
REMARK    8  A    between atoms: C38_45  and  C39_47 
REMARK    9  A    between atoms: C39_47  and  O9_48 
ROOT
HETATM    1  O2  UNL     1      -2.652  48.880 -15.778  1.00  0.00    -0.317 OA
ENDROOT
BRANCH   1   2
HETATM    2  C8  UNL     1      -2.039  49.914 -15.131  1.00  0.00     0.267 C 
HETATM    3  O1  UNL     1      -2.062  51.064 -15.555  1.00  0.00    -0.264 OA
BRANCH   2   4
HETATM    4  C6  UNL     1      -1.372  49.464 -13.815  1.00  0.00     0.049 C 
HETATM    5  C5  UNL     1      -2.302  48.438 -13.119  1.00  0.00     0.020 C 
HETATM    6  C4  UNL     1      -3.515  49.070 -12.451  1.00  0.00     0.002 C 
HETATM    7  C3  UNL     1      -3.089  50.099 -11.417  1.00  0.00     0.010 C 
HETATM    8  C2  UNL     1      -2.192  51.235 -11.984  1.00  0.00    -0.035 C 
HETATM    9  C1  UNL     1      -3.070  52.181 -12.834  1.00  0.00     0.016 C 
HETATM   10  C29 UNL     1      -1.008  50.625 -12.811  1.00  0.00     0.012 C 
HETATM   11  C37 UNL     1      -1.557  52.002 -10.762  1.00  0.00     0.010 C 
HETATM   12  C30 UNL     1      -0.168  51.742 -13.445  1.00  0.00     0.008 C 
HETATM   13  C31 UNL     1       0.219  52.904 -12.530  1.00  0.00     0.018 C 
HETATM   14  C32 UNL     1      -0.361  52.941 -11.114  1.00  0.00     0.028 C 
HETATM   15  C33 UNL     1      -0.635  54.405 -10.690  1.00  0.00     0.026 C 
HETATM   16  C40 UNL     1       0.733  52.608 -10.084  1.00  0.00     0.172 C 
HETATM   17  C34 UNL     1      -0.657  54.296  -9.161  1.00  0.00     0.031 C 
HETATM   18  C35 UNL     1      -1.941  53.551  -8.736  1.00  0.00     0.009 C 
HETATM   19  C38 UNL     1       0.674  53.548  -8.887  1.00  0.00     0.143 C 
HETATM   20  C36 UNL     1      -2.587  52.713  -9.850  1.00  0.00     0.007 C 
HETATM   21  O10 UNL     1       1.544  51.692 -10.197  1.00  0.00    -0.294 OA
HETATM   22  C7  UNL     1      -0.093  48.678 -14.215  1.00  0.00     0.026 C 
BRANCH  19  23
HETATM   23  O8  UNL     1       1.758  54.482  -9.026  1.00  0.00    -0.379 OA
HETATM   24  H53 UNL     1       2.586  53.976  -8.922  1.00  0.00     0.211 HD
ENDBRANCH  19  23
BRANCH  19  25
HETATM   25  C39 UNL     1       0.802  52.787  -7.565  1.00  0.00     0.210 C 
BRANCH  25  26
HETATM   26  O9  UNL     1       0.340  51.446  -7.705  1.00  0.00    -0.397 OA
HETATM   27  H56 UNL     1       0.171  51.112  -6.811  1.00  0.00     0.209 HD
ENDBRANCH  25  26
ENDBRANCH  19  25
ENDBRANCH   2   4
ENDBRANCH   1   2
BRANCH   1  28
HETATM   28  C9  UNL     1      -2.318  48.728 -17.169  1.00  0.00     0.227 C 
BRANCH  28  29
HETATM   29  C10 UNL     1      -3.555  48.865 -18.059  1.00  0.00     0.171 C 
HETATM   30  C11 UNL     1      -3.375  49.896 -19.175  1.00  0.00     0.175 C 
HETATM   31  O4  UNL     1      -2.851  50.989 -19.006  1.00  0.00    -0.294 OA
HETATM   32  C12 UNL     1      -3.914  49.378 -20.528  1.00  0.00     0.037 C 
HETATM   33  C13 UNL     1      -4.749  50.435 -21.271  1.00  0.00     0.019 C 
HETATM   34  C23 UNL     1      -2.726  48.784 -21.366  1.00  0.00     0.003 C 
HETATM   35  C28 UNL     1      -4.842  48.274 -19.971  1.00  0.00     0.059 C 
HETATM   36  C14 UNL     1      -4.020  51.157 -22.409  1.00  0.00     0.010 C 
HETATM   37  C15 UNL     1      -2.532  51.318 -22.116  1.00  0.00     0.040 C 
HETATM   38  C16 UNL     1      -1.674  51.931 -23.231  1.00  0.00     0.051 C 
HETATM   39  C21 UNL     1      -1.809  49.971 -21.930  1.00  0.00     0.084 C 
HETATM   40  C17 UNL     1      -2.341  53.040 -24.034  1.00  0.00     0.026 C 
HETATM   41  C18 UNL     1      -0.299  52.375 -22.686  1.00  0.00     0.020 C 
HETATM   42  C22 UNL     1      -1.402  50.717 -24.085  1.00  0.00     0.268 C 
HETATM   43  C19 UNL     1       0.130  51.637 -21.411  1.00  0.00     0.004 C 
HETATM   44  C20 UNL     1      -0.476  50.239 -21.181  1.00  0.00     0.040 C 
HETATM   45  O5  UNL     1      -1.416  49.614 -23.283  1.00  0.00    -0.308 OA
HETATM   46  O6  UNL     1      -1.164  50.695 -25.280  1.00  0.00    -0.264 OA
HETATM   47  C24 UNL     1      -3.294  47.935 -22.557  1.00  0.00     0.019 C 
HETATM   48  C25 UNL     1      -1.932  47.751 -20.495  1.00  0.00     0.016 C 
HETATM   49  C26 UNL     1      -2.815  46.869 -19.591  1.00  0.00     0.042 C 
HETATM   50  C27 UNL     1      -3.962  47.629 -18.899  1.00  0.00     0.099 C 
BRANCH  29  51
HETATM   51  O3  UNL     1      -4.704  49.255 -17.279  1.00  0.00    -0.377 OA
HETATM   52  H15 UNL     1      -4.394  49.877 -16.586  1.00  0.00     0.211 HD
ENDBRANCH  29  51
BRANCH  50  53
HETATM   53  O7  UNL     1      -4.745  46.714 -18.136  1.00  0.00    -0.386 OA
HETATM   54  H37 UNL     1      -5.270  47.261 -17.518  1.00  0.00     0.210 HD
ENDBRANCH  50  53
ENDBRANCH  28  29
ENDBRANCH   1  28
TORSDOF 9
ENDMDL
MODEL 2
REMARK minimizedAffinity -10.8062592
REMARK CNNscore 0.492938817
REMARK CNNaffinity 7.56205225
REMARK  9 active torsions:
REMARK  status: ('A' for Active; 'I' for Inactive)
REMARK    1  A    between atoms: C6_6  and  C8_8 
REMARK    2  A    between atoms: C8_8  and  O2_10 
REMARK    3  A    between atoms: O2_10  and  C9_11 
REMARK    4  A    between atoms: C9_11  and  C10_12 
REMARK    5  A    between atoms: C10_12  and  O3_13 
REMARK    6  A    between atoms: C27_33  and  O7_34 
REMARK    7  A    between atoms: C38_45  and  O8_46 
REMARK    8  A    between atoms: C38_45  and  C39_47 
REMARK    9  A    between atoms: C39_47  and  O9_48 
ROOT
HETATM    1  O2  UNL     1      -3.184  47.863 -19.004  1.00  0.00    -0.317 OA
ENDROOT
BRANCH   1   2
HETATM    2  C8  UNL     1      -3.306  48.693 -20.081  1.00  0.00     0.267 C 
HETATM    3  O1  UNL     1      -4.102  49.625 -20.109  1.00  0.00    -0.264 OA
BRANCH   2   4
HETATM    4  C6  UNL     1      -2.309  48.341 -21.204  1.00  0.00     0.049 C 
HETATM    5  C5  UNL     1      -0.871  48.449 -20.636  1.00  0.00     0.020 C 
HETATM    6  C4  UNL     1      -0.388  49.884 -20.468  1.00  0.00     0.002 C 
HETATM    7  C3  UNL     1      -0.431  50.629 -21.792  1.00  0.00     0.010 C 
HETATM    8  C2  UNL     1      -1.835  50.656 -22.460  1.00  0.00    -0.035 C 
HETATM    9  C1  UNL     1      -2.739  51.631 -21.671  1.00  0.00     0.016 C 
HETATM   10  C29 UNL     1      -2.433  49.209 -22.516  1.00  0.00     0.012 C 
HETATM   11  C37 UNL     1      -1.649  51.140 -23.949  1.00  0.00     0.010 C 
HETATM   12  C30 UNL     1      -3.855  49.241 -23.096  1.00  0.00     0.008 C 
HETATM   13  C31 UNL     1      -4.051  50.067 -24.367  1.00  0.00     0.018 C 
HETATM   14  C32 UNL     1      -2.875  50.899 -24.884  1.00  0.00     0.028 C 
HETATM   15  C33 UNL     1      -3.392  52.220 -25.505  1.00  0.00     0.026 C 
HETATM   16  C40 UNL     1      -2.295  50.262 -26.159  1.00  0.00     0.172 C 
HETATM   17  C34 UNL     1      -2.229  52.620 -26.420  1.00  0.00     0.031 C 
HETATM   18  C35 UNL     1      -1.042  53.074 -25.542  1.00  0.00     0.009 C 
HETATM   19  C38 UNL     1      -2.007  51.312 -27.224  1.00  0.00     0.143 C 
HETATM   20  C36 UNL     1      -1.103  52.582 -24.088  1.00  0.00     0.007 C 
HETATM   21  O10 UNL     1      -2.074  49.062 -26.302  1.00  0.00    -0.294 OA
HETATM   22  C7  UNL     1      -2.526  46.838 -21.531  1.00  0.00     0.026 C 
BRANCH  19  23
HETATM   23  O8  UNL     1      -3.041  51.206 -28.216  1.00  0.00    -0.379 OA
HETATM   24  H53 UNL     1      -2.926  50.345 -28.658  1.00  0.00     0.211 HD
ENDBRANCH  19  23
BRANCH  19  25
HETATM   25  C39 UNL     1      -0.636  51.099 -27.869  1.00  0.00     0.210 C 
BRANCH  25  26
HETATM   26  O9  UNL     1      -0.287  52.205 -28.699  1.00  0.00    -0.397 OA
HETATM   27  H56 UNL     1       0.419  51.903 -29.289  1.00  0.00     0.209 HD
ENDBRANCH  25  26
ENDBRANCH  19  25
ENDBRANCH   2   4
ENDBRANCH   1   2
BRANCH   1  28
HETATM   28  C9  UNL     1      -2.143  48.202 -18.070  1.00  0.00     0.227 C 
BRANCH  28  29
HETATM   29  C10 UNL     1      -2.657  49.144 -16.980  1.00  0.00     0.171 C 
HETATM   30  C11 UNL     1      -2.124  48.791 -15.588  1.00  0.00     0.175 C 
HETATM   31  O4  UNL     1      -2.056  47.646 -15.162  1.00  0.00    -0.294 OA
HETATM   32  C12 UNL     1      -1.673  50.048 -14.811  1.00  0.00     0.037 C 
HETATM   33  C13 UNL     1      -2.161  50.045 -13.353  1.00  0.00     0.019 C 
HETATM   34  C23 UNL     1      -0.120  50.228 -14.974  1.00  0.00     0.003 C 
HETATM   35  C28 UNL     1      -2.467  51.093 -15.628  1.00  0.00     0.059 C 
HETATM   36  C14 UNL     1      -1.110  49.639 -12.315  1.00  0.00     0.010 C 
HETATM   37  C15 UNL     1      -0.130  48.612 -12.874  1.00  0.00     0.040 C 
HETATM   38  C16 UNL     1       1.036  48.208 -11.961  1.00  0.00     0.051 C 
HETATM   39  C21 UNL     1       0.650  49.131 -14.095  1.00  0.00     0.084 C 
HETATM   40  C17 UNL     1       0.701  48.105 -10.480  1.00  0.00     0.026 C 
HETATM   41  C18 UNL     1       1.719  46.923 -12.479  1.00  0.00     0.020 C 
HETATM   42  C22 UNL     1       2.012  49.326 -12.232  1.00  0.00     0.268 C 
HETATM   43  C19 UNL     1       1.513  46.673 -13.978  1.00  0.00     0.004 C 
HETATM   44  C20 UNL     1       1.226  47.906 -14.855  1.00  0.00     0.040 C 
HETATM   45  O5  UNL     1       1.806  49.783 -13.500  1.00  0.00    -0.308 OA
HETATM   46  O6  UNL     1       2.879  49.744 -11.484  1.00  0.00    -0.264 OA
HETATM   47  C24 UNL     1       0.295  51.669 -14.514  1.00  0.00     0.019 C 
HETATM   48  C25 UNL     1       0.259  50.179 -16.493  1.00  0.00     0.016 C 
HETATM   49  C26 UNL     1      -0.747  50.884 -17.424  1.00  0.00     0.042 C 
HETATM   50  C27 UNL     1      -2.223  50.628 -17.064  1.00  0.00     0.099 C 
BRANCH  29  51
HETATM   51  O3  UNL     1      -4.098  49.118 -16.920  1.00  0.00    -0.377 OA
HETATM   52  H15 UNL     1      -4.385  48.196 -17.099  1.00  0.00     0.211 HD
ENDBRANCH  29  51
BRANCH  50  53
HETATM   53  O7  UNL     1      -3.061  51.368 -17.948  1.00  0.00    -0.386 OA
HETATM   54  H37 UNL     1      -3.952  50.972 -17.866  1.00  0.00     0.210 HD
ENDBRANCH  50  53
ENDBRANCH  28  29
ENDBRANCH   1  28
TORSDOF 9
ENDMDL
MODEL 3
REMARK minimizedAffinity -9.40372276
REMARK CNNscore 0.488600791
REMARK CNNaffinity 7.30893326
REMARK  9 active torsions:
REMARK  status: ('A' for Active; 'I' for Inactive)
REMARK    1  A    between atoms: C6_6  and  C8_8 
REMARK    2  A    between atoms: C8_8  and  O2_10 
REMARK    3  A    between atoms: O2_10  and  C9_11 
REMARK    4  A    between atoms: C9_11  and  C10_12 
REMARK    5  A    between atoms: C10_12  and  O3_13 
REMARK    6  A    between atoms: C27_33  and  O7_34 
REMARK    7  A    between atoms: C38_45  and  O8_46 
REMARK    8  A    between atoms: C38_45  and  C39_47 
REMARK    9  A    between atoms: C39_47  and  O9_48 
ROOT
HETATM    1  O2  UNL     1      -6.730  46.686 -20.943  1.00  0.00    -0.317 OA
ENDROOT
BRANCH   1   2
HETATM    2  C8  UNL     1      -8.045  46.969 -21.177  1.00  0.00     0.267 C 
HETATM    3  O1  UNL     1      -8.707  47.686 -20.434  1.00  0.00    -0.264 OA
BRANCH   2   4
HETATM    4  C6  UNL     1      -8.557  46.326 -22.481  1.00  0.00     0.049 C 
HETATM    5  C5  UNL     1     -10.044  46.721 -22.673  1.00  0.00     0.020 C 
HETATM    6  C4  UNL     1     -10.999  45.962 -21.760  1.00  0.00     0.002 C 
HETATM    7  C3  UNL     1     -10.876  44.463 -21.975  1.00  0.00     0.010 C 
HETATM    8  C2  UNL     1      -9.441  43.906 -21.758  1.00  0.00    -0.035 C 
HETATM    9  C1  UNL     1      -9.135  43.901 -20.243  1.00  0.00     0.016 C 
HETATM   10  C29 UNL     1      -8.404  44.758 -22.567  1.00  0.00     0.012 C 
HETATM   11  C37 UNL     1      -9.399  42.443 -22.347  1.00  0.00     0.010 C 
HETATM   12  C30 UNL     1      -6.976  44.267 -22.291  1.00  0.00     0.008 C 
HETATM   13  C31 UNL     1      -6.754  42.755 -22.353  1.00  0.00     0.018 C 
HETATM   14  C32 UNL     1      -7.971  41.847 -22.547  1.00  0.00     0.028 C 
HETATM   15  C33 UNL     1      -7.782  40.530 -21.753  1.00  0.00     0.026 C 
HETATM   16  C40 UNL     1      -7.972  41.258 -23.968  1.00  0.00     0.172 C 
HETATM   17  C34 UNL     1      -8.745  39.581 -22.476  1.00  0.00     0.031 C 
HETATM   18  C35 UNL     1     -10.194  39.999 -22.141  1.00  0.00     0.009 C 
HETATM   19  C38 UNL     1      -8.316  39.774 -23.954  1.00  0.00     0.143 C 
HETATM   20  C36 UNL     1     -10.338  41.441 -21.631  1.00  0.00     0.007 C 
HETATM   21  O10 UNL     1      -7.742  41.898 -24.990  1.00  0.00    -0.294 OA
HETATM   22  C7  UNL     1      -7.783  47.007 -23.643  1.00  0.00     0.026 C 
BRANCH  19  23
HETATM   23  O8  UNL     1      -7.092  39.052 -24.170  1.00  0.00    -0.379 OA
HETATM   24  H53 UNL     1      -6.804  39.246 -25.082  1.00  0.00     0.211 HD
ENDBRANCH  19  23
BRANCH  19  25
HETATM   25  C39 UNL     1      -9.334  39.421 -25.041  1.00  0.00     0.210 C 
BRANCH  25  26
HETATM   26  O9  UNL     1      -9.615  38.023 -25.040  1.00  0.00    -0.397 OA
HETATM   27  H56 UNL     1     -10.016  37.817 -25.897  1.00  0.00     0.209 HD
ENDBRANCH  25  26
ENDBRANCH  19  25
ENDBRANCH   2   4
ENDBRANCH   1   2
BRANCH   1  28
HETATM   28  C9  UNL     1      -5.790  47.301 -21.841  1.00  0.00     0.227 C 
BRANCH  28  29
HETATM   29  C10 UNL     1      -5.105  48.506 -21.191  1.00  0.00     0.171 C 
HETATM   30  C11 UNL     1      -3.925  49.034 -22.011  1.00  0.00     0.175 C 
HETATM   31  O4  UNL     1      -3.094  48.309 -22.542  1.00  0.00    -0.294 OA
HETATM   32  C12 UNL     1      -3.930  50.577 -22.096  1.00  0.00     0.037 C 
HETATM   33  C13 UNL     1      -2.536  51.183 -21.859  1.00  0.00     0.019 C 
HETATM   34  C23 UNL     1      -4.608  51.020 -23.443  1.00  0.00     0.003 C 
HETATM   35  C28 UNL     1      -4.835  50.848 -20.873  1.00  0.00     0.059 C 
HETATM   36  C14 UNL     1      -1.790  51.616 -23.125  1.00  0.00     0.010 C 
HETATM   37  C15 UNL     1      -2.124  50.718 -24.313  1.00  0.00     0.040 C 
HETATM   38  C16 UNL     1      -1.520  51.118 -25.666  1.00  0.00     0.051 C 
HETATM   39  C21 UNL     1      -3.621  50.730 -24.671  1.00  0.00     0.084 C 
HETATM   40  C17 UNL     1      -0.111  51.690 -25.610  1.00  0.00     0.026 C 
HETATM   41  C18 UNL     1      -1.620  49.954 -26.677  1.00  0.00     0.020 C 
HETATM   42  C22 UNL     1      -2.518  52.149 -26.132  1.00  0.00     0.268 C 
HETATM   43  C19 UNL     1      -2.734  48.948 -26.357  1.00  0.00     0.004 C 
HETATM   44  C20 UNL     1      -3.922  49.470 -25.526  1.00  0.00     0.040 C 
HETATM   45  O5  UNL     1      -3.734  51.847 -25.594  1.00  0.00    -0.308 OA
HETATM   46  O6  UNL     1      -2.315  53.079 -26.893  1.00  0.00    -0.264 OA
HETATM   47  C24 UNL     1      -4.952  52.549 -23.381  1.00  0.00     0.019 C 
HETATM   48  C25 UNL     1      -5.999  50.313 -23.588  1.00  0.00     0.016 C 
HETATM   49  C26 UNL     1      -6.794  50.194 -22.273  1.00  0.00     0.042 C 
HETATM   50  C27 UNL     1      -5.938  49.804 -21.054  1.00  0.00     0.099 C 
BRANCH  29  51
HETATM   51  O3  UNL     1      -4.612  48.166 -19.878  1.00  0.00    -0.377 OA
HETATM   52  H15 UNL     1      -4.288  47.241 -19.914  1.00  0.00     0.211 HD
ENDBRANCH  29  51
BRANCH  50  53
HETATM   53  O7  UNL     1      -6.757  49.778 -19.888  1.00  0.00    -0.386 OA
HETATM   54  H37 UNL     1      -6.253  49.275 -19.217  1.00  0.00     0.210 HD
ENDBRANCH  50  53
ENDBRANCH  28  29
ENDBRANCH   1  28
TORSDOF 9
ENDMDL
MODEL 4
REMARK minimizedAffinity -9.76345444
REMARK CNNscore 0.407337725
REMARK CNNaffinity 6.88650894
REMARK  9 active torsions:
REMARK  status: ('A' for Active; 'I' for Inactive)
REMARK    1  A    between atoms: C6_6  and  C8_8 
REMARK    2  A    between atoms: C8_8  and  O2_10 
REMARK    3  A    between atoms: O2_10  and  C9_11 
REMARK    4  A    between atoms: C9_11  and  C10_12 
REMARK    5  A    between atoms: C10_12  and  O3_13 
REMARK    6  A    between atoms: C27_33  and  O7_34 
REMARK    7  A    between atoms: C38_45  and  O8_46 
REMARK    8  A    between atoms: C38_45  and  C39_47 
REMARK    9  A    between atoms: C39_47  and  O9_48 
ROOT
HETATM    1  O2  UNL     1      -7.637  46.354 -23.136  1.00  0.00    -0.317 OA
ENDROOT
BRANCH   1   2
HETATM    2  C8  UNL     1      -7.921  46.012 -24.427  1.00  0.00     0.267 C 
HETATM    3  O1  UNL     1      -7.430  46.595 -25.387  1.00  0.00    -0.264 OA
BRANCH   2   4
HETATM    4  C6  UNL     1      -8.877  44.805 -24.514  1.00  0.00     0.049 C 
HETATM    5  C5  UNL     1      -8.197  43.700 -25.363  1.00  0.00     0.020 C 
HETATM    6  C4  UNL     1      -8.203  43.990 -26.857  1.00  0.00     0.002 C 
HETATM    7  C3  UNL     1      -9.623  44.171 -27.368  1.00  0.00     0.010 C 
HETATM    8  C2  UNL     1     -10.419  45.294 -26.646  1.00  0.00    -0.035 C 
HETATM    9  C1  UNL     1      -9.878  46.664 -27.115  1.00  0.00     0.016 C 
HETATM   10  C29 UNL     1     -10.311  45.117 -25.092  1.00  0.00     0.012 C 
HETATM   11  C37 UNL     1     -11.940  45.128 -27.027  1.00  0.00     0.010 C 
HETATM   12  C30 UNL     1     -11.023  46.272 -24.372  1.00  0.00     0.008 C 
HETATM   13  C31 UNL     1     -12.417  46.634 -24.883  1.00  0.00     0.018 C 
HETATM   14  C32 UNL     1     -12.941  45.928 -26.136  1.00  0.00     0.028 C 
HETATM   15  C33 UNL     1     -13.801  46.905 -26.974  1.00  0.00     0.026 C 
HETATM   16  C40 UNL     1     -14.041  44.922 -25.758  1.00  0.00     0.172 C 
HETATM   17  C34 UNL     1     -14.651  45.943 -27.813  1.00  0.00     0.031 C 
HETATM   18  C35 UNL     1     -13.743  45.269 -28.865  1.00  0.00     0.009 C 
HETATM   19  C38 UNL     1     -15.222  45.004 -26.718  1.00  0.00     0.143 C 
HETATM   20  C36 UNL     1     -12.244  45.317 -28.533  1.00  0.00     0.007 C 
HETATM   21  O10 UNL     1     -13.979  44.139 -24.814  1.00  0.00    -0.294 OA
HETATM   22  C7  UNL     1      -8.990  44.228 -23.076  1.00  0.00     0.026 C 
BRANCH  19  23
HETATM   23  O8  UNL     1     -16.280  45.693 -26.033  1.00  0.00    -0.379 OA
HETATM   24  H53 UNL     1     -16.574  45.114 -25.305  1.00  0.00     0.211 HD
ENDBRANCH  19  23
BRANCH  19  25
HETATM   25  C39 UNL     1     -15.693  43.613 -27.150  1.00  0.00     0.210 C 
BRANCH  25  26
HETATM   26  O9  UNL     1     -16.880  43.700 -27.935  1.00  0.00    -0.397 OA
HETATM   27  H56 UNL     1     -17.284  42.819 -27.932  1.00  0.00     0.209 HD
ENDBRANCH  25  26
ENDBRANCH  19  25
ENDBRANCH   2   4
ENDBRANCH   1   2
BRANCH   1  28
HETATM   28  C9  UNL     1      -6.356  46.972 -22.922  1.00  0.00     0.227 C 
BRANCH  28  29
HETATM   29  C10 UNL     1      -6.499  48.469 -22.641  1.00  0.00     0.171 C 
HETATM   30  C11 UNL     1      -5.422  49.002 -21.692  1.00  0.00     0.175 C 
HETATM   31  O4  UNL     1      -5.062  48.414 -20.681  1.00  0.00    -0.294 OA
HETATM   32  C12 UNL     1      -4.846  50.351 -22.179  1.00  0.00     0.037 C 
HETATM   33  C13 UNL     1      -4.713  51.378 -21.042  1.00  0.00     0.019 C 
HETATM   34  C23 UNL     1      -3.515  50.089 -22.973  1.00  0.00     0.003 C 
HETATM   35  C28 UNL     1      -6.011  50.750 -23.112  1.00  0.00     0.059 C 
HETATM   36  C14 UNL     1      -3.298  51.548 -20.479  1.00  0.00     0.010 C 
HETATM   37  C15 UNL     1      -2.510  50.243 -20.527  1.00  0.00     0.040 C 
HETATM   38  C16 UNL     1      -1.040  50.311 -20.090  1.00  0.00     0.051 C 
HETATM   39  C21 UNL     1      -2.341  49.696 -21.956  1.00  0.00     0.084 C 
HETATM   40  C17 UNL     1      -0.747  51.251 -18.929  1.00  0.00     0.026 C 
HETATM   41  C18 UNL     1      -0.477  48.897 -19.831  1.00  0.00     0.020 C 
HETATM   42  C22 UNL     1      -0.384  50.784 -21.364  1.00  0.00     0.268 C 
HETATM   43  C19 UNL     1      -1.231  47.784 -20.572  1.00  0.00     0.004 C 
HETATM   44  C20 UNL     1      -1.979  48.190 -21.856  1.00  0.00     0.040 C 
HETATM   45  O5  UNL     1      -1.127  50.346 -22.420  1.00  0.00    -0.308 OA
HETATM   46  O6  UNL     1       0.654  51.413 -21.468  1.00  0.00    -0.264 OA
HETATM   47  C24 UNL     1      -3.119  51.376 -23.776  1.00  0.00     0.019 C 
HETATM   48  C25 UNL     1      -3.766  49.004 -24.076  1.00  0.00     0.016 C 
HETATM   49  C26 UNL     1      -5.131  49.117 -24.782  1.00  0.00     0.042 C 
HETATM   50  C27 UNL     1      -6.305  49.435 -23.836  1.00  0.00     0.099 C 
BRANCH  29  51
HETATM   51  O3  UNL     1      -7.786  48.758 -22.056  1.00  0.00    -0.377 OA
HETATM   52  H15 UNL     1      -8.013  48.013 -21.459  1.00  0.00     0.211 HD
ENDBRANCH  29  51
BRANCH  50  53
HETATM   53  O7  UNL     1      -7.502  49.573 -24.596  1.00  0.00    -0.386 OA
HETATM   54  H37 UNL     1      -8.237  49.499 -23.954  1.00  0.00     0.210 HD
ENDBRANCH  50  53
ENDBRANCH  28  29
ENDBRANCH   1  28
TORSDOF 9
ENDMDL
MODEL 5
REMARK minimizedAffinity -9.54070663
REMARK CNNscore 0.399417996
REMARK CNNaffinity 6.84264326
REMARK  9 active torsions:
REMARK  status: ('A' for Active; 'I' for Inactive)
REMARK    1  A    between atoms: C6_6  and  C8_8 
REMARK    2  A    between atoms: C8_8  and  O2_10 
REMARK    3  A    between atoms: O2_10  and  C9_11 
REMARK    4  A    between atoms: C9_11  and  C10_12 
REMARK    5  A    between atoms: C10_12  and  O3_13 
REMARK    6  A    between atoms: C27_33  and  O7_34 
REMARK    7  A    between atoms: C38_45  and  O8_46 
REMARK    8  A    between atoms: C38_45  and  C39_47 
REMARK    9  A    between atoms: C39_47  and  O9_48 
ROOT
HETATM    1  O2  UNL     1      -1.188  50.304 -15.023  1.00  0.00    -0.317 OA
ENDROOT
BRANCH   1   2
HETATM    2  C8  UNL     1      -0.325  51.035 -14.259  1.00  0.00     0.267 C 
HETATM    3  O1  UNL     1      -0.075  52.213 -14.488  1.00  0.00    -0.264 OA
BRANCH   2   4
HETATM    4  C6  UNL     1       0.242  50.219 -13.079  1.00  0.00     0.049 C 
HETATM    5  C5  UNL     1      -0.940  49.544 -12.335  1.00  0.00     0.020 C 
HETATM    6  C4  UNL     1      -1.742  50.504 -11.467  1.00  0.00     0.002 C 
HETATM    7  C3  UNL     1      -0.851  51.171 -10.432  1.00  0.00     0.010 C 
HETATM    8  C2  UNL     1       0.355  51.944 -11.036  1.00  0.00    -0.035 C 
HETATM    9  C1  UNL     1      -0.167  53.242 -11.693  1.00  0.00     0.016 C 
HETATM   10  C29 UNL     1       1.123  51.034 -12.055  1.00  0.00     0.012 C 
HETATM   11  C37 UNL     1       1.354  52.270  -9.861  1.00  0.00     0.010 C 
HETATM   12  C30 UNL     1       2.264  51.819 -12.718  1.00  0.00     0.008 C 
HETATM   13  C31 UNL     1       3.158  52.636 -11.786  1.00  0.00     0.018 C 
HETATM   14  C32 UNL     1       2.780  52.724 -10.305  1.00  0.00     0.028 C 
HETATM   15  C33 UNL     1       3.136  54.125  -9.749  1.00  0.00     0.026 C 
HETATM   16  C40 UNL     1       3.755  51.888  -9.458  1.00  0.00     0.172 C 
HETATM   17  C34 UNL     1       3.225  53.857  -8.242  1.00  0.00     0.031 C 
HETATM   18  C35 UNL     1       1.800  53.605  -7.700  1.00  0.00     0.009 C 
HETATM   19  C38 UNL     1       4.183  52.637  -8.203  1.00  0.00     0.143 C 
HETATM   20  C36 UNL     1       0.775  53.206  -8.772  1.00  0.00     0.007 C 
HETATM   21  O10 UNL     1       4.133  50.755  -9.742  1.00  0.00    -0.294 OA
HETATM   22  C7  UNL     1       1.071  49.061 -13.701  1.00  0.00     0.026 C 
BRANCH  19  23
HETATM   23  O8  UNL     1       5.523  53.105  -8.422  1.00  0.00    -0.379 OA
HETATM   24  H53 UNL     1       6.097  52.317  -8.466  1.00  0.00     0.211 HD
ENDBRANCH  19  23
BRANCH  19  25
HETATM   25  C39 UNL     1       4.135  51.737  -6.966  1.00  0.00     0.210 C 
BRANCH  25  26
HETATM   26  O9  UNL     1       3.334  50.583  -7.208  1.00  0.00    -0.397 OA
HETATM   27  H56 UNL     1       3.103  50.214  -6.342  1.00  0.00     0.209 HD
ENDBRANCH  25  26
ENDBRANCH  19  25
ENDBRANCH   2   4
ENDBRANCH   1   2
BRANCH   1  28
HETATM   28  C9  UNL     1      -1.127  50.548 -16.440  1.00  0.00     0.227 C 
BRANCH  28  29
HETATM   29  C10 UNL     1      -2.514  50.465 -17.080  1.00  0.00     0.171 C 
HETATM   30  C11 UNL     1      -2.576  51.134 -18.456  1.00  0.00     0.175 C 
HETATM   31  O4  UNL     1      -2.059  52.214 -18.705  1.00  0.00    -0.294 OA
HETATM   32  C12 UNL     1      -3.350  50.271 -19.479  1.00  0.00     0.037 C 
HETATM   33  C13 UNL     1      -4.337  51.099 -20.318  1.00  0.00     0.019 C 
HETATM   34  C23 UNL     1      -2.327  49.429 -20.325  1.00  0.00     0.003 C 
HETATM   35  C28 UNL     1      -4.126  49.397 -18.467  1.00  0.00     0.059 C 
HETATM   36  C14 UNL     1      -3.857  51.449 -21.731  1.00  0.00     0.010 C 
HETATM   37  C15 UNL     1      -2.345  51.641 -21.783  1.00  0.00     0.040 C 
HETATM   38  C16 UNL     1      -1.731  51.889 -23.167  1.00  0.00     0.051 C 
HETATM   39  C21 UNL     1      -1.565  50.382 -21.364  1.00  0.00     0.084 C 
HETATM   40  C17 UNL     1      -2.567  52.745 -24.109  1.00  0.00     0.026 C 
HETATM   41  C18 UNL     1      -0.289  52.429 -23.041  1.00  0.00     0.020 C 
HETATM   42  C22 UNL     1      -1.595  50.476 -23.678  1.00  0.00     0.268 C 
HETATM   43  C19 UNL     1       0.393  52.068 -21.715  1.00  0.00     0.004 C 
HETATM   44  C20 UNL     1      -0.122  50.811 -20.989  1.00  0.00     0.040 C 
HETATM   45  O5  UNL     1      -1.428  49.645 -22.610  1.00  0.00    -0.308 OA
HETATM   46  O6  UNL     1      -1.587  50.111 -24.841  1.00  0.00    -0.264 OA
HETATM   47  C24 UNL     1      -3.089  48.296 -21.097  1.00  0.00     0.019 C 
HETATM   48  C25 UNL     1      -1.356  48.661 -19.364  1.00  0.00     0.016 C 
HETATM   49  C26 UNL     1      -2.028  48.097 -18.097  1.00  0.00     0.042 C 
HETATM   50  C27 UNL     1      -3.042  49.055 -17.444  1.00  0.00     0.099 C 
BRANCH  29  51
HETATM   51  O3  UNL     1      -3.504  51.093 -16.239  1.00  0.00    -0.377 OA
HETATM   52  H15 UNL     1      -3.083  51.876 -15.822  1.00  0.00     0.211 HD
ENDBRANCH  29  51
BRANCH  50  53
HETATM   53  O7  UNL     1      -3.641  48.415 -16.320  1.00  0.00    -0.386 OA
HETATM   54  H37 UNL     1      -4.053  49.130 -15.793  1.00  0.00     0.210 HD
ENDBRANCH  50  53
ENDBRANCH  28  29
ENDBRANCH   1  28
TORSDOF 9
ENDMDL
MODEL 6
REMARK minimizedAffinity -9.94273567
REMARK CNNscore 0.390710294
REMARK CNNaffinity 7.01069069
REMARK  9 active torsions:
REMARK  status: ('A' for Active; 'I' for Inactive)
REMARK    1  A    between atoms: C6_6  and  C8_8 
REMARK    2  A    between atoms: C8_8  and  O2_10 
REMARK    3  A    between atoms: O2_10  and  C9_11 
REMARK    4  A    between atoms: C9_11  and  C10_12 
REMARK    5  A    between atoms: C10_12  and  O3_13 
REMARK    6  A    between atoms: C27_33  and  O7_34 
REMARK    7  A    between atoms: C38_45  and  O8_46 
REMARK    8  A    between atoms: C38_45  and  C39_47 
REMARK    9  A    between atoms: C39_47  and  O9_48 
ROOT
HETATM    1  O2  UNL     1      -3.143  49.217 -15.995  1.00  0.00    -0.317 OA
ENDROOT
BRANCH   1   2
HETATM    2  C8  UNL     1      -2.795  50.167 -15.079  1.00  0.00     0.267 C 
HETATM    3  O1  UNL     1      -3.131  51.341 -15.185  1.00  0.00    -0.264 OA
BRANCH   2   4
HETATM    4  C6  UNL     1      -1.986  49.576 -13.906  1.00  0.00     0.049 C 
HETATM    5  C5  UNL     1      -2.877  48.548 -13.163  1.00  0.00     0.020 C 
HETATM    6  C4  UNL     1      -3.945  49.187 -12.286  1.00  0.00     0.002 C 
HETATM    7  C3  UNL     1      -3.316  50.104 -11.250  1.00  0.00     0.010 C 
HETATM    8  C2  UNL     1      -2.434  51.233 -11.852  1.00  0.00    -0.035 C 
HETATM    9  C1  UNL     1      -3.356  52.291 -12.499  1.00  0.00     0.016 C 
HETATM   10  C29 UNL     1      -1.415  50.630 -12.880  1.00  0.00     0.012 C 
HETATM   11  C37 UNL     1      -1.590  51.863 -10.678  1.00  0.00     0.010 C 
HETATM   12  C30 UNL     1      -0.598  51.748 -13.542  1.00  0.00     0.008 C 
HETATM   13  C31 UNL     1      -0.016  52.809 -12.607  1.00  0.00     0.018 C 
HETATM   14  C32 UNL     1      -0.395  52.761 -11.125  1.00  0.00     0.028 C 
HETATM   15  C33 UNL     1      -0.514  54.198 -10.561  1.00  0.00     0.026 C 
HETATM   16  C40 UNL     1       0.805  52.287 -10.286  1.00  0.00     0.172 C 
HETATM   17  C34 UNL     1      -0.335  53.967  -9.056  1.00  0.00     0.031 C 
HETATM   18  C35 UNL     1      -1.595  53.259  -8.511  1.00  0.00     0.009 C 
HETATM   19  C38 UNL     1       0.970  53.129  -9.027  1.00  0.00     0.143 C 
HETATM   20  C36 UNL     1      -2.439  52.551  -9.582  1.00  0.00     0.007 C 
HETATM   21  O10 UNL     1       1.533  51.342 -10.579  1.00  0.00    -0.294 OA
HETATM   22  C7  UNL     1      -0.826  48.757 -14.538  1.00  0.00     0.026 C 
BRANCH  19  23
HETATM   23  O8  UNL     1       2.082  54.011  -9.248  1.00  0.00    -0.379 OA
HETATM   24  H53 UNL     1       2.882  53.454  -9.299  1.00  0.00     0.211 HD
ENDBRANCH  19  23
BRANCH  19  25
HETATM   25  C39 UNL     1       1.227  52.256  -7.796  1.00  0.00     0.210 C 
BRANCH  25  26
HETATM   26  O9  UNL     1       0.290  52.548  -6.762  1.00  0.00    -0.397 OA
HETATM   27  H56 UNL     1       0.663  52.200  -5.939  1.00  0.00     0.209 HD
ENDBRANCH  25  26
ENDBRANCH  19  25
ENDBRANCH   2   4
ENDBRANCH   1   2
BRANCH   1  28
HETATM   28  C9  UNL     1      -3.265  49.676 -17.353  1.00  0.00     0.227 C 
BRANCH  28  29
HETATM   29  C10 UNL     1      -2.291  48.944 -18.279  1.00  0.00     0.171 C 
HETATM   30  C11 UNL     1      -2.894  48.630 -19.650  1.00  0.00     0.175 C 
HETATM   31  O4  UNL     1      -4.029  48.201 -19.806  1.00  0.00    -0.294 OA
HETATM   32  C12 UNL     1      -1.904  48.938 -20.796  1.00  0.00     0.037 C 
HETATM   33  C13 UNL     1      -1.858  47.819 -21.850  1.00  0.00     0.019 C 
HETATM   34  C23 UNL     1      -2.214  50.364 -21.379  1.00  0.00     0.003 C 
HETATM   35  C28 UNL     1      -0.605  48.922 -19.958  1.00  0.00     0.059 C 
HETATM   36  C14 UNL     1      -2.650  48.098 -23.132  1.00  0.00     0.010 C 
HETATM   37  C15 UNL     1      -3.891  48.942 -22.857  1.00  0.00     0.040 C 
HETATM   38  C16 UNL     1      -4.708  49.380 -24.081  1.00  0.00     0.051 C 
HETATM   39  C21 UNL     1      -3.558  50.317 -22.250  1.00  0.00     0.084 C 
HETATM   40  C17 UNL     1      -4.807  48.354 -25.202  1.00  0.00     0.026 C 
HETATM   41  C18 UNL     1      -6.102  49.891 -23.656  1.00  0.00     0.020 C 
HETATM   42  C22 UNL     1      -3.940  50.603 -24.516  1.00  0.00     0.268 C 
HETATM   43  C19 UNL     1      -6.165  50.385 -22.205  1.00  0.00     0.004 C 
HETATM   44  C20 UNL     1      -4.844  50.871 -21.579  1.00  0.00     0.040 C 
HETATM   45  O5  UNL     1      -3.351  51.157 -23.418  1.00  0.00    -0.308 OA
HETATM   46  O6  UNL     1      -3.873  51.069 -25.640  1.00  0.00    -0.264 OA
HETATM   47  C24 UNL     1      -1.015  50.840 -22.272  1.00  0.00     0.019 C 
HETATM   48  C25 UNL     1      -2.269  51.408 -20.212  1.00  0.00     0.016 C 
HETATM   49  C26 UNL     1      -1.216  51.187 -19.109  1.00  0.00     0.042 C 
HETATM   50  C27 UNL     1      -1.018  49.712 -18.715  1.00  0.00     0.099 C 
BRANCH  29  51
HETATM   51  O3  UNL     1      -1.863  47.699 -17.689  1.00  0.00    -0.377 OA
HETATM   52  H15 UNL     1      -2.631  47.320 -17.209  1.00  0.00     0.211 HD
ENDBRANCH  29  51
BRANCH  50  53
HETATM   53  O7  UNL     1       0.011  49.617 -17.734  1.00  0.00    -0.386 OA
HETATM   54  H37 UNL     1      -0.087  48.732 -17.327  1.00  0.00     0.210 HD
ENDBRANCH  50  53
ENDBRANCH  28  29
ENDBRANCH   1  28
TORSDOF 9
ENDMDL
MODEL 7
REMARK minimizedAffinity -10.0319452
REMARK CNNscore 0.358385205
REMARK CNNaffinity 7.13761139
REMARK  9 active torsions:
REMARK  status: ('A' for Active; 'I' for Inactive)
REMARK    1  A    between atoms: C6_6  and  C8_8 
REMARK    2  A    between atoms: C8_8  and  O2_10 
REMARK    3  A    between atoms: O2_10  and  C9_11 
REMARK    4  A    between atoms: C9_11  and  C10_12 
REMARK    5  A    between atoms: C10_12  and  O3_13 
REMARK    6  A    between atoms: C27_33  and  O7_34 
REMARK    7  A    between atoms: C38_45  and  O8_46 
REMARK    8  A    between atoms: C38_45  and  C39_47 
REMARK    9  A    between atoms: C39_47  and  O9_48 
ROOT
HETATM    1  O2  UNL     1      -3.099  48.532 -16.617  1.00  0.00    -0.317 OA
ENDROOT
BRANCH   1   2
HETATM    2  C8  UNL     1      -2.862  47.937 -15.411  1.00  0.00     0.267 C 
HETATM    3  O1  UNL     1      -3.556  47.023 -14.979  1.00  0.00    -0.264 OA
BRANCH   2   4
HETATM    4  C6  UNL     1      -1.619  48.518 -14.708  1.00  0.00     0.049 C 
HETATM    5  C5  UNL     1      -0.906  47.373 -13.944  1.00  0.00     0.020 C 
HETATM    6  C4  UNL     1      -1.615  46.965 -12.659  1.00  0.00     0.002 C 
HETATM    7  C3  UNL     1      -1.750  48.150 -11.716  1.00  0.00     0.010 C 
HETATM    8  C2  UNL     1      -2.502  49.365 -12.328  1.00  0.00    -0.035 C 
HETATM    9  C1  UNL     1      -4.007  49.025 -12.414  1.00  0.00     0.016 C 
HETATM   10  C29 UNL     1      -1.896  49.723 -13.729  1.00  0.00     0.012 C 
HETATM   11  C37 UNL     1      -2.257  50.606 -11.386  1.00  0.00     0.010 C 
HETATM   12  C30 UNL     1      -2.689  50.868 -14.377  1.00  0.00     0.008 C 
HETATM   13  C31 UNL     1      -3.000  52.069 -13.484  1.00  0.00     0.018 C 
HETATM   14  C32 UNL     1      -2.627  51.992 -12.002  1.00  0.00     0.028 C 
HETATM   15  C33 UNL     1      -3.684  52.735 -11.149  1.00  0.00     0.026 C 
HETATM   16  C40 UNL     1      -1.420  52.900 -11.710  1.00  0.00     0.172 C 
HETATM   17  C34 UNL     1      -2.905  53.034  -9.863  1.00  0.00     0.031 C 
HETATM   18  C35 UNL     1      -2.690  51.710  -9.097  1.00  0.00     0.009 C 
HETATM   19  C38 UNL     1      -1.622  53.698 -10.428  1.00  0.00     0.143 C 
HETATM   20  C36 UNL     1      -2.835  50.447  -9.959  1.00  0.00     0.007 C 
HETATM   21  O10 UNL     1      -0.411  52.969 -12.407  1.00  0.00    -0.294 OA
HETATM   22  C7  UNL     1      -0.639  48.953 -15.833  1.00  0.00     0.026 C 
BRANCH  19  23
HETATM   23  O8  UNL     1      -1.939  55.046 -10.811  1.00  0.00    -0.379 OA
HETATM   24  H53 UNL     1      -1.140  55.419 -11.229  1.00  0.00     0.211 HD
ENDBRANCH  19  23
BRANCH  19  25
HETATM   25  C39 UNL     1      -0.368  53.681  -9.550  1.00  0.00     0.210 C 
BRANCH  25  26
HETATM   26  O9  UNL     1       0.470  52.577  -9.882  1.00  0.00    -0.397 OA
HETATM   27  H56 UNL     1       1.072  52.447  -9.135  1.00  0.00     0.209 HD
ENDBRANCH  25  26
ENDBRANCH  19  25
ENDBRANCH   2   4
ENDBRANCH   1   2
BRANCH   1  28
HETATM   28  C9  UNL     1      -3.496  47.650 -17.681  1.00  0.00     0.227 C 
BRANCH  28  29
HETATM   29  C10 UNL     1      -4.636  48.250 -18.507  1.00  0.00     0.171 C 
HETATM   30  C11 UNL     1      -4.173  49.383 -19.427  1.00  0.00     0.175 C 
HETATM   31  O4  UNL     1      -3.395  50.260 -19.078  1.00  0.00    -0.294 OA
HETATM   32  C12 UNL     1      -4.792  49.265 -20.838  1.00  0.00     0.037 C 
HETATM   33  C13 UNL     1      -5.313  50.612 -21.366  1.00  0.00     0.019 C 
HETATM   34  C23 UNL     1      -3.772  48.547 -21.793  1.00  0.00     0.003 C 
HETATM   35  C28 UNL     1      -5.982  48.352 -20.466  1.00  0.00     0.059 C 
HETATM   36  C14 UNL     1      -4.398  51.316 -22.373  1.00  0.00     0.010 C 
HETATM   37  C15 UNL     1      -2.925  51.040 -22.086  1.00  0.00     0.040 C 
HETATM   38  C16 UNL     1      -1.913  51.603 -23.093  1.00  0.00     0.051 C 
HETATM   39  C21 UNL     1      -2.571  49.544 -22.157  1.00  0.00     0.084 C 
HETATM   40  C17 UNL     1      -2.258  52.968 -23.673  1.00  0.00     0.026 C 
HETATM   41  C18 UNL     1      -0.484  51.582 -22.507  1.00  0.00     0.020 C 
HETATM   42  C22 UNL     1      -1.935  50.530 -24.153  1.00  0.00     0.268 C 
HETATM   43  C19 UNL     1      -0.288  50.546 -21.392  1.00  0.00     0.004 C 
HETATM   44  C20 UNL     1      -1.233  49.329 -21.400  1.00  0.00     0.040 C 
HETATM   45  O5  UNL     1      -2.247  49.343 -23.560  1.00  0.00    -0.308 OA
HETATM   46  O6  UNL     1      -1.680  50.660 -25.338  1.00  0.00    -0.264 OA
HETATM   47  C24 UNL     1      -4.505  48.093 -23.103  1.00  0.00     0.019 C 
HETATM   48  C25 UNL     1      -3.287  47.210 -21.135  1.00  0.00     0.016 C 
HETATM   49  C26 UNL     1      -4.386  46.435 -20.383  1.00  0.00     0.042 C 
HETATM   50  C27 UNL     1      -5.321  47.326 -19.544  1.00  0.00     0.099 C 
BRANCH  29  51
HETATM   51  O3  UNL     1      -5.669  48.775 -17.646  1.00  0.00    -0.377 OA
HETATM   52  H15 UNL     1      -5.229  49.166 -16.861  1.00  0.00     0.211 HD
ENDBRANCH  29  51
BRANCH  50  53
HETATM   53  O7  UNL     1      -6.328  46.519 -18.939  1.00  0.00    -0.386 OA
HETATM   54  H37 UNL     1      -6.714  47.063 -18.223  1.00  0.00     0.210 HD
ENDBRANCH  50  53
ENDBRANCH  28  29
ENDBRANCH   1  28
TORSDOF 9
ENDMDL
MODEL 8
REMARK minimizedAffinity -9.62406349
REMARK CNNscore 0.35251531
REMARK CNNaffinity 6.73026609
REMARK  9 active torsions:
REMARK  status: ('A' for Active; 'I' for Inactive)
REMARK    1  A    between atoms: C6_6  and  C8_8 
REMARK    2  A    between atoms: C8_8  and  O2_10 
REMARK    3  A    between atoms: O2_10  and  C9_11 
REMARK    4  A    between atoms: C9_11  and  C10_12 
REMARK    5  A    between atoms: C10_12  and  O3_13 
REMARK    6  A    between atoms: C27_33  and  O7_34 
REMARK    7  A    between atoms: C38_45  and  O8_46 
REMARK    8  A    between atoms: C38_45  and  C39_47 
REMARK    9  A    between atoms: C39_47  and  O9_48 
ROOT
HETATM    1  O2  UNL     1      -8.667  47.675 -23.667  1.00  0.00    -0.317 OA
ENDROOT
BRANCH   1   2
HETATM    2  C8  UNL     1      -7.485  47.461 -23.018  1.00  0.00     0.267 C 
HETATM    3  O1  UNL     1      -6.731  46.538 -23.307  1.00  0.00    -0.264 OA
BRANCH   2   4
HETATM    4  C6  UNL     1      -7.213  48.526 -21.936  1.00  0.00     0.049 C 
HETATM    5  C5  UNL     1      -7.564  49.919 -22.519  1.00  0.00     0.020 C 
HETATM    6  C4  UNL     1      -6.526  50.448 -23.499  1.00  0.00     0.002 C 
HETATM    7  C3  UNL     1      -5.159  50.542 -22.842  1.00  0.00     0.010 C 
HETATM    8  C2  UNL     1      -4.643  49.197 -22.257  1.00  0.00    -0.035 C 
HETATM    9  C1  UNL     1      -4.223  48.277 -23.426  1.00  0.00     0.016 C 
HETATM   10  C29 UNL     1      -5.746  48.542 -21.357  1.00  0.00     0.012 C 
HETATM   11  C37 UNL     1      -3.413  49.519 -21.324  1.00  0.00     0.010 C 
HETATM   12  C30 UNL     1      -5.275  47.173 -20.845  1.00  0.00     0.008 C 
HETATM   13  C31 UNL     1      -3.858  47.113 -20.273  1.00  0.00     0.018 C 
HETATM   14  C32 UNL     1      -2.978  48.361 -20.373  1.00  0.00     0.028 C 
HETATM   15  C33 UNL     1      -1.502  47.951 -20.604  1.00  0.00     0.026 C 
HETATM   16  C40 UNL     1      -2.819  49.010 -18.987  1.00  0.00     0.172 C 
HETATM   17  C34 UNL     1      -0.747  49.199 -20.130  1.00  0.00     0.031 C 
HETATM   18  C35 UNL     1      -0.972  50.332 -21.155  1.00  0.00     0.009 C 
HETATM   19  C38 UNL     1      -1.376  49.426 -18.730  1.00  0.00     0.143 C 
HETATM   20  C36 UNL     1      -2.199  50.137 -22.059  1.00  0.00     0.007 C 
HETATM   21  O10 UNL     1      -3.736  49.190 -18.190  1.00  0.00    -0.294 OA
HETATM   22  C7  UNL     1      -8.239  48.270 -20.797  1.00  0.00     0.026 C 
BRANCH  19  23
HETATM   23  O8  UNL     1      -0.814  48.468 -17.818  1.00  0.00    -0.379 OA
HETATM   24  H53 UNL     1      -1.276  48.581 -16.966  1.00  0.00     0.211 HD
ENDBRANCH  19  23
BRANCH  19  25
HETATM   25  C39 UNL     1      -1.293  50.833 -18.134  1.00  0.00     0.210 C 
BRANCH  25  26
HETATM   26  O9  UNL     1      -0.839  51.771 -19.106  1.00  0.00    -0.397 OA
HETATM   27  H56 UNL     1      -0.533  52.552 -18.622  1.00  0.00     0.209 HD
ENDBRANCH  25  26
ENDBRANCH  19  25
ENDBRANCH   2   4
ENDBRANCH   1   2
BRANCH   1  28
HETATM   28  C9  UNL     1      -8.869  46.904 -24.865  1.00  0.00     0.227 C 
BRANCH  28  29
HETATM   29  C10 UNL     1      -8.494  47.705 -26.114  1.00  0.00     0.171 C 
HETATM   30  C11 UNL     1      -8.336  46.827 -27.358  1.00  0.00     0.175 C 
HETATM   31  O4  UNL     1      -7.755  45.750 -27.355  1.00  0.00    -0.294 OA
HETATM   32  C12 UNL     1      -9.010  47.460 -28.596  1.00  0.00     0.037 C 
HETATM   33  C13 UNL     1      -8.125  47.383 -29.851  1.00  0.00     0.019 C 
HETATM   34  C23 UNL     1     -10.445  46.844 -28.777  1.00  0.00     0.003 C 
HETATM   35  C28 UNL     1      -9.064  48.916 -28.080  1.00  0.00     0.059 C 
HETATM   36  C14 UNL     1      -8.493  46.273 -30.841  1.00  0.00     0.010 C 
HETATM   37  C15 UNL     1      -9.050  45.044 -30.131  1.00  0.00     0.040 C 
HETATM   38  C16 UNL     1      -9.556  43.904 -31.026  1.00  0.00     0.051 C 
HETATM   39  C21 UNL     1     -10.328  45.343 -29.327  1.00  0.00     0.084 C 
HETATM   40  C17 UNL     1      -8.749  43.661 -32.293  1.00  0.00     0.026 C 
HETATM   41  C18 UNL     1      -9.737  42.605 -30.211  1.00  0.00     0.020 C 
HETATM   42  C22 UNL     1     -10.951  44.385 -31.341  1.00  0.00     0.268 C 
HETATM   43  C19 UNL     1      -9.943  42.839 -28.708  1.00  0.00     0.004 C 
HETATM   44  C20 UNL     1     -10.524  44.204 -28.291  1.00  0.00     0.040 C 
HETATM   45  O5  UNL     1     -11.388  45.153 -30.303  1.00  0.00    -0.308 OA
HETATM   46  O6  UNL     1     -11.617  44.117 -32.325  1.00  0.00    -0.264 OA
HETATM   47  C24 UNL     1     -11.271  47.719 -29.782  1.00  0.00     0.019 C 
HETATM   48  C25 UNL     1     -11.235  46.948 -27.428  1.00  0.00     0.016 C 
HETATM   49  C26 UNL     1     -11.000  48.258 -26.651  1.00  0.00     0.042 C 
HETATM   50  C27 UNL     1      -9.533  48.727 -26.637  1.00  0.00     0.099 C 
BRANCH  29  51
HETATM   51  O3  UNL     1      -7.254  48.413 -25.913  1.00  0.00    -0.377 OA
HETATM   52  H15 UNL     1      -6.670  47.839 -25.372  1.00  0.00     0.211 HD
ENDBRANCH  29  51
BRANCH  50  53
HETATM   53  O7  UNL     1      -9.439  49.969 -25.944  1.00  0.00    -0.386 OA
HETATM   54  H37 UNL     1      -8.492  50.083 -25.727  1.00  0.00     0.210 HD
ENDBRANCH  50  53
ENDBRANCH  28  29
ENDBRANCH   1  28
TORSDOF 9
ENDMDL
MODEL 9
REMARK minimizedAffinity -9.37144184
REMARK CNNscore 0.325558275
REMARK CNNaffinity 7.58777237
REMARK  9 active torsions:
REMARK  status: ('A' for Active; 'I' for Inactive)
REMARK    1  A    between atoms: C6_6  and  C8_8 
REMARK    2  A    between atoms: C8_8  and  O2_10 
REMARK    3  A    between atoms: O2_10  and  C9_11 
REMARK    4  A    between atoms: C9_11  and  C10_12 
REMARK    5  A    between atoms: C10_12  and  O3_13 
REMARK    6  A    between atoms: C27_33  and  O7_34 
REMARK    7  A    between atoms: C38_45  and  O8_46 
REMARK    8  A    between atoms: C38_45  and  C39_47 
REMARK    9  A    between atoms: C39_47  and  O9_48 
ROOT
HETATM    1  O2  UNL     1      -3.268  47.777 -19.370  1.00  0.00    -0.317 OA
ENDROOT
BRANCH   1   2
HETATM    2  C8  UNL     1      -2.960  48.885 -20.105  1.00  0.00     0.267 C 
HETATM    3  O1  UNL     1      -3.424  49.992 -19.855  1.00  0.00    -0.264 OA
BRANCH   2   4
HETATM    4  C6  UNL     1      -1.947  48.578 -21.227  1.00  0.00     0.049 C 
HETATM    5  C5  UNL     1      -0.517  48.792 -20.670  1.00  0.00     0.020 C 
HETATM    6  C4  UNL     1      -0.130  50.259 -20.532  1.00  0.00     0.002 C 
HETATM    7  C3  UNL     1      -0.228  50.973 -21.871  1.00  0.00     0.010 C 
HETATM    8  C2  UNL     1      -1.634  50.894 -22.530  1.00  0.00    -0.035 C 
HETATM    9  C1  UNL     1      -2.596  51.822 -21.755  1.00  0.00     0.016 C 
HETATM   10  C29 UNL     1      -2.136  49.410 -22.554  1.00  0.00     0.012 C 
HETATM   11  C37 UNL     1      -1.488  51.359 -24.029  1.00  0.00     0.010 C 
HETATM   12  C30 UNL     1      -3.559  49.336 -23.126  1.00  0.00     0.008 C 
HETATM   13  C31 UNL     1      -3.816  50.123 -24.411  1.00  0.00     0.018 C 
HETATM   14  C32 UNL     1      -2.700  51.020 -24.952  1.00  0.00     0.028 C 
HETATM   15  C33 UNL     1      -3.307  52.292 -25.594  1.00  0.00     0.026 C 
HETATM   16  C40 UNL     1      -2.085  50.397 -26.217  1.00  0.00     0.172 C 
HETATM   17  C34 UNL     1      -2.177  52.750 -26.525  1.00  0.00     0.031 C 
HETATM   18  C35 UNL     1      -1.019  53.298 -25.663  1.00  0.00     0.009 C 
HETATM   19  C38 UNL     1      -1.873  51.444 -27.305  1.00  0.00     0.143 C 
HETATM   20  C36 UNL     1      -1.040  52.831 -24.200  1.00  0.00     0.007 C 
HETATM   21  O10 UNL     1      -1.786  49.213 -26.339  1.00  0.00    -0.294 OA
HETATM   22  C7  UNL     1      -2.066  47.057 -21.523  1.00  0.00     0.026 C 
BRANCH  19  23
HETATM   23  O8  UNL     1      -2.903  51.250 -28.287  1.00  0.00    -0.379 OA
HETATM   24  H53 UNL     1      -2.733  50.390 -28.714  1.00  0.00     0.211 HD
ENDBRANCH  19  23
BRANCH  19  25
HETATM   25  C39 UNL     1      -0.494  51.309 -27.955  1.00  0.00     0.210 C 
BRANCH  25  26
HETATM   26  O9  UNL     1       0.461  50.811 -27.021  1.00  0.00    -0.397 OA
HETATM   27  H56 UNL     1       1.338  51.017 -27.378  1.00  0.00     0.209 HD
ENDBRANCH  25  26
ENDBRANCH  19  25
ENDBRANCH   2   4
ENDBRANCH   1   2
BRANCH   1  28
HETATM   28  C9  UNL     1      -2.907  47.830 -17.979  1.00  0.00     0.227 C 
BRANCH  28  29
HETATM   29  C10 UNL     1      -4.000  47.223 -17.096  1.00  0.00     0.171 C 
HETATM   30  C11 UNL     1      -5.407  47.430 -17.663  1.00  0.00     0.175 C 
HETATM   31  O4  UNL     1      -5.791  48.485 -18.147  1.00  0.00    -0.294 OA
HETATM   32  C12 UNL     1      -6.260  46.145 -17.562  1.00  0.00     0.037 C 
HETATM   33  C13 UNL     1      -7.683  46.423 -17.050  1.00  0.00     0.019 C 
HETATM   34  C23 UNL     1      -6.203  45.377 -18.932  1.00  0.00     0.003 C 
HETATM   35  C28 UNL     1      -5.437  45.435 -16.464  1.00  0.00     0.059 C 
HETATM   36  C14 UNL     1      -8.769  46.459 -18.131  1.00  0.00     0.010 C 
HETATM   37  C15 UNL     1      -8.233  46.998 -19.453  1.00  0.00     0.040 C 
HETATM   38  C16 UNL     1      -9.200  46.981 -20.645  1.00  0.00     0.051 C 
HETATM   39  C21 UNL     1      -7.085  46.148 -20.026  1.00  0.00     0.084 C 
HETATM   40  C17 UNL     1     -10.652  47.293 -20.312  1.00  0.00     0.026 C 
HETATM   41  C18 UNL     1      -8.677  47.874 -21.791  1.00  0.00     0.020 C 
HETATM   42  C22 UNL     1      -9.036  45.561 -21.127  1.00  0.00     0.268 C 
HETATM   43  C19 UNL     1      -7.158  48.093 -21.762  1.00  0.00     0.004 C 
HETATM   44  C20 UNL     1      -6.314  47.011 -21.060  1.00  0.00     0.040 C 
HETATM   45  O5  UNL     1      -7.777  45.142 -20.816  1.00  0.00    -0.308 OA
HETATM   46  O6  UNL     1      -9.853  44.890 -21.733  1.00  0.00    -0.264 OA
HETATM   47  C24 UNL     1      -6.744  43.917 -18.741  1.00  0.00     0.019 C 
HETATM   48  C25 UNL     1      -4.710  45.185 -19.366  1.00  0.00     0.016 C 
HETATM   49  C26 UNL     1      -3.746  44.862 -18.207  1.00  0.00     0.042 C 
HETATM   50  C27 UNL     1      -4.001  45.683 -16.930  1.00  0.00     0.099 C 
BRANCH  29  51
HETATM   51  O3  UNL     1      -3.968  47.801 -15.774  1.00  0.00    -0.377 OA
HETATM   52  H15 UNL     1      -3.735  48.749 -15.872  1.00  0.00     0.211 HD
ENDBRANCH  29  51
BRANCH  50  53
HETATM   53  O7  UNL     1      -3.097  45.267 -15.910  1.00  0.00    -0.386 OA
HETATM   54  H37 UNL     1      -3.107  45.977 -15.236  1.00  0.00     0.210 HD
ENDBRANCH  50  53
ENDBRANCH  28  29
ENDBRANCH   1  28
TORSDOF 9
ENDMDL
