MODEL 1
REMARK minimizedAffinity -8.98463249
REMARK  9 active torsions:
REMARK  status: ('A' for Active; 'I' for Inactive)
REMARK    1  A    between atoms: C2_2  and  C3_3 
REMARK    2  A    between atoms: C2_2  and  C9_11 
REMARK    3  A    between atoms: C3_3  and  C4_4 
REMARK    4  A    between atoms: C4_4  and  C5_5 
REMARK    5  A    between atoms: C5_5  and  O1_6 
REMARK    6  A    between atoms: C5_5  and  C6_7 
REMARK    7  A    between atoms: C6_7  and  O2_10 
REMARK    8  A    between atoms: C17_19  and  C18_20 
REMARK    9  A    between atoms: C18_20  and  O3_23 
ROOT
HETATM    1  C9  UNL     1      -5.710   6.311  14.449  1.00  0.00    -0.002 C 
HETATM    2  C10 UNL     1      -6.197   7.412  13.452  1.00  0.00     0.006 C 
HETATM    3  C11 UNL     1      -4.937   8.130  12.918  1.00  0.00     0.011 C 
HETATM    4  C12 UNL     1      -3.813   7.691  13.876  1.00  0.00    -0.032 C 
HETATM    5  C13 UNL     1      -3.985   8.583  15.153  1.00  0.00     0.016 C 
HETATM    6  C14 UNL     1      -2.369   7.785  13.301  1.00  0.00     0.003 C 
HETATM    7  C15 UNL     1      -1.967   9.175  12.789  1.00  0.00     0.009 C 
HETATM    8  C16 UNL     1      -0.473   9.360  12.529  1.00  0.00     0.042 C 
HETATM    9  C17 UNL     1       0.396   8.090  12.315  1.00  0.00     0.095 C 
HETATM   10  O4  UNL     1       1.777   8.501  12.568  1.00  0.00    -0.377 OA
HETATM   11  C21 UNL     1       2.172   8.517  13.930  1.00  0.00     0.169 C 
HETATM   12  C22 UNL     1       2.245   7.109  14.477  1.00  0.00     0.027 C 
HETATM   13  C23 UNL     1       1.199   6.179  13.880  1.00  0.00     0.010 C 
HETATM   14  C24 UNL     1      -0.018   6.869  13.224  1.00  0.00     0.032 C 
HETATM   15  C25 UNL     1      -1.267   7.103  14.188  1.00  0.00    -0.033 C 
HETATM   16  C26 UNL     1      -0.885   7.938  15.430  1.00  0.00     0.016 C 
HETATM   17  C27 UNL     1      -1.762   5.706  14.726  1.00  0.00     0.011 C 
HETATM   18  C28 UNL     1      -3.243   5.596  15.157  1.00  0.00     0.011 C 
HETATM   19  C29 UNL     1      -4.197   6.168  14.093  1.00  0.00    -0.032 C 
HETATM   20  C30 UNL     1      -4.056   5.276  12.823  1.00  0.00     0.016 C 
ENDROOT
BRANCH   1  21
HETATM   21  C2  UNL     1      -6.698   5.107  14.565  1.00  0.00    -0.014 C 
HETATM   22  C1  UNL     1      -7.495   4.983  15.870  1.00  0.00     0.010 C 
BRANCH  21  23
HETATM   23  C3  UNL     1      -7.636   5.024  13.342  1.00  0.00     0.007 C 
BRANCH  23  24
HETATM   24  C4  UNL     1      -7.152   4.188  12.141  1.00  0.00     0.035 C 
BRANCH  24  25
HETATM   25  C5  UNL     1      -6.755   2.739  12.483  1.00  0.00     0.151 C 
BRANCH  25  26
HETATM   26  O1  UNL     1      -7.944   1.977  12.694  1.00  0.00    -0.393 OA
HETATM   27  H10 UNL     1      -7.699   1.147  13.135  1.00  0.00     0.210 HD
ENDBRANCH  25  26
BRANCH  25  28
HETATM   28  C6  UNL     1      -5.864   2.078  11.385  1.00  0.00     0.076 C 
HETATM   29  C7  UNL     1      -5.689   3.013  10.180  1.00  0.00     0.048 C 
HETATM   30  C8  UNL     1      -4.481   1.682  11.914  1.00  0.00     0.048 C 
BRANCH  28  31
HETATM   31  O2  UNL     1      -6.493   0.881  10.905  1.00  0.00    -0.388 OA
HETATM   32  H17 UNL     1      -7.337   1.127  10.490  1.00  0.00     0.210 HD
ENDBRANCH  28  31
ENDBRANCH  25  28
ENDBRANCH  24  25
ENDBRANCH  23  24
ENDBRANCH  21  23
ENDBRANCH   1  21
BRANCH   9  33
HETATM   33  C18 UNL     1       0.461   7.704  10.762  1.00  0.00     0.082 C 
HETATM   34  C19 UNL     1       1.865   7.525  10.181  1.00  0.00     0.049 C 
HETATM   35  C20 UNL     1      -0.319   8.679   9.862  1.00  0.00     0.049 C 
BRANCH  33  36
HETATM   36  O3  UNL     1      -0.204   6.430  10.597  1.00  0.00    -0.388 OA
HETATM   37  H37 UNL     1      -1.009   6.504  11.151  1.00  0.00     0.210 HD
ENDBRANCH  33  36
ENDBRANCH   9  33
TORSDOF 9
ENDMDL
MODEL 2
REMARK minimizedAffinity -8.29540539
REMARK  9 active torsions:
REMARK  status: ('A' for Active; 'I' for Inactive)
REMARK    1  A    between atoms: C2_2  and  C3_3 
REMARK    2  A    between atoms: C2_2  and  C9_11 
REMARK    3  A    between atoms: C3_3  and  C4_4 
REMARK    4  A    between atoms: C4_4  and  C5_5 
REMARK    5  A    between atoms: C5_5  and  O1_6 
REMARK    6  A    between atoms: C5_5  and  C6_7 
REMARK    7  A    between atoms: C6_7  and  O2_10 
REMARK    8  A    between atoms: C17_19  and  C18_20 
REMARK    9  A    between atoms: C18_20  and  O3_23 
ROOT
HETATM    1  C9  UNL     1      -2.111   8.083  14.281  1.00  0.00    -0.002 C 
HETATM    2  C10 UNL     1      -1.448   7.025  15.222  1.00  0.00     0.006 C 
HETATM    3  C11 UNL     1      -0.287   6.379  14.431  1.00  0.00     0.011 C 
HETATM    4  C12 UNL     1      -0.542   6.797  12.971  1.00  0.00    -0.032 C 
HETATM    5  C13 UNL     1      -1.659   5.828  12.450  1.00  0.00     0.016 C 
HETATM    6  C14 UNL     1       0.708   6.781  12.042  1.00  0.00     0.003 C 
HETATM    7  C15 UNL     1       1.444   5.435  11.973  1.00  0.00     0.009 C 
HETATM    8  C16 UNL     1       2.459   5.313  10.838  1.00  0.00     0.042 C 
HETATM    9  C17 UNL     1       3.013   6.620  10.206  1.00  0.00     0.095 C 
HETATM   10  O4  UNL     1       3.547   6.237   8.898  1.00  0.00    -0.377 OA
HETATM   11  C21 UNL     1       2.598   6.156   7.848  1.00  0.00     0.169 C 
HETATM   12  C22 UNL     1       2.079   7.532   7.494  1.00  0.00     0.027 C 
HETATM   13  C23 UNL     1       1.979   8.462   8.695  1.00  0.00     0.010 C 
HETATM   14  C24 UNL     1       1.944   7.773  10.077  1.00  0.00     0.032 C 
HETATM   15  C25 UNL     1       0.487   7.445  10.636  1.00  0.00    -0.033 C 
HETATM   16  C26 UNL     1      -0.314   6.553   9.662  1.00  0.00     0.016 C 
HETATM   17  C27 UNL     1      -0.320   8.793  10.771  1.00  0.00     0.011 C 
HETATM   18  C28 UNL     1      -1.468   8.832  11.806  1.00  0.00     0.011 C 
HETATM   19  C29 UNL     1      -1.026   8.293  13.178  1.00  0.00    -0.032 C 
HETATM   20  C30 UNL     1       0.068   9.259  13.721  1.00  0.00     0.016 C 
ENDROOT
BRANCH   1  21
HETATM   21  C2  UNL     1      -2.806   9.246  15.057  1.00  0.00    -0.014 C 
HETATM   22  C1  UNL     1      -2.058  10.584  15.123  1.00  0.00     0.010 C 
BRANCH  21  23
HETATM   23  C3  UNL     1      -4.260   9.454  14.582  1.00  0.00     0.007 C 
BRANCH  23  24
HETATM   24  C4  UNL     1      -5.154   8.203  14.485  1.00  0.00     0.035 C 
BRANCH  24  25
HETATM   25  C5  UNL     1      -6.369   8.204  15.433  1.00  0.00     0.151 C 
BRANCH  25  26
HETATM   26  O1  UNL     1      -7.300   9.186  14.980  1.00  0.00    -0.393 OA
HETATM   27  H10 UNL     1      -7.938   9.353  15.695  1.00  0.00     0.210 HD
ENDBRANCH  25  26
BRANCH  25  28
HETATM   28  C6  UNL     1      -7.053   6.804  15.545  1.00  0.00     0.076 C 
HETATM   29  C7  UNL     1      -8.515   6.940  15.993  1.00  0.00     0.048 C 
HETATM   30  C8  UNL     1      -7.005   6.023  14.228  1.00  0.00     0.048 C 
BRANCH  28  31
HETATM   31  O2  UNL     1      -6.379   6.013  16.534  1.00  0.00    -0.388 OA
HETATM   32  H17 UNL     1      -6.472   6.456  17.394  1.00  0.00     0.210 HD
ENDBRANCH  28  31
ENDBRANCH  25  28
ENDBRANCH  24  25
ENDBRANCH  23  24
ENDBRANCH  21  23
ENDBRANCH   1  21
BRANCH   9  33
HETATM   33  C18 UNL     1       4.342   7.095  10.963  1.00  0.00     0.082 C 
HETATM   34  C19 UNL     1       4.886   8.464  10.552  1.00  0.00     0.049 C 
HETATM   35  C20 UNL     1       5.486   6.069  10.881  1.00  0.00     0.049 C 
BRANCH  33  36
HETATM   36  O3  UNL     1       4.032   7.196  12.372  1.00  0.00    -0.388 OA
HETATM   37  H37 UNL     1       3.502   6.394  12.561  1.00  0.00     0.210 HD
ENDBRANCH  33  36
ENDBRANCH   9  33
TORSDOF 9
ENDMDL
MODEL 3
REMARK minimizedAffinity -8.20217323
REMARK  9 active torsions:
REMARK  status: ('A' for Active; 'I' for Inactive)
REMARK    1  A    between atoms: C2_2  and  C3_3 
REMARK    2  A    between atoms: C2_2  and  C9_11 
REMARK    3  A    between atoms: C3_3  and  C4_4 
REMARK    4  A    between atoms: C4_4  and  C5_5 
REMARK    5  A    between atoms: C5_5  and  O1_6 
REMARK    6  A    between atoms: C5_5  and  C6_7 
REMARK    7  A    between atoms: C6_7  and  O2_10 
REMARK    8  A    between atoms: C17_19  and  C18_20 
REMARK    9  A    between atoms: C18_20  and  O3_23 
ROOT
HETATM    1  C9  UNL     1       1.549   8.136  12.982  1.00  0.00    -0.002 C 
HETATM    2  C10 UNL     1       1.998   6.690  13.372  1.00  0.00     0.006 C 
HETATM    3  C11 UNL     1       0.734   5.933  13.842  1.00  0.00     0.011 C 
HETATM    4  C12 UNL     1      -0.313   7.041  14.063  1.00  0.00    -0.032 C 
HETATM    5  C13 UNL     1       0.034   7.668  15.457  1.00  0.00     0.016 C 
HETATM    6  C14 UNL     1      -1.799   6.581  13.996  1.00  0.00     0.003 C 
HETATM    7  C15 UNL     1      -2.169   5.451  14.967  1.00  0.00     0.009 C 
HETATM    8  C16 UNL     1      -3.668   5.215  15.142  1.00  0.00     0.042 C 
HETATM    9  C17 UNL     1      -4.625   5.732  14.032  1.00  0.00     0.095 C 
HETATM   10  O4  UNL     1      -5.949   5.814  14.651  1.00  0.00    -0.377 OA
HETATM   11  C21 UNL     1      -6.207   6.994  15.393  1.00  0.00     0.169 C 
HETATM   12  C22 UNL     1      -6.306   8.189  14.472  1.00  0.00     0.027 C 
HETATM   13  C23 UNL     1      -5.379   8.097  13.269  1.00  0.00     0.010 C 
HETATM   14  C24 UNL     1      -4.195   7.115  13.406  1.00  0.00     0.032 C 
HETATM   15  C25 UNL     1      -2.846   7.751  13.971  1.00  0.00    -0.033 C 
HETATM   16  C26 UNL     1      -3.056   8.408  15.353  1.00  0.00     0.016 C 
HETATM   17  C27 UNL     1      -2.381   8.901  12.998  1.00  0.00     0.011 C 
HETATM   18  C28 UNL     1      -0.874   9.245  12.974  1.00  0.00     0.011 C 
HETATM   19  C29 UNL     1       0.002   7.988  12.830  1.00  0.00    -0.032 C 
HETATM   20  C30 UNL     1      -0.313   7.365  11.437  1.00  0.00     0.016 C 
ENDROOT
BRANCH   1  21
HETATM   21  C2  UNL     1       2.473   8.799  11.913  1.00  0.00    -0.014 C 
HETATM   22  C1  UNL     1       3.406   9.918  12.394  1.00  0.00     0.010 C 
BRANCH  21  23
HETATM   23  C3  UNL     1       3.258   7.740  11.108  1.00  0.00     0.007 C 
BRANCH  23  24
HETATM   24  C4  UNL     1       2.451   6.851  10.143  1.00  0.00     0.035 C 
BRANCH  24  25
HETATM   25  C5  UNL     1       2.980   6.825   8.696  1.00  0.00     0.151 C 
BRANCH  25  26
HETATM   26  O1  UNL     1       2.879   5.492   8.196  1.00  0.00    -0.393 OA
HETATM   27  H10 UNL     1       3.421   5.427   7.392  1.00  0.00     0.210 HD
ENDBRANCH  25  26
BRANCH  25  28
HETATM   28  C6  UNL     1       2.231   7.825   7.757  1.00  0.00     0.076 C 
HETATM   29  C7  UNL     1       1.904   7.173   6.407  1.00  0.00     0.048 C 
HETATM   30  C8  UNL     1       0.936   8.354   8.383  1.00  0.00     0.048 C 
BRANCH  28  31
HETATM   31  O2  UNL     1       3.068   8.958   7.490  1.00  0.00    -0.388 OA
HETATM   32  H17 UNL     1       3.859   8.648   7.017  1.00  0.00     0.210 HD
ENDBRANCH  28  31
ENDBRANCH  25  28
ENDBRANCH  24  25
ENDBRANCH  23  24
ENDBRANCH  21  23
ENDBRANCH   1  21
BRANCH   9  33
HETATM   33  C18 UNL     1      -4.865   4.603  12.922  1.00  0.00     0.082 C 
HETATM   34  C19 UNL     1      -6.327   4.273  12.616  1.00  0.00     0.049 C 
HETATM   35  C20 UNL     1      -4.120   3.290  13.222  1.00  0.00     0.049 C 
BRANCH  33  36
HETATM   36  O3  UNL     1      -4.296   5.080  11.681  1.00  0.00    -0.388 OA
HETATM   37  H37 UNL     1      -3.438   5.473  11.944  1.00  0.00     0.210 HD
ENDBRANCH  33  36
ENDBRANCH   9  33
TORSDOF 9
ENDMDL
MODEL 4
REMARK minimizedAffinity -8.1777916
REMARK  9 active torsions:
REMARK  status: ('A' for Active; 'I' for Inactive)
REMARK    1  A    between atoms: C2_2  and  C3_3 
REMARK    2  A    between atoms: C2_2  and  C9_11 
REMARK    3  A    between atoms: C3_3  and  C4_4 
REMARK    4  A    between atoms: C4_4  and  C5_5 
REMARK    5  A    between atoms: C5_5  and  O1_6 
REMARK    6  A    between atoms: C5_5  and  C6_7 
REMARK    7  A    between atoms: C6_7  and  O2_10 
REMARK    8  A    between atoms: C17_19  and  C18_20 
REMARK    9  A    between atoms: C18_20  and  O3_23 
ROOT
HETATM    1  C9  UNL     1      -3.003   7.504  14.641  1.00  0.00    -0.002 C 
HETATM    2  C10 UNL     1      -2.471   7.738  16.092  1.00  0.00     0.006 C 
HETATM    3  C11 UNL     1      -0.930   7.829  16.002  1.00  0.00     0.011 C 
HETATM    4  C12 UNL     1      -0.598   7.284  14.600  1.00  0.00    -0.032 C 
HETATM    5  C13 UNL     1      -0.665   5.724  14.734  1.00  0.00     0.016 C 
HETATM    6  C14 UNL     1       0.764   7.750  14.007  1.00  0.00     0.003 C 
HETATM    7  C15 UNL     1       1.988   7.441  14.880  1.00  0.00     0.009 C 
HETATM    8  C16 UNL     1       3.337   7.594  14.179  1.00  0.00     0.042 C 
HETATM    9  C17 UNL     1       3.403   8.478  12.903  1.00  0.00     0.095 C 
HETATM   10  O4  UNL     1       4.619   8.073  12.197  1.00  0.00    -0.377 OA
HETATM   11  C21 UNL     1       4.497   6.927  11.372  1.00  0.00     0.169 C 
HETATM   12  C22 UNL     1       3.622   7.227  10.174  1.00  0.00     0.027 C 
HETATM   13  C23 UNL     1       2.500   8.208  10.483  1.00  0.00     0.010 C 
HETATM   14  C24 UNL     1       2.132   8.361  11.975  1.00  0.00     0.032 C 
HETATM   15  C25 UNL     1       0.972   7.395  12.491  1.00  0.00    -0.033 C 
HETATM   16  C26 UNL     1       1.318   5.908  12.257  1.00  0.00     0.016 C 
HETATM   17  C27 UNL     1      -0.336   7.684  11.660  1.00  0.00     0.011 C 
HETATM   18  C28 UNL     1      -1.689   7.348  12.328  1.00  0.00     0.011 C 
HETATM   19  C29 UNL     1      -1.784   7.914  13.756  1.00  0.00    -0.032 C 
HETATM   20  C30 UNL     1      -1.743   9.467  13.638  1.00  0.00     0.016 C 
ENDROOT
BRANCH   1  21
HETATM   21  C2  UNL     1      -4.456   8.032  14.426  1.00  0.00    -0.014 C 
HETATM   22  C1  UNL     1      -4.980   8.066  12.985  1.00  0.00     0.010 C 
BRANCH  21  23
HETATM   23  C3  UNL     1      -5.461   7.319  15.357  1.00  0.00     0.007 C 
BRANCH  23  24
HETATM   24  C4  UNL     1      -6.843   6.976  14.768  1.00  0.00     0.035 C 
BRANCH  24  25
HETATM   25  C5  UNL     1      -7.276   5.508  14.954  1.00  0.00     0.151 C 
BRANCH  25  26
HETATM   26  O1  UNL     1      -8.474   5.480  15.729  1.00  0.00    -0.393 OA
HETATM   27  H10 UNL     1      -8.612   4.571  16.043  1.00  0.00     0.210 HD
ENDBRANCH  25  26
BRANCH  25  28
HETATM   28  C6  UNL     1      -7.476   4.758  13.599  1.00  0.00     0.076 C 
HETATM   29  C7  UNL     1      -8.250   5.627  12.597  1.00  0.00     0.048 C 
HETATM   30  C8  UNL     1      -6.149   4.329  12.966  1.00  0.00     0.048 C 
BRANCH  28  31
HETATM   31  O2  UNL     1      -8.249   3.568  13.813  1.00  0.00    -0.388 OA
HETATM   32  H17 UNL     1      -9.127   3.829  14.137  1.00  0.00     0.210 HD
ENDBRANCH  28  31
ENDBRANCH  25  28
ENDBRANCH  24  25
ENDBRANCH  23  24
ENDBRANCH  21  23
ENDBRANCH   1  21
BRANCH   9  33
HETATM   33  C18 UNL     1       3.748   9.995  13.283  1.00  0.00     0.082 C 
HETATM   34  C19 UNL     1       4.770  10.689  12.381  1.00  0.00     0.049 C 
HETATM   35  C20 UNL     1       4.192  10.167  14.747  1.00  0.00     0.049 C 
BRANCH  33  36
HETATM   36  O3  UNL     1       2.528  10.764  13.170  1.00  0.00    -0.388 OA
HETATM   37  H37 UNL     1       1.845  10.196  13.582  1.00  0.00     0.210 HD
ENDBRANCH  33  36
ENDBRANCH   9  33
TORSDOF 9
ENDMDL
MODEL 5
REMARK minimizedAffinity -8.12732792
REMARK  9 active torsions:
REMARK  status: ('A' for Active; 'I' for Inactive)
REMARK    1  A    between atoms: C2_2  and  C3_3 
REMARK    2  A    between atoms: C2_2  and  C9_11 
REMARK    3  A    between atoms: C3_3  and  C4_4 
REMARK    4  A    between atoms: C4_4  and  C5_5 
REMARK    5  A    between atoms: C5_5  and  O1_6 
REMARK    6  A    between atoms: C5_5  and  C6_7 
REMARK    7  A    between atoms: C6_7  and  O2_10 
REMARK    8  A    between atoms: C17_19  and  C18_20 
REMARK    9  A    between atoms: C18_20  and  O3_23 
ROOT
HETATM    1  C9  UNL     1       1.152   6.549  10.906  1.00  0.00    -0.002 C 
HETATM    2  C10 UNL     1       0.229   5.288  10.943  1.00  0.00     0.006 C 
HETATM    3  C11 UNL     1      -0.763   5.485  12.111  1.00  0.00     0.011 C 
HETATM    4  C12 UNL     1      -0.163   6.643  12.930  1.00  0.00    -0.032 C 
HETATM    5  C13 UNL     1       0.979   5.997  13.788  1.00  0.00     0.016 C 
HETATM    6  C14 UNL     1      -1.171   7.430  13.817  1.00  0.00     0.003 C 
HETATM    7  C15 UNL     1      -1.957   6.569  14.819  1.00  0.00     0.009 C 
HETATM    8  C16 UNL     1      -2.698   7.353  15.901  1.00  0.00     0.042 C 
HETATM    9  C17 UNL     1      -3.012   8.851  15.634  1.00  0.00     0.095 C 
HETATM   10  O4  UNL     1      -3.263   9.448  16.947  1.00  0.00    -0.377 OA
HETATM   11  C21 UNL     1      -2.110   9.840  17.673  1.00  0.00     0.169 C 
HETATM   12  C22 UNL     1      -1.440  11.020  17.006  1.00  0.00     0.027 C 
HETATM   13  C23 UNL     1      -1.552  10.994  15.488  1.00  0.00     0.010 C 
HETATM   14  C24 UNL     1      -1.871   9.619  14.861  1.00  0.00     0.032 C 
HETATM   15  C25 UNL     1      -0.600   8.751  14.444  1.00  0.00    -0.033 C 
HETATM   16  C26 UNL     1       0.341   8.499  15.643  1.00  0.00     0.016 C 
HETATM   17  C27 UNL     1       0.240   9.560  13.382  1.00  0.00     0.011 C 
HETATM   18  C28 UNL     1       1.127   8.747  12.412  1.00  0.00     0.011 C 
HETATM   19  C29 UNL     1       0.357   7.583  11.762  1.00  0.00    -0.032 C 
HETATM   20  C30 UNL     1      -0.769   8.210  10.886  1.00  0.00     0.016 C 
ENDROOT
BRANCH   1  21
HETATM   21  C2  UNL     1       1.727   6.848   9.485  1.00  0.00    -0.014 C 
HETATM   22  C1  UNL     1       1.351   8.192   8.850  1.00  0.00     0.010 C 
BRANCH  21  23
HETATM   23  C3  UNL     1       3.254   6.627   9.435  1.00  0.00     0.007 C 
BRANCH  23  24
HETATM   24  C4  UNL     1       4.148   7.773   9.946  1.00  0.00     0.035 C 
BRANCH  24  25
HETATM   25  C5  UNL     1       4.887   7.475  11.265  1.00  0.00     0.151 C 
BRANCH  25  26
HETATM   26  O1  UNL     1       4.841   6.068  11.506  1.00  0.00    -0.393 OA
HETATM   27  H10 UNL     1       5.089   5.910  12.432  1.00  0.00     0.210 HD
ENDBRANCH  25  26
BRANCH  25  28
HETATM   28  C6  UNL     1       6.363   7.986  11.263  1.00  0.00     0.076 C 
HETATM   29  C7  UNL     1       6.450   9.416  10.712  1.00  0.00     0.048 C 
HETATM   30  C8  UNL     1       6.995   7.950  12.658  1.00  0.00     0.048 C 
BRANCH  28  31
HETATM   31  O2  UNL     1       7.164   7.154  10.412  1.00  0.00    -0.388 OA
HETATM   32  H17 UNL     1       6.825   7.231   9.505  1.00  0.00     0.210 HD
ENDBRANCH  28  31
ENDBRANCH  25  28
ENDBRANCH  24  25
ENDBRANCH  23  24
ENDBRANCH  21  23
ENDBRANCH   1  21
BRANCH   9  33
HETATM   33  C18 UNL     1      -4.444   9.013  14.935  1.00  0.00     0.082 C 
HETATM   34  C19 UNL     1      -5.579   8.191  15.548  1.00  0.00     0.049 C 
HETATM   35  C20 UNL     1      -4.412   8.748  13.420  1.00  0.00     0.049 C 
BRANCH  33  36
HETATM   36  O3  UNL     1      -4.841  10.398  15.064  1.00  0.00    -0.388 OA
HETATM   37  H37 UNL     1      -4.027  10.903  14.859  1.00  0.00     0.210 HD
ENDBRANCH  33  36
ENDBRANCH   9  33
TORSDOF 9
ENDMDL
MODEL 6
REMARK minimizedAffinity -8.09293365
REMARK  9 active torsions:
REMARK  status: ('A' for Active; 'I' for Inactive)
REMARK    1  A    between atoms: C2_2  and  C3_3 
REMARK    2  A    between atoms: C2_2  and  C9_11 
REMARK    3  A    between atoms: C3_3  and  C4_4 
REMARK    4  A    between atoms: C4_4  and  C5_5 
REMARK    5  A    between atoms: C5_5  and  O1_6 
REMARK    6  A    between atoms: C5_5  and  C6_7 
REMARK    7  A    between atoms: C6_7  and  O2_10 
REMARK    8  A    between atoms: C17_19  and  C18_20 
REMARK    9  A    between atoms: C18_20  and  O3_23 
ROOT
HETATM    1  C9  UNL     1      -2.987   6.726  14.035  1.00  0.00    -0.002 C 
HETATM    2  C10 UNL     1      -2.579   6.953  15.526  1.00  0.00     0.006 C 
HETATM    3  C11 UNL     1      -1.054   7.203  15.547  1.00  0.00     0.011 C 
HETATM    4  C12 UNL     1      -0.575   6.753  14.155  1.00  0.00    -0.032 C 
HETATM    5  C13 UNL     1      -0.489   5.189  14.230  1.00  0.00     0.016 C 
HETATM    6  C14 UNL     1       0.768   7.377  13.674  1.00  0.00     0.003 C 
HETATM    7  C15 UNL     1       1.957   7.157  14.620  1.00  0.00     0.009 C 
HETATM    8  C16 UNL     1       3.326   7.474  14.020  1.00  0.00     0.042 C 
HETATM    9  C17 UNL     1       3.384   8.412  12.783  1.00  0.00     0.095 C 
HETATM   10  O4  UNL     1       4.680   8.162  12.150  1.00  0.00    -0.377 OA
HETATM   11  C21 UNL     1       4.732   7.044  11.280  1.00  0.00     0.169 C 
HETATM   12  C22 UNL     1       3.912   7.303  10.035  1.00  0.00     0.027 C 
HETATM   13  C23 UNL     1       2.677   8.152  10.298  1.00  0.00     0.010 C 
HETATM   14  C24 UNL     1       2.197   8.206  11.765  1.00  0.00     0.032 C 
HETATM   15  C25 UNL     1       1.112   7.108  12.165  1.00  0.00    -0.033 C 
HETATM   16  C26 UNL     1       1.624   5.674  11.905  1.00  0.00     0.016 C 
HETATM   17  C27 UNL     1      -0.162   7.297  11.255  1.00  0.00     0.011 C 
HETATM   18  C28 UNL     1      -1.514   6.799  11.815  1.00  0.00     0.011 C 
HETATM   19  C29 UNL     1      -1.761   7.294  13.252  1.00  0.00    -0.032 C 
HETATM   20  C30 UNL     1      -1.873   8.846  13.190  1.00  0.00     0.016 C 
ENDROOT
BRANCH   1  21
HETATM   21  C2  UNL     1      -4.470   7.114  13.737  1.00  0.00    -0.014 C 
HETATM   22  C1  UNL     1      -4.713   8.458  13.040  1.00  0.00     0.010 C 
BRANCH  21  23
HETATM   23  C3  UNL     1      -5.216   5.976  13.007  1.00  0.00     0.007 C 
BRANCH  23  24
HETATM   24  C4  UNL     1      -4.480   4.630  12.864  1.00  0.00     0.035 C 
BRANCH  24  25
HETATM   25  C5  UNL     1      -5.392   3.426  12.558  1.00  0.00     0.151 C 
BRANCH  25  26
HETATM   26  O1  UNL     1      -6.679   3.913  12.178  1.00  0.00    -0.393 OA
HETATM   27  H10 UNL     1      -7.308   3.173  12.218  1.00  0.00     0.210 HD
ENDBRANCH  25  26
BRANCH  25  28
HETATM   28  C6  UNL     1      -4.808   2.488  11.454  1.00  0.00     0.076 C 
HETATM   29  C7  UNL     1      -3.389   2.028  11.814  1.00  0.00     0.048 C 
HETATM   30  C8  UNL     1      -5.686   1.255  11.212  1.00  0.00     0.048 C 
BRANCH  28  31
HETATM   31  O2  UNL     1      -4.721   3.198  10.210  1.00  0.00    -0.388 OA
HETATM   32  H17 UNL     1      -4.101   3.938  10.325  1.00  0.00     0.210 HD
ENDBRANCH  28  31
ENDBRANCH  25  28
ENDBRANCH  24  25
ENDBRANCH  23  24
ENDBRANCH  21  23
ENDBRANCH   1  21
BRANCH   9  33
HETATM   33  C18 UNL     1       3.545   9.939  13.238  1.00  0.00     0.082 C 
HETATM   34  C19 UNL     1       4.529  10.776  12.418  1.00  0.00     0.049 C 
HETATM   35  C20 UNL     1       3.896  10.094  14.728  1.00  0.00     0.049 C 
BRANCH  33  36
HETATM   36  O3  UNL     1       2.257  10.579  13.089  1.00  0.00    -0.388 OA
HETATM   37  H37 UNL     1       1.619   9.925  13.442  1.00  0.00     0.210 HD
ENDBRANCH  33  36
ENDBRANCH   9  33
TORSDOF 9
ENDMDL
MODEL 7
REMARK minimizedAffinity -8.01220512
REMARK  9 active torsions:
REMARK  status: ('A' for Active; 'I' for Inactive)
REMARK    1  A    between atoms: C2_2  and  C3_3 
REMARK    2  A    between atoms: C2_2  and  C9_11 
REMARK    3  A    between atoms: C3_3  and  C4_4 
REMARK    4  A    between atoms: C4_4  and  C5_5 
REMARK    5  A    between atoms: C5_5  and  O1_6 
REMARK    6  A    between atoms: C5_5  and  C6_7 
REMARK    7  A    between atoms: C6_7  and  O2_10 
REMARK    8  A    between atoms: C17_19  and  C18_20 
REMARK    9  A    between atoms: C18_20  and  O3_23 
ROOT
HETATM    1  C9  UNL     1      -1.399   6.645  12.593  1.00  0.00    -0.002 C 
HETATM    2  C10 UNL     1      -0.201   7.421  11.955  1.00  0.00     0.006 C 
HETATM    3  C11 UNL     1       0.033   8.683  12.816  1.00  0.00     0.011 C 
HETATM    4  C12 UNL     1      -1.238   8.796  13.679  1.00  0.00    -0.032 C 
HETATM    5  C13 UNL     1      -2.322   9.432  12.741  1.00  0.00     0.016 C 
HETATM    6  C14 UNL     1      -1.080   9.604  15.001  1.00  0.00     0.003 C 
HETATM    7  C15 UNL     1      -0.562  11.039  14.823  1.00  0.00     0.009 C 
HETATM    8  C16 UNL     1      -0.709  11.934  16.052  1.00  0.00     0.042 C 
HETATM    9  C17 UNL     1      -0.873  11.254  17.439  1.00  0.00     0.095 C 
HETATM   10  O4  UNL     1      -1.456  12.269  18.317  1.00  0.00    -0.377 OA
HETATM   11  C21 UNL     1      -2.865  12.409  18.241  1.00  0.00     0.169 C 
HETATM   12  C22 UNL     1      -3.550  11.186  18.812  1.00  0.00     0.027 C 
HETATM   13  C23 UNL     1      -2.783   9.897  18.558  1.00  0.00     0.010 C 
HETATM   14  C24 UNL     1      -1.750   9.943  17.411  1.00  0.00     0.032 C 
HETATM   15  C25 UNL     1      -2.301   9.498  15.982  1.00  0.00    -0.033 C 
HETATM   16  C26 UNL     1      -3.510  10.352  15.542  1.00  0.00     0.016 C 
HETATM   17  C27 UNL     1      -2.819   8.011  16.078  1.00  0.00     0.011 C 
HETATM   18  C28 UNL     1      -2.831   7.179  14.776  1.00  0.00     0.011 C 
HETATM   19  C29 UNL     1      -1.492   7.269  14.021  1.00  0.00    -0.032 C 
HETATM   20  C30 UNL     1      -0.408   6.619  14.931  1.00  0.00     0.016 C 
ENDROOT
BRANCH   1  21
HETATM   21  C2  UNL     1      -1.358   5.111  12.310  1.00  0.00    -0.014 C 
HETATM   22  C1  UNL     1      -0.044   4.380  12.616  1.00  0.00     0.010 C 
BRANCH  21  23
HETATM   23  C3  UNL     1      -2.553   4.383  12.962  1.00  0.00     0.007 C 
BRANCH  23  24
HETATM   24  C4  UNL     1      -3.938   4.593  12.321  1.00  0.00     0.035 C 
BRANCH  24  25
HETATM   25  C5  UNL     1      -4.923   3.424  12.518  1.00  0.00     0.151 C 
BRANCH  25  26
HETATM   26  O1  UNL     1      -6.250   3.948  12.562  1.00  0.00    -0.393 OA
HETATM   27  H10 UNL     1      -6.837   3.260  12.918  1.00  0.00     0.210 HD
ENDBRANCH  25  26
BRANCH  25  28
HETATM   28  C6  UNL     1      -4.798   2.331  11.409  1.00  0.00     0.076 C 
HETATM   29  C7  UNL     1      -3.568   1.443  11.647  1.00  0.00     0.048 C 
HETATM   30  C8  UNL     1      -6.044   1.444  11.320  1.00  0.00     0.048 C 
BRANCH  28  31
HETATM   31  O2  UNL     1      -4.629   2.955  10.129  1.00  0.00    -0.388 OA
HETATM   32  H17 UNL     1      -3.797   3.457  10.142  1.00  0.00     0.210 HD
ENDBRANCH  28  31
ENDBRANCH  25  28
ENDBRANCH  24  25
ENDBRANCH  23  24
ENDBRANCH  21  23
ENDBRANCH   1  21
BRANCH   9  33
HETATM   33  C18 UNL     1       0.555  11.024  18.128  1.00  0.00     0.082 C 
HETATM   34  C19 UNL     1       0.551  10.956  19.656  1.00  0.00     0.049 C 
HETATM   35  C20 UNL     1       1.613  12.050  17.687  1.00  0.00     0.049 C 
BRANCH  33  36
HETATM   36  O3  UNL     1       1.060   9.747  17.674  1.00  0.00    -0.388 OA
HETATM   37  H37 UNL     1       0.862   9.736  16.714  1.00  0.00     0.210 HD
ENDBRANCH  33  36
ENDBRANCH   9  33
TORSDOF 9
ENDMDL
MODEL 8
REMARK minimizedAffinity -7.99143028
REMARK  9 active torsions:
REMARK  status: ('A' for Active; 'I' for Inactive)
REMARK    1  A    between atoms: C2_2  and  C3_3 
REMARK    2  A    between atoms: C2_2  and  C9_11 
REMARK    3  A    between atoms: C3_3  and  C4_4 
REMARK    4  A    between atoms: C4_4  and  C5_5 
REMARK    5  A    between atoms: C5_5  and  O1_6 
REMARK    6  A    between atoms: C5_5  and  C6_7 
REMARK    7  A    between atoms: C6_7  and  O2_10 
REMARK    8  A    between atoms: C17_19  and  C18_20 
REMARK    9  A    between atoms: C18_20  and  O3_23 
ROOT
HETATM    1  C9  UNL     1      -1.766   5.560  11.670  1.00  0.00    -0.002 C 
HETATM    2  C10 UNL     1      -0.398   5.550  10.913  1.00  0.00     0.006 C 
HETATM    3  C11 UNL     1       0.482   6.650  11.551  1.00  0.00     0.011 C 
HETATM    4  C12 UNL     1      -0.505   7.493  12.381  1.00  0.00    -0.032 C 
HETATM    5  C13 UNL     1      -1.221   8.430  11.349  1.00  0.00     0.016 C 
HETATM    6  C14 UNL     1       0.127   8.305  13.550  1.00  0.00     0.003 C 
HETATM    7  C15 UNL     1       1.254   9.262  13.135  1.00  0.00     0.009 C 
HETATM    8  C16 UNL     1       1.655  10.285  14.197  1.00  0.00     0.042 C 
HETATM    9  C17 UNL     1       1.296   9.983  15.678  1.00  0.00     0.095 C 
HETATM   10  O4  UNL     1       1.344  11.270  16.373  1.00  0.00    -0.377 OA
HETATM   11  C21 UNL     1       0.175  12.065  16.273  1.00  0.00     0.169 C 
HETATM   12  C22 UNL     1      -0.965  11.430  17.038  1.00  0.00     0.027 C 
HETATM   13  C23 UNL     1      -0.935   9.909  17.005  1.00  0.00     0.010 C 
HETATM   14  C24 UNL     1      -0.102   9.278  15.868  1.00  0.00     0.032 C 
HETATM   15  C25 UNL     1      -0.912   8.953  14.533  1.00  0.00    -0.033 C 
HETATM   16  C26 UNL     1      -1.593  10.213  13.954  1.00  0.00     0.016 C 
HETATM   17  C27 UNL     1      -2.070   7.939  14.876  1.00  0.00     0.011 C 
HETATM   18  C28 UNL     1      -2.585   7.037  13.730  1.00  0.00     0.011 C 
HETATM   19  C29 UNL     1      -1.434   6.352  12.973  1.00  0.00    -0.032 C 
HETATM   20  C30 UNL     1      -0.725   5.397  13.981  1.00  0.00     0.016 C 
ENDROOT
BRANCH   1  21
HETATM   21  C2  UNL     1      -2.490   4.177  11.648  1.00  0.00    -0.014 C 
HETATM   22  C1  UNL     1      -1.604   2.927  11.567  1.00  0.00     0.010 C 
BRANCH  21  23
HETATM   23  C3  UNL     1      -3.507   4.052  12.802  1.00  0.00     0.007 C 
BRANCH  23  24
HETATM   24  C4  UNL     1      -5.001   4.056  12.426  1.00  0.00     0.035 C 
BRANCH  24  25
HETATM   25  C5  UNL     1      -5.929   4.699  13.475  1.00  0.00     0.151 C 
BRANCH  25  26
HETATM   26  O1  UNL     1      -5.939   6.112  13.269  1.00  0.00    -0.393 OA
HETATM   27  H10 UNL     1      -6.321   6.531  14.059  1.00  0.00     0.210 HD
ENDBRANCH  25  26
BRANCH  25  28
HETATM   28  C6  UNL     1      -7.381   4.125  13.436  1.00  0.00     0.076 C 
HETATM   29  C7  UNL     1      -8.294   4.994  12.559  1.00  0.00     0.048 C 
HETATM   30  C8  UNL     1      -7.425   2.682  12.924  1.00  0.00     0.048 C 
BRANCH  28  31
HETATM   31  O2  UNL     1      -7.938   4.125  14.758  1.00  0.00    -0.388 OA
HETATM   32  H17 UNL     1      -7.994   5.045  15.065  1.00  0.00     0.210 HD
ENDBRANCH  28  31
ENDBRANCH  25  28
ENDBRANCH  24  25
ENDBRANCH  23  24
ENDBRANCH  21  23
ENDBRANCH   1  21
BRANCH   9  33
HETATM   33  C18 UNL     1       2.487   9.191  16.398  1.00  0.00     0.082 C 
HETATM   34  C19 UNL     1       3.901   9.580  15.964  1.00  0.00     0.049 C 
HETATM   35  C20 UNL     1       2.348   7.662  16.294  1.00  0.00     0.049 C 
BRANCH  33  36
HETATM   36  O3  UNL     1       2.411   9.477  17.814  1.00  0.00    -0.388 OA
HETATM   37  H37 UNL     1       1.456   9.418  18.022  1.00  0.00     0.210 HD
ENDBRANCH  33  36
ENDBRANCH   9  33
TORSDOF 9
ENDMDL
MODEL 9
REMARK minimizedAffinity -7.96687794
REMARK  9 active torsions:
REMARK  status: ('A' for Active; 'I' for Inactive)
REMARK    1  A    between atoms: C2_2  and  C3_3 
REMARK    2  A    between atoms: C2_2  and  C9_11 
REMARK    3  A    between atoms: C3_3  and  C4_4 
REMARK    4  A    between atoms: C4_4  and  C5_5 
REMARK    5  A    between atoms: C5_5  and  O1_6 
REMARK    6  A    between atoms: C5_5  and  C6_7 
REMARK    7  A    between atoms: C6_7  and  O2_10 
REMARK    8  A    between atoms: C17_19  and  C18_20 
REMARK    9  A    between atoms: C18_20  and  O3_23 
ROOT
HETATM    1  C9  UNL     1      -1.904   7.008  14.032  1.00  0.00    -0.002 C 
HETATM    2  C10 UNL     1      -2.091   7.274  12.504  1.00  0.00     0.006 C 
HETATM    3  C11 UNL     1      -0.737   7.786  11.962  1.00  0.00     0.011 C 
HETATM    4  C12 UNL     1       0.065   8.150  13.226  1.00  0.00    -0.032 C 
HETATM    5  C13 UNL     1      -0.478   9.552  13.672  1.00  0.00     0.016 C 
HETATM    6  C14 UNL     1       1.613   8.163  13.056  1.00  0.00     0.003 C 
HETATM    7  C15 UNL     1       2.133   9.087  11.946  1.00  0.00     0.009 C 
HETATM    8  C16 UNL     1       3.637   9.355  11.981  1.00  0.00     0.042 C 
HETATM    9  C17 UNL     1       4.542   8.351  12.748  1.00  0.00     0.095 C 
HETATM   10  O4  UNL     1       5.787   9.068  13.029  1.00  0.00    -0.377 OA
HETATM   11  C21 UNL     1       5.770   9.899  14.177  1.00  0.00     0.169 C 
HETATM   12  C22 UNL     1       5.694   9.063  15.436  1.00  0.00     0.027 C 
HETATM   13  C23 UNL     1       4.874   7.792  15.262  1.00  0.00     0.010 C 
HETATM   14  C24 UNL     1       3.893   7.783  14.069  1.00  0.00     0.032 C 
HETATM   15  C25 UNL     1       2.417   8.286  14.400  1.00  0.00    -0.033 C 
HETATM   16  C26 UNL     1       2.415   9.718  14.979  1.00  0.00     0.016 C 
HETATM   17  C27 UNL     1       1.800   7.355  15.513  1.00  0.00     0.011 C 
HETATM   18  C28 UNL     1       0.259   7.244  15.571  1.00  0.00     0.011 C 
HETATM   19  C29 UNL     1      -0.351   6.959  14.186  1.00  0.00    -0.032 C 
HETATM   20  C30 UNL     1       0.160   5.557  13.739  1.00  0.00     0.016 C 
ENDROOT
BRANCH   1  21
HETATM   21  C2  UNL     1      -2.872   5.917  14.589  1.00  0.00    -0.014 C 
HETATM   22  C1  UNL     1      -3.663   6.267  15.856  1.00  0.00     0.010 C 
BRANCH  21  23
HETATM   23  C3  UNL     1      -3.812   5.379  13.489  1.00  0.00     0.007 C 
BRANCH  23  24
HETATM   24  C4  UNL     1      -5.297   5.781  13.574  1.00  0.00     0.035 C 
BRANCH  24  25
HETATM   25  C5  UNL     1      -6.275   4.772  12.943  1.00  0.00     0.151 C 
BRANCH  25  26
HETATM   26  O1  UNL     1      -5.650   3.489  12.911  1.00  0.00    -0.393 OA
HETATM   27  H10 UNL     1      -6.158   2.918  12.310  1.00  0.00     0.210 HD
ENDBRANCH  25  26
BRANCH  25  28
HETATM   28  C6  UNL     1      -7.643   4.700  13.695  1.00  0.00     0.076 C 
HETATM   29  C7  UNL     1      -7.464   4.978  15.194  1.00  0.00     0.048 C 
HETATM   30  C8  UNL     1      -8.674   5.680  13.126  1.00  0.00     0.048 C 
BRANCH  28  31
HETATM   31  O2  UNL     1      -8.196   3.382  13.571  1.00  0.00    -0.388 OA
HETATM   32  H17 UNL     1      -7.590   2.756  14.002  1.00  0.00     0.210 HD
ENDBRANCH  28  31
ENDBRANCH  25  28
ENDBRANCH  24  25
ENDBRANCH  23  24
ENDBRANCH  21  23
ENDBRANCH   1  21
BRANCH   9  33
HETATM   33  C18 UNL     1       5.058   7.193  11.770  1.00  0.00     0.082 C 
HETATM   34  C19 UNL     1       6.027   7.635  10.672  1.00  0.00     0.049 C 
HETATM   35  C20 UNL     1       3.914   6.395  11.119  1.00  0.00     0.049 C 
BRANCH  33  36
HETATM   36  O3  UNL     1       5.778   6.229  12.572  1.00  0.00    -0.388 OA
HETATM   37  H37 UNL     1       5.224   6.119  13.372  1.00  0.00     0.210 HD
ENDBRANCH  33  36
ENDBRANCH   9  33
TORSDOF 9
ENDMDL
