MODEL 1
REMARK minimizedAffinity -9.77872562
REMARK  6 active torsions:
REMARK  status: ('A' for Active; 'I' for Inactive)
REMARK    1  A    between atoms: C2_2  and  C30_32 
REMARK    2  A    between atoms: C3_3  and  C4_4 
REMARK    3  A    between atoms: C4_4  and  C5_5 
REMARK    4  A    between atoms: C5_5  and  C6_6 
REMARK    5  A    between atoms: C6_6  and  C8_8 
REMARK    6  A    between atoms: C30_32  and  O3_33 
ROOT
HETATM    1  C8  UNL     1      -4.078  50.109 -24.666  1.00  0.00    -0.002 C 
HETATM    2  C9  UNL     1      -5.542  49.822 -24.232  1.00  0.00     0.007 C 
HETATM    3  C10 UNL     1      -5.554  49.787 -22.692  1.00  0.00     0.015 C 
HETATM    4  C11 UNL     1      -4.206  50.398 -22.260  1.00  0.00    -0.005 C 
HETATM    5  C12 UNL     1      -4.377  51.949 -22.286  1.00  0.00     0.021 C 
HETATM    6  C13 UNL     1      -3.634  50.102 -20.881  1.00  0.00    -0.000 C 
HETATM    7  C14 UNL     1      -2.293  50.088 -20.661  1.00  0.00    -0.060 C 
HETATM    8  C15 UNL     1      -1.310  50.306 -21.825  1.00  0.00     0.036 C 
HETATM    9  C16 UNL     1      -1.898  50.483 -23.242  1.00  0.00     0.015 C 
HETATM   10  C17 UNL     1      -3.261  49.795 -23.378  1.00  0.00    -0.028 C 
HETATM   11  C18 UNL     1      -3.046  48.260 -23.237  1.00  0.00     0.016 C 
HETATM   12  C19 UNL     1      -1.660  49.823 -19.265  1.00  0.00    -0.014 C 
HETATM   13  C20 UNL     1      -1.144  48.367 -19.273  1.00  0.00     0.020 C 
HETATM   14  C21 UNL     1      -0.481  50.800 -19.012  1.00  0.00     0.021 C 
HETATM   15  C22 UNL     1       0.012  50.910 -17.573  1.00  0.00     0.080 C 
HETATM   16  C23 UNL     1      -0.666  49.983 -16.594  1.00  0.00     0.135 C 
HETATM   17  O1  UNL     1      -0.005  49.455 -15.698  1.00  0.00    -0.297 OA
HETATM   18  C24 UNL     1      -2.190  49.832 -16.676  1.00  0.00     0.018 C 
HETATM   19  C25 UNL     1      -2.787  50.888 -15.724  1.00  0.00     0.023 C 
HETATM   20  C26 UNL     1      -2.575  48.441 -16.127  1.00  0.00     0.023 C 
HETATM   21  C27 UNL     1      -2.704  50.093 -18.134  1.00  0.00     0.020 C 
HETATM   22  C28 UNL     1      -4.031  49.397 -18.437  1.00  0.00     0.090 C 
HETATM   23  C29 UNL     1      -4.588  49.869 -19.753  1.00  0.00     0.157 C 
HETATM   24  O2  UNL     1      -5.798  50.027 -19.891  1.00  0.00    -0.293 OA
ENDROOT
BRANCH   1  25
HETATM   25  C6  UNL     1      -3.715  49.543 -26.073  1.00  0.00    -0.014 C 
HETATM   26  C7  UNL     1      -4.486  48.298 -26.527  1.00  0.00     0.010 C 
BRANCH  25  27
HETATM   27  C5  UNL     1      -2.187  49.350 -26.225  1.00  0.00     0.008 C 
BRANCH  27  28
HETATM   28  C4  UNL     1      -1.442  50.532 -26.871  1.00  0.00     0.028 C 
BRANCH  28  29
HETATM   29  C3  UNL     1      -0.019  50.689 -26.410  1.00  0.00    -0.022 C 
HETATM   30  C2  UNL     1       0.969  51.420 -26.971  1.00  0.00    -0.064 C 
HETATM   31  C1  UNL     1       0.819  52.233 -28.231  1.00  0.00     0.045 C 
BRANCH  30  32
HETATM   32  C30 UNL     1       2.374  51.482 -26.408  1.00  0.00     0.197 C 
BRANCH  32  33
HETATM   33  O3  UNL     1       3.368  51.496 -27.424  1.00  0.00    -0.397 OA
HETATM   34  H46 UNL     1       3.271  50.657 -27.907  1.00  0.00     0.209 HD
ENDBRANCH  32  33
ENDBRANCH  30  32
ENDBRANCH  28  29
ENDBRANCH  27  28
ENDBRANCH  25  27
ENDBRANCH   1  25
TORSDOF 6
ENDMDL
MODEL 2
REMARK minimizedAffinity -9.41147137
REMARK  6 active torsions:
REMARK  status: ('A' for Active; 'I' for Inactive)
REMARK    1  A    between atoms: C2_2  and  C30_32 
REMARK    2  A    between atoms: C3_3  and  C4_4 
REMARK    3  A    between atoms: C4_4  and  C5_5 
REMARK    4  A    between atoms: C5_5  and  C6_6 
REMARK    5  A    between atoms: C6_6  and  C8_8 
REMARK    6  A    between atoms: C30_32  and  O3_33 
ROOT
HETATM    1  C8  UNL     1      -0.756  50.027 -20.801  1.00  0.00    -0.002 C 
HETATM    2  C9  UNL     1      -1.102  49.308 -19.469  1.00  0.00     0.007 C 
HETATM    3  C10 UNL     1      -2.395  48.508 -19.715  1.00  0.00     0.015 C 
HETATM    4  C11 UNL     1      -2.574  48.482 -21.247  1.00  0.00    -0.005 C 
HETATM    5  C12 UNL     1      -1.681  47.325 -21.793  1.00  0.00     0.021 C 
HETATM    6  C13 UNL     1      -3.944  48.226 -21.857  1.00  0.00    -0.000 C 
HETATM    7  C14 UNL     1      -4.290  48.751 -23.062  1.00  0.00    -0.060 C 
HETATM    8  C15 UNL     1      -3.320  49.680 -23.814  1.00  0.00     0.036 C 
HETATM    9  C16 UNL     1      -1.983  50.033 -23.128  1.00  0.00     0.015 C 
HETATM   10  C17 UNL     1      -2.089  49.947 -21.602  1.00  0.00    -0.028 C 
HETATM   11  C18 UNL     1      -3.073  51.053 -21.122  1.00  0.00     0.016 C 
HETATM   12  C19 UNL     1      -5.664  48.492 -23.743  1.00  0.00    -0.014 C 
HETATM   13  C20 UNL     1      -6.516  49.764 -23.535  1.00  0.00     0.020 C 
HETATM   14  C21 UNL     1      -5.474  48.226 -25.259  1.00  0.00     0.021 C 
HETATM   15  C22 UNL     1      -6.662  47.614 -25.996  1.00  0.00     0.080 C 
HETATM   16  C23 UNL     1      -7.903  47.426 -25.158  1.00  0.00     0.135 C 
HETATM   17  O1  UNL     1      -9.011  47.632 -25.655  1.00  0.00    -0.297 OA
HETATM   18  C24 UNL     1      -7.740  46.857 -23.742  1.00  0.00     0.018 C 
HETATM   19  C25 UNL     1      -7.880  45.326 -23.866  1.00  0.00     0.023 C 
HETATM   20  C26 UNL     1      -8.914  47.362 -22.875  1.00  0.00     0.023 C 
HETATM   21  C27 UNL     1      -6.331  47.208 -23.152  1.00  0.00     0.020 C 
HETATM   22  C28 UNL     1      -6.308  47.234 -21.624  1.00  0.00     0.090 C 
HETATM   23  C29 UNL     1      -4.894  47.340 -21.117  1.00  0.00     0.157 C 
HETATM   24  O2  UNL     1      -4.553  46.732 -20.106  1.00  0.00    -0.293 OA
ENDROOT
BRANCH   1  25
HETATM   25  C6  UNL     1       0.056  51.345 -20.614  1.00  0.00    -0.014 C 
HETATM   26  C7  UNL     1      -0.016  52.000 -19.229  1.00  0.00     0.010 C 
BRANCH  25  27
HETATM   27  C5  UNL     1      -0.254  52.363 -21.738  1.00  0.00     0.008 C 
BRANCH  27  28
HETATM   28  C4  UNL     1       0.729  52.345 -22.922  1.00  0.00     0.028 C 
BRANCH  28  29
HETATM   29  C3  UNL     1       0.209  53.016 -24.164  1.00  0.00    -0.022 C 
HETATM   30  C2  UNL     1       0.558  52.788 -25.450  1.00  0.00    -0.064 C 
HETATM   31  C1  UNL     1       1.595  51.787 -25.888  1.00  0.00     0.045 C 
BRANCH  30  32
HETATM   32  C30 UNL     1      -0.038  53.549 -26.616  1.00  0.00     0.197 C 
BRANCH  32  33
HETATM   33  O3  UNL     1       0.195  54.948 -26.529  1.00  0.00    -0.397 OA
HETATM   34  H46 UNL     1      -0.247  55.246 -25.715  1.00  0.00     0.209 HD
ENDBRANCH  32  33
ENDBRANCH  30  32
ENDBRANCH  28  29
ENDBRANCH  27  28
ENDBRANCH  25  27
ENDBRANCH   1  25
TORSDOF 6
ENDMDL
MODEL 3
REMARK minimizedAffinity -9.24429417
REMARK  6 active torsions:
REMARK  status: ('A' for Active; 'I' for Inactive)
REMARK    1  A    between atoms: C2_2  and  C30_32 
REMARK    2  A    between atoms: C3_3  and  C4_4 
REMARK    3  A    between atoms: C4_4  and  C5_5 
REMARK    4  A    between atoms: C5_5  and  C6_6 
REMARK    5  A    between atoms: C6_6  and  C8_8 
REMARK    6  A    between atoms: C30_32  and  O3_33 
ROOT
HETATM    1  C8  UNL     1      -0.909  50.347 -22.052  1.00  0.00    -0.002 C 
HETATM    2  C9  UNL     1      -0.836  49.993 -20.542  1.00  0.00     0.007 C 
HETATM    3  C10 UNL     1      -2.102  49.181 -20.210  1.00  0.00     0.015 C 
HETATM    4  C11 UNL     1      -2.695  48.775 -21.575  1.00  0.00    -0.005 C 
HETATM    5  C12 UNL     1      -1.929  47.501 -22.046  1.00  0.00     0.021 C 
HETATM    6  C13 UNL     1      -4.165  48.400 -21.693  1.00  0.00    -0.000 C 
HETATM    7  C14 UNL     1      -4.858  48.611 -22.844  1.00  0.00    -0.060 C 
HETATM    8  C15 UNL     1      -4.184  49.302 -24.042  1.00  0.00     0.036 C 
HETATM    9  C16 UNL     1      -2.730  49.791 -23.868  1.00  0.00     0.015 C 
HETATM   10  C17 UNL     1      -2.405  50.093 -22.402  1.00  0.00    -0.028 C 
HETATM   11  C18 UNL     1      -3.276  51.303 -21.953  1.00  0.00     0.016 C 
HETATM   12  C19 UNL     1      -6.351  48.215 -23.026  1.00  0.00    -0.014 C 
HETATM   13  C20 UNL     1      -7.179  49.515 -22.907  1.00  0.00     0.020 C 
HETATM   14  C21 UNL     1      -6.573  47.573 -24.420  1.00  0.00     0.021 C 
HETATM   15  C22 UNL     1      -7.884  46.818 -24.619  1.00  0.00     0.080 C 
HETATM   16  C23 UNL     1      -8.834  46.871 -23.446  1.00  0.00     0.135 C 
HETATM   17  O1  UNL     1     -10.045  46.966 -23.648  1.00  0.00    -0.297 OA
HETATM   18  C24 UNL     1      -8.257  46.673 -22.039  1.00  0.00     0.018 C 
HETATM   19  C25 UNL     1      -8.344  45.163 -21.737  1.00  0.00     0.023 C 
HETATM   20  C26 UNL     1      -9.170  47.402 -21.029  1.00  0.00     0.023 C 
HETATM   21  C27 UNL     1      -6.760  47.135 -21.974  1.00  0.00     0.020 C 
HETATM   22  C28 UNL     1      -6.317  47.543 -20.569  1.00  0.00     0.090 C 
HETATM   23  C29 UNL     1      -4.826  47.746 -20.522  1.00  0.00     0.157 C 
HETATM   24  O2  UNL     1      -4.187  47.406 -19.529  1.00  0.00    -0.293 OA
ENDROOT
BRANCH   1  25
HETATM   25  C6  UNL     1      -0.148  51.654 -22.432  1.00  0.00    -0.014 C 
HETATM   26  C7  UNL     1       0.565  52.384 -21.288  1.00  0.00     0.010 C 
BRANCH  25  27
HETATM   27  C5  UNL     1      -1.050  52.616 -23.243  1.00  0.00     0.008 C 
BRANCH  27  28
HETATM   28  C4  UNL     1      -0.641  52.806 -24.714  1.00  0.00     0.028 C 
BRANCH  28  29
HETATM   29  C3  UNL     1       0.729  52.283 -25.045  1.00  0.00    -0.022 C 
HETATM   30  C2  UNL     1       1.163  51.737 -26.203  1.00  0.00    -0.064 C 
HETATM   31  C1  UNL     1       0.302  51.526 -27.422  1.00  0.00     0.045 C 
BRANCH  30  32
HETATM   32  C30 UNL     1       2.578  51.235 -26.401  1.00  0.00     0.197 C 
BRANCH  32  33
HETATM   33  O3  UNL     1       3.286  51.976 -27.386  1.00  0.00    -0.397 OA
HETATM   34  H46 UNL     1       2.800  51.851 -28.219  1.00  0.00     0.209 HD
ENDBRANCH  32  33
ENDBRANCH  30  32
ENDBRANCH  28  29
ENDBRANCH  27  28
ENDBRANCH  25  27
ENDBRANCH   1  25
TORSDOF 6
ENDMDL
MODEL 4
REMARK minimizedAffinity -9.14442062
REMARK  6 active torsions:
REMARK  status: ('A' for Active; 'I' for Inactive)
REMARK    1  A    between atoms: C2_2  and  C30_32 
REMARK    2  A    between atoms: C3_3  and  C4_4 
REMARK    3  A    between atoms: C4_4  and  C5_5 
REMARK    4  A    between atoms: C5_5  and  C6_6 
REMARK    5  A    between atoms: C6_6  and  C8_8 
REMARK    6  A    between atoms: C30_32  and  O3_33 
ROOT
HETATM    1  C8  UNL     1      -0.092  51.084 -21.233  1.00  0.00    -0.002 C 
HETATM    2  C9  UNL     1      -0.119  51.334 -19.701  1.00  0.00     0.007 C 
HETATM    3  C10 UNL     1      -1.400  50.671 -19.161  1.00  0.00     0.015 C 
HETATM    4  C11 UNL     1      -1.898  49.758 -20.300  1.00  0.00    -0.005 C 
HETATM    5  C12 UNL     1      -1.094  48.424 -20.203  1.00  0.00     0.021 C 
HETATM    6  C13 UNL     1      -3.355  49.321 -20.355  1.00  0.00    -0.000 C 
HETATM    7  C14 UNL     1      -3.969  49.057 -21.538  1.00  0.00    -0.060 C 
HETATM    8  C15 UNL     1      -3.220  49.261 -22.867  1.00  0.00     0.036 C 
HETATM    9  C16 UNL     1      -1.783  49.823 -22.806  1.00  0.00     0.015 C 
HETATM   10  C17 UNL     1      -1.560  50.671 -21.549  1.00  0.00    -0.028 C 
HETATM   11  C18 UNL     1      -2.466  51.933 -21.649  1.00  0.00     0.016 C 
HETATM   12  C19 UNL     1      -5.445  48.577 -21.645  1.00  0.00    -0.014 C 
HETATM   13  C20 UNL     1      -6.285  49.797 -22.081  1.00  0.00     0.020 C 
HETATM   14  C21 UNL     1      -5.569  47.445 -22.699  1.00  0.00     0.021 C 
HETATM   15  C22 UNL     1      -6.860  46.632 -22.673  1.00  0.00     0.080 C 
HETATM   16  C23 UNL     1      -7.886  47.097 -21.669  1.00  0.00     0.135 C 
HETATM   17  O1  UNL     1      -9.082  47.071 -21.964  1.00  0.00    -0.297 OA
HETATM   18  C24 UNL     1      -7.404  47.468 -20.260  1.00  0.00     0.018 C 
HETATM   19  C25 UNL     1      -7.503  46.185 -19.411  1.00  0.00     0.023 C 
HETATM   20  C26 UNL     1      -8.387  48.498 -19.662  1.00  0.00     0.023 C 
HETATM   21  C27 UNL     1      -5.917  47.965 -20.286  1.00  0.00     0.020 C 
HETATM   22  C28 UNL     1      -5.572  48.891 -19.120  1.00  0.00     0.090 C 
HETATM   23  C29 UNL     1      -4.089  49.142 -19.064  1.00  0.00     0.157 C 
HETATM   24  O2  UNL     1      -3.517  49.225 -17.981  1.00  0.00    -0.293 OA
ENDROOT
BRANCH   1  25
HETATM   25  C6  UNL     1       0.685  52.171 -22.036  1.00  0.00    -0.014 C 
HETATM   26  C7  UNL     1       1.073  53.440 -21.268  1.00  0.00     0.010 C 
BRANCH  25  27
HETATM   27  C5  UNL     1      -0.032  52.511 -23.366  1.00  0.00     0.008 C 
BRANCH  27  28
HETATM   28  C4  UNL     1       0.877  52.543 -24.606  1.00  0.00     0.028 C 
BRANCH  28  29
HETATM   29  C3  UNL     1       0.324  53.339 -25.755  1.00  0.00    -0.022 C 
HETATM   30  C2  UNL     1       0.073  52.929 -27.018  1.00  0.00    -0.064 C 
HETATM   31  C1  UNL     1       0.335  51.536 -27.531  1.00  0.00     0.045 C 
BRANCH  30  32
HETATM   32  C30 UNL     1      -0.479  53.844 -28.092  1.00  0.00     0.197 C 
BRANCH  32  33
HETATM   33  O3  UNL     1      -1.898  53.820 -28.152  1.00  0.00    -0.397 OA
HETATM   34  H46 UNL     1      -2.143  52.906 -28.378  1.00  0.00     0.209 HD
ENDBRANCH  32  33
ENDBRANCH  30  32
ENDBRANCH  28  29
ENDBRANCH  27  28
ENDBRANCH  25  27
ENDBRANCH   1  25
TORSDOF 6
ENDMDL
MODEL 5
REMARK minimizedAffinity -8.95254135
REMARK  6 active torsions:
REMARK  status: ('A' for Active; 'I' for Inactive)
REMARK    1  A    between atoms: C2_2  and  C30_32 
REMARK    2  A    between atoms: C3_3  and  C4_4 
REMARK    3  A    between atoms: C4_4  and  C5_5 
REMARK    4  A    between atoms: C5_5  and  C6_6 
REMARK    5  A    between atoms: C6_6  and  C8_8 
REMARK    6  A    between atoms: C30_32  and  O3_33 
ROOT
HETATM    1  C8  UNL     1      -1.883  48.746 -18.374  1.00  0.00    -0.002 C 
HETATM    2  C9  UNL     1      -2.982  47.784 -18.901  1.00  0.00     0.007 C 
HETATM    3  C10 UNL     1      -3.105  48.033 -20.417  1.00  0.00     0.015 C 
HETATM    4  C11 UNL     1      -1.855  48.854 -20.798  1.00  0.00    -0.005 C 
HETATM    5  C12 UNL     1      -0.686  47.841 -20.997  1.00  0.00     0.021 C 
HETATM    6  C13 UNL     1      -1.847  49.699 -22.063  1.00  0.00    -0.000 C 
HETATM    7  C14 UNL     1      -1.101  50.831 -22.151  1.00  0.00    -0.060 C 
HETATM    8  C15 UNL     1      -0.293  51.328 -20.939  1.00  0.00     0.036 C 
HETATM    9  C16 UNL     1      -0.407  50.531 -19.621  1.00  0.00     0.015 C 
HETATM   10  C17 UNL     1      -1.743  49.786 -19.524  1.00  0.00    -0.028 C 
HETATM   11  C18 UNL     1      -2.881  50.845 -19.435  1.00  0.00     0.016 C 
HETATM   12  C19 UNL     1      -1.033  51.711 -23.432  1.00  0.00    -0.014 C 
HETATM   13  C20 UNL     1      -1.926  52.946 -23.178  1.00  0.00     0.020 C 
HETATM   14  C21 UNL     1       0.427  52.161 -23.701  1.00  0.00     0.021 C 
HETATM   15  C22 UNL     1       0.720  52.724 -25.088  1.00  0.00     0.080 C 
HETATM   16  C23 UNL     1      -0.482  52.845 -25.993  1.00  0.00     0.135 C 
HETATM   17  O1  UNL     1      -0.585  53.817 -26.743  1.00  0.00    -0.297 OA
HETATM   18  C24 UNL     1      -1.476  51.677 -26.037  1.00  0.00     0.018 C 
HETATM   19  C25 UNL     1      -1.009  50.746 -27.176  1.00  0.00     0.023 C 
HETATM   20  C26 UNL     1      -2.864  52.229 -26.428  1.00  0.00     0.023 C 
HETATM   21  C27 UNL     1      -1.476  50.886 -24.683  1.00  0.00     0.020 C 
HETATM   22  C28 UNL     1      -2.789  50.150 -24.416  1.00  0.00     0.090 C 
HETATM   23  C29 UNL     1      -2.648  49.228 -23.235  1.00  0.00     0.157 C 
HETATM   24  O2  UNL     1      -3.206  48.134 -23.235  1.00  0.00    -0.293 OA
ENDROOT
BRANCH   1  25
HETATM   25  C6  UNL     1      -2.057  49.140 -16.875  1.00  0.00    -0.014 C 
HETATM   26  C7  UNL     1      -2.794  50.456 -16.597  1.00  0.00     0.010 C 
BRANCH  25  27
HETATM   27  C5  UNL     1      -0.711  49.074 -16.114  1.00  0.00     0.008 C 
BRANCH  27  28
HETATM   28  C4  UNL     1      -0.292  50.380 -15.417  1.00  0.00     0.028 C 
BRANCH  28  29
HETATM   29  C3  UNL     1       0.608  51.258 -16.242  1.00  0.00    -0.022 C 
HETATM   30  C2  UNL     1       1.821  51.758 -15.918  1.00  0.00    -0.064 C 
HETATM   31  C1  UNL     1       2.513  51.531 -14.600  1.00  0.00     0.045 C 
BRANCH  30  32
HETATM   32  C30 UNL     1       2.623  52.647 -16.845  1.00  0.00     0.197 C 
BRANCH  32  33
HETATM   33  O3  UNL     1       1.857  53.118 -17.946  1.00  0.00    -0.397 OA
HETATM   34  H46 UNL     1       1.586  52.328 -18.444  1.00  0.00     0.209 HD
ENDBRANCH  32  33
ENDBRANCH  30  32
ENDBRANCH  28  29
ENDBRANCH  27  28
ENDBRANCH  25  27
ENDBRANCH   1  25
TORSDOF 6
ENDMDL
MODEL 6
REMARK minimizedAffinity -8.92476082
REMARK  6 active torsions:
REMARK  status: ('A' for Active; 'I' for Inactive)
REMARK    1  A    between atoms: C2_2  and  C30_32 
REMARK    2  A    between atoms: C3_3  and  C4_4 
REMARK    3  A    between atoms: C4_4  and  C5_5 
REMARK    4  A    between atoms: C5_5  and  C6_6 
REMARK    5  A    between atoms: C6_6  and  C8_8 
REMARK    6  A    between atoms: C30_32  and  O3_33 
ROOT
HETATM    1  C8  UNL     1      -5.296  48.860 -21.209  1.00  0.00    -0.002 C 
HETATM    2  C9  UNL     1      -4.292  49.070 -20.043  1.00  0.00     0.007 C 
HETATM    3  C10 UNL     1      -3.131  49.916 -20.599  1.00  0.00     0.015 C 
HETATM    4  C11 UNL     1      -3.642  50.476 -21.942  1.00  0.00    -0.005 C 
HETATM    5  C12 UNL     1      -4.490  51.744 -21.617  1.00  0.00     0.021 C 
HETATM    6  C13 UNL     1      -2.657  50.940 -23.006  1.00  0.00    -0.000 C 
HETATM    7  C14 UNL     1      -2.962  50.871 -24.329  1.00  0.00    -0.060 C 
HETATM    8  C15 UNL     1      -4.296  50.256 -24.790  1.00  0.00     0.036 C 
HETATM    9  C16 UNL     1      -5.233  49.676 -23.709  1.00  0.00     0.015 C 
HETATM   10  C17 UNL     1      -4.456  49.224 -22.468  1.00  0.00    -0.028 C 
HETATM   11  C18 UNL     1      -3.547  48.027 -22.874  1.00  0.00     0.016 C 
HETATM   12  C19 UNL     1      -2.005  51.362 -25.452  1.00  0.00    -0.014 C 
HETATM   13  C20 UNL     1      -1.358  50.104 -26.074  1.00  0.00     0.020 C 
HETATM   14  C21 UNL     1      -2.797  52.139 -26.535  1.00  0.00     0.021 C 
HETATM   15  C22 UNL     1      -1.973  52.979 -27.508  1.00  0.00     0.080 C 
HETATM   16  C23 UNL     1      -0.478  52.872 -27.333  1.00  0.00     0.135 C 
HETATM   17  O1  UNL     1       0.251  52.861 -28.326  1.00  0.00    -0.297 OA
HETATM   18  C24 UNL     1       0.089  52.909 -25.908  1.00  0.00     0.018 C 
HETATM   19  C25 UNL     1       0.397  54.388 -25.597  1.00  0.00     0.023 C 
HETATM   20  C26 UNL     1       1.429  52.142 -25.895  1.00  0.00     0.023 C 
HETATM   21  C27 UNL     1      -0.954  52.363 -24.873  1.00  0.00     0.020 C 
HETATM   22  C28 UNL     1      -0.308  51.806 -23.604  1.00  0.00     0.090 C 
HETATM   23  C29 UNL     1      -1.353  51.519 -22.560  1.00  0.00     0.157 C 
HETATM   24  O2  UNL     1      -1.116  51.733 -21.374  1.00  0.00    -0.293 OA
ENDROOT
BRANCH   1  25
HETATM   25  C6  UNL     1      -6.139  47.553 -21.087  1.00  0.00    -0.014 C 
HETATM   26  C7  UNL     1      -5.418  46.242 -21.423  1.00  0.00     0.010 C 
BRANCH  25  27
HETATM   27  C5  UNL     1      -7.480  47.674 -21.852  1.00  0.00     0.008 C 
BRANCH  27  28
HETATM   28  C4  UNL     1      -7.460  47.128 -23.290  1.00  0.00     0.028 C 
BRANCH  28  29
HETATM   29  C3  UNL     1      -8.444  47.791 -24.214  1.00  0.00    -0.022 C 
HETATM   30  C2  UNL     1      -8.353  47.968 -25.551  1.00  0.00    -0.064 C 
HETATM   31  C1  UNL     1      -7.184  47.527 -26.392  1.00  0.00     0.045 C 
BRANCH  30  32
HETATM   32  C30 UNL     1      -9.419  48.670 -26.366  1.00  0.00     0.197 C 
BRANCH  32  33
HETATM   33  O3  UNL     1      -9.564  50.038 -26.010  1.00  0.00    -0.397 OA
HETATM   34  H46 UNL     1      -9.841  50.046 -25.078  1.00  0.00     0.209 HD
ENDBRANCH  32  33
ENDBRANCH  30  32
ENDBRANCH  28  29
ENDBRANCH  27  28
ENDBRANCH  25  27
ENDBRANCH   1  25
TORSDOF 6
ENDMDL
MODEL 7
REMARK minimizedAffinity -8.90724087
REMARK  6 active torsions:
REMARK  status: ('A' for Active; 'I' for Inactive)
REMARK    1  A    between atoms: C2_2  and  C30_32 
REMARK    2  A    between atoms: C3_3  and  C4_4 
REMARK    3  A    between atoms: C4_4  and  C5_5 
REMARK    4  A    between atoms: C5_5  and  C6_6 
REMARK    5  A    between atoms: C6_6  and  C8_8 
REMARK    6  A    between atoms: C30_32  and  O3_33 
ROOT
HETATM    1  C8  UNL     1      -4.734  48.187 -20.302  1.00  0.00    -0.002 C 
HETATM    2  C9  UNL     1      -5.403  47.337 -21.416  1.00  0.00     0.007 C 
HETATM    3  C10 UNL     1      -4.761  47.763 -22.750  1.00  0.00     0.015 C 
HETATM    4  C11 UNL     1      -3.506  48.571 -22.360  1.00  0.00    -0.005 C 
HETATM    5  C12 UNL     1      -2.370  47.542 -22.071  1.00  0.00     0.021 C 
HETATM    6  C13 UNL     1      -2.888  49.554 -23.342  1.00  0.00    -0.000 C 
HETATM    7  C14 UNL     1      -2.224  50.659 -22.912  1.00  0.00    -0.060 C 
HETATM    8  C15 UNL     1      -2.137  50.980 -21.409  1.00  0.00     0.036 C 
HETATM    9  C16 UNL     1      -2.874  50.042 -20.429  1.00  0.00     0.015 C 
HETATM   10  C17 UNL     1      -4.064  49.346 -21.097  1.00  0.00    -0.028 C 
HETATM   11  C18 UNL     1      -5.119  50.432 -21.460  1.00  0.00     0.016 C 
HETATM   12  C19 UNL     1      -1.547  51.677 -23.874  1.00  0.00    -0.014 C 
HETATM   13  C20 UNL     1      -2.476  52.909 -23.952  1.00  0.00     0.020 C 
HETATM   14  C21 UNL     1      -0.157  52.096 -23.327  1.00  0.00     0.021 C 
HETATM   15  C22 UNL     1       0.774  52.801 -24.308  1.00  0.00     0.080 C 
HETATM   16  C23 UNL     1       0.180  53.073 -25.668  1.00  0.00     0.135 C 
HETATM   17  O1  UNL     1       0.442  54.129 -26.247  1.00  0.00    -0.297 OA
HETATM   18  C24 UNL     1      -0.634  51.959 -26.338  1.00  0.00     0.018 C 
HETATM   19  C25 UNL     1       0.358  51.147 -27.197  1.00  0.00     0.023 C 
HETATM   20  C26 UNL     1      -1.655  52.608 -27.297  1.00  0.00     0.023 C 
HETATM   21  C27 UNL     1      -1.290  51.019 -25.268  1.00  0.00     0.020 C 
HETATM   22  C28 UNL     1      -2.544  50.310 -25.779  1.00  0.00     0.090 C 
HETATM   23  C29 UNL     1      -2.990  49.254 -24.804  1.00  0.00     0.157 C 
HETATM   24  O2  UNL     1      -3.449  48.190 -25.212  1.00  0.00    -0.293 OA
ENDROOT
BRANCH   1  25
HETATM   25  C6  UNL     1      -5.640  48.413 -19.053  1.00  0.00    -0.014 C 
HETATM   26  C7  UNL     1      -5.197  47.729 -17.755  1.00  0.00     0.010 C 
BRANCH  25  27
HETATM   27  C5  UNL     1      -7.125  48.113 -19.372  1.00  0.00     0.008 C 
BRANCH  27  28
HETATM   28  C4  UNL     1      -8.135  49.103 -18.763  1.00  0.00     0.028 C 
BRANCH  28  29
HETATM   29  C3  UNL     1      -9.556  48.612 -18.765  1.00  0.00    -0.022 C 
HETATM   30  C2  UNL     1     -10.179  47.841 -17.846  1.00  0.00    -0.064 C 
HETATM   31  C1  UNL     1      -9.523  47.293 -16.605  1.00  0.00     0.045 C 
BRANCH  30  32
HETATM   32  C30 UNL     1     -11.624  47.404 -17.976  1.00  0.00     0.197 C 
BRANCH  32  33
HETATM   33  O3  UNL     1     -12.322  47.456 -16.739  1.00  0.00    -0.397 OA
HETATM   34  H46 UNL     1     -11.868  46.832 -16.147  1.00  0.00     0.209 HD
ENDBRANCH  32  33
ENDBRANCH  30  32
ENDBRANCH  28  29
ENDBRANCH  27  28
ENDBRANCH  25  27
ENDBRANCH   1  25
TORSDOF 6
ENDMDL
MODEL 8
REMARK minimizedAffinity -8.82827091
REMARK  6 active torsions:
REMARK  status: ('A' for Active; 'I' for Inactive)
REMARK    1  A    between atoms: C2_2  and  C30_32 
REMARK    2  A    between atoms: C3_3  and  C4_4 
REMARK    3  A    between atoms: C4_4  and  C5_5 
REMARK    4  A    between atoms: C5_5  and  C6_6 
REMARK    5  A    between atoms: C6_6  and  C8_8 
REMARK    6  A    between atoms: C30_32  and  O3_33 
ROOT
HETATM    1  C8  UNL     1      -2.030  50.624 -22.329  1.00  0.00    -0.002 C 
HETATM    2  C9  UNL     1      -1.480  52.055 -22.577  1.00  0.00     0.007 C 
HETATM    3  C10 UNL     1      -0.674  52.449 -21.324  1.00  0.00     0.015 C 
HETATM    4  C11 UNL     1      -0.470  51.136 -20.541  1.00  0.00    -0.005 C 
HETATM    5  C12 UNL     1       0.756  50.410 -21.175  1.00  0.00     0.021 C 
HETATM    6  C13 UNL     1      -0.164  51.168 -19.051  1.00  0.00    -0.000 C 
HETATM    7  C14 UNL     1      -0.547  50.157 -18.229  1.00  0.00    -0.060 C 
HETATM    8  C15 UNL     1      -1.366  48.975 -18.777  1.00  0.00     0.036 C 
HETATM    9  C16 UNL     1      -1.779  49.013 -20.265  1.00  0.00     0.015 C 
HETATM   10  C17 UNL     1      -1.875  50.449 -20.789  1.00  0.00    -0.028 C 
HETATM   11  C18 UNL     1      -3.045  51.159 -20.046  1.00  0.00     0.016 C 
HETATM   12  C19 UNL     1      -0.230  50.128 -16.706  1.00  0.00    -0.014 C 
HETATM   13  C20 UNL     1      -1.530  50.518 -15.968  1.00  0.00     0.020 C 
HETATM   14  C21 UNL     1       0.217  48.706 -16.275  1.00  0.00     0.021 C 
HETATM   15  C22 UNL     1       0.894  48.591 -14.912  1.00  0.00     0.080 C 
HETATM   16  C23 UNL     1       0.963  49.877 -14.125  1.00  0.00     0.135 C 
HETATM   17  O1  UNL     1       0.801  49.853 -12.904  1.00  0.00    -0.297 OA
HETATM   18  C24 UNL     1       1.363  51.159 -14.866  1.00  0.00     0.018 C 
HETATM   19  C25 UNL     1       2.895  51.279 -14.742  1.00  0.00     0.023 C 
HETATM   20  C26 UNL     1       0.742  52.365 -14.128  1.00  0.00     0.023 C 
HETATM   21  C27 UNL     1       0.965  51.081 -16.381  1.00  0.00     0.020 C 
HETATM   22  C28 UNL     1       0.759  52.454 -17.021  1.00  0.00     0.090 C 
HETATM   23  C29 UNL     1       0.614  52.327 -18.513  1.00  0.00     0.157 C 
HETATM   24  O2  UNL     1       1.103  53.174 -19.256  1.00  0.00    -0.293 OA
ENDROOT
BRANCH   1  25
HETATM   25  C6  UNL     1      -3.349  50.314 -23.101  1.00  0.00    -0.014 C 
HETATM   26  C7  UNL     1      -4.657  50.681 -22.391  1.00  0.00     0.010 C 
BRANCH  25  27
HETATM   27  C5  UNL     1      -3.372  48.852 -23.611  1.00  0.00     0.008 C 
BRANCH  27  28
HETATM   28  C4  UNL     1      -4.764  48.318 -23.993  1.00  0.00     0.028 C 
BRANCH  28  29
HETATM   29  C3  UNL     1      -5.073  48.403 -25.462  1.00  0.00    -0.022 C 
HETATM   30  C2  UNL     1      -4.210  48.452 -26.501  1.00  0.00    -0.064 C 
HETATM   31  C1  UNL     1      -2.709  48.452 -26.364  1.00  0.00     0.045 C 
BRANCH  30  32
HETATM   32  C30 UNL     1      -4.657  48.549 -27.945  1.00  0.00     0.197 C 
BRANCH  32  33
HETATM   33  O3  UNL     1      -6.039  48.260 -28.107  1.00  0.00    -0.397 OA
HETATM   34  H46 UNL     1      -6.159  47.341 -27.814  1.00  0.00     0.209 HD
ENDBRANCH  32  33
ENDBRANCH  30  32
ENDBRANCH  28  29
ENDBRANCH  27  28
ENDBRANCH  25  27
ENDBRANCH   1  25
TORSDOF 6
ENDMDL
MODEL 9
REMARK minimizedAffinity -8.8234024
REMARK  6 active torsions:
REMARK  status: ('A' for Active; 'I' for Inactive)
REMARK    1  A    between atoms: C2_2  and  C30_32 
REMARK    2  A    between atoms: C3_3  and  C4_4 
REMARK    3  A    between atoms: C4_4  and  C5_5 
REMARK    4  A    between atoms: C5_5  and  C6_6 
REMARK    5  A    between atoms: C6_6  and  C8_8 
REMARK    6  A    between atoms: C30_32  and  O3_33 
ROOT
HETATM    1  C8  UNL     1      -1.766  51.361 -22.491  1.00  0.00    -0.002 C 
HETATM    2  C9  UNL     1      -3.123  52.058 -22.782  1.00  0.00     0.007 C 
HETATM    3  C10 UNL     1      -4.206  51.257 -22.035  1.00  0.00     0.015 C 
HETATM    4  C11 UNL     1      -3.438  50.348 -21.053  1.00  0.00    -0.005 C 
HETATM    5  C12 UNL     1      -3.116  51.206 -19.791  1.00  0.00     0.021 C 
HETATM    6  C13 UNL     1      -4.089  49.089 -20.501  1.00  0.00    -0.000 C 
HETATM    7  C14 UNL     1      -3.348  48.003 -20.156  1.00  0.00    -0.060 C 
HETATM    8  C15 UNL     1      -1.825  47.996 -20.380  1.00  0.00     0.036 C 
HETATM    9  C16 UNL     1      -1.191  49.232 -21.056  1.00  0.00     0.015 C 
HETATM   10  C17 UNL     1      -2.194  49.963 -21.954  1.00  0.00    -0.028 C 
HETATM   11  C18 UNL     1      -2.562  49.021 -23.138  1.00  0.00     0.016 C 
HETATM   12  C19 UNL     1      -3.962  46.706 -19.557  1.00  0.00    -0.014 C 
HETATM   13  C20 UNL     1      -4.004  45.661 -20.694  1.00  0.00     0.020 C 
HETATM   14  C21 UNL     1      -3.085  46.182 -18.390  1.00  0.00     0.021 C 
HETATM   15  C22 UNL     1      -3.721  45.137 -17.478  1.00  0.00     0.080 C 
HETATM   16  C23 UNL     1      -5.102  44.689 -17.889  1.00  0.00     0.135 C 
HETATM   17  O1  UNL     1      -5.422  43.506 -17.760  1.00  0.00    -0.297 OA
HETATM   18  C24 UNL     1      -6.106  45.759 -18.337  1.00  0.00     0.018 C 
HETATM   19  C25 UNL     1      -6.880  46.190 -17.074  1.00  0.00     0.023 C 
HETATM   20  C26 UNL     1      -7.119  45.105 -19.302  1.00  0.00     0.023 C 
HETATM   21  C27 UNL     1      -5.371  47.001 -18.949  1.00  0.00     0.020 C 
HETATM   22  C28 UNL     1      -6.237  47.789 -19.932  1.00  0.00     0.090 C 
HETATM   23  C29 UNL     1      -5.571  49.087 -20.301  1.00  0.00     0.157 C 
HETATM   24  O2  UNL     1      -6.243  50.103 -20.460  1.00  0.00    -0.293 OA
ENDROOT
BRANCH   1  25
HETATM   25  C6  UNL     1      -0.701  51.560 -23.613  1.00  0.00    -0.014 C 
HETATM   26  C7  UNL     1       0.364  52.634 -23.360  1.00  0.00     0.010 C 
BRANCH  25  27
HETATM   27  C5  UNL     1      -1.370  51.741 -24.998  1.00  0.00     0.008 C 
BRANCH  27  28
HETATM   28  C4  UNL     1      -0.927  50.731 -26.071  1.00  0.00     0.028 C 
BRANCH  28  29
HETATM   29  C3  UNL     1       0.500  50.894 -26.518  1.00  0.00    -0.022 C 
HETATM   30  C2  UNL     1       1.001  51.756 -27.430  1.00  0.00    -0.064 C 
HETATM   31  C1  UNL     1       0.176  52.743 -28.214  1.00  0.00     0.045 C 
BRANCH  30  32
HETATM   32  C30 UNL     1       2.469  51.808 -27.800  1.00  0.00     0.197 C 
BRANCH  32  33
HETATM   33  O3  UNL     1       3.301  51.224 -26.808  1.00  0.00    -0.397 OA
HETATM   34  H46 UNL     1       3.173  51.754 -26.002  1.00  0.00     0.209 HD
ENDBRANCH  32  33
ENDBRANCH  30  32
ENDBRANCH  28  29
ENDBRANCH  27  28
ENDBRANCH  25  27
ENDBRANCH   1  25
TORSDOF 6
ENDMDL
