MODEL 1
REMARK minimizedAffinity -9.99322987
REMARK CNNscore 0.467006654
REMARK CNNaffinity 7.08148623
REMARK  11 active torsions:
REMARK  status: ('A' for Active; 'I' for Inactive)
REMARK    1  A    between atoms: C2_2  and  C4_4 
REMARK    2  A    between atoms: C4_4  and  C6_6 
REMARK    3  A    between atoms: C7_7  and  C8_8 
REMARK    4  A    between atoms: C8_8  and  C10_10 
REMARK    5  A    between atoms: C19_19  and  O1_20 
REMARK    6  A    between atoms: O1_20  and  C20_21 
REMARK    7  A    between atoms: C21_23  and  C22_24 
REMARK    8  A    between atoms: C22_24  and  O3_25 
REMARK    9  A    between atoms: C23_26  and  O4_27 
REMARK   10  A    between atoms: C24_28  and  O5_29 
REMARK   11  A    between atoms: C25_30  and  O6_31 
ROOT
HETATM    1  C10 UNL     1       0.175   7.027  14.394  1.00  0.00     0.001 C 
HETATM    2  C11 UNL     1      -0.067   7.347  15.891  1.00  0.00     0.006 C 
HETATM    3  C12 UNL     1      -1.460   7.958  16.007  1.00  0.00     0.009 C 
HETATM    4  C13 UNL     1      -2.087   7.936  14.604  1.00  0.00     0.036 C 
HETATM    5  C14 UNL     1      -3.630   7.771  14.592  1.00  0.00     0.123 C 
HETATM    6  C15 UNL     1      -4.318   8.776  15.494  1.00  0.00     0.014 C 
HETATM    7  C16 UNL     1      -5.654   8.735  15.445  1.00  0.00     0.014 C 
HETATM    8  C17 UNL     1      -6.191   7.718  14.461  1.00  0.00     0.124 C 
HETATM    9  C18 UNL     1      -7.718   7.793  14.373  1.00  0.00     0.078 C 
HETATM   10  C19 UNL     1      -8.408   7.267  15.636  1.00  0.00     0.128 C 
HETATM   11  C26 UNL     1      -7.888   5.889  16.070  1.00  0.00     0.033 C 
HETATM   12  C27 UNL     1      -6.359   5.791  16.099  1.00  0.00     0.015 C 
HETATM   13  C28 UNL     1      -5.692   6.266  14.779  1.00  0.00     0.001 C 
HETATM   14  C29 UNL     1      -6.107   5.290  13.642  1.00  0.00     0.019 C 
HETATM   15  C30 UNL     1      -4.111   6.336  14.959  1.00  0.00     0.039 C 
HETATM   16  C31 UNL     1      -3.324   5.259  14.186  1.00  0.00     0.010 C 
HETATM   17  C32 UNL     1      -1.812   5.425  14.307  1.00  0.00     0.010 C 
HETATM   18  C33 UNL     1      -1.295   6.827  13.862  1.00  0.00    -0.033 C 
HETATM   19  C34 UNL     1      -1.433   6.945  12.339  1.00  0.00     0.016 C 
HETATM   20  O7  UNL     1      -5.615   8.099  13.187  1.00  0.00    -0.223 OA
HETATM   21  O8  UNL     1      -4.112   8.027  13.240  1.00  0.00    -0.224 OA
ENDROOT
BRANCH  10  22
HETATM   22  O1  UNL     1      -9.802   7.145  15.327  1.00  0.00    -0.353 OA
BRANCH  22  23
HETATM   23  C20 UNL     1     -10.246   8.055  14.313  1.00  0.00     0.292 C 
HETATM   24  O2  UNL     1     -10.926   7.380  13.257  1.00  0.00    -0.348 OA
HETATM   25  C21 UNL     1     -12.346   7.214  13.400  1.00  0.00     0.179 C 
HETATM   26  C23 UNL     1     -13.079   8.554  13.655  1.00  0.00     0.180 C 
HETATM   27  C24 UNL     1     -12.144   9.700  14.083  1.00  0.00     0.183 C 
HETATM   28  C25 UNL     1     -11.074   9.160  15.016  1.00  0.00     0.204 C 
BRANCH  25  29
HETATM   29  C22 UNL     1     -12.701   6.135  14.441  1.00  0.00     0.198 C 
BRANCH  29  30
HETATM   30  O3  UNL     1     -13.994   5.591  14.160  1.00  0.00    -0.398 OA
HETATM   31  H33 UNL     1     -14.118   4.840  14.765  1.00  0.00     0.209 HD
ENDBRANCH  29  30
ENDBRANCH  25  29
BRANCH  26  32
HETATM   32  O4  UNL     1     -13.769   8.972  12.461  1.00  0.00    -0.390 OA
HETATM   33  H35 UNL     1     -13.088   9.439  11.930  1.00  0.00     0.210 HD
ENDBRANCH  26  32
BRANCH  27  34
HETATM   34  O5  UNL     1     -11.567  10.316  12.922  1.00  0.00    -0.390 OA
HETATM   35  H37 UNL     1     -11.204  11.178  13.199  1.00  0.00     0.210 HD
ENDBRANCH  27  34
BRANCH  28  36
HETATM   36  O6  UNL     1     -11.707   8.657  16.209  1.00  0.00    -0.388 OA
HETATM   37  H39 UNL     1     -11.044   8.050  16.599  1.00  0.00     0.210 HD
ENDBRANCH  28  36
ENDBRANCH  22  23
ENDBRANCH  10  22
BRANCH   1  38
HETATM   38  C8  UNL     1       1.094   8.113  13.728  1.00  0.00     0.008 C 
HETATM   39  C9  UNL     1       0.438   9.494  13.573  1.00  0.00     0.014 C 
BRANCH  38  40
HETATM   40  C7  UNL     1       1.584   7.746  12.329  1.00  0.00    -0.026 C 
HETATM   41  C6  UNL     1       1.065   8.203  11.175  1.00  0.00    -0.026 C 
BRANCH  41  42
HETATM   42  C4  UNL     1       1.472   7.915   9.743  1.00  0.00     0.007 C 
HETATM   43  C5  UNL     1       0.343   8.391   8.817  1.00  0.00     0.014 C 
BRANCH  42  44
HETATM   44  C2  UNL     1       1.986   6.505   9.327  1.00  0.00    -0.015 C 
HETATM   45  C1  UNL     1       3.004   5.860  10.271  1.00  0.00     0.010 C 
HETATM   46  C3  UNL     1       2.494   6.471   7.882  1.00  0.00     0.010 C 
ENDBRANCH  42  44
ENDBRANCH  41  42
ENDBRANCH  38  40
ENDBRANCH   1  38
TORSDOF 11
ENDMDL
MODEL 2
REMARK minimizedAffinity -8.05262566
REMARK CNNscore 0.332874835
REMARK CNNaffinity 6.636024
REMARK  11 active torsions:
REMARK  status: ('A' for Active; 'I' for Inactive)
REMARK    1  A    between atoms: C2_2  and  C4_4 
REMARK    2  A    between atoms: C4_4  and  C6_6 
REMARK    3  A    between atoms: C7_7  and  C8_8 
REMARK    4  A    between atoms: C8_8  and  C10_10 
REMARK    5  A    between atoms: C19_19  and  O1_20 
REMARK    6  A    between atoms: O1_20  and  C20_21 
REMARK    7  A    between atoms: C21_23  and  C22_24 
REMARK    8  A    between atoms: C22_24  and  O3_25 
REMARK    9  A    between atoms: C23_26  and  O4_27 
REMARK   10  A    between atoms: C24_28  and  O5_29 
REMARK   11  A    between atoms: C25_30  and  O6_31 
ROOT
HETATM    1  C10 UNL     1      -7.175   6.687  15.001  1.00  0.00     0.001 C 
HETATM    2  C11 UNL     1      -7.084   6.171  13.542  1.00  0.00     0.006 C 
HETATM    3  C12 UNL     1      -5.928   6.904  12.870  1.00  0.00     0.009 C 
HETATM    4  C13 UNL     1      -5.273   7.800  13.934  1.00  0.00     0.036 C 
HETATM    5  C14 UNL     1      -3.748   8.013  13.746  1.00  0.00     0.123 C 
HETATM    6  C15 UNL     1      -3.405   8.473  12.343  1.00  0.00     0.014 C 
HETATM    7  C16 UNL     1      -2.113   8.761  12.158  1.00  0.00     0.014 C 
HETATM    8  C17 UNL     1      -1.275   8.604  13.410  1.00  0.00     0.124 C 
HETATM    9  C18 UNL     1       0.170   9.048  13.162  1.00  0.00     0.078 C 
HETATM   10  C19 UNL     1       0.938   8.079  12.257  1.00  0.00     0.128 C 
HETATM   11  C26 UNL     1       0.817   6.618  12.710  1.00  0.00     0.033 C 
HETATM   12  C27 UNL     1      -0.621   6.187  13.020  1.00  0.00     0.015 C 
HETATM   13  C28 UNL     1      -1.350   7.151  13.994  1.00  0.00     0.001 C 
HETATM   14  C29 UNL     1      -0.636   7.085  15.373  1.00  0.00     0.019 C 
HETATM   15  C30 UNL     1      -2.891   6.761  14.100  1.00  0.00     0.039 C 
HETATM   16  C31 UNL     1      -3.312   6.149  15.450  1.00  0.00     0.010 C 
HETATM   17  C32 UNL     1      -4.812   5.883  15.542  1.00  0.00     0.010 C 
HETATM   18  C33 UNL     1      -5.691   7.143  15.277  1.00  0.00    -0.033 C 
HETATM   19  C34 UNL     1      -5.541   8.110  16.459  1.00  0.00     0.016 C 
HETATM   20  O7  UNL     1      -1.892   9.488  14.379  1.00  0.00    -0.223 OA
HETATM   21  O8  UNL     1      -3.314   9.070  14.649  1.00  0.00    -0.224 OA
ENDROOT
BRANCH  10  22
HETATM   22  O1  UNL     1       2.318   8.458  12.320  1.00  0.00    -0.353 OA
BRANCH  22  23
HETATM   23  C20 UNL     1       3.172   7.654  11.498  1.00  0.00     0.292 C 
HETATM   24  O2  UNL     1       3.790   8.420  10.467  1.00  0.00    -0.348 OA
HETATM   25  C21 UNL     1       5.054   9.028  10.778  1.00  0.00     0.179 C 
HETATM   26  C23 UNL     1       6.095   8.005  11.296  1.00  0.00     0.180 C 
HETATM   27  C24 UNL     1       5.480   6.664  11.735  1.00  0.00     0.183 C 
HETATM   28  C25 UNL     1       4.158   6.919  12.440  1.00  0.00     0.204 C 
BRANCH  25  29
HETATM   29  C22 UNL     1       4.898  10.243  11.712  1.00  0.00     0.198 C 
BRANCH  29  30
HETATM   30  O3  UNL     1       5.855  11.250  11.371  1.00  0.00    -0.398 OA
HETATM   31  H33 UNL     1       5.638  12.033  11.903  1.00  0.00     0.209 HD
ENDBRANCH  29  30
ENDBRANCH  25  29
BRANCH  26  32
HETATM   32  O4  UNL     1       7.066   7.728  10.268  1.00  0.00    -0.390 OA
HETATM   33  H35 UNL     1       6.651   7.033   9.714  1.00  0.00     0.210 HD
ENDBRANCH  26  32
BRANCH  27  34
HETATM   34  O5  UNL     1       5.311   5.809  10.594  1.00  0.00    -0.390 OA
HETATM   35  H37 UNL     1       5.177   4.902  10.927  1.00  0.00     0.210 HD
ENDBRANCH  27  34
BRANCH  28  36
HETATM   36  O6  UNL     1       4.408   7.685  13.634  1.00  0.00    -0.388 OA
HETATM   37  H39 UNL     1       3.541   8.086  13.852  1.00  0.00     0.210 HD
ENDBRANCH  28  36
ENDBRANCH  22  23
ENDBRANCH  10  22
BRANCH   1  38
HETATM   38  C8  UNL     1      -8.342   7.726  15.159  1.00  0.00     0.008 C 
HETATM   39  C9  UNL     1      -8.903   7.842  16.585  1.00  0.00     0.014 C 
BRANCH  38  40
HETATM   40  C7  UNL     1      -9.555   7.445  14.275  1.00  0.00    -0.026 C 
HETATM   41  C6  UNL     1     -10.650   8.222  14.181  1.00  0.00    -0.026 C 
BRANCH  41  42
HETATM   42  C4  UNL     1     -11.898   8.045  13.339  1.00  0.00     0.007 C 
HETATM   43  C5  UNL     1     -11.999   9.236  12.374  1.00  0.00     0.014 C 
BRANCH  42  44
HETATM   44  C2  UNL     1     -13.273   7.738  14.002  1.00  0.00    -0.015 C 
HETATM   45  C1  UNL     1     -13.402   8.117  15.479  1.00  0.00     0.010 C 
HETATM   46  C3  UNL     1     -13.720   6.290  13.776  1.00  0.00     0.010 C 
ENDBRANCH  42  44
ENDBRANCH  41  42
ENDBRANCH  38  40
ENDBRANCH   1  38
TORSDOF 11
ENDMDL
MODEL 3
REMARK minimizedAffinity -7.31374121
REMARK CNNscore 0.274463594
REMARK CNNaffinity 6.41305685
REMARK  11 active torsions:
REMARK  status: ('A' for Active; 'I' for Inactive)
REMARK    1  A    between atoms: C2_2  and  C4_4 
REMARK    2  A    between atoms: C4_4  and  C6_6 
REMARK    3  A    between atoms: C7_7  and  C8_8 
REMARK    4  A    between atoms: C8_8  and  C10_10 
REMARK    5  A    between atoms: C19_19  and  O1_20 
REMARK    6  A    between atoms: O1_20  and  C20_21 
REMARK    7  A    between atoms: C21_23  and  C22_24 
REMARK    8  A    between atoms: C22_24  and  O3_25 
REMARK    9  A    between atoms: C23_26  and  O4_27 
REMARK   10  A    between atoms: C24_28  and  O5_29 
REMARK   11  A    between atoms: C25_30  and  O6_31 
ROOT
HETATM    1  C10 UNL     1     -15.456   5.381  23.570  1.00  0.00     0.001 C 
HETATM    2  C11 UNL     1     -15.444   5.861  25.043  1.00  0.00     0.006 C 
HETATM    3  C12 UNL     1     -14.201   6.726  25.231  1.00  0.00     0.009 C 
HETATM    4  C13 UNL     1     -13.508   6.834  23.863  1.00  0.00     0.036 C 
HETATM    5  C14 UNL     1     -12.755   8.169  23.628  1.00  0.00     0.123 C 
HETATM    6  C15 UNL     1     -11.804   8.496  24.762  1.00  0.00     0.014 C 
HETATM    7  C16 UNL     1     -11.062   9.591  24.561  1.00  0.00     0.014 C 
HETATM    8  C17 UNL     1     -11.305  10.245  23.217  1.00  0.00     0.124 C 
HETATM    9  C18 UNL     1     -10.353  11.426  23.003  1.00  0.00     0.078 C 
HETATM   10  C19 UNL     1     -10.690  12.624  23.898  1.00  0.00     0.128 C 
HETATM   11  C26 UNL     1     -12.173  13.015  23.838  1.00  0.00     0.033 C 
HETATM   12  C27 UNL     1     -13.129  11.826  23.990  1.00  0.00     0.015 C 
HETATM   13  C28 UNL     1     -12.805  10.656  23.021  1.00  0.00     0.001 C 
HETATM   14  C29 UNL     1     -13.046  11.145  21.565  1.00  0.00     0.019 C 
HETATM   15  C30 UNL     1     -13.696   9.386  23.380  1.00  0.00     0.039 C 
HETATM   16  C31 UNL     1     -14.792   9.053  22.349  1.00  0.00     0.010 C 
HETATM   17  C32 UNL     1     -15.555   7.773  22.681  1.00  0.00     0.010 C 
HETATM   18  C33 UNL     1     -14.640   6.522  22.850  1.00  0.00    -0.033 C 
HETATM   19  C34 UNL     1     -14.086   6.126  21.475  1.00  0.00     0.016 C 
HETATM   20  O7  UNL     1     -11.014   9.209  22.246  1.00  0.00    -0.223 OA
HETATM   21  O8  UNL     1     -11.940   8.036  22.427  1.00  0.00    -0.224 OA
ENDROOT
BRANCH  10  22
HETATM   22  O1  UNL     1      -9.913  13.729  23.421  1.00  0.00    -0.353 OA
BRANCH  22  23
HETATM   23  C20 UNL     1      -8.809  14.064  24.271  1.00  0.00     0.292 C 
HETATM   24  O2  UNL     1      -7.593  13.477  23.815  1.00  0.00    -0.348 OA
HETATM   25  C21 UNL     1      -6.808  14.245  22.889  1.00  0.00     0.179 C 
HETATM   26  C23 UNL     1      -6.481  15.664  23.418  1.00  0.00     0.180 C 
HETATM   27  C24 UNL     1      -7.356  16.097  24.608  1.00  0.00     0.183 C 
HETATM   28  C25 UNL     1      -8.778  15.608  24.397  1.00  0.00     0.204 C 
BRANCH  25  29
HETATM   29  C22 UNL     1      -7.432  14.265  21.480  1.00  0.00     0.198 C 
BRANCH  29  30
HETATM   30  O3  UNL     1      -7.942  12.970  21.151  1.00  0.00    -0.398 OA
HETATM   31  H33 UNL     1      -8.426  13.065  20.314  1.00  0.00     0.209 HD
ENDBRANCH  29  30
ENDBRANCH  25  29
BRANCH  26  32
HETATM   32  O4  UNL     1      -5.104  15.726  23.837  1.00  0.00    -0.390 OA
HETATM   33  H35 UNL     1      -5.107  15.379  24.754  1.00  0.00     0.210 HD
ENDBRANCH  26  32
BRANCH  27  34
HETATM   34  O5  UNL     1      -6.800  15.589  25.830  1.00  0.00    -0.390 OA
HETATM   35  H37 UNL     1      -7.207  16.086  26.564  1.00  0.00     0.210 HD
ENDBRANCH  27  34
BRANCH  28  36
HETATM   36  O6  UNL     1      -9.318  16.239  23.219  1.00  0.00    -0.388 OA
HETATM   37  H39 UNL     1     -10.066  15.663  22.956  1.00  0.00     0.210 HD
ENDBRANCH  28  36
ENDBRANCH  22  23
ENDBRANCH  10  22
BRANCH   1  38
HETATM   38  C8  UNL     1     -14.962   3.894  23.458  1.00  0.00     0.008 C 
HETATM   39  C9  UNL     1     -15.993   2.845  23.904  1.00  0.00     0.014 C 
BRANCH  38  40
HETATM   40  C7  UNL     1     -13.707   3.589  24.272  1.00  0.00    -0.026 C 
HETATM   41  C6  UNL     1     -13.600   2.636  25.216  1.00  0.00    -0.026 C 
BRANCH  41  42
HETATM   42  C4  UNL     1     -12.412   2.244  26.073  1.00  0.00     0.007 C 
HETATM   43  C5  UNL     1     -11.491   1.345  25.234  1.00  0.00     0.014 C 
BRANCH  42  44
HETATM   44  C2  UNL     1     -12.615   1.664  27.503  1.00  0.00    -0.015 C 
HETATM   45  C1  UNL     1     -14.058   1.336  27.894  1.00  0.00     0.010 C 
HETATM   46  C3  UNL     1     -11.947   2.523  28.582  1.00  0.00     0.010 C 
ENDBRANCH  42  44
ENDBRANCH  41  42
ENDBRANCH  38  40
ENDBRANCH   1  38
TORSDOF 11
ENDMDL
MODEL 4
REMARK minimizedAffinity -7.93843412
REMARK CNNscore 0.271718442
REMARK CNNaffinity 5.94493818
REMARK  11 active torsions:
REMARK  status: ('A' for Active; 'I' for Inactive)
REMARK    1  A    between atoms: C2_2  and  C4_4 
REMARK    2  A    between atoms: C4_4  and  C6_6 
REMARK    3  A    between atoms: C7_7  and  C8_8 
REMARK    4  A    between atoms: C8_8  and  C10_10 
REMARK    5  A    between atoms: C19_19  and  O1_20 
REMARK    6  A    between atoms: O1_20  and  C20_21 
REMARK    7  A    between atoms: C21_23  and  C22_24 
REMARK    8  A    between atoms: C22_24  and  O3_25 
REMARK    9  A    between atoms: C23_26  and  O4_27 
REMARK   10  A    between atoms: C24_28  and  O5_29 
REMARK   11  A    between atoms: C25_30  and  O6_31 
ROOT
HETATM    1  C10 UNL     1      -2.419   9.169  15.362  1.00  0.00     0.001 C 
HETATM    2  C11 UNL     1      -1.628   7.915  15.814  1.00  0.00     0.006 C 
HETATM    3  C12 UNL     1      -0.229   8.378  16.211  1.00  0.00     0.009 C 
HETATM    4  C13 UNL     1      -0.198   9.909  16.076  1.00  0.00     0.036 C 
HETATM    5  C14 UNL     1       0.744  10.623  17.080  1.00  0.00     0.123 C 
HETATM    6  C15 UNL     1       2.141  10.035  17.071  1.00  0.00     0.014 C 
HETATM    7  C16 UNL     1       3.015  10.678  17.852  1.00  0.00     0.014 C 
HETATM    8  C17 UNL     1       2.427  11.888  18.547  1.00  0.00     0.124 C 
HETATM    9  C18 UNL     1       3.500  12.641  19.339  1.00  0.00     0.078 C 
HETATM   10  C19 UNL     1       3.962  11.873  20.582  1.00  0.00     0.128 C 
HETATM   11  C26 UNL     1       2.794  11.383  21.449  1.00  0.00     0.033 C 
HETATM   12  C27 UNL     1       1.688  10.683  20.651  1.00  0.00     0.015 C 
HETATM   13  C28 UNL     1       1.192  11.516  19.438  1.00  0.00     0.001 C 
HETATM   14  C29 UNL     1       0.506  12.803  19.976  1.00  0.00     0.019 C 
HETATM   15  C30 UNL     1       0.205  10.644  18.542  1.00  0.00     0.039 C 
HETATM   16  C31 UNL     1      -1.272  11.080  18.595  1.00  0.00     0.010 C 
HETATM   17  C32 UNL     1      -2.164  10.282  17.646  1.00  0.00     0.010 C 
HETATM   18  C33 UNL     1      -1.692  10.317  16.161  1.00  0.00    -0.033 C 
HETATM   19  C34 UNL     1      -1.934  11.724  15.598  1.00  0.00     0.016 C 
HETATM   20  O7  UNL     1       1.942  12.730  17.471  1.00  0.00    -0.223 OA
HETATM   21  O8  UNL     1       0.877  12.017  16.678  1.00  0.00    -0.224 OA
ENDROOT
BRANCH  10  22
HETATM   22  O1  UNL     1       4.750  12.782  21.361  1.00  0.00    -0.353 OA
BRANCH  22  23
HETATM   23  C20 UNL     1       6.009  12.238  21.777  1.00  0.00     0.292 C 
HETATM   24  O2  UNL     1       6.970  12.261  20.724  1.00  0.00    -0.348 OA
HETATM   25  C21 UNL     1       7.782  13.440  20.612  1.00  0.00     0.179 C 
HETATM   26  C23 UNL     1       8.517  13.784  21.931  1.00  0.00     0.180 C 
HETATM   27  C24 UNL     1       7.949  13.058  23.164  1.00  0.00     0.183 C 
HETATM   28  C25 UNL     1       6.435  12.993  23.061  1.00  0.00     0.204 C 
BRANCH  25  29
HETATM   29  C22 UNL     1       6.995  14.635  20.041  1.00  0.00     0.198 C 
BRANCH  29  30
HETATM   30  O3  UNL     1       7.192  14.722  18.627  1.00  0.00    -0.398 OA
HETATM   31  H33 UNL     1       6.586  15.408  18.302  1.00  0.00     0.209 HD
ENDBRANCH  29  30
ENDBRANCH  25  29
BRANCH  26  32
HETATM   32  O4  UNL     1       9.912  13.440  21.821  1.00  0.00    -0.390 OA
HETATM   33  H35 UNL     1       9.951  12.485  22.043  1.00  0.00     0.210 HD
ENDBRANCH  26  32
BRANCH  27  34
HETATM   34  O5  UNL     1       8.527  11.748  23.266  1.00  0.00    -0.390 OA
HETATM   35  H37 UNL     1       8.359  11.425  24.171  1.00  0.00     0.210 HD
ENDBRANCH  27  34
BRANCH  28  36
HETATM   36  O6  UNL     1       5.909  14.334  23.076  1.00  0.00    -0.388 OA
HETATM   37  H39 UNL     1       5.014  14.249  22.687  1.00  0.00     0.210 HD
ENDBRANCH  28  36
ENDBRANCH  22  23
ENDBRANCH  10  22
BRANCH   1  38
HETATM   38  C8  UNL     1      -2.497   9.251  13.796  1.00  0.00     0.008 C 
HETATM   39  C9  UNL     1      -3.749   8.602  13.185  1.00  0.00     0.014 C 
BRANCH  38  40
HETATM   40  C7  UNL     1      -1.319   8.599  13.075  1.00  0.00    -0.026 C 
HETATM   41  C6  UNL     1      -0.930   8.865  11.815  1.00  0.00    -0.026 C 
BRANCH  41  42
HETATM   42  C4  UNL     1       0.218   8.289  11.009  1.00  0.00     0.007 C 
HETATM   43  C5  UNL     1      -0.099   8.480   9.518  1.00  0.00     0.014 C 
BRANCH  42  44
HETATM   44  C2  UNL     1       0.753   6.855  11.293  1.00  0.00    -0.015 C 
HETATM   45  C1  UNL     1       2.092   6.500  10.643  1.00  0.00     0.010 C 
HETATM   46  C3  UNL     1      -0.291   5.773  11.001  1.00  0.00     0.010 C 
ENDBRANCH  42  44
ENDBRANCH  41  42
ENDBRANCH  38  40
ENDBRANCH   1  38
TORSDOF 11
ENDMDL
MODEL 5
REMARK minimizedAffinity -7.64897871
REMARK CNNscore 0.236728877
REMARK CNNaffinity 5.96753836
REMARK  11 active torsions:
REMARK  status: ('A' for Active; 'I' for Inactive)
REMARK    1  A    between atoms: C2_2  and  C4_4 
REMARK    2  A    between atoms: C4_4  and  C6_6 
REMARK    3  A    between atoms: C7_7  and  C8_8 
REMARK    4  A    between atoms: C8_8  and  C10_10 
REMARK    5  A    between atoms: C19_19  and  O1_20 
REMARK    6  A    between atoms: O1_20  and  C20_21 
REMARK    7  A    between atoms: C21_23  and  C22_24 
REMARK    8  A    between atoms: C22_24  and  O3_25 
REMARK    9  A    between atoms: C23_26  and  O4_27 
REMARK   10  A    between atoms: C24_28  and  O5_29 
REMARK   11  A    between atoms: C25_30  and  O6_31 
ROOT
HETATM    1  C10 UNL     1      -4.281  12.397  17.208  1.00  0.00     0.001 C 
HETATM    2  C11 UNL     1      -3.924  13.093  15.871  1.00  0.00     0.006 C 
HETATM    3  C12 UNL     1      -2.427  12.904  15.643  1.00  0.00     0.009 C 
HETATM    4  C13 UNL     1      -1.896  12.034  16.794  1.00  0.00     0.036 C 
HETATM    5  C14 UNL     1      -0.702  11.121  16.410  1.00  0.00     0.123 C 
HETATM    6  C15 UNL     1       0.414  11.894  15.735  1.00  0.00     0.014 C 
HETATM    7  C16 UNL     1       1.505  11.167  15.470  1.00  0.00     0.014 C 
HETATM    8  C17 UNL     1       1.404   9.733  15.944  1.00  0.00     0.124 C 
HETATM    9  C18 UNL     1       2.720   8.984  15.709  1.00  0.00     0.078 C 
HETATM   10  C19 UNL     1       2.985   8.710  14.224  1.00  0.00     0.128 C 
HETATM   11  C26 UNL     1       1.783   8.074  13.512  1.00  0.00     0.033 C 
HETATM   12  C27 UNL     1       0.454   8.784  13.795  1.00  0.00     0.015 C 
HETATM   13  C28 UNL     1       0.181   8.984  15.310  1.00  0.00     0.001 C 
HETATM   14  C29 UNL     1       0.004   7.586  15.965  1.00  0.00     0.019 C 
HETATM   15  C30 UNL     1      -1.100   9.908  15.518  1.00  0.00     0.039 C 
HETATM   16  C31 UNL     1      -2.339   9.178  16.072  1.00  0.00     0.010 C 
HETATM   17  C32 UNL     1      -3.510  10.119  16.349  1.00  0.00     0.010 C 
HETATM   18  C33 UNL     1      -3.158  11.295  17.311  1.00  0.00    -0.033 C 
HETATM   19  C34 UNL     1      -2.955  10.734  18.724  1.00  0.00     0.016 C 
HETATM   20  O7  UNL     1       1.155   9.833  17.368  1.00  0.00    -0.223 OA
HETATM   21  O8  UNL     1      -0.139  10.558  17.631  1.00  0.00    -0.224 OA
ENDROOT
BRANCH  10  22
HETATM   22  O1  UNL     1       4.083   7.792  14.162  1.00  0.00    -0.353 OA
BRANCH  22  23
HETATM   23  C20 UNL     1       4.991   8.057  13.085  1.00  0.00     0.292 C 
HETATM   24  O2  UNL     1       5.466   9.401  13.111  1.00  0.00    -0.348 OA
HETATM   25  C21 UNL     1       6.661   9.652  13.869  1.00  0.00     0.179 C 
HETATM   26  C23 UNL     1       7.839   8.742  13.443  1.00  0.00     0.180 C 
HETATM   27  C24 UNL     1       7.409   7.525  12.604  1.00  0.00     0.183 C 
HETATM   28  C25 UNL     1       6.099   6.975  13.141  1.00  0.00     0.204 C 
BRANCH  25  29
HETATM   29  C22 UNL     1       6.401   9.619  15.387  1.00  0.00     0.198 C 
BRANCH  29  30
HETATM   30  O3  UNL     1       5.781  10.838  15.805  1.00  0.00    -0.398 OA
HETATM   31  H33 UNL     1       5.532  10.720  16.737  1.00  0.00     0.209 HD
ENDBRANCH  29  30
ENDBRANCH  25  29
BRANCH  26  32
HETATM   32  O4  UNL     1       8.790   9.497  12.669  1.00  0.00    -0.390 OA
HETATM   33  H35 UNL     1       8.438   9.478  11.754  1.00  0.00     0.210 HD
ENDBRANCH  26  32
BRANCH  27  34
HETATM   34  O5  UNL     1       7.294   7.903  11.223  1.00  0.00    -0.390 OA
HETATM   35  H37 UNL     1       7.284   7.082  10.696  1.00  0.00     0.210 HD
ENDBRANCH  27  34
BRANCH  28  36
HETATM   36  O6  UNL     1       6.307   6.511  14.489  1.00  0.00    -0.388 OA
HETATM   37  H39 UNL     1       5.408   6.484  14.879  1.00  0.00     0.210 HD
ENDBRANCH  28  36
ENDBRANCH  22  23
ENDBRANCH  10  22
BRANCH   1  38
HETATM   38  C8  UNL     1      -4.435  13.447  18.366  1.00  0.00     0.008 C 
HETATM   39  C9  UNL     1      -3.107  13.966  18.937  1.00  0.00     0.014 C 
BRANCH  38  40
HETATM   40  C7  UNL     1      -5.215  12.936  19.575  1.00  0.00    -0.026 C 
HETATM   41  C6  UNL     1      -5.795  13.706  20.514  1.00  0.00    -0.026 C 
BRANCH  41  42
HETATM   42  C4  UNL     1      -6.593  13.310  21.741  1.00  0.00     0.007 C 
HETATM   43  C5  UNL     1      -8.077  13.255  21.351  1.00  0.00     0.014 C 
BRANCH  42  44
HETATM   44  C2  UNL     1      -6.392  14.048  23.097  1.00  0.00    -0.015 C 
HETATM   45  C1  UNL     1      -7.640  14.701  23.694  1.00  0.00     0.010 C 
HETATM   46  C3  UNL     1      -5.230  15.046  23.053  1.00  0.00     0.010 C 
ENDBRANCH  42  44
ENDBRANCH  41  42
ENDBRANCH  38  40
ENDBRANCH   1  38
TORSDOF 11
ENDMDL
MODEL 6
REMARK minimizedAffinity -7.84043646
REMARK CNNscore 0.228247941
REMARK CNNaffinity 7.09763718
REMARK  11 active torsions:
REMARK  status: ('A' for Active; 'I' for Inactive)
REMARK    1  A    between atoms: C2_2  and  C4_4 
REMARK    2  A    between atoms: C4_4  and  C6_6 
REMARK    3  A    between atoms: C7_7  and  C8_8 
REMARK    4  A    between atoms: C8_8  and  C10_10 
REMARK    5  A    between atoms: C19_19  and  O1_20 
REMARK    6  A    between atoms: O1_20  and  C20_21 
REMARK    7  A    between atoms: C21_23  and  C22_24 
REMARK    8  A    between atoms: C22_24  and  O3_25 
REMARK    9  A    between atoms: C23_26  and  O4_27 
REMARK   10  A    between atoms: C24_28  and  O5_29 
REMARK   11  A    between atoms: C25_30  and  O6_31 
ROOT
HETATM    1  C10 UNL     1      -5.365   6.061  14.953  1.00  0.00     0.001 C 
HETATM    2  C11 UNL     1      -6.028   5.382  16.177  1.00  0.00     0.006 C 
HETATM    3  C12 UNL     1      -7.226   6.238  16.580  1.00  0.00     0.009 C 
HETATM    4  C13 UNL     1      -7.333   7.383  15.561  1.00  0.00     0.036 C 
HETATM    5  C14 UNL     1      -8.781   7.874  15.297  1.00  0.00     0.123 C 
HETATM    6  C15 UNL     1      -9.516   8.201  16.581  1.00  0.00     0.014 C 
HETATM    7  C16 UNL     1     -10.737   8.718  16.401  1.00  0.00     0.014 C 
HETATM    8  C17 UNL     1     -11.103   8.905  14.944  1.00  0.00     0.124 C 
HETATM    9  C18 UNL     1     -12.463   9.597  14.806  1.00  0.00     0.078 C 
HETATM   10  C19 UNL     1     -13.629   8.691  15.214  1.00  0.00     0.128 C 
HETATM   11  C26 UNL     1     -13.574   7.311  14.545  1.00  0.00     0.033 C 
HETATM   12  C27 UNL     1     -12.198   6.642  14.627  1.00  0.00     0.015 C 
HETATM   13  C28 UNL     1     -11.044   7.560  14.141  1.00  0.00     0.001 C 
HETATM   14  C29 UNL     1     -11.238   7.828  12.622  1.00  0.00     0.019 C 
HETATM   15  C30 UNL     1      -9.636   6.883  14.453  1.00  0.00     0.039 C 
HETATM   16  C31 UNL     1      -8.869   6.386  13.211  1.00  0.00     0.010 C 
HETATM   17  C32 UNL     1      -7.485   5.836  13.547  1.00  0.00     0.010 C 
HETATM   18  C33 UNL     1      -6.578   6.843  14.318  1.00  0.00    -0.033 C 
HETATM   19  C34 UNL     1      -6.167   7.971  13.362  1.00  0.00     0.016 C 
HETATM   20  O7  UNL     1     -10.067   9.768  14.412  1.00  0.00    -0.223 OA
HETATM   21  O8  UNL     1      -8.717   9.110  14.527  1.00  0.00    -0.224 OA
ENDROOT
BRANCH  10  22
HETATM   22  O1  UNL     1     -14.831   9.348  14.794  1.00  0.00    -0.353 OA
BRANCH  22  23
HETATM   23  C20 UNL     1     -15.377   8.822  13.578  1.00  0.00     0.292 C 
HETATM   24  O2  UNL     1     -16.692   8.306  13.768  1.00  0.00    -0.348 OA
HETATM   25  C21 UNL     1     -17.783   9.223  13.585  1.00  0.00     0.179 C 
HETATM   26  C23 UNL     1     -17.745   9.926  12.206  1.00  0.00     0.180 C 
HETATM   27  C24 UNL     1     -16.387   9.809  11.489  1.00  0.00     0.183 C 
HETATM   28  C25 UNL     1     -15.265   9.933  12.504  1.00  0.00     0.204 C 
BRANCH  25  29
HETATM   29  C22 UNL     1     -17.906  10.216  14.756  1.00  0.00     0.198 C 
BRANCH  29  30
HETATM   30  O3  UNL     1     -17.933  11.557  14.260  1.00  0.00    -0.398 OA
HETATM   31  H33 UNL     1     -18.131  12.132  15.018  1.00  0.00     0.209 HD
ENDBRANCH  29  30
ENDBRANCH  25  29
BRANCH  26  32
HETATM   32  O4  UNL     1     -18.750   9.364  11.340  1.00  0.00    -0.390 OA
HETATM   33  H35 UNL     1     -18.328   8.568  10.952  1.00  0.00     0.210 HD
ENDBRANCH  26  32
BRANCH  27  34
HETATM   34  O5  UNL     1     -16.319   8.563  10.778  1.00  0.00    -0.390 OA
HETATM   35  H37 UNL     1     -15.586   8.633  10.138  1.00  0.00     0.210 HD
ENDBRANCH  27  34
BRANCH  28  36
HETATM   36  O6  UNL     1     -15.320  11.243  13.102  1.00  0.00    -0.388 OA
HETATM   37  H39 UNL     1     -14.819  11.150  13.938  1.00  0.00     0.210 HD
ENDBRANCH  28  36
ENDBRANCH  22  23
ENDBRANCH  10  22
BRANCH   1  38
HETATM   38  C8  UNL     1      -4.077   6.854  15.377  1.00  0.00     0.008 C 
HETATM   39  C9  UNL     1      -4.289   8.365  15.556  1.00  0.00     0.014 C 
BRANCH  38  40
HETATM   40  C7  UNL     1      -2.913   6.728  14.397  1.00  0.00    -0.026 C 
HETATM   41  C6  UNL     1      -2.592   5.620  13.703  1.00  0.00    -0.026 C 
BRANCH  41  42
HETATM   42  C4  UNL     1      -1.474   5.387  12.706  1.00  0.00     0.007 C 
HETATM   43  C5  UNL     1      -1.011   6.752  12.176  1.00  0.00     0.014 C 
BRANCH  42  44
HETATM   44  C2  UNL     1      -1.637   4.358  11.549  1.00  0.00    -0.015 C 
HETATM   45  C1  UNL     1      -3.061   3.860  11.293  1.00  0.00     0.010 C 
HETATM   46  C3  UNL     1      -0.668   3.178  11.675  1.00  0.00     0.010 C 
ENDBRANCH  42  44
ENDBRANCH  41  42
ENDBRANCH  38  40
ENDBRANCH   1  38
TORSDOF 11
ENDMDL
MODEL 7
REMARK minimizedAffinity -7.61656904
REMARK CNNscore 0.210439384
REMARK CNNaffinity 6.22307539
REMARK  11 active torsions:
REMARK  status: ('A' for Active; 'I' for Inactive)
REMARK    1  A    between atoms: C2_2  and  C4_4 
REMARK    2  A    between atoms: C4_4  and  C6_6 
REMARK    3  A    between atoms: C7_7  and  C8_8 
REMARK    4  A    between atoms: C8_8  and  C10_10 
REMARK    5  A    between atoms: C19_19  and  O1_20 
REMARK    6  A    between atoms: O1_20  and  C20_21 
REMARK    7  A    between atoms: C21_23  and  C22_24 
REMARK    8  A    between atoms: C22_24  and  O3_25 
REMARK    9  A    between atoms: C23_26  and  O4_27 
REMARK   10  A    between atoms: C24_28  and  O5_29 
REMARK   11  A    between atoms: C25_30  and  O6_31 
ROOT
HETATM    1  C10 UNL     1      -0.394   7.245  13.702  1.00  0.00     0.001 C 
HETATM    2  C11 UNL     1       0.653   8.382  13.582  1.00  0.00     0.006 C 
HETATM    3  C12 UNL     1      -0.080   9.701  13.808  1.00  0.00     0.009 C 
HETATM    4  C13 UNL     1      -1.542   9.362  14.139  1.00  0.00     0.036 C 
HETATM    5  C14 UNL     1      -2.233  10.366  15.099  1.00  0.00     0.123 C 
HETATM    6  C15 UNL     1      -2.086  11.799  14.629  1.00  0.00     0.014 C 
HETATM    7  C16 UNL     1      -2.745  12.693  15.374  1.00  0.00     0.014 C 
HETATM    8  C17 UNL     1      -3.534  12.071  16.506  1.00  0.00     0.124 C 
HETATM    9  C18 UNL     1      -4.348  13.131  17.254  1.00  0.00     0.078 C 
HETATM   10  C19 UNL     1      -3.470  14.072  18.085  1.00  0.00     0.128 C 
HETATM   11  C26 UNL     1      -2.474  13.322  18.980  1.00  0.00     0.033 C 
HETATM   12  C27 UNL     1      -1.701  12.218  18.250  1.00  0.00     0.015 C 
HETATM   13  C28 UNL     1      -2.623  11.239  17.474  1.00  0.00     0.001 C 
HETATM   14  C29 UNL     1      -3.494  10.466  18.504  1.00  0.00     0.019 C 
HETATM   15  C30 UNL     1      -1.747  10.257  16.576  1.00  0.00     0.039 C 
HETATM   16  C31 UNL     1      -1.719   8.794  17.058  1.00  0.00     0.010 C 
HETATM   17  C32 UNL     1      -0.952   7.871  16.114  1.00  0.00     0.010 C 
HETATM   18  C33 UNL     1      -1.475   7.897  14.646  1.00  0.00    -0.033 C 
HETATM   19  C34 UNL     1      -2.846   7.211  14.597  1.00  0.00     0.016 C 
HETATM   20  O7  UNL     1      -4.435  11.139  15.858  1.00  0.00    -0.223 OA
HETATM   21  O8  UNL     1      -3.661  10.078  15.120  1.00  0.00    -0.224 OA
ENDROOT
BRANCH  10  22
HETATM   22  O1  UNL     1      -4.351  14.828  18.925  1.00  0.00    -0.353 OA
BRANCH  22  23
HETATM   23  C20 UNL     1      -5.418  14.051  19.483  1.00  0.00     0.292 C 
HETATM   24  O2  UNL     1      -5.049  13.462  20.727  1.00  0.00    -0.348 OA
HETATM   25  C21 UNL     1      -5.305  14.233  21.912  1.00  0.00     0.179 C 
HETATM   26  C23 UNL     1      -6.783  14.684  22.021  1.00  0.00     0.180 C 
HETATM   27  C24 UNL     1      -7.565  14.564  20.701  1.00  0.00     0.183 C 
HETATM   28  C25 UNL     1      -6.669  14.963  19.541  1.00  0.00     0.204 C 
BRANCH  25  29
HETATM   29  C22 UNL     1      -4.313  15.401  22.068  1.00  0.00     0.198 C 
BRANCH  29  30
HETATM   30  O3  UNL     1      -3.580  15.262  23.288  1.00  0.00    -0.398 OA
HETATM   31  H33 UNL     1      -2.893  15.948  23.281  1.00  0.00     0.209 HD
ENDBRANCH  29  30
ENDBRANCH  25  29
BRANCH  26  32
HETATM   32  O4  UNL     1      -7.467  13.893  23.012  1.00  0.00    -0.390 OA
HETATM   33  H35 UNL     1      -7.744  13.082  22.536  1.00  0.00     0.210 HD
ENDBRANCH  26  32
BRANCH  27  34
HETATM   34  O5  UNL     1      -8.059  13.224  20.548  1.00  0.00    -0.390 OA
HETATM   35  H37 UNL     1      -8.753  13.246  19.863  1.00  0.00     0.210 HD
ENDBRANCH  27  34
BRANCH  28  36
HETATM   36  O6  UNL     1      -6.299  16.347  19.693  1.00  0.00    -0.388 OA
HETATM   37  H39 UNL     1      -5.497  16.446  19.139  1.00  0.00     0.210 HD
ENDBRANCH  28  36
ENDBRANCH  22  23
ENDBRANCH  10  22
BRANCH   1  38
HETATM   38  C8  UNL     1      -0.824   6.724  12.284  1.00  0.00     0.008 C 
HETATM   39  C9  UNL     1      -0.402   5.277  11.983  1.00  0.00     0.014 C 
BRANCH  38  40
HETATM   40  C7  UNL     1      -0.275   7.548  11.121  1.00  0.00    -0.026 C 
HETATM   41  C6  UNL     1       0.616   7.117  10.210  1.00  0.00    -0.026 C 
BRANCH  41  42
HETATM   42  C4  UNL     1       1.218   7.839   9.021  1.00  0.00     0.007 C 
HETATM   43  C5  UNL     1       0.069   8.362   8.145  1.00  0.00     0.014 C 
BRANCH  42  44
HETATM   44  C2  UNL     1       2.327   7.170   8.157  1.00  0.00    -0.015 C 
HETATM   45  C1  UNL     1       1.962   6.896   6.696  1.00  0.00     0.010 C 
HETATM   46  C3  UNL     1       2.899   5.910   8.814  1.00  0.00     0.010 C 
ENDBRANCH  42  44
ENDBRANCH  41  42
ENDBRANCH  38  40
ENDBRANCH   1  38
TORSDOF 11
ENDMDL
MODEL 8
REMARK minimizedAffinity -7.38141966
REMARK CNNscore 0.207145318
REMARK CNNaffinity 5.92174006
REMARK  11 active torsions:
REMARK  status: ('A' for Active; 'I' for Inactive)
REMARK    1  A    between atoms: C2_2  and  C4_4 
REMARK    2  A    between atoms: C4_4  and  C6_6 
REMARK    3  A    between atoms: C7_7  and  C8_8 
REMARK    4  A    between atoms: C8_8  and  C10_10 
REMARK    5  A    between atoms: C19_19  and  O1_20 
REMARK    6  A    between atoms: O1_20  and  C20_21 
REMARK    7  A    between atoms: C21_23  and  C22_24 
REMARK    8  A    between atoms: C22_24  and  O3_25 
REMARK    9  A    between atoms: C23_26  and  O4_27 
REMARK   10  A    between atoms: C24_28  and  O5_29 
REMARK   11  A    between atoms: C25_30  and  O6_31 
ROOT
HETATM    1  C10 UNL     1      -3.637   8.235  15.402  1.00  0.00     0.001 C 
HETATM    2  C11 UNL     1      -2.751   7.110  15.993  1.00  0.00     0.006 C 
HETATM    3  C12 UNL     1      -1.363   7.699  16.230  1.00  0.00     0.009 C 
HETATM    4  C13 UNL     1      -1.429   9.189  15.860  1.00  0.00     0.036 C 
HETATM    5  C14 UNL     1      -0.481  10.099  16.685  1.00  0.00     0.123 C 
HETATM    6  C15 UNL     1       0.945   9.588  16.683  1.00  0.00     0.014 C 
HETATM    7  C16 UNL     1       1.818  10.389  17.303  1.00  0.00     0.014 C 
HETATM    8  C17 UNL     1       1.195  11.661  17.836  1.00  0.00     0.124 C 
HETATM    9  C18 UNL     1       2.261  12.582  18.439  1.00  0.00     0.078 C 
HETATM   10  C19 UNL     1       2.831  12.044  19.755  1.00  0.00     0.128 C 
HETATM   11  C26 UNL     1       1.739  11.637  20.755  1.00  0.00     0.033 C 
HETATM   12  C27 UNL     1       0.637  10.766  20.141  1.00  0.00     0.015 C 
HETATM   13  C28 UNL     1       0.031  11.372  18.846  1.00  0.00     0.001 C 
HETATM   14  C29 UNL     1      -0.701  12.691  19.219  1.00  0.00     0.019 C 
HETATM   15  C30 UNL     1      -0.946  10.321  18.155  1.00  0.00     0.039 C 
HETATM   16  C31 UNL     1      -2.442  10.685  18.228  1.00  0.00     0.010 C 
HETATM   17  C32 UNL     1      -3.332   9.704  17.468  1.00  0.00     0.010 C 
HETATM   18  C33 UNL     1      -2.939   9.530  15.969  1.00  0.00    -0.033 C 
HETATM   19  C34 UNL     1      -3.292  10.817  15.213  1.00  0.00     0.016 C 
HETATM   20  O7  UNL     1       0.607  12.298  16.675  1.00  0.00    -0.223 OA
HETATM   21  O8  UNL     1      -0.452  11.418  16.066  1.00  0.00    -0.224 OA
ENDROOT
BRANCH  10  22
HETATM   22  O1  UNL     1       3.602  13.102  20.337  1.00  0.00    -0.353 OA
BRANCH  22  23
HETATM   23  C20 UNL     1       3.033  14.402  20.139  1.00  0.00     0.292 C 
HETATM   24  O2  UNL     1       2.136  14.752  21.189  1.00  0.00    -0.348 OA
HETATM   25  C21 UNL     1       2.697  15.428  22.325  1.00  0.00     0.179 C 
HETATM   26  C23 UNL     1       3.485  16.702  21.931  1.00  0.00     0.180 C 
HETATM   27  C24 UNL     1       3.833  16.775  20.433  1.00  0.00     0.183 C 
HETATM   28  C25 UNL     1       4.207  15.391  19.931  1.00  0.00     0.204 C 
BRANCH  25  29
HETATM   29  C22 UNL     1       3.515  14.477  23.220  1.00  0.00     0.198 C 
BRANCH  29  30
HETATM   30  O3  UNL     1       4.844  14.980  23.385  1.00  0.00    -0.398 OA
HETATM   31  H33 UNL     1       5.276  14.415  24.046  1.00  0.00     0.209 HD
ENDBRANCH  29  30
ENDBRANCH  25  29
BRANCH  26  32
HETATM   32  O4  UNL     1       2.718  17.876  22.262  1.00  0.00    -0.390 OA
HETATM   33  H35 UNL     1       2.117  18.005  21.498  1.00  0.00     0.210 HD
ENDBRANCH  26  32
BRANCH  27  34
HETATM   34  O5  UNL     1       2.724  17.319  19.701  1.00  0.00    -0.390 OA
HETATM   35  H37 UNL     1       3.059  17.595  18.828  1.00  0.00     0.210 HD
ENDBRANCH  27  34
BRANCH  28  36
HETATM   36  O6  UNL     1       5.391  14.949  20.624  1.00  0.00    -0.388 OA
HETATM   37  H39 UNL     1       5.387  13.975  20.514  1.00  0.00     0.210 HD
ENDBRANCH  28  36
ENDBRANCH  22  23
ENDBRANCH  10  22
BRANCH   1  38
HETATM   38  C8  UNL     1      -3.799   8.067  13.848  1.00  0.00     0.008 C 
HETATM   39  C9  UNL     1      -5.181   8.463  13.306  1.00  0.00     0.014 C 
BRANCH  38  40
HETATM   40  C7  UNL     1      -3.567   6.644  13.345  1.00  0.00    -0.026 C 
HETATM   41  C6  UNL     1      -4.517   5.702  13.199  1.00  0.00    -0.026 C 
BRANCH  41  42
HETATM   42  C4  UNL     1      -4.402   4.273  12.706  1.00  0.00     0.007 C 
HETATM   43  C5  UNL     1      -3.133   4.162  11.847  1.00  0.00     0.014 C 
BRANCH  42  44
HETATM   44  C2  UNL     1      -5.609   3.564  12.023  1.00  0.00    -0.015 C 
HETATM   45  C1  UNL     1      -6.864   3.405  12.884  1.00  0.00     0.010 C 
HETATM   46  C3  UNL     1      -5.217   2.227  11.388  1.00  0.00     0.010 C 
ENDBRANCH  42  44
ENDBRANCH  41  42
ENDBRANCH  38  40
ENDBRANCH   1  38
TORSDOF 11
ENDMDL
MODEL 9
REMARK minimizedAffinity -7.2915473
REMARK CNNscore 0.192184895
REMARK CNNaffinity 5.96672487
REMARK  11 active torsions:
REMARK  status: ('A' for Active; 'I' for Inactive)
REMARK    1  A    between atoms: C2_2  and  C4_4 
REMARK    2  A    between atoms: C4_4  and  C6_6 
REMARK    3  A    between atoms: C7_7  and  C8_8 
REMARK    4  A    between atoms: C8_8  and  C10_10 
REMARK    5  A    between atoms: C19_19  and  O1_20 
REMARK    6  A    between atoms: O1_20  and  C20_21 
REMARK    7  A    between atoms: C21_23  and  C22_24 
REMARK    8  A    between atoms: C22_24  and  O3_25 
REMARK    9  A    between atoms: C23_26  and  O4_27 
REMARK   10  A    between atoms: C24_28  and  O5_29 
REMARK   11  A    between atoms: C25_30  and  O6_31 
ROOT
HETATM    1  C10 UNL     1      -8.918  -8.281  -4.595  1.00  0.00     0.001 C 
HETATM    2  C11 UNL     1      -8.190  -7.092  -3.919  1.00  0.00     0.006 C 
HETATM    3  C12 UNL     1      -8.062  -7.420  -2.435  1.00  0.00     0.009 C 
HETATM    4  C13 UNL     1      -8.636  -8.831  -2.227  1.00  0.00     0.036 C 
HETATM    5  C14 UNL     1      -7.964  -9.636  -1.084  1.00  0.00     0.123 C 
HETATM    6  C15 UNL     1      -7.918  -8.856   0.214  1.00  0.00     0.014 C 
HETATM    7  C16 UNL     1      -7.432  -9.544   1.253  1.00  0.00     0.014 C 
HETATM    8  C17 UNL     1      -7.071 -10.974   0.914  1.00  0.00     0.124 C 
HETATM    9  C18 UNL     1      -6.622 -11.738   2.164  1.00  0.00     0.078 C 
HETATM   10  C19 UNL     1      -5.254 -11.278   2.676  1.00  0.00     0.128 C 
HETATM   11  C26 UNL     1      -4.188 -11.233   1.572  1.00  0.00     0.033 C 
HETATM   12  C27 UNL     1      -4.655 -10.524   0.295  1.00  0.00     0.015 C 
HETATM   13  C28 UNL     1      -6.011 -11.060  -0.238  1.00  0.00     0.001 C 
HETATM   14  C29 UNL     1      -5.813 -12.536  -0.683  1.00  0.00     0.019 C 
HETATM   15  C30 UNL     1      -6.531 -10.141  -1.431  1.00  0.00     0.039 C 
HETATM   16  C31 UNL     1      -6.484 -10.801  -2.823  1.00  0.00     0.010 C 
HETATM   17  C32 UNL     1      -7.083  -9.924  -3.919  1.00  0.00     0.010 C 
HETATM   18  C33 UNL     1      -8.549  -9.476  -3.635  1.00  0.00    -0.033 C 
HETATM   19  C34 UNL     1      -9.473 -10.694  -3.765  1.00  0.00     0.016 C 
HETATM   20  O7  UNL     1      -8.300 -11.554   0.409  1.00  0.00    -0.223 OA
HETATM   21  O8  UNL     1      -8.762 -10.828  -0.827  1.00  0.00    -0.224 OA
ENDROOT
BRANCH  10  22
HETATM   22  O1  UNL     1      -4.839 -12.230   3.663  1.00  0.00    -0.353 OA
BRANCH  22  23
HETATM   23  C20 UNL     1      -3.773 -11.763   4.498  1.00  0.00     0.292 C 
HETATM   24  O2  UNL     1      -3.966 -10.408   4.896  1.00  0.00    -0.348 OA
HETATM   25  C21 UNL     1      -4.700 -10.186   6.111  1.00  0.00     0.179 C 
HETATM   26  C23 UNL     1      -4.102 -10.952   7.316  1.00  0.00     0.180 C 
HETATM   27  C24 UNL     1      -3.120 -12.067   6.915  1.00  0.00     0.183 C 
HETATM   28  C25 UNL     1      -3.630 -12.769   5.668  1.00  0.00     0.204 C 
BRANCH  25  29
HETATM   29  C22 UNL     1      -6.209 -10.443   5.931  1.00  0.00     0.198 C 
BRANCH  29  30
HETATM   30  O3  UNL     1      -6.697 -11.261   6.998  1.00  0.00    -0.398 OA
HETATM   31  H33 UNL     1      -7.663 -11.293   6.905  1.00  0.00     0.209 HD
ENDBRANCH  29  30
ENDBRANCH  25  29
BRANCH  26  32
HETATM   32  O4  UNL     1      -3.401 -10.038   8.181  1.00  0.00    -0.390 OA
HETATM   33  H35 UNL     1      -2.508  -9.954   7.785  1.00  0.00     0.210 HD
ENDBRANCH  26  32
BRANCH  27  34
HETATM   34  O5  UNL     1      -1.812 -11.512   6.709  1.00  0.00    -0.390 OA
HETATM   35  H37 UNL     1      -1.176 -12.252   6.720  1.00  0.00     0.210 HD
ENDBRANCH  27  34
BRANCH  28  36
HETATM   36  O6  UNL     1      -4.890 -13.399   5.971  1.00  0.00    -0.388 OA
HETATM   37  H39 UNL     1      -5.309 -13.536   5.096  1.00  0.00     0.210 HD
ENDBRANCH  28  36
ENDBRANCH  22  23
ENDBRANCH  10  22
BRANCH   1  38
HETATM   38  C8  UNL     1     -10.429  -7.942  -4.856  1.00  0.00     0.008 C 
HETATM   39  C9  UNL     1     -10.965  -8.422  -6.214  1.00  0.00     0.014 C 
BRANCH  38  40
HETATM   40  C7  UNL     1     -10.754  -6.451  -4.805  1.00  0.00    -0.026 C 
HETATM   41  C6  UNL     1     -10.021  -5.472  -5.368  1.00  0.00    -0.026 C 
BRANCH  41  42
HETATM   42  C4  UNL     1     -10.251  -3.974  -5.387  1.00  0.00     0.007 C 
HETATM   43  C5  UNL     1     -11.741  -3.720  -5.662  1.00  0.00     0.014 C 
BRANCH  42  44
HETATM   44  C2  UNL     1      -9.351  -3.038  -6.246  1.00  0.00    -0.015 C 
HETATM   45  C1  UNL     1      -8.340  -2.187  -5.474  1.00  0.00     0.010 C 
HETATM   46  C3  UNL     1     -10.164  -2.167  -7.208  1.00  0.00     0.010 C 
ENDBRANCH  42  44
ENDBRANCH  41  42
ENDBRANCH  38  40
ENDBRANCH   1  38
TORSDOF 11
ENDMDL
