MODEL 1
REMARK minimizedAffinity -7.29000902
REMARK CNNscore 0.853376508
REMARK CNNaffinity 6.88010359
REMARK  8 active torsions:
REMARK  status: ('A' for Active; 'I' for Inactive)
REMARK    1  A    between atoms: C2_2  and  C3_3 
REMARK    2  A    between atoms: C2_2  and  C27_30 
REMARK    3  A    between atoms: C3_3  and  C4_4 
REMARK    4  A    between atoms: C4_4  and  C5_5 
REMARK    5  A    between atoms: C5_5  and  C7_7 
REMARK    6  A    between atoms: C26_28  and  O3_29 
REMARK    7  A    between atoms: C27_30  and  C29_32 
REMARK    8  A    between atoms: C29_32  and  O5_34 
ROOT
HETATM    1  C7  UNL     1       3.325  56.558  -9.023  1.00  0.00    -0.002 C 
HETATM    2  C8  UNL     1       4.167  56.130 -10.255  1.00  0.00     0.006 C 
HETATM    3  C9  UNL     1       3.323  55.109 -11.026  1.00  0.00     0.010 C 
HETATM    4  C10 UNL     1       1.928  55.217 -10.403  1.00  0.00     0.027 C 
HETATM    5  C11 UNL     1       0.835  54.192 -10.653  1.00  0.00    -0.036 C 
HETATM    6  C12 UNL     1      -0.201  54.066  -9.783  1.00  0.00     0.002 C 
HETATM    7  C13 UNL     1      -0.160  54.846  -8.480  1.00  0.00     0.157 C 
HETATM    8  O1  UNL     1      -1.030  54.690  -7.623  1.00  0.00    -0.293 OA
HETATM    9  C14 UNL     1       0.946  55.858  -8.236  1.00  0.00     0.093 C 
HETATM   10  C15 UNL     1       2.252  55.432  -8.900  1.00  0.00    -0.026 C 
HETATM   11  C16 UNL     1       2.789  54.151  -8.223  1.00  0.00     0.016 C 
HETATM   12  C17 UNL     1      -1.429  53.163 -10.046  1.00  0.00    -0.008 C 
HETATM   13  C18 UNL     1      -1.234  51.889  -9.182  1.00  0.00     0.021 C 
HETATM   14  C19 UNL     1      -2.774  53.856  -9.643  1.00  0.00     0.022 C 
HETATM   15  C20 UNL     1      -3.995  53.505 -10.492  1.00  0.00     0.080 C 
HETATM   16  C21 UNL     1      -3.904  52.119 -11.068  1.00  0.00     0.131 C 
HETATM   17  O2  UNL     1      -4.830  51.315 -10.961  1.00  0.00    -0.298 OA
HETATM   18  C22 UNL     1      -2.653  51.789 -11.867  1.00  0.00     0.056 C 
HETATM   19  C23 UNL     1      -3.030  51.726 -13.348  1.00  0.00     0.018 C 
HETATM   20  C24 UNL     1      -1.536  52.821 -11.575  1.00  0.00     0.012 C 
HETATM   21  C25 UNL     1      -0.189  52.361 -12.129  1.00  0.00     0.042 C 
HETATM   22  C26 UNL     1       0.889  53.430 -11.956  1.00  0.00     0.148 C 
ENDROOT
BRANCH   1  23
HETATM   23  C5  UNL     1       4.197  57.048  -7.833  1.00  0.00    -0.014 C 
HETATM   24  C6  UNL     1       5.549  56.341  -7.654  1.00  0.00     0.010 C 
BRANCH  23  25
HETATM   25  C4  UNL     1       3.472  57.063  -6.469  1.00  0.00     0.009 C 
BRANCH  25  26
HETATM   26  C3  UNL     1       2.895  58.406  -5.995  1.00  0.00     0.034 C 
BRANCH  26  27
HETATM   27  C2  UNL     1       2.952  58.642  -4.494  1.00  0.00    -0.075 C 
HETATM   28  C1  UNL     1       1.866  58.366  -3.747  1.00  0.00     0.015 C 
BRANCH  27  29
HETATM   29  C27 UNL     1       4.248  59.221  -3.926  1.00  0.00     0.107 C 
HETATM   30  C28 UNL     1       5.085  58.295  -3.036  1.00  0.00     0.026 C 
BRANCH  29  31
HETATM   31  C29 UNL     1       3.971  60.530  -3.196  1.00  0.00     0.147 C 
HETATM   32  O4  UNL     1       3.776  60.644  -1.993  1.00  0.00    -0.650 OA
BRANCH  31  33
HETATM   33  O5  UNL     1       4.000  61.624  -3.982  1.00  0.00    -0.776 OA
HETATM   34  H42 UNL     1       3.846  62.369  -3.363  1.00  0.00     0.167 HD
ENDBRANCH  31  33
ENDBRANCH  29  31
ENDBRANCH  27  29
ENDBRANCH  26  27
ENDBRANCH  25  26
ENDBRANCH  23  25
ENDBRANCH   1  23
BRANCH  22  35
HETATM   35  O3  UNL     1       2.134  52.752 -12.062  1.00  0.00    -0.391 OA
HETATM   36  H37 UNL     1       2.255  52.518 -12.999  1.00  0.00     0.210 HD
ENDBRANCH  22  35
TORSDOF 8
ENDMDL
MODEL 2
REMARK minimizedAffinity -9.56685352
REMARK CNNscore 0.745986521
REMARK CNNaffinity 7.27535868
REMARK  8 active torsions:
REMARK  status: ('A' for Active; 'I' for Inactive)
REMARK    1  A    between atoms: C2_2  and  C3_3 
REMARK    2  A    between atoms: C2_2  and  C27_30 
REMARK    3  A    between atoms: C3_3  and  C4_4 
REMARK    4  A    between atoms: C4_4  and  C5_5 
REMARK    5  A    between atoms: C5_5  and  C7_7 
REMARK    6  A    between atoms: C26_28  and  O3_29 
REMARK    7  A    between atoms: C27_30  and  C29_32 
REMARK    8  A    between atoms: C29_32  and  O5_34 
ROOT
HETATM    1  C7  UNL     1      -0.145  50.277 -18.532  1.00  0.00    -0.002 C 
HETATM    2  C8  UNL     1      -0.960  49.005 -18.174  1.00  0.00     0.006 C 
HETATM    3  C9  UNL     1      -1.734  48.614 -19.438  1.00  0.00     0.010 C 
HETATM    4  C10 UNL     1      -1.111  49.466 -20.548  1.00  0.00     0.027 C 
HETATM    5  C11 UNL     1      -1.749  49.626 -21.917  1.00  0.00    -0.036 C 
HETATM    6  C12 UNL     1      -1.434  50.689 -22.702  1.00  0.00     0.002 C 
HETATM    7  C13 UNL     1      -0.565  51.793 -22.123  1.00  0.00     0.157 C 
HETATM    8  O1  UNL     1      -0.332  52.817 -22.766  1.00  0.00    -0.293 OA
HETATM    9  C14 UNL     1       0.056  51.627 -20.747  1.00  0.00     0.093 C 
HETATM   10  C15 UNL     1      -0.841  50.811 -19.821  1.00  0.00    -0.026 C 
HETATM   11  C16 UNL     1      -2.142  51.595 -19.531  1.00  0.00     0.016 C 
HETATM   12  C17 UNL     1      -1.915  50.841 -24.164  1.00  0.00    -0.008 C 
HETATM   13  C18 UNL     1      -3.075  51.870 -24.143  1.00  0.00     0.021 C 
HETATM   14  C19 UNL     1      -0.783  51.363 -25.112  1.00  0.00     0.022 C 
HETATM   15  C20 UNL     1      -0.815  50.847 -26.550  1.00  0.00     0.080 C 
HETATM   16  C21 UNL     1      -2.213  50.529 -27.006  1.00  0.00     0.131 C 
HETATM   17  O2  UNL     1      -2.656  50.960 -28.070  1.00  0.00    -0.298 OA
HETATM   18  C22 UNL     1      -3.018  49.578 -26.136  1.00  0.00     0.056 C 
HETATM   19  C23 UNL     1      -3.124  48.236 -26.863  1.00  0.00     0.018 C 
HETATM   20  C24 UNL     1      -2.376  49.452 -24.733  1.00  0.00     0.012 C 
HETATM   21  C25 UNL     1      -3.307  48.741 -23.752  1.00  0.00     0.042 C 
HETATM   22  C26 UNL     1      -2.631  48.500 -22.403  1.00  0.00     0.148 C 
ENDROOT
BRANCH   1  23
HETATM   23  C5  UNL     1       0.170  51.164 -17.295  1.00  0.00    -0.014 C 
HETATM   24  C6  UNL     1       1.128  52.340 -17.538  1.00  0.00     0.010 C 
BRANCH  23  25
HETATM   25  C4  UNL     1       0.661  50.386 -16.054  1.00  0.00     0.009 C 
BRANCH  25  26
HETATM   26  C3  UNL     1       1.139  51.213 -14.851  1.00  0.00     0.034 C 
BRANCH  26  27
HETATM   27  C2  UNL     1       2.577  50.964 -14.424  1.00  0.00    -0.075 C 
HETATM   28  C1  UNL     1       3.553  51.747 -14.923  1.00  0.00     0.015 C 
BRANCH  27  29
HETATM   29  C27 UNL     1       2.831  49.798 -13.468  1.00  0.00     0.107 C 
HETATM   30  C28 UNL     1       1.683  49.417 -12.526  1.00  0.00     0.026 C 
BRANCH  29  31
HETATM   31  C29 UNL     1       4.103  50.035 -12.665  1.00  0.00     0.147 C 
HETATM   32  O4  UNL     1       4.159  50.562 -11.561  1.00  0.00    -0.650 OA
BRANCH  31  33
HETATM   33  O5  UNL     1       5.225  49.566 -13.245  1.00  0.00    -0.776 OA
HETATM   34  H42 UNL     1       5.932  49.760 -12.594  1.00  0.00     0.167 HD
ENDBRANCH  31  33
ENDBRANCH  29  31
ENDBRANCH  27  29
ENDBRANCH  26  27
ENDBRANCH  25  26
ENDBRANCH  23  25
ENDBRANCH   1  23
BRANCH  22  35
HETATM   35  O3  UNL     1      -3.682  48.281 -21.471  1.00  0.00    -0.391 OA
HETATM   36  H37 UNL     1      -4.049  47.398 -21.655  1.00  0.00     0.210 HD
ENDBRANCH  22  35
TORSDOF 8
ENDMDL
MODEL 3
REMARK minimizedAffinity -7.6778183
REMARK CNNscore 0.742268443
REMARK CNNaffinity 6.8647418
REMARK  8 active torsions:
REMARK  status: ('A' for Active; 'I' for Inactive)
REMARK    1  A    between atoms: C2_2  and  C3_3 
REMARK    2  A    between atoms: C2_2  and  C27_30 
REMARK    3  A    between atoms: C3_3  and  C4_4 
REMARK    4  A    between atoms: C4_4  and  C5_5 
REMARK    5  A    between atoms: C5_5  and  C7_7 
REMARK    6  A    between atoms: C26_28  and  O3_29 
REMARK    7  A    between atoms: C27_30  and  C29_32 
REMARK    8  A    between atoms: C29_32  and  O5_34 
ROOT
HETATM    1  C7  UNL     1       2.748  56.523  -8.585  1.00  0.00    -0.002 C 
HETATM    2  C8  UNL     1       3.672  56.364  -9.822  1.00  0.00     0.006 C 
HETATM    3  C9  UNL     1       2.997  55.337 -10.740  1.00  0.00     0.010 C 
HETATM    4  C10 UNL     1       1.586  55.179 -10.165  1.00  0.00     0.027 C 
HETATM    5  C11 UNL     1       0.654  54.054 -10.576  1.00  0.00    -0.036 C 
HETATM    6  C12 UNL     1      -0.375  53.684  -9.770  1.00  0.00     0.002 C 
HETATM    7  C13 UNL     1      -0.476  54.301  -8.385  1.00  0.00     0.157 C 
HETATM    8  O1  UNL     1      -1.336  53.928  -7.588  1.00  0.00    -0.293 OA
HETATM    9  C14 UNL     1       0.472  55.417  -7.981  1.00  0.00     0.093 C 
HETATM   10  C15 UNL     1       1.840  55.256  -8.636  1.00  0.00    -0.026 C 
HETATM   11  C16 UNL     1       2.533  53.987  -8.090  1.00  0.00     0.016 C 
HETATM   12  C17 UNL     1      -1.458  52.662 -10.184  1.00  0.00    -0.008 C 
HETATM   13  C18 UNL     1      -1.109  51.332  -9.466  1.00  0.00     0.021 C 
HETATM   14  C19 UNL     1      -2.897  53.112  -9.760  1.00  0.00     0.022 C 
HETATM   15  C20 UNL     1      -4.036  52.703 -10.693  1.00  0.00     0.080 C 
HETATM   16  C21 UNL     1      -3.738  51.420 -11.421  1.00  0.00     0.131 C 
HETATM   17  O2  UNL     1      -4.544  50.491 -11.445  1.00  0.00    -0.298 OA
HETATM   18  C22 UNL     1      -2.433  51.361 -12.200  1.00  0.00     0.056 C 
HETATM   19  C23 UNL     1      -2.762  51.425 -13.693  1.00  0.00     0.018 C 
HETATM   20  C24 UNL     1      -1.480  52.493 -11.746  1.00  0.00     0.012 C 
HETATM   21  C25 UNL     1      -0.068  52.289 -12.293  1.00  0.00     0.042 C 
HETATM   22  C26 UNL     1       0.846  53.467 -11.955  1.00  0.00     0.148 C 
ENDROOT
BRANCH   1  23
HETATM   23  C5  UNL     1       3.513  56.981  -7.311  1.00  0.00    -0.014 C 
HETATM   24  C6  UNL     1       2.935  58.206  -6.585  1.00  0.00     0.010 C 
BRANCH  23  25
HETATM   25  C4  UNL     1       5.027  57.208  -7.518  1.00  0.00     0.009 C 
BRANCH  25  26
HETATM   26  C3  UNL     1       5.849  57.617  -6.286  1.00  0.00     0.034 C 
BRANCH  26  27
HETATM   27  C2  UNL     1       7.103  56.792  -6.042  1.00  0.00    -0.075 C 
HETATM   28  C1  UNL     1       7.377  55.759  -6.862  1.00  0.00     0.015 C 
BRANCH  27  29
HETATM   29  C27 UNL     1       7.968  57.173  -4.840  1.00  0.00     0.107 C 
HETATM   30  C28 UNL     1       7.769  58.580  -4.266  1.00  0.00     0.026 C 
BRANCH  29  31
HETATM   31  C29 UNL     1       9.442  56.943  -5.150  1.00  0.00     0.147 C 
HETATM   32  O4  UNL     1       9.976  55.851  -5.293  1.00  0.00    -0.650 OA
BRANCH  31  33
HETATM   33  O5  UNL     1      10.160  58.072  -5.314  1.00  0.00    -0.776 OA
HETATM   34  H42 UNL     1      11.059  57.754  -5.542  1.00  0.00     0.167 HD
ENDBRANCH  31  33
ENDBRANCH  29  31
ENDBRANCH  27  29
ENDBRANCH  26  27
ENDBRANCH  25  26
ENDBRANCH  23  25
ENDBRANCH   1  23
BRANCH  22  35
HETATM   35  O3  UNL     1       2.176  52.982 -12.087  1.00  0.00    -0.391 OA
HETATM   36  H37 UNL     1       2.350  52.880 -13.039  1.00  0.00     0.210 HD
ENDBRANCH  22  35
TORSDOF 8
ENDMDL
MODEL 4
REMARK minimizedAffinity -7.38580704
REMARK CNNscore 0.67393893
REMARK CNNaffinity 6.69536591
REMARK  8 active torsions:
REMARK  status: ('A' for Active; 'I' for Inactive)
REMARK    1  A    between atoms: C2_2  and  C3_3 
REMARK    2  A    between atoms: C2_2  and  C27_30 
REMARK    3  A    between atoms: C3_3  and  C4_4 
REMARK    4  A    between atoms: C4_4  and  C5_5 
REMARK    5  A    between atoms: C5_5  and  C7_7 
REMARK    6  A    between atoms: C26_28  and  O3_29 
REMARK    7  A    between atoms: C27_30  and  C29_32 
REMARK    8  A    between atoms: C29_32  and  O5_34 
ROOT
HETATM    1  C7  UNL     1       2.591  56.440  -8.653  1.00  0.00    -0.002 C 
HETATM    2  C8  UNL     1       3.488  56.333  -9.915  1.00  0.00     0.006 C 
HETATM    3  C9  UNL     1       2.819  55.308 -10.839  1.00  0.00     0.010 C 
HETATM    4  C10 UNL     1       1.427  55.100 -10.234  1.00  0.00     0.027 C 
HETATM    5  C11 UNL     1       0.515  53.958 -10.646  1.00  0.00    -0.036 C 
HETATM    6  C12 UNL     1      -0.484  53.544  -9.824  1.00  0.00     0.002 C 
HETATM    7  C13 UNL     1      -0.566  54.128  -8.423  1.00  0.00     0.157 C 
HETATM    8  O1  UNL     1      -1.396  53.714  -7.614  1.00  0.00    -0.293 OA
HETATM    9  C14 UNL     1       0.361  55.261  -8.018  1.00  0.00     0.093 C 
HETATM   10  C15 UNL     1       1.717  55.150  -8.709  1.00  0.00    -0.026 C 
HETATM   11  C16 UNL     1       2.457  53.890  -8.208  1.00  0.00     0.016 C 
HETATM   12  C17 UNL     1      -1.549  52.501 -10.234  1.00  0.00    -0.008 C 
HETATM   13  C18 UNL     1      -1.147  51.166  -9.553  1.00  0.00     0.021 C 
HETATM   14  C19 UNL     1      -2.988  52.902  -9.765  1.00  0.00     0.022 C 
HETATM   15  C20 UNL     1      -4.138  52.483 -10.678  1.00  0.00     0.080 C 
HETATM   16  C21 UNL     1      -3.824  51.224 -11.441  1.00  0.00     0.131 C 
HETATM   17  O2  UNL     1      -4.606  50.274 -11.466  1.00  0.00    -0.298 OA
HETATM   18  C22 UNL     1      -2.539  51.217 -12.253  1.00  0.00     0.056 C 
HETATM   19  C23 UNL     1      -2.906  51.304 -13.736  1.00  0.00     0.018 C 
HETATM   20  C24 UNL     1      -1.604  52.365 -11.797  1.00  0.00     0.012 C 
HETATM   21  C25 UNL     1      -0.202  52.212 -12.384  1.00  0.00     0.042 C 
HETATM   22  C26 UNL     1       0.688  53.406 -12.042  1.00  0.00     0.148 C 
ENDROOT
BRANCH   1  23
HETATM   23  C5  UNL     1       3.376  56.892  -7.388  1.00  0.00    -0.014 C 
HETATM   24  C6  UNL     1       2.926  58.219  -6.758  1.00  0.00     0.010 C 
BRANCH  23  25
HETATM   25  C4  UNL     1       4.910  56.933  -7.564  1.00  0.00     0.009 C 
BRANCH  25  26
HETATM   26  C3  UNL     1       5.737  57.466  -6.384  1.00  0.00     0.034 C 
BRANCH  26  27
HETATM   27  C2  UNL     1       6.723  56.476  -5.784  1.00  0.00    -0.075 C 
HETATM   28  C1  UNL     1       7.136  56.652  -4.514  1.00  0.00     0.015 C 
BRANCH  27  29
HETATM   29  C27 UNL     1       7.218  55.347  -6.688  1.00  0.00     0.107 C 
HETATM   30  C28 UNL     1       6.913  55.478  -8.185  1.00  0.00     0.026 C 
BRANCH  29  31
HETATM   31  C29 UNL     1       6.725  54.000  -6.175  1.00  0.00     0.147 C 
HETATM   32  O4  UNL     1       7.438  53.077  -5.803  1.00  0.00    -0.650 OA
BRANCH  31  33
HETATM   33  O5  UNL     1       5.384  53.886  -6.105  1.00  0.00    -0.776 OA
HETATM   34  H42 UNL     1       5.237  52.994  -5.726  1.00  0.00     0.167 HD
ENDBRANCH  31  33
ENDBRANCH  29  31
ENDBRANCH  27  29
ENDBRANCH  26  27
ENDBRANCH  25  26
ENDBRANCH  23  25
ENDBRANCH   1  23
BRANCH  22  35
HETATM   35  O3  UNL     1       2.027  52.961 -12.217  1.00  0.00    -0.391 OA
HETATM   36  H37 UNL     1       2.180  52.883 -13.175  1.00  0.00     0.210 HD
ENDBRANCH  22  35
TORSDOF 8
ENDMDL
MODEL 5
REMARK minimizedAffinity -7.31665754
REMARK CNNscore 0.609623969
REMARK CNNaffinity 6.59739065
REMARK  8 active torsions:
REMARK  status: ('A' for Active; 'I' for Inactive)
REMARK    1  A    between atoms: C2_2  and  C3_3 
REMARK    2  A    between atoms: C2_2  and  C27_30 
REMARK    3  A    between atoms: C3_3  and  C4_4 
REMARK    4  A    between atoms: C4_4  and  C5_5 
REMARK    5  A    between atoms: C5_5  and  C7_7 
REMARK    6  A    between atoms: C26_28  and  O3_29 
REMARK    7  A    between atoms: C27_30  and  C29_32 
REMARK    8  A    between atoms: C29_32  and  O5_34 
ROOT
HETATM    1  C7  UNL     1       3.223  56.546  -9.252  1.00  0.00    -0.002 C 
HETATM    2  C8  UNL     1       4.095  55.990 -10.409  1.00  0.00     0.006 C 
HETATM    3  C9  UNL     1       3.261  54.904 -11.099  1.00  0.00     0.010 C 
HETATM    4  C10 UNL     1       1.851  55.084 -10.530  1.00  0.00     0.027 C 
HETATM    5  C11 UNL     1       0.755  54.048 -10.709  1.00  0.00    -0.036 C 
HETATM    6  C12 UNL     1      -0.306  54.017  -9.861  1.00  0.00     0.002 C 
HETATM    7  C13 UNL     1      -0.294  54.923  -8.642  1.00  0.00     0.157 C 
HETATM    8  O1  UNL     1      -1.189  54.861  -7.799  1.00  0.00    -0.293 OA
HETATM    9  C14 UNL     1       0.815  55.946  -8.468  1.00  0.00     0.093 C 
HETATM   10  C15 UNL     1       2.135  55.447  -9.048  1.00  0.00    -0.026 C 
HETATM   11  C16 UNL     1       2.639  54.235  -8.231  1.00  0.00     0.016 C 
HETATM   12  C17 UNL     1      -1.535  53.102 -10.068  1.00  0.00    -0.008 C 
HETATM   13  C18 UNL     1      -1.379  51.919  -9.076  1.00  0.00     0.021 C 
HETATM   14  C19 UNL     1      -2.884  53.842  -9.775  1.00  0.00     0.022 C 
HETATM   15  C20 UNL     1      -4.085  53.417 -10.620  1.00  0.00     0.080 C 
HETATM   16  C21 UNL     1      -3.992  51.979 -11.053  1.00  0.00     0.131 C 
HETATM   17  O2  UNL     1      -4.928  51.197 -10.893  1.00  0.00    -0.298 OA
HETATM   18  C22 UNL     1      -2.722  51.561 -11.778  1.00  0.00     0.056 C 
HETATM   19  C23 UNL     1      -3.059  51.354 -13.255  1.00  0.00     0.018 C 
HETATM   20  C24 UNL     1      -1.604  52.609 -11.558  1.00  0.00     0.012 C 
HETATM   21  C25 UNL     1      -0.246  52.086 -12.023  1.00  0.00     0.042 C 
HETATM   22  C26 UNL     1       0.838  53.159 -11.928  1.00  0.00     0.148 C 
ENDROOT
BRANCH   1  23
HETATM   23  C5  UNL     1       4.065  57.146  -8.091  1.00  0.00    -0.014 C 
HETATM   24  C6  UNL     1       5.043  56.182  -7.402  1.00  0.00     0.010 C 
BRANCH  23  25
HETATM   25  C4  UNL     1       3.239  57.863  -7.000  1.00  0.00     0.009 C 
BRANCH  25  26
HETATM   26  C3  UNL     1       2.857  57.043  -5.759  1.00  0.00     0.034 C 
BRANCH  26  27
HETATM   27  C2  UNL     1       2.365  57.857  -4.571  1.00  0.00    -0.075 C 
HETATM   28  C1  UNL     1       3.263  58.518  -3.816  1.00  0.00     0.015 C 
BRANCH  27  29
HETATM   29  C27 UNL     1       0.864  57.843  -4.287  1.00  0.00     0.107 C 
HETATM   30  C28 UNL     1       0.395  58.570  -3.021  1.00  0.00     0.026 C 
BRANCH  29  31
HETATM   31  C29 UNL     1       0.335  56.414  -4.289  1.00  0.00     0.147 C 
HETATM   32  O4  UNL     1       0.625  55.548  -3.473  1.00  0.00    -0.650 OA
BRANCH  31  33
HETATM   33  O5  UNL     1      -0.557  56.150  -5.264  1.00  0.00    -0.776 OA
HETATM   34  H42 UNL     1      -0.822  55.220  -5.103  1.00  0.00     0.167 HD
ENDBRANCH  31  33
ENDBRANCH  29  31
ENDBRANCH  27  29
ENDBRANCH  26  27
ENDBRANCH  25  26
ENDBRANCH  23  25
ENDBRANCH   1  23
BRANCH  22  35
HETATM   35  O3  UNL     1       2.078  52.465 -11.929  1.00  0.00    -0.391 OA
HETATM   36  H37 UNL     1       2.222  52.137 -12.834  1.00  0.00     0.210 HD
ENDBRANCH  22  35
TORSDOF 8
ENDMDL
MODEL 6
REMARK minimizedAffinity -7.91232252
REMARK CNNscore 0.600175798
REMARK CNNaffinity 6.70930099
REMARK  8 active torsions:
REMARK  status: ('A' for Active; 'I' for Inactive)
REMARK    1  A    between atoms: C2_2  and  C3_3 
REMARK    2  A    between atoms: C2_2  and  C27_30 
REMARK    3  A    between atoms: C3_3  and  C4_4 
REMARK    4  A    between atoms: C4_4  and  C5_5 
REMARK    5  A    between atoms: C5_5  and  C7_7 
REMARK    6  A    between atoms: C26_28  and  O3_29 
REMARK    7  A    between atoms: C27_30  and  C29_32 
REMARK    8  A    between atoms: C29_32  and  O5_34 
ROOT
HETATM    1  C7  UNL     1      -1.381  52.915 -10.475  1.00  0.00    -0.002 C 
HETATM    2  C8  UNL     1      -0.525  52.977 -11.769  1.00  0.00     0.006 C 
HETATM    3  C9  UNL     1       0.708  53.824 -11.435  1.00  0.00     0.010 C 
HETATM    4  C10 UNL     1       0.681  53.956  -9.910  1.00  0.00     0.027 C 
HETATM    5  C11 UNL     1       1.547  54.950  -9.156  1.00  0.00    -0.036 C 
HETATM    6  C12 UNL     1       1.204  55.348  -7.903  1.00  0.00     0.002 C 
HETATM    7  C13 UNL     1      -0.137  54.911  -7.338  1.00  0.00     0.157 C 
HETATM    8  O1  UNL     1      -0.528  55.324  -6.246  1.00  0.00    -0.293 OA
HETATM    9  C14 UNL     1      -1.000  53.927  -8.109  1.00  0.00     0.093 C 
HETATM   10  C15 UNL     1      -0.837  54.098  -9.616  1.00  0.00    -0.026 C 
HETATM   11  C16 UNL     1      -1.395  55.473 -10.049  1.00  0.00     0.016 C 
HETATM   12  C17 UNL     1       2.110  56.229  -7.011  1.00  0.00    -0.008 C 
HETATM   13  C18 UNL     1       1.518  57.662  -7.060  1.00  0.00     0.021 C 
HETATM   14  C19 UNL     1       2.141  55.737  -5.524  1.00  0.00     0.022 C 
HETATM   15  C20 UNL     1       3.456  55.940  -4.774  1.00  0.00     0.080 C 
HETATM   16  C21 UNL     1       4.219  57.134  -5.280  1.00  0.00     0.131 C 
HETATM   17  O2  UNL     1       4.654  57.993  -4.513  1.00  0.00    -0.298 OA
HETATM   18  C22 UNL     1       4.505  57.183  -6.772  1.00  0.00     0.056 C 
HETATM   19  C23 UNL     1       5.993  56.901  -6.986  1.00  0.00     0.018 C 
HETATM   20  C24 UNL     1       3.591  56.190  -7.532  1.00  0.00     0.012 C 
HETATM   21  C25 UNL     1       3.646  56.419  -9.041  1.00  0.00     0.042 C 
HETATM   22  C26 UNL     1       2.847  55.363  -9.804  1.00  0.00     0.148 C 
ENDROOT
BRANCH   1  23
HETATM   23  C5  UNL     1      -2.892  52.682 -10.758  1.00  0.00    -0.014 C 
HETATM   24  C6  UNL     1      -3.802  53.909 -10.596  1.00  0.00     0.010 C 
BRANCH  23  25
HETATM   25  C4  UNL     1      -3.518  51.506  -9.977  1.00  0.00     0.009 C 
BRANCH  25  26
HETATM   26  C3  UNL     1      -4.941  51.082 -10.370  1.00  0.00     0.034 C 
BRANCH  26  27
HETATM   27  C2  UNL     1      -5.078  49.648 -10.860  1.00  0.00    -0.075 C 
HETATM   28  C1  UNL     1      -4.276  49.218 -11.853  1.00  0.00     0.015 C 
BRANCH  27  29
HETATM   29  C27 UNL     1      -6.159  48.786 -10.209  1.00  0.00     0.107 C 
HETATM   30  C28 UNL     1      -6.134  47.288 -10.534  1.00  0.00     0.026 C 
BRANCH  29  31
HETATM   31  C29 UNL     1      -7.542  49.357 -10.499  1.00  0.00     0.147 C 
HETATM   32  O4  UNL     1      -8.334  48.915 -11.321  1.00  0.00    -0.650 OA
BRANCH  31  33
HETATM   33  O5  UNL     1      -7.886  50.405  -9.726  1.00  0.00    -0.776 OA
HETATM   34  H42 UNL     1      -8.800  50.622 -10.008  1.00  0.00     0.167 HD
ENDBRANCH  31  33
ENDBRANCH  29  31
ENDBRANCH  27  29
ENDBRANCH  26  27
ENDBRANCH  25  26
ENDBRANCH  23  25
ENDBRANCH   1  23
BRANCH  22  35
HETATM   35  O3  UNL     1       2.586  55.919 -11.086  1.00  0.00    -0.391 OA
HETATM   36  H37 UNL     1       3.425  55.909 -11.579  1.00  0.00     0.210 HD
ENDBRANCH  22  35
TORSDOF 8
ENDMDL
MODEL 7
REMARK minimizedAffinity -7.62247467
REMARK CNNscore 0.531269968
REMARK CNNaffinity 6.18460655
REMARK  8 active torsions:
REMARK  status: ('A' for Active; 'I' for Inactive)
REMARK    1  A    between atoms: C2_2  and  C3_3 
REMARK    2  A    between atoms: C2_2  and  C27_30 
REMARK    3  A    between atoms: C3_3  and  C4_4 
REMARK    4  A    between atoms: C4_4  and  C5_5 
REMARK    5  A    between atoms: C5_5  and  C7_7 
REMARK    6  A    between atoms: C26_28  and  O3_29 
REMARK    7  A    between atoms: C27_30  and  C29_32 
REMARK    8  A    between atoms: C29_32  and  O5_34 
ROOT
HETATM    1  C7  UNL     1     -13.106  46.158 -26.189  1.00  0.00    -0.002 C 
HETATM    2  C8  UNL     1     -13.776  45.212 -27.222  1.00  0.00     0.006 C 
HETATM    3  C9  UNL     1     -12.861  45.195 -28.453  1.00  0.00     0.010 C 
HETATM    4  C10 UNL     1     -11.569  45.865 -27.979  1.00  0.00     0.027 C 
HETATM    5  C11 UNL     1     -10.484  46.328 -28.936  1.00  0.00    -0.036 C 
HETATM    6  C12 UNL     1      -9.589  47.276 -28.555  1.00  0.00     0.002 C 
HETATM    7  C13 UNL     1      -9.792  47.980 -27.224  1.00  0.00     0.157 C 
HETATM    8  O1  UNL     1      -9.060  48.908 -26.881  1.00  0.00    -0.293 OA
HETATM    9  C14 UNL     1     -10.889  47.516 -26.281  1.00  0.00     0.093 C 
HETATM   10  C15 UNL     1     -12.099  46.986 -27.044  1.00  0.00    -0.026 C 
HETATM   11  C16 UNL     1     -12.768  48.138 -27.828  1.00  0.00     0.016 C 
HETATM   12  C17 UNL     1      -8.365  47.685 -29.407  1.00  0.00    -0.008 C 
HETATM   13  C18 UNL     1      -8.722  49.040 -30.073  1.00  0.00     0.021 C 
HETATM   14  C19 UNL     1      -7.071  47.863 -28.544  1.00  0.00     0.022 C 
HETATM   15  C20 UNL     1      -5.752  47.491 -29.220  1.00  0.00     0.080 C 
HETATM   16  C21 UNL     1      -5.803  47.695 -30.710  1.00  0.00     0.131 C 
HETATM   17  O2  UNL     1      -4.928  48.325 -31.304  1.00  0.00    -0.298 OA
HETATM   18  C22 UNL     1      -6.936  47.010 -31.458  1.00  0.00     0.056 C 
HETATM   19  C23 UNL     1      -6.351  45.837 -32.247  1.00  0.00     0.018 C 
HETATM   20  C24 UNL     1      -8.049  46.576 -30.473  1.00  0.00     0.012 C 
HETATM   21  C25 UNL     1      -9.317  46.151 -31.213  1.00  0.00     0.042 C 
HETATM   22  C26 UNL     1     -10.374  45.601 -30.256  1.00  0.00     0.148 C 
ENDROOT
BRANCH   1  23
HETATM   23  C5  UNL     1     -14.125  46.797 -25.203  1.00  0.00    -0.014 C 
HETATM   24  C6  UNL     1     -13.740  46.749 -23.716  1.00  0.00     0.010 C 
BRANCH  23  25
HETATM   25  C4  UNL     1     -15.572  46.278 -25.347  1.00  0.00     0.009 C 
BRANCH  25  26
HETATM   26  C3  UNL     1     -16.660  46.998 -24.536  1.00  0.00     0.034 C 
BRANCH  26  27
HETATM   27  C2  UNL     1     -17.460  46.111 -23.595  1.00  0.00    -0.075 C 
HETATM   28  C1  UNL     1     -17.230  46.190 -22.269  1.00  0.00     0.015 C 
BRANCH  27  29
HETATM   29  C27 UNL     1     -18.464  45.147 -24.225  1.00  0.00     0.107 C 
HETATM   30  C28 UNL     1     -17.932  43.770 -24.638  1.00  0.00     0.026 C 
BRANCH  29  31
HETATM   31  C29 UNL     1     -19.165  45.806 -25.407  1.00  0.00     0.147 C 
HETATM   32  O4  UNL     1     -19.038  45.481 -26.580  1.00  0.00    -0.650 OA
BRANCH  31  33
HETATM   33  O5  UNL     1     -20.019  46.793 -25.069  1.00  0.00    -0.776 OA
HETATM   34  H42 UNL     1     -20.407  47.078 -25.923  1.00  0.00     0.167 HD
ENDBRANCH  31  33
ENDBRANCH  29  31
ENDBRANCH  27  29
ENDBRANCH  26  27
ENDBRANCH  25  26
ENDBRANCH  23  25
ENDBRANCH   1  23
BRANCH  22  35
HETATM   35  O3  UNL     1     -11.612  45.683 -30.951  1.00  0.00    -0.391 OA
HETATM   36  H37 UNL     1     -11.603  44.990 -31.634  1.00  0.00     0.210 HD
ENDBRANCH  22  35
TORSDOF 8
ENDMDL
MODEL 8
REMARK minimizedAffinity -8.42413044
REMARK CNNscore 0.448610514
REMARK CNNaffinity 5.9317193
REMARK  8 active torsions:
REMARK  status: ('A' for Active; 'I' for Inactive)
REMARK    1  A    between atoms: C2_2  and  C3_3 
REMARK    2  A    between atoms: C2_2  and  C27_30 
REMARK    3  A    between atoms: C3_3  and  C4_4 
REMARK    4  A    between atoms: C4_4  and  C5_5 
REMARK    5  A    between atoms: C5_5  and  C7_7 
REMARK    6  A    between atoms: C26_28  and  O3_29 
REMARK    7  A    between atoms: C27_30  and  C29_32 
REMARK    8  A    between atoms: C29_32  and  O5_34 
ROOT
HETATM    1  C7  UNL     1       5.610  64.799 -35.606  1.00  0.00    -0.002 C 
HETATM    2  C8  UNL     1       4.394  64.503 -34.688  1.00  0.00     0.006 C 
HETATM    3  C9  UNL     1       3.210  65.288 -35.266  1.00  0.00     0.010 C 
HETATM    4  C10 UNL     1       3.693  65.747 -36.645  1.00  0.00     0.027 C 
HETATM    5  C11 UNL     1       2.962  66.797 -37.463  1.00  0.00    -0.036 C 
HETATM    6  C12 UNL     1       3.613  67.484 -38.438  1.00  0.00     0.002 C 
HETATM    7  C13 UNL     1       5.114  67.303 -38.582  1.00  0.00     0.157 C 
HETATM    8  O1  UNL     1       5.758  67.975 -39.389  1.00  0.00    -0.293 OA
HETATM    9  C14 UNL     1       5.835  66.258 -37.749  1.00  0.00     0.093 C 
HETATM   10  C15 UNL     1       5.184  66.085 -36.380  1.00  0.00    -0.026 C 
HETATM   11  C16 UNL     1       5.357  67.379 -35.552  1.00  0.00     0.016 C 
HETATM   12  C17 UNL     1       2.906  68.451 -39.416  1.00  0.00    -0.008 C 
HETATM   13  C18 UNL     1       3.220  69.888 -38.922  1.00  0.00     0.021 C 
HETATM   14  C19 UNL     1       3.418  68.291 -40.887  1.00  0.00     0.022 C 
HETATM   15  C20 UNL     1       2.389  68.530 -41.990  1.00  0.00     0.080 C 
HETATM   16  C21 UNL     1       1.329  69.514 -41.572  1.00  0.00     0.131 C 
HETATM   17  O2  UNL     1       1.028  70.474 -42.280  1.00  0.00    -0.298 OA
HETATM   18  C22 UNL     1       0.587  69.214 -40.280  1.00  0.00     0.056 C 
HETATM   19  C23 UNL     1      -0.830  68.760 -40.634  1.00  0.00     0.018 C 
HETATM   20  C24 UNL     1       1.361  68.168 -39.441  1.00  0.00     0.012 C 
HETATM   21  C25 UNL     1       0.801  68.061 -38.024  1.00  0.00     0.042 C 
HETATM   22  C26 UNL     1       1.476  66.942 -37.231  1.00  0.00     0.148 C 
ENDROOT
BRANCH   1  23
HETATM   23  C5  UNL     1       6.974  64.649 -34.875  1.00  0.00    -0.014 C 
HETATM   24  C6  UNL     1       7.234  65.637 -33.728  1.00  0.00     0.010 C 
BRANCH  23  25
HETATM   25  C4  UNL     1       8.206  64.649 -35.806  1.00  0.00     0.009 C 
BRANCH  25  26
HETATM   26  C3  UNL     1       8.958  63.320 -35.976  1.00  0.00     0.034 C 
BRANCH  26  27
HETATM   27  C2  UNL     1      10.200  63.164 -35.112  1.00  0.00    -0.075 C 
HETATM   28  C1  UNL     1      11.341  63.772 -35.491  1.00  0.00     0.015 C 
BRANCH  27  29
HETATM   29  C27 UNL     1      10.081  62.282 -33.869  1.00  0.00     0.107 C 
HETATM   30  C28 UNL     1       8.732  61.590 -33.642  1.00  0.00     0.026 C 
BRANCH  29  31
HETATM   31  C29 UNL     1      10.479  63.063 -32.623  1.00  0.00     0.147 C 
HETATM   32  O4  UNL     1      10.016  64.144 -32.284  1.00  0.00    -0.650 OA
BRANCH  31  33
HETATM   33  O5  UNL     1      11.387  62.443 -31.843  1.00  0.00    -0.776 OA
HETATM   34  H42 UNL     1      11.501  63.048 -31.080  1.00  0.00     0.167 HD
ENDBRANCH  31  33
ENDBRANCH  29  31
ENDBRANCH  27  29
ENDBRANCH  26  27
ENDBRANCH  25  26
ENDBRANCH  23  25
ENDBRANCH   1  23
BRANCH  22  35
HETATM   35  O3  UNL     1       1.233  67.231 -35.860  1.00  0.00    -0.391 OA
HETATM   36  H37 UNL     1       0.295  67.038 -35.689  1.00  0.00     0.210 HD
ENDBRANCH  22  35
TORSDOF 8
ENDMDL
MODEL 9
REMARK minimizedAffinity -8.65536499
REMARK CNNscore 0.424167186
REMARK CNNaffinity 5.84009504
REMARK  8 active torsions:
REMARK  status: ('A' for Active; 'I' for Inactive)
REMARK    1  A    between atoms: C2_2  and  C3_3 
REMARK    2  A    between atoms: C2_2  and  C27_30 
REMARK    3  A    between atoms: C3_3  and  C4_4 
REMARK    4  A    between atoms: C4_4  and  C5_5 
REMARK    5  A    between atoms: C5_5  and  C7_7 
REMARK    6  A    between atoms: C26_28  and  O3_29 
REMARK    7  A    between atoms: C27_30  and  C29_32 
REMARK    8  A    between atoms: C29_32  and  O5_34 
ROOT
HETATM    1  C7  UNL     1       4.674  65.879 -36.015  1.00  0.00    -0.002 C 
HETATM    2  C8  UNL     1       3.377  65.350 -35.346  1.00  0.00     0.006 C 
HETATM    3  C9  UNL     1       2.206  65.944 -36.137  1.00  0.00     0.010 C 
HETATM    4  C10 UNL     1       2.852  66.527 -37.398  1.00  0.00     0.027 C 
HETATM    5  C11 UNL     1       2.118  67.469 -38.336  1.00  0.00    -0.036 C 
HETATM    6  C12 UNL     1       2.811  68.290 -39.167  1.00  0.00     0.002 C 
HETATM    7  C13 UNL     1       4.322  68.369 -39.023  1.00  0.00     0.157 C 
HETATM    8  O1  UNL     1       4.980  69.168 -39.689  1.00  0.00    -0.293 OA
HETATM    9  C14 UNL     1       5.043  67.431 -38.070  1.00  0.00     0.093 C 
HETATM   10  C15 UNL     1       4.187  67.102 -36.851  1.00  0.00    -0.026 C 
HETATM   11  C16 UNL     1       3.976  68.376 -36.002  1.00  0.00     0.016 C 
HETATM   12  C17 UNL     1       2.145  69.159 -40.258  1.00  0.00    -0.008 C 
HETATM   13  C18 UNL     1       2.109  70.610 -39.709  1.00  0.00     0.021 C 
HETATM   14  C19 UNL     1       2.944  69.140 -41.605  1.00  0.00     0.022 C 
HETATM   15  C20 UNL     1       2.114  69.242 -42.884  1.00  0.00     0.080 C 
HETATM   16  C21 UNL     1       0.842  70.018 -42.673  1.00  0.00     0.131 C 
HETATM   17  O2  UNL     1       0.517  70.939 -43.422  1.00  0.00    -0.298 OA
HETATM   18  C22 UNL     1      -0.067  69.551 -41.547  1.00  0.00     0.056 C 
HETATM   19  C23 UNL     1      -1.293  68.878 -42.166  1.00  0.00     0.018 C 
HETATM   20  C24 UNL     1       0.705  68.621 -40.579  1.00  0.00     0.012 C 
HETATM   21  C25 UNL     1      -0.084  68.370 -39.295  1.00  0.00     0.042 C 
HETATM   22  C26 UNL     1       0.613  67.353 -38.392  1.00  0.00     0.148 C 
ENDROOT
BRANCH   1  23
HETATM   23  C5  UNL     1       5.882  65.934 -35.037  1.00  0.00    -0.014 C 
HETATM   24  C6  UNL     1       6.544  67.309 -34.863  1.00  0.00     0.010 C 
BRANCH  23  25
HETATM   25  C4  UNL     1       6.988  64.895 -35.324  1.00  0.00     0.009 C 
BRANCH  25  26
HETATM   26  C3  UNL     1       7.262  63.844 -34.237  1.00  0.00     0.034 C 
BRANCH  26  27
HETATM   27  C2  UNL     1       6.755  62.444 -34.547  1.00  0.00    -0.075 C 
HETATM   28  C1  UNL     1       5.427  62.225 -34.597  1.00  0.00     0.015 C 
BRANCH  27  29
HETATM   29  C27 UNL     1       7.803  61.350 -34.751  1.00  0.00     0.107 C 
HETATM   30  C28 UNL     1       7.299  59.902 -34.736  1.00  0.00     0.026 C 
BRANCH  29  31
HETATM   31  C29 UNL     1       8.943  61.512 -33.754  1.00  0.00     0.147 C 
HETATM   32  O4  UNL     1      10.088  61.844 -34.032  1.00  0.00    -0.650 OA
BRANCH  31  33
HETATM   33  O5  UNL     1       8.595  61.304 -32.469  1.00  0.00    -0.776 OA
HETATM   34  H42 UNL     1       9.416  61.483 -31.965  1.00  0.00     0.167 HD
ENDBRANCH  31  33
ENDBRANCH  29  31
ENDBRANCH  27  29
ENDBRANCH  26  27
ENDBRANCH  25  26
ENDBRANCH  23  25
ENDBRANCH   1  23
BRANCH  22  35
HETATM   35  O3  UNL     1       0.071  67.547 -37.092  1.00  0.00    -0.391 OA
HETATM   36  H37 UNL     1      -0.836  67.193 -37.103  1.00  0.00     0.210 HD
ENDBRANCH  22  35
TORSDOF 8
ENDMDL
