MODEL 1
REMARK minimizedAffinity -9.63679218
REMARK  7 active torsions:
REMARK  status: ('A' for Active; 'I' for Inactive)
REMARK    1  A    between atoms: C2_2  and  C4_4 
REMARK    2  A    between atoms: C7_7  and  O1_9 
REMARK    3  A    between atoms: C9_10  and  C10_11 
REMARK    4  A    between atoms: C11_12  and  C12_13 
REMARK    5  A    between atoms: C14_15  and  C15_16 
REMARK    6  A    between atoms: C24_26  and  C26_28 
REMARK    7  A    between atoms: C29_32  and  O4_34 
ROOT
HETATM    1  C15 UNL     1      -0.187   6.877  13.041  1.00  0.00     0.149 C 
HETATM    2  C16 UNL     1       1.191   6.230  12.918  1.00  0.00     0.054 C 
HETATM    3  C17 UNL     1       2.041   7.188  12.028  1.00  0.00     0.050 C 
HETATM    4  C18 UNL     1       1.166   8.471  12.118  1.00  0.00     0.272 C 
HETATM    5  O2  UNL     1       1.346   9.245  13.303  1.00  0.00    -0.360 OA
HETATM    6  C19 UNL     1       2.413  10.170  13.234  1.00  0.00     0.171 C 
HETATM    7  C20 UNL     1       3.675   9.577  13.834  1.00  0.00     0.027 C 
HETATM    8  C21 UNL     1       3.690   8.053  13.910  1.00  0.00     0.012 C 
HETATM    9  C22 UNL     1       3.519   7.296  12.572  1.00  0.00     0.032 C 
HETATM   10  C23 UNL     1       4.561   7.747  11.522  1.00  0.00    -0.066 C 
HETATM   11  C24 UNL     1       5.892   7.488  11.601  1.00  0.00    -0.021 C 
HETATM   12  C25 UNL     1       6.925   7.966  10.619  1.00  0.00     0.052 C 
HETATM   13  C27 UNL     1       3.971   8.474  10.335  1.00  0.00     0.038 C 
HETATM   14  C28 UNL     1       2.868   7.683   9.632  1.00  0.00     0.042 C 
HETATM   15  C29 UNL     1       2.116   6.672  10.530  1.00  0.00     0.067 C 
HETATM   16  C30 UNL     1       2.782   5.283  10.377  1.00  0.00     0.047 C 
HETATM   17  O5  UNL     1      -0.193   8.010  12.169  1.00  0.00    -0.351 OA
ENDROOT
BRANCH   1  18
HETATM   18  C14 UNL     1      -1.496   6.147  12.905  1.00  0.00     0.011 C 
HETATM   19  C12 UNL     1      -2.576   5.948  13.691  1.00  0.00    -0.064 C 
HETATM   20  C13 UNL     1      -2.711   6.385  15.121  1.00  0.00     0.048 C 
BRANCH  19  21
HETATM   21  C11 UNL     1      -3.707   5.205  13.116  1.00  0.00     0.003 C 
HETATM   22  C10 UNL     1      -5.012   5.427  13.335  1.00  0.00    -0.018 C 
BRANCH  22  23
HETATM   23  C9  UNL     1      -6.200   4.670  12.766  1.00  0.00     0.050 C 
HETATM   24  C4  UNL     1      -6.174   3.108  12.744  1.00  0.00     0.024 C 
HETATM   25  C5  UNL     1      -7.634   2.668  13.026  1.00  0.00     0.013 C 
HETATM   26  C6  UNL     1      -8.471   3.935  12.958  1.00  0.00     0.039 C 
HETATM   27  C7  UNL     1      -7.535   5.031  13.470  1.00  0.00     0.062 C 
HETATM   28  C8  UNL     1      -7.462   5.050  15.002  1.00  0.00     0.046 C 
BRANCH  24  29
HETATM   29  C2  UNL     1      -5.555   2.572  11.453  1.00  0.00    -0.088 C 
HETATM   30  C1  UNL     1      -4.709   3.264  10.668  1.00  0.00     0.014 C 
HETATM   31  C3  UNL     1      -5.932   1.162  11.082  1.00  0.00     0.043 C 
ENDBRANCH  24  29
BRANCH  27  32
HETATM   32  O1  UNL     1      -8.008   6.302  13.021  1.00  0.00    -0.390 OA
HETATM   33  H14 UNL     1      -8.863   6.469  13.453  1.00  0.00     0.210 HD
ENDBRANCH  27  32
ENDBRANCH  22  23
ENDBRANCH  19  21
ENDBRANCH   1  18
BRANCH  15  34
HETATM   34  O4  UNL     1       0.805   6.543   9.974  1.00  0.00    -0.389 OA
HETATM   35  H44 UNL     1       0.871   6.169   9.078  1.00  0.00     0.210 HD
ENDBRANCH  15  34
BRANCH  11  36
HETATM   36  C26 UNL     1       6.487   6.692  12.720  1.00  0.00     0.265 C 
HETATM   37  O3  UNL     1       7.178   7.174  13.608  1.00  0.00    -0.302 OA
ENDBRANCH  11  36
TORSDOF 7
ENDMDL
MODEL 2
REMARK minimizedAffinity -9.18590927
REMARK  7 active torsions:
REMARK  status: ('A' for Active; 'I' for Inactive)
REMARK    1  A    between atoms: C2_2  and  C4_4 
REMARK    2  A    between atoms: C7_7  and  O1_9 
REMARK    3  A    between atoms: C9_10  and  C10_11 
REMARK    4  A    between atoms: C11_12  and  C12_13 
REMARK    5  A    between atoms: C14_15  and  C15_16 
REMARK    6  A    between atoms: C24_26  and  C26_28 
REMARK    7  A    between atoms: C29_32  and  O4_34 
ROOT
HETATM    1  C15 UNL     1      -0.729   5.148  11.165  1.00  0.00     0.149 C 
HETATM    2  C16 UNL     1      -0.161   6.446  10.593  1.00  0.00     0.054 C 
HETATM    3  C17 UNL     1       1.315   6.529  11.090  1.00  0.00     0.050 C 
HETATM    4  C18 UNL     1       1.526   5.050  11.524  1.00  0.00     0.272 C 
HETATM    5  O2  UNL     1       1.826   4.144  10.463  1.00  0.00    -0.360 OA
HETATM    6  C19 UNL     1       3.198   4.076  10.130  1.00  0.00     0.171 C 
HETATM    7  C20 UNL     1       3.515   5.007   8.973  1.00  0.00     0.027 C 
HETATM    8  C21 UNL     1       2.500   6.125   8.757  1.00  0.00     0.012 C 
HETATM    9  C22 UNL     1       2.261   7.078   9.952  1.00  0.00     0.032 C 
HETATM   10  C23 UNL     1       3.581   7.704  10.457  1.00  0.00    -0.066 C 
HETATM   11  C24 UNL     1       4.315   8.613   9.763  1.00  0.00    -0.021 C 
HETATM   12  C25 UNL     1       5.627   9.190  10.214  1.00  0.00     0.052 C 
HETATM   13  C27 UNL     1       3.987   7.262  11.844  1.00  0.00     0.038 C 
HETATM   14  C28 UNL     1       2.897   7.489  12.891  1.00  0.00     0.042 C 
HETATM   15  C29 UNL     1       1.452   7.498  12.338  1.00  0.00     0.067 C 
HETATM   16  C30 UNL     1       1.042   8.962  12.045  1.00  0.00     0.047 C 
HETATM   17  O5  UNL     1       0.262   4.615  12.048  1.00  0.00    -0.351 OA
ENDROOT
BRANCH   1  18
HETATM   18  C14 UNL     1      -2.082   5.010  11.806  1.00  0.00     0.011 C 
HETATM   19  C12 UNL     1      -2.916   3.986  12.092  1.00  0.00    -0.064 C 
HETATM   20  C13 UNL     1      -2.709   2.553  11.695  1.00  0.00     0.048 C 
BRANCH  19  21
HETATM   21  C11 UNL     1      -4.155   4.301  12.817  1.00  0.00     0.003 C 
HETATM   22  C10 UNL     1      -4.636   5.521  13.099  1.00  0.00    -0.018 C 
BRANCH  22  23
HETATM   23  C9  UNL     1      -5.904   5.877  13.857  1.00  0.00     0.050 C 
HETATM   24  C4  UNL     1      -6.844   4.734  14.360  1.00  0.00     0.024 C 
HETATM   25  C5  UNL     1      -7.396   5.225  15.723  1.00  0.00     0.013 C 
HETATM   26  C6  UNL     1      -6.973   6.680  15.844  1.00  0.00     0.039 C 
HETATM   27  C7  UNL     1      -5.629   6.743  15.115  1.00  0.00     0.062 C 
HETATM   28  C8  UNL     1      -4.478   6.239  15.995  1.00  0.00     0.046 C 
BRANCH  24  29
HETATM   29  C2  UNL     1      -7.892   4.363  13.311  1.00  0.00    -0.088 C 
HETATM   30  C1  UNL     1      -8.104   3.117  12.852  1.00  0.00     0.014 C 
HETATM   31  C3  UNL     1      -8.735   5.501  12.798  1.00  0.00     0.043 C 
ENDBRANCH  24  29
BRANCH  27  32
HETATM   32  O1  UNL     1      -5.358   8.094  14.741  1.00  0.00    -0.390 OA
HETATM   33  H14 UNL     1      -5.234   8.608  15.557  1.00  0.00     0.210 HD
ENDBRANCH  27  32
ENDBRANCH  22  23
ENDBRANCH  19  21
ENDBRANCH   1  18
BRANCH  15  34
HETATM   34  O4  UNL     1       0.611   7.062  13.410  1.00  0.00    -0.389 OA
HETATM   35  H44 UNL     1       0.665   7.702  14.141  1.00  0.00     0.210 HD
ENDBRANCH  15  34
BRANCH  11  36
HETATM   36  C26 UNL     1       3.886   9.134   8.427  1.00  0.00     0.265 C 
HETATM   37  O3  UNL     1       2.961   8.665   7.777  1.00  0.00    -0.302 OA
ENDBRANCH  11  36
TORSDOF 7
ENDMDL
MODEL 3
REMARK minimizedAffinity -8.99632263
REMARK  7 active torsions:
REMARK  status: ('A' for Active; 'I' for Inactive)
REMARK    1  A    between atoms: C2_2  and  C4_4 
REMARK    2  A    between atoms: C7_7  and  O1_9 
REMARK    3  A    between atoms: C9_10  and  C10_11 
REMARK    4  A    between atoms: C11_12  and  C12_13 
REMARK    5  A    between atoms: C14_15  and  C15_16 
REMARK    6  A    between atoms: C24_26  and  C26_28 
REMARK    7  A    between atoms: C29_32  and  O4_34 
ROOT
HETATM    1  C15 UNL     1      -0.445   6.560  12.698  1.00  0.00     0.149 C 
HETATM    2  C16 UNL     1      -0.182   7.963  13.243  1.00  0.00     0.054 C 
HETATM    3  C17 UNL     1       1.208   7.901  13.946  1.00  0.00     0.050 C 
HETATM    4  C18 UNL     1       1.750   6.578  13.333  1.00  0.00     0.272 C 
HETATM    5  O2  UNL     1       2.303   6.699  12.023  1.00  0.00    -0.360 OA
HETATM    6  C19 UNL     1       3.664   7.080  12.002  1.00  0.00     0.171 C 
HETATM    7  C20 UNL     1       3.797   8.582  11.831  1.00  0.00     0.027 C 
HETATM    8  C21 UNL     1       2.553   9.380  12.210  1.00  0.00     0.012 C 
HETATM    9  C22 UNL     1       2.041   9.211  13.660  1.00  0.00     0.032 C 
HETATM   10  C23 UNL     1       3.150   9.508  14.696  1.00  0.00    -0.066 C 
HETATM   11  C24 UNL     1       3.672  10.741  14.928  1.00  0.00    -0.021 C 
HETATM   12  C25 UNL     1       4.787  11.039  15.891  1.00  0.00     0.052 C 
HETATM   13  C27 UNL     1       3.591   8.305  15.496  1.00  0.00     0.038 C 
HETATM   14  C28 UNL     1       2.436   7.592  16.197  1.00  0.00     0.042 C 
HETATM   15  C29 UNL     1       1.055   7.762  15.519  1.00  0.00     0.067 C 
HETATM   16  C30 UNL     1       0.319   8.949  16.185  1.00  0.00     0.047 C 
HETATM   17  O5  UNL     1       0.606   5.723  13.185  1.00  0.00    -0.351 OA
ENDROOT
BRANCH   1  18
HETATM   18  C14 UNL     1      -1.752   5.824  12.812  1.00  0.00     0.011 C 
HETATM   19  C12 UNL     1      -2.729   5.729  13.740  1.00  0.00    -0.064 C 
HETATM   20  C13 UNL     1      -2.697   6.342  15.110  1.00  0.00     0.048 C 
BRANCH  19  21
HETATM   21  C11 UNL     1      -3.912   4.924  13.401  1.00  0.00     0.003 C 
HETATM   22  C10 UNL     1      -5.067   5.367  12.882  1.00  0.00    -0.018 C 
BRANCH  22  23
HETATM   23  C9  UNL     1      -6.308   4.563  12.535  1.00  0.00     0.050 C 
HETATM   24  C4  UNL     1      -6.279   3.008  12.678  1.00  0.00     0.024 C 
HETATM   25  C5  UNL     1      -7.697   2.613  13.167  1.00  0.00     0.013 C 
HETATM   26  C6  UNL     1      -8.541   3.873  13.057  1.00  0.00     0.039 C 
HETATM   27  C7  UNL     1      -7.558   5.010  13.341  1.00  0.00     0.062 C 
HETATM   28  C8  UNL     1      -7.313   5.193  14.844  1.00  0.00     0.046 C 
BRANCH  24  29
HETATM   29  C2  UNL     1      -5.807   2.331  11.391  1.00  0.00    -0.088 C 
HETATM   30  C1  UNL     1      -5.882   1.010  11.153  1.00  0.00     0.014 C 
HETATM   31  C3  UNL     1      -5.242   3.250  10.339  1.00  0.00     0.043 C 
ENDBRANCH  24  29
BRANCH  27  32
HETATM   32  O1  UNL     1      -8.082   6.229  12.813  1.00  0.00    -0.390 OA
HETATM   33  H14 UNL     1      -8.883   6.449  13.317  1.00  0.00     0.210 HD
ENDBRANCH  27  32
ENDBRANCH  22  23
ENDBRANCH  19  21
ENDBRANCH   1  18
BRANCH  15  34
HETATM   34  O4  UNL     1       0.300   6.594  15.851  1.00  0.00    -0.389 OA
HETATM   35  H44 UNL     1       0.168   6.561  16.815  1.00  0.00     0.210 HD
ENDBRANCH  15  34
BRANCH  11  36
HETATM   36  C26 UNL     1       3.187  11.963  14.213  1.00  0.00     0.265 C 
HETATM   37  O3  UNL     1       2.279  12.676  14.620  1.00  0.00    -0.302 OA
ENDBRANCH  11  36
TORSDOF 7
ENDMDL
MODEL 4
REMARK minimizedAffinity -8.9780035
REMARK  7 active torsions:
REMARK  status: ('A' for Active; 'I' for Inactive)
REMARK    1  A    between atoms: C2_2  and  C4_4 
REMARK    2  A    between atoms: C7_7  and  O1_9 
REMARK    3  A    between atoms: C9_10  and  C10_11 
REMARK    4  A    between atoms: C11_12  and  C12_13 
REMARK    5  A    between atoms: C14_15  and  C15_16 
REMARK    6  A    between atoms: C24_26  and  C26_28 
REMARK    7  A    between atoms: C29_32  and  O4_34 
ROOT
HETATM    1  C15 UNL     1      -1.809   8.483  14.484  1.00  0.00     0.149 C 
HETATM    2  C16 UNL     1      -2.109   9.972  14.655  1.00  0.00     0.054 C 
HETATM    3  C17 UNL     1      -1.770  10.315  16.137  1.00  0.00     0.050 C 
HETATM    4  C18 UNL     1      -0.910   9.070  16.502  1.00  0.00     0.272 C 
HETATM    5  O2  UNL     1       0.449   9.125  16.071  1.00  0.00    -0.360 OA
HETATM    6  C19 UNL     1       1.315   9.788  16.970  1.00  0.00     0.171 C 
HETATM    7  C20 UNL     1       1.483  11.244  16.575  1.00  0.00     0.027 C 
HETATM    8  C21 UNL     1       0.377  11.794  15.680  1.00  0.00     0.012 C 
HETATM    9  C22 UNL     1      -1.062  11.722  16.241  1.00  0.00     0.032 C 
HETATM   10  C23 UNL     1      -1.171  12.397  17.628  1.00  0.00    -0.066 C 
HETATM   11  C24 UNL     1      -1.059  13.734  17.841  1.00  0.00    -0.021 C 
HETATM   12  C25 UNL     1      -1.106  14.401  19.187  1.00  0.00     0.052 C 
HETATM   13  C27 UNL     1      -1.471  11.443  18.761  1.00  0.00     0.038 C 
HETATM   14  C28 UNL     1      -2.723  10.600  18.521  1.00  0.00     0.042 C 
HETATM   15  C29 UNL     1      -3.078  10.367  17.033  1.00  0.00     0.067 C 
HETATM   16  C30 UNL     1      -4.098  11.445  16.592  1.00  0.00     0.047 C 
HETATM   17  O5  UNL     1      -1.493   7.972  15.782  1.00  0.00    -0.351 OA
ENDROOT
BRANCH   1  18
HETATM   18  C14 UNL     1      -2.702   7.501  13.775  1.00  0.00     0.011 C 
HETATM   19  C12 UNL     1      -2.557   6.259  13.265  1.00  0.00    -0.064 C 
HETATM   20  C13 UNL     1      -1.270   5.490  13.184  1.00  0.00     0.048 C 
BRANCH  19  21
HETATM   21  C11 UNL     1      -3.752   5.613  12.702  1.00  0.00     0.003 C 
HETATM   22  C10 UNL     1      -4.891   5.320  13.349  1.00  0.00    -0.018 C 
BRANCH  22  23
HETATM   23  C9  UNL     1      -6.133   4.642  12.799  1.00  0.00     0.050 C 
HETATM   24  C4  UNL     1      -6.198   3.082  12.748  1.00  0.00     0.024 C 
HETATM   25  C5  UNL     1      -7.673   2.721  13.059  1.00  0.00     0.013 C 
HETATM   26  C6  UNL     1      -8.438   4.035  13.035  1.00  0.00     0.039 C 
HETATM   27  C7  UNL     1      -7.428   5.066  13.543  1.00  0.00     0.062 C 
HETATM   28  C8  UNL     1      -7.316   5.052  15.072  1.00  0.00     0.046 C 
BRANCH  24  29
HETATM   29  C2  UNL     1      -5.643   2.536  11.432  1.00  0.00    -0.088 C 
HETATM   30  C1  UNL     1      -4.939   3.260  10.544  1.00  0.00     0.014 C 
HETATM   31  C3  UNL     1      -5.911   1.079  11.163  1.00  0.00     0.043 C 
ENDBRANCH  24  29
BRANCH  27  32
HETATM   32  O1  UNL     1      -7.838   6.370  13.128  1.00  0.00    -0.390 OA
HETATM   33  H14 UNL     1      -8.670   6.578  13.585  1.00  0.00     0.210 HD
ENDBRANCH  27  32
ENDBRANCH  22  23
ENDBRANCH  19  21
ENDBRANCH   1  18
BRANCH  15  34
HETATM   34  O4  UNL     1      -3.777   9.120  16.979  1.00  0.00    -0.389 OA
HETATM   35  H44 UNL     1      -4.604   9.193  17.486  1.00  0.00     0.210 HD
ENDBRANCH  15  34
BRANCH  11  36
HETATM   36  C26 UNL     1      -0.852  14.708  16.723  1.00  0.00     0.265 C 
HETATM   37  O3  UNL     1      -1.732  15.047  15.943  1.00  0.00    -0.302 OA
ENDBRANCH  11  36
TORSDOF 7
ENDMDL
MODEL 5
REMARK minimizedAffinity -8.96471882
REMARK  7 active torsions:
REMARK  status: ('A' for Active; 'I' for Inactive)
REMARK    1  A    between atoms: C2_2  and  C4_4 
REMARK    2  A    between atoms: C7_7  and  O1_9 
REMARK    3  A    between atoms: C9_10  and  C10_11 
REMARK    4  A    between atoms: C11_12  and  C12_13 
REMARK    5  A    between atoms: C14_15  and  C15_16 
REMARK    6  A    between atoms: C24_26  and  C26_28 
REMARK    7  A    between atoms: C29_32  and  O4_34 
ROOT
HETATM    1  C15 UNL     1      -3.329   9.543  15.827  1.00  0.00     0.149 C 
HETATM    2  C16 UNL     1      -2.087   9.127  16.614  1.00  0.00     0.054 C 
HETATM    3  C17 UNL     1      -1.056  10.283  16.439  1.00  0.00     0.050 C 
HETATM    4  C18 UNL     1      -2.008  11.405  15.931  1.00  0.00     0.272 C 
HETATM    5  O2  UNL     1      -2.747  12.079  16.948  1.00  0.00    -0.360 OA
HETATM    6  C19 UNL     1      -2.056  13.157  17.547  1.00  0.00     0.171 C 
HETATM    7  C20 UNL     1      -1.363  12.707  18.820  1.00  0.00     0.027 C 
HETATM    8  C21 UNL     1      -1.126  11.203  18.920  1.00  0.00     0.012 C 
HETATM    9  C22 UNL     1      -0.288  10.561  17.790  1.00  0.00     0.032 C 
HETATM   10  C23 UNL     1       1.078  11.264  17.621  1.00  0.00    -0.066 C 
HETATM   11  C24 UNL     1       2.089  11.204  18.527  1.00  0.00    -0.021 C 
HETATM   12  C25 UNL     1       3.403  11.924  18.406  1.00  0.00     0.052 C 
HETATM   13  C27 UNL     1       1.239  12.005  16.314  1.00  0.00     0.038 C 
HETATM   14  C28 UNL     1       0.978  11.128  15.090  1.00  0.00     0.042 C 
HETATM   15  C29 UNL     1       0.026   9.932  15.334  1.00  0.00     0.067 C 
HETATM   16  C30 UNL     1       0.876   8.681  15.663  1.00  0.00     0.047 C 
HETATM   17  O5  UNL     1      -2.992  10.740  15.123  1.00  0.00    -0.351 OA
ENDROOT
BRANCH   1  18
HETATM   18  C14 UNL     1      -4.111   8.640  14.913  1.00  0.00     0.011 C 
HETATM   19  C12 UNL     1      -3.844   7.934  13.793  1.00  0.00    -0.064 C 
HETATM   20  C13 UNL     1      -2.552   7.963  13.028  1.00  0.00     0.048 C 
BRANCH  19  21
HETATM   21  C11 UNL     1      -4.920   7.095  13.245  1.00  0.00     0.003 C 
HETATM   22  C10 UNL     1      -5.102   5.782  13.451  1.00  0.00    -0.018 C 
BRANCH  22  23
HETATM   23  C9  UNL     1      -6.193   4.887  12.889  1.00  0.00     0.050 C 
HETATM   24  C4  UNL     1      -5.987   3.339  12.879  1.00  0.00     0.024 C 
HETATM   25  C5  UNL     1      -7.387   2.736  13.165  1.00  0.00     0.013 C 
HETATM   26  C6  UNL     1      -8.365   3.897  13.088  1.00  0.00     0.039 C 
HETATM   27  C7  UNL     1      -7.562   5.098  13.591  1.00  0.00     0.062 C 
HETATM   28  C8  UNL     1      -7.492   5.138  15.122  1.00  0.00     0.046 C 
BRANCH  24  29
HETATM   29  C2  UNL     1      -5.310   2.868  11.592  1.00  0.00    -0.088 C 
HETATM   30  C1  UNL     1      -4.283   3.500  10.996  1.00  0.00     0.014 C 
HETATM   31  C3  UNL     1      -5.851   1.595  10.996  1.00  0.00     0.043 C 
ENDBRANCH  24  29
BRANCH  27  32
HETATM   32  O1  UNL     1      -8.178   6.302  13.132  1.00  0.00    -0.390 OA
HETATM   33  H14 UNL     1      -9.046   6.373  13.563  1.00  0.00     0.210 HD
ENDBRANCH  27  32
ENDBRANCH  22  23
ENDBRANCH  19  21
ENDBRANCH   1  18
BRANCH  15  34
HETATM   34  O4  UNL     1      -0.603   9.660  14.079  1.00  0.00    -0.389 OA
HETATM   35  H44 UNL     1       0.072   9.389  13.433  1.00  0.00     0.210 HD
ENDBRANCH  15  34
BRANCH  11  36
HETATM   36  C26 UNL     1       1.988  10.402  19.787  1.00  0.00     0.265 C 
HETATM   37  O3  UNL     1       2.865   9.648  20.188  1.00  0.00    -0.302 OA
ENDBRANCH  11  36
TORSDOF 7
ENDMDL
MODEL 6
REMARK minimizedAffinity -8.7724781
REMARK  7 active torsions:
REMARK  status: ('A' for Active; 'I' for Inactive)
REMARK    1  A    between atoms: C2_2  and  C4_4 
REMARK    2  A    between atoms: C7_7  and  O1_9 
REMARK    3  A    between atoms: C9_10  and  C10_11 
REMARK    4  A    between atoms: C11_12  and  C12_13 
REMARK    5  A    between atoms: C14_15  and  C15_16 
REMARK    6  A    between atoms: C24_26  and  C26_28 
REMARK    7  A    between atoms: C29_32  and  O4_34 
ROOT
HETATM    1  C15 UNL     1      -0.501   9.936  16.706  1.00  0.00     0.149 C 
HETATM    2  C16 UNL     1       0.309   9.835  15.414  1.00  0.00     0.054 C 
HETATM    3  C17 UNL     1      -0.088   8.477  14.759  1.00  0.00     0.050 C 
HETATM    4  C18 UNL     1      -1.396   8.181  15.548  1.00  0.00     0.272 C 
HETATM    5  O2  UNL     1      -2.556   8.864  15.076  1.00  0.00    -0.360 OA
HETATM    6  C19 UNL     1      -3.230   8.203  14.024  1.00  0.00     0.171 C 
HETATM    7  C20 UNL     1      -2.778   8.742  12.678  1.00  0.00     0.027 C 
HETATM    8  C21 UNL     1      -1.429   9.453  12.696  1.00  0.00     0.012 C 
HETATM    9  C22 UNL     1      -0.221   8.625  13.194  1.00  0.00     0.032 C 
HETATM   10  C23 UNL     1      -0.070   7.303  12.406  1.00  0.00    -0.066 C 
HETATM   11  C24 UNL     1       0.301   7.226  11.101  1.00  0.00    -0.021 C 
HETATM   12  C25 UNL     1       0.399   5.955  10.305  1.00  0.00     0.052 C 
HETATM   13  C27 UNL     1      -0.318   6.059  13.227  1.00  0.00     0.038 C 
HETATM   14  C28 UNL     1       0.544   5.988  14.487  1.00  0.00     0.042 C 
HETATM   15  C29 UNL     1       0.998   7.357  15.046  1.00  0.00     0.067 C 
HETATM   16  C30 UNL     1       2.401   7.684  14.479  1.00  0.00     0.047 C 
HETATM   17  O5  UNL     1      -1.171   8.684  16.874  1.00  0.00    -0.351 OA
ENDROOT
BRANCH   1  18
HETATM   18  C14 UNL     1       0.049  10.380  18.034  1.00  0.00     0.011 C 
HETATM   19  C12 UNL     1      -0.354  11.216  19.015  1.00  0.00    -0.064 C 
HETATM   20  C13 UNL     1      -1.567  12.100  18.969  1.00  0.00     0.048 C 
BRANCH  19  21
HETATM   21  C11 UNL     1       0.484  11.304  20.220  1.00  0.00     0.003 C 
HETATM   22  C10 UNL     1       1.820  11.424  20.265  1.00  0.00    -0.018 C 
BRANCH  22  23
HETATM   23  C9  UNL     1       2.713  11.504  21.492  1.00  0.00     0.050 C 
HETATM   24  C4  UNL     1       3.548  10.253  21.915  1.00  0.00     0.024 C 
HETATM   25  C5  UNL     1       4.886  10.818  22.460  1.00  0.00     0.013 C 
HETATM   26  C6  UNL     1       4.692  12.322  22.563  1.00  0.00     0.039 C 
HETATM   27  C7  UNL     1       3.746  12.659  21.408  1.00  0.00     0.062 C 
HETATM   28  C8  UNL     1       4.489  12.752  20.070  1.00  0.00     0.046 C 
BRANCH  24  29
HETATM   29  C2  UNL     1       2.768   9.350  22.871  1.00  0.00    -0.088 C 
HETATM   30  C1  UNL     1       2.109   8.238  22.501  1.00  0.00     0.014 C 
HETATM   31  C3  UNL     1       2.781   9.764  24.319  1.00  0.00     0.043 C 
ENDBRANCH  24  29
BRANCH  27  32
HETATM   32  O1  UNL     1       3.115  13.914  21.667  1.00  0.00    -0.390 OA
HETATM   33  H14 UNL     1       3.802  14.601  21.647  1.00  0.00     0.210 HD
ENDBRANCH  27  32
ENDBRANCH  22  23
ENDBRANCH  19  21
ENDBRANCH   1  18
BRANCH  15  34
HETATM   34  O4  UNL     1       1.176   7.175  16.453  1.00  0.00    -0.389 OA
HETATM   35  H44 UNL     1       1.887   6.529  16.606  1.00  0.00     0.210 HD
ENDBRANCH  15  34
BRANCH  11  36
HETATM   36  C26 UNL     1       0.640   8.439  10.292  1.00  0.00     0.265 C 
HETATM   37  O3  UNL     1       0.049   8.765   9.271  1.00  0.00    -0.302 OA
ENDBRANCH  11  36
TORSDOF 7
ENDMDL
MODEL 7
REMARK minimizedAffinity -8.68908024
REMARK  7 active torsions:
REMARK  status: ('A' for Active; 'I' for Inactive)
REMARK    1  A    between atoms: C2_2  and  C4_4 
REMARK    2  A    between atoms: C7_7  and  O1_9 
REMARK    3  A    between atoms: C9_10  and  C10_11 
REMARK    4  A    between atoms: C11_12  and  C12_13 
REMARK    5  A    between atoms: C14_15  and  C15_16 
REMARK    6  A    between atoms: C24_26  and  C26_28 
REMARK    7  A    between atoms: C29_32  and  O4_34 
ROOT
HETATM    1  C15 UNL     1       1.774   7.744  11.693  1.00  0.00     0.149 C 
HETATM    2  C16 UNL     1       2.388   8.945  12.412  1.00  0.00     0.054 C 
HETATM    3  C17 UNL     1       3.750   8.454  12.989  1.00  0.00     0.050 C 
HETATM    4  C18 UNL     1       3.934   7.155  12.152  1.00  0.00     0.272 C 
HETATM    5  O2  UNL     1       4.446   7.351  10.835  1.00  0.00    -0.360 OA
HETATM    6  C19 UNL     1       5.856   7.406  10.764  1.00  0.00     0.171 C 
HETATM    7  C20 UNL     1       6.338   8.845  10.800  1.00  0.00     0.027 C 
HETATM    8  C21 UNL     1       5.337   9.838  11.385  1.00  0.00     0.012 C 
HETATM    9  C22 UNL     1       4.860   9.564  12.830  1.00  0.00     0.032 C 
HETATM   10  C23 UNL     1       6.050   9.431  13.809  1.00  0.00    -0.066 C 
HETATM   11  C24 UNL     1       6.861  10.458  14.175  1.00  0.00    -0.021 C 
HETATM   12  C25 UNL     1       8.054  10.335  15.082  1.00  0.00     0.052 C 
HETATM   13  C27 UNL     1       6.223   8.048  14.392  1.00  0.00     0.038 C 
HETATM   14  C28 UNL     1       4.960   7.519  15.071  1.00  0.00     0.042 C 
HETATM   15  C29 UNL     1       3.634   8.107  14.533  1.00  0.00     0.067 C 
HETATM   16  C30 UNL     1       3.231   9.312  15.418  1.00  0.00     0.047 C 
HETATM   17  O5  UNL     1       2.613   6.621  11.972  1.00  0.00    -0.351 OA
ENDROOT
BRANCH   1  18
HETATM   18  C14 UNL     1       0.335   7.320  11.801  1.00  0.00     0.011 C 
HETATM   19  C12 UNL     1      -0.504   6.999  12.809  1.00  0.00    -0.064 C 
HETATM   20  C13 UNL     1      -0.126   6.877  14.257  1.00  0.00     0.048 C 
BRANCH  19  21
HETATM   21  C11 UNL     1      -1.902   6.704  12.463  1.00  0.00     0.003 C 
HETATM   22  C10 UNL     1      -2.744   5.897  13.127  1.00  0.00    -0.018 C 
BRANCH  22  23
HETATM   23  C9  UNL     1      -4.186   5.562  12.787  1.00  0.00     0.050 C 
HETATM   24  C4  UNL     1      -4.664   4.076  12.850  1.00  0.00     0.024 C 
HETATM   25  C5  UNL     1      -6.124   4.136  13.371  1.00  0.00     0.013 C 
HETATM   26  C6  UNL     1      -6.512   5.606  13.355  1.00  0.00     0.039 C 
HETATM   27  C7  UNL     1      -5.205   6.342  13.659  1.00  0.00     0.062 C 
HETATM   28  C8  UNL     1      -4.887   6.346  15.159  1.00  0.00     0.046 C 
BRANCH  24  29
HETATM   29  C2  UNL     1      -4.463   3.361  11.514  1.00  0.00    -0.088 C 
HETATM   30  C1  UNL     1      -3.436   3.587  10.676  1.00  0.00     0.014 C 
HETATM   31  C3  UNL     1      -5.501   2.326  11.163  1.00  0.00     0.043 C 
ENDBRANCH  24  29
BRANCH  27  32
HETATM   32  O1  UNL     1      -5.312   7.695  13.213  1.00  0.00    -0.390 OA
HETATM   33  H14 UNL     1      -5.988   8.133  13.756  1.00  0.00     0.210 HD
ENDBRANCH  27  32
ENDBRANCH  22  23
ENDBRANCH  19  21
ENDBRANCH   1  18
BRANCH  15  34
HETATM   34  O4  UNL     1       2.635   7.108  14.752  1.00  0.00    -0.389 OA
HETATM   35  H44 UNL     1       2.538   6.954  15.707  1.00  0.00     0.210 HD
ENDBRANCH  15  34
BRANCH  11  36
HETATM   36  C26 UNL     1       6.654  11.856  13.683  1.00  0.00     0.265 C 
HETATM   37  O3  UNL     1       7.472  12.470  13.011  1.00  0.00    -0.302 OA
ENDBRANCH  11  36
TORSDOF 7
ENDMDL
MODEL 8
REMARK minimizedAffinity -8.64607143
REMARK  7 active torsions:
REMARK  status: ('A' for Active; 'I' for Inactive)
REMARK    1  A    between atoms: C2_2  and  C4_4 
REMARK    2  A    between atoms: C7_7  and  O1_9 
REMARK    3  A    between atoms: C9_10  and  C10_11 
REMARK    4  A    between atoms: C11_12  and  C12_13 
REMARK    5  A    between atoms: C14_15  and  C15_16 
REMARK    6  A    between atoms: C24_26  and  C26_28 
REMARK    7  A    between atoms: C29_32  and  O4_34 
ROOT
HETATM    1  C15 UNL     1     -10.819   8.628  13.967  1.00  0.00     0.149 C 
HETATM    2  C16 UNL     1     -12.026   8.368  13.067  1.00  0.00     0.054 C 
HETATM    3  C17 UNL     1     -13.280   8.795  13.890  1.00  0.00     0.050 C 
HETATM    4  C18 UNL     1     -12.588   9.648  14.993  1.00  0.00     0.272 C 
HETATM    5  O2  UNL     1     -12.259  10.982  14.608  1.00  0.00    -0.360 OA
HETATM    6  C19 UNL     1     -13.313  11.910  14.775  1.00  0.00     0.171 C 
HETATM    7  C20 UNL     1     -14.081  12.085  13.477  1.00  0.00     0.027 C 
HETATM    8  C21 UNL     1     -13.919  10.942  12.480  1.00  0.00     0.012 C 
HETATM    9  C22 UNL     1     -14.329   9.534  12.973  1.00  0.00     0.032 C 
HETATM   10  C23 UNL     1     -15.780   9.517  13.509  1.00  0.00    -0.066 C 
HETATM   11  C24 UNL     1     -16.886   9.666  12.734  1.00  0.00    -0.021 C 
HETATM   12  C25 UNL     1     -18.299   9.707  13.245  1.00  0.00     0.052 C 
HETATM   13  C27 UNL     1     -15.890   9.260  14.994  1.00  0.00     0.038 C 
HETATM   14  C28 UNL     1     -15.181   7.981  15.438  1.00  0.00     0.042 C 
HETATM   15  C29 UNL     1     -14.004   7.539  14.535  1.00  0.00     0.067 C 
HETATM   16  C30 UNL     1     -14.532   6.518  13.497  1.00  0.00     0.047 C 
HETATM   17  O5  UNL     1     -11.330   9.005  15.248  1.00  0.00    -0.351 OA
ENDROOT
BRANCH   1  18
HETATM   18  C14 UNL     1      -9.668   7.678  14.159  1.00  0.00     0.011 C 
HETATM   19  C12 UNL     1      -8.920   7.266  15.205  1.00  0.00    -0.064 C 
HETATM   20  C13 UNL     1      -9.003   7.802  16.605  1.00  0.00     0.048 C 
BRANCH  19  21
HETATM   21  C11 UNL     1      -7.907   6.232  14.950  1.00  0.00     0.003 C 
HETATM   22  C10 UNL     1      -6.780   6.366  14.233  1.00  0.00    -0.018 C 
BRANCH  22  23
HETATM   23  C9  UNL     1      -5.723   5.315  13.942  1.00  0.00     0.050 C 
HETATM   24  C4  UNL     1      -5.774   4.529  12.593  1.00  0.00     0.024 C 
HETATM   25  C5  UNL     1      -4.293   4.317  12.185  1.00  0.00     0.013 C 
HETATM   26  C6  UNL     1      -3.464   4.748  13.385  1.00  0.00     0.039 C 
HETATM   27  C7  UNL     1      -4.279   5.879  14.016  1.00  0.00     0.062 C 
HETATM   28  C8  UNL     1      -4.077   7.209  13.281  1.00  0.00     0.046 C 
BRANCH  24  29
HETATM   29  C2  UNL     1      -6.620   3.262  12.709  1.00  0.00    -0.088 C 
HETATM   30  C1  UNL     1      -6.522   2.201  11.887  1.00  0.00     0.014 C 
HETATM   31  C3  UNL     1      -7.607   3.236  13.847  1.00  0.00     0.043 C 
ENDBRANCH  24  29
BRANCH  27  32
HETATM   32  O1  UNL     1      -3.878   6.045  15.377  1.00  0.00    -0.390 OA
HETATM   33  H14 UNL     1      -2.958   6.358  15.378  1.00  0.00     0.210 HD
ENDBRANCH  27  32
ENDBRANCH  22  23
ENDBRANCH  19  21
ENDBRANCH   1  18
BRANCH  15  34
HETATM   34  O4  UNL     1     -13.105   6.814  15.377  1.00  0.00    -0.389 OA
HETATM   35  H44 UNL     1     -13.551   6.018  15.714  1.00  0.00     0.210 HD
ENDBRANCH  15  34
BRANCH  11  36
HETATM   36  C26 UNL     1     -16.806   9.831  11.249  1.00  0.00     0.265 C 
HETATM   37  O3  UNL     1     -16.309   9.002  10.497  1.00  0.00    -0.302 OA
ENDBRANCH  11  36
TORSDOF 7
ENDMDL
MODEL 9
REMARK minimizedAffinity -8.57735825
REMARK  7 active torsions:
REMARK  status: ('A' for Active; 'I' for Inactive)
REMARK    1  A    between atoms: C2_2  and  C4_4 
REMARK    2  A    between atoms: C7_7  and  O1_9 
REMARK    3  A    between atoms: C9_10  and  C10_11 
REMARK    4  A    between atoms: C11_12  and  C12_13 
REMARK    5  A    between atoms: C14_15  and  C15_16 
REMARK    6  A    between atoms: C24_26  and  C26_28 
REMARK    7  A    between atoms: C29_32  and  O4_34 
ROOT
HETATM    1  C15 UNL     1     -12.178   7.461  13.207  1.00  0.00     0.149 C 
HETATM    2  C16 UNL     1     -13.490   6.702  13.404  1.00  0.00     0.054 C 
HETATM    3  C17 UNL     1     -14.517   7.745  13.940  1.00  0.00     0.050 C 
HETATM    4  C18 UNL     1     -13.771   9.059  13.568  1.00  0.00     0.272 C 
HETATM    5  O2  UNL     1     -13.909   9.469  12.208  1.00  0.00    -0.360 OA
HETATM    6  C19 UNL     1     -15.066  10.240  11.950  1.00  0.00     0.171 C 
HETATM    7  C20 UNL     1     -16.195   9.359  11.447  1.00  0.00     0.027 C 
HETATM    8  C21 UNL     1     -16.049   7.879  11.785  1.00  0.00     0.012 C 
HETATM    9  C22 UNL     1     -15.936   7.524  13.286  1.00  0.00     0.032 C 
HETATM   10  C23 UNL     1     -17.118   8.100  14.100  1.00  0.00    -0.066 C 
HETATM   11  C24 UNL     1     -18.402   7.666  14.002  1.00  0.00    -0.021 C 
HETATM   12  C25 UNL     1     -19.571   8.251  14.743  1.00  0.00     0.052 C 
HETATM   13  C27 UNL     1     -16.727   9.178  15.084  1.00  0.00     0.038 C 
HETATM   14  C28 UNL     1     -15.626   8.741  16.050  1.00  0.00     0.042 C 
HETATM   15  C29 UNL     1     -14.689   7.632  15.513  1.00  0.00     0.067 C 
HETATM   16  C30 UNL     1     -15.223   6.259  15.989  1.00  0.00     0.047 C 
HETATM   17  O5  UNL     1     -12.374   8.773  13.739  1.00  0.00    -0.351 OA
ENDROOT
BRANCH   1  18
HETATM   18  C14 UNL     1     -10.823   6.960  13.625  1.00  0.00     0.011 C 
HETATM   19  C12 UNL     1      -9.922   7.292  14.575  1.00  0.00    -0.064 C 
HETATM   20  C13 UNL     1     -10.024   8.465  15.506  1.00  0.00     0.048 C 
BRANCH  19  21
HETATM   21  C11 UNL     1      -8.713   6.462  14.684  1.00  0.00     0.003 C 
HETATM   22  C10 UNL     1      -7.610   6.540  13.924  1.00  0.00    -0.018 C 
BRANCH  22  23
HETATM   23  C9  UNL     1      -6.354   5.690  14.005  1.00  0.00     0.050 C 
HETATM   24  C4  UNL     1      -5.901   4.869  12.754  1.00  0.00     0.024 C 
HETATM   25  C5  UNL     1      -4.351   4.917  12.770  1.00  0.00     0.013 C 
HETATM   26  C6  UNL     1      -3.967   5.526  14.110  1.00  0.00     0.039 C 
HETATM   27  C7  UNL     1      -5.100   6.508  14.414  1.00  0.00     0.062 C 
HETATM   28  C8  UNL     1      -4.929   7.831  13.658  1.00  0.00     0.046 C 
BRANCH  24  29
HETATM   29  C2  UNL     1      -6.523   3.473  12.739  1.00  0.00    -0.088 C 
HETATM   30  C1  UNL     1      -7.518   3.074  13.551  1.00  0.00     0.014 C 
HETATM   31  C3  UNL     1      -5.965   2.519  11.717  1.00  0.00     0.043 C 
ENDBRANCH  24  29
BRANCH  27  32
HETATM   32  O1  UNL     1      -5.120   6.784  15.816  1.00  0.00    -0.390 OA
HETATM   33  H14 UNL     1      -4.301   7.258  16.036  1.00  0.00     0.210 HD
ENDBRANCH  27  32
ENDBRANCH  22  23
ENDBRANCH  19  21
ENDBRANCH   1  18
BRANCH  15  34
HETATM   34  O4  UNL     1     -13.434   7.816  16.173  1.00  0.00    -0.389 OA
HETATM   35  H44 UNL     1     -13.551   7.684  17.130  1.00  0.00     0.210 HD
ENDBRANCH  15  34
BRANCH  11  36
HETATM   36  C26 UNL     1     -18.798   6.538  13.101  1.00  0.00     0.265 C 
HETATM   37  O3  UNL     1     -18.687   5.356  13.399  1.00  0.00    -0.302 OA
ENDBRANCH  11  36
TORSDOF 7
ENDMDL
