MODEL 1
REMARK minimizedAffinity -8.62377071
REMARK  4 active torsions:
REMARK  status: ('A' for Active; 'I' for Inactive)
REMARK    1  A    between atoms: C4_4  and  C5_5 
REMARK    2  A    between atoms: C5_5  and  C6_7 
REMARK    3  A    between atoms: C6_7  and  C7_8 
REMARK    4  A    between atoms: C7_8  and  C9_10 
ROOT
HETATM    1  C9  UNL     1       2.793   8.069  12.873  1.00  0.00    -0.001 C 
HETATM    2  C10 UNL     1       3.228   7.652  14.300  1.00  0.00     0.007 C 
HETATM    3  C11 UNL     1       1.973   7.754  15.199  1.00  0.00     0.015 C 
HETATM    4  C12 UNL     1       0.891   8.418  14.318  1.00  0.00    -0.013 C 
HETATM    5  C13 UNL     1       1.101   9.959  14.473  1.00  0.00     0.021 C 
HETATM    6  C14 UNL     1      -0.575   8.156  14.638  1.00  0.00    -0.070 C 
HETATM    7  C15 UNL     1      -1.005   7.897  15.884  1.00  0.00    -0.022 C 
HETATM    8  C16 UNL     1      -2.433   7.691  16.274  1.00  0.00     0.034 C 
HETATM    9  C17 UNL     1      -3.504   7.843  15.164  1.00  0.00     0.013 C 
HETATM   10  C18 UNL     1      -4.271   6.514  14.820  1.00  0.00     0.018 C 
HETATM   11  C19 UNL     1      -4.987   5.969  16.078  1.00  0.00     0.023 C 
HETATM   12  C20 UNL     1      -3.378   5.405  14.243  1.00  0.00     0.023 C 
HETATM   13  C21 UNL     1      -5.376   6.811  13.789  1.00  0.00     0.135 C 
HETATM   14  O2  UNL     1      -6.225   5.972  13.481  1.00  0.00    -0.297 OA
HETATM   15  C22 UNL     1      -5.396   8.181  13.158  1.00  0.00     0.080 C 
HETATM   16  C23 UNL     1      -3.981   8.524  12.723  1.00  0.00     0.017 C 
HETATM   17  C24 UNL     1      -2.997   8.678  13.920  1.00  0.00    -0.031 C 
HETATM   18  C25 UNL     1      -2.985  10.178  14.331  1.00  0.00     0.016 C 
HETATM   19  C26 UNL     1      -1.557   8.220  13.476  1.00  0.00     0.024 C 
HETATM   20  C27 UNL     1      -0.990   8.962  12.236  1.00  0.00     0.010 C 
HETATM   21  C28 UNL     1       0.448   8.571  11.816  1.00  0.00     0.011 C 
HETATM   22  C29 UNL     1       1.249   7.833  12.908  1.00  0.00    -0.029 C 
HETATM   23  C30 UNL     1       0.968   6.303  12.775  1.00  0.00     0.016 C 
ENDROOT
BRANCH   1  24
HETATM   24  C7  UNL     1       3.578   7.480  11.664  1.00  0.00    -0.007 C 
HETATM   25  C8  UNL     1       5.072   7.345  12.007  1.00  0.00     0.011 C 
BRANCH  24  26
HETATM   26  C6  UNL     1       3.030   6.194  11.010  1.00  0.00     0.087 C 
BRANCH  26  27
HETATM   27  C5  UNL     1       3.686   5.706   9.720  1.00  0.00     0.149 C 
HETATM   28  O1  UNL     1       4.802   5.201   9.683  1.00  0.00    -0.293 OA
BRANCH  27  29
HETATM   29  C4  UNL     1       2.863   5.888   8.479  1.00  0.00     0.052 C 
HETATM   30  C2  UNL     1       2.602   7.037   7.826  1.00  0.00    -0.084 C 
HETATM   31  C1  UNL     1       3.056   8.413   8.232  1.00  0.00     0.043 C 
HETATM   32  C3  UNL     1       1.775   7.018   6.563  1.00  0.00     0.043 C 
ENDBRANCH  27  29
ENDBRANCH  26  27
ENDBRANCH  24  26
ENDBRANCH   1  24
TORSDOF 4
ENDMDL
MODEL 2
REMARK minimizedAffinity -8.48277283
REMARK  4 active torsions:
REMARK  status: ('A' for Active; 'I' for Inactive)
REMARK    1  A    between atoms: C4_4  and  C5_5 
REMARK    2  A    between atoms: C5_5  and  C6_7 
REMARK    3  A    between atoms: C6_7  and  C7_8 
REMARK    4  A    between atoms: C7_8  and  C9_10 
ROOT
HETATM    1  C9  UNL     1      -2.978   5.727  12.757  1.00  0.00    -0.001 C 
HETATM    2  C10 UNL     1      -1.606   5.137  13.167  1.00  0.00     0.007 C 
HETATM    3  C11 UNL     1      -0.839   6.258  13.910  1.00  0.00     0.015 C 
HETATM    4  C12 UNL     1      -1.703   7.527  13.737  1.00  0.00    -0.013 C 
HETATM    5  C13 UNL     1      -1.266   8.159  12.376  1.00  0.00     0.021 C 
HETATM    6  C14 UNL     1      -1.587   8.636  14.775  1.00  0.00    -0.070 C 
HETATM    7  C15 UNL     1      -0.456   8.865  15.462  1.00  0.00    -0.022 C 
HETATM    8  C16 UNL     1      -0.258   9.971  16.448  1.00  0.00     0.034 C 
HETATM    9  C17 UNL     1      -1.432  10.962  16.651  1.00  0.00     0.013 C 
HETATM   10  C18 UNL     1      -2.077  10.916  18.085  1.00  0.00     0.018 C 
HETATM   11  C19 UNL     1      -1.012  11.237  19.160  1.00  0.00     0.023 C 
HETATM   12  C20 UNL     1      -2.738   9.574  18.433  1.00  0.00     0.023 C 
HETATM   13  C21 UNL     1      -3.152  12.013  18.200  1.00  0.00     0.135 C 
HETATM   14  O2  UNL     1      -3.686  12.293  19.275  1.00  0.00    -0.297 OA
HETATM   15  C22 UNL     1      -3.538  12.750  16.942  1.00  0.00     0.080 C 
HETATM   16  C23 UNL     1      -3.757  11.728  15.840  1.00  0.00     0.017 C 
HETATM   17  C24 UNL     1      -2.456  10.971  15.445  1.00  0.00    -0.031 C 
HETATM   18  C25 UNL     1      -1.795  11.749  14.271  1.00  0.00     0.016 C 
HETATM   19  C26 UNL     1      -2.818   9.506  14.995  1.00  0.00     0.024 C 
HETATM   20  C27 UNL     1      -3.846   9.415  13.836  1.00  0.00     0.010 C 
HETATM   21  C28 UNL     1      -4.174   7.987  13.336  1.00  0.00     0.011 C 
HETATM   22  C29 UNL     1      -3.146   6.917  13.758  1.00  0.00    -0.029 C 
HETATM   23  C30 UNL     1      -3.567   6.350  15.151  1.00  0.00     0.016 C 
ENDROOT
BRANCH   1  24
HETATM   24  C7  UNL     1      -4.181   4.751  12.602  1.00  0.00    -0.007 C 
HETATM   25  C8  UNL     1      -3.696   3.291  12.635  1.00  0.00     0.011 C 
BRANCH  24  26
HETATM   26  C6  UNL     1      -5.401   4.961  13.523  1.00  0.00     0.087 C 
BRANCH  26  27
HETATM   27  C5  UNL     1      -6.768   4.492  13.027  1.00  0.00     0.149 C 
HETATM   28  O1  UNL     1      -6.917   3.535  12.276  1.00  0.00    -0.293 OA
BRANCH  27  29
HETATM   29  C4  UNL     1      -7.935   5.291  13.527  1.00  0.00     0.052 C 
HETATM   30  C2  UNL     1      -8.885   5.905  12.796  1.00  0.00    -0.084 C 
HETATM   31  C1  UNL     1      -8.957   5.954  11.294  1.00  0.00     0.043 C 
HETATM   32  C3  UNL     1     -10.012   6.639  13.484  1.00  0.00     0.043 C 
ENDBRANCH  27  29
ENDBRANCH  26  27
ENDBRANCH  24  26
ENDBRANCH   1  24
TORSDOF 4
ENDMDL
MODEL 3
REMARK minimizedAffinity -8.40565109
REMARK  4 active torsions:
REMARK  status: ('A' for Active; 'I' for Inactive)
REMARK    1  A    between atoms: C4_4  and  C5_5 
REMARK    2  A    between atoms: C5_5  and  C6_7 
REMARK    3  A    between atoms: C6_7  and  C7_8 
REMARK    4  A    between atoms: C7_8  and  C9_10 
ROOT
HETATM    1  C9  UNL     1      -4.969   7.915  15.351  1.00  0.00    -0.001 C 
HETATM    2  C10 UNL     1      -4.730   9.442  15.458  1.00  0.00     0.007 C 
HETATM    3  C11 UNL     1      -3.251   9.692  15.076  1.00  0.00     0.015 C 
HETATM    4  C12 UNL     1      -2.617   8.289  14.952  1.00  0.00    -0.013 C 
HETATM    5  C13 UNL     1      -2.157   7.900  16.394  1.00  0.00     0.021 C 
HETATM    6  C14 UNL     1      -1.397   8.114  14.057  1.00  0.00    -0.070 C 
HETATM    7  C15 UNL     1      -0.517   9.104  13.838  1.00  0.00    -0.022 C 
HETATM    8  C16 UNL     1       0.728   8.981  13.021  1.00  0.00     0.034 C 
HETATM    9  C17 UNL     1       1.056   7.587  12.427  1.00  0.00     0.013 C 
HETATM   10  C18 UNL     1       1.011   7.527  10.856  1.00  0.00     0.018 C 
HETATM   11  C19 UNL     1       2.020   8.532  10.253  1.00  0.00     0.023 C 
HETATM   12  C20 UNL     1      -0.376   7.803  10.257  1.00  0.00     0.023 C 
HETATM   13  C21 UNL     1       1.457   6.131  10.383  1.00  0.00     0.135 C 
HETATM   14  O2  UNL     1       1.668   5.880   9.194  1.00  0.00    -0.297 OA
HETATM   15  C22 UNL     1       1.636   5.060  11.430  1.00  0.00     0.080 C 
HETATM   16  C23 UNL     1       0.427   5.087  12.349  1.00  0.00     0.017 C 
HETATM   17  C24 UNL     1       0.320   6.403  13.174  1.00  0.00    -0.031 C 
HETATM   18  C25 UNL     1       1.051   6.173  14.528  1.00  0.00     0.016 C 
HETATM   19  C26 UNL     1      -1.197   6.743  13.424  1.00  0.00     0.024 C 
HETATM   20  C27 UNL     1      -2.011   5.622  14.123  1.00  0.00     0.010 C 
HETATM   21  C28 UNL     1      -3.491   5.955  14.432  1.00  0.00     0.011 C 
HETATM   22  C29 UNL     1      -3.823   7.461  14.390  1.00  0.00    -0.029 C 
HETATM   23  C30 UNL     1      -4.214   7.838  12.925  1.00  0.00     0.016 C 
ENDROOT
BRANCH   1  24
HETATM   24  C7  UNL     1      -6.409   7.417  15.031  1.00  0.00    -0.007 C 
HETATM   25  C8  UNL     1      -7.396   8.598  15.019  1.00  0.00     0.011 C 
BRANCH  24  26
HETATM   26  C6  UNL     1      -6.598   6.511  13.797  1.00  0.00     0.087 C 
BRANCH  26  27
HETATM   27  C5  UNL     1      -7.981   5.913  13.547  1.00  0.00     0.149 C 
HETATM   28  O1  UNL     1      -8.998   6.590  13.454  1.00  0.00    -0.293 OA
BRANCH  27  29
HETATM   29  C4  UNL     1      -8.016   4.418  13.421  1.00  0.00     0.052 C 
HETATM   30  C2  UNL     1      -7.087   3.618  12.863  1.00  0.00    -0.084 C 
HETATM   31  C1  UNL     1      -5.812   4.064  12.200  1.00  0.00     0.043 C 
HETATM   32  C3  UNL     1      -7.282   2.121  12.861  1.00  0.00     0.043 C 
ENDBRANCH  27  29
ENDBRANCH  26  27
ENDBRANCH  24  26
ENDBRANCH   1  24
TORSDOF 4
ENDMDL
MODEL 4
REMARK minimizedAffinity -8.34380436
REMARK  4 active torsions:
REMARK  status: ('A' for Active; 'I' for Inactive)
REMARK    1  A    between atoms: C4_4  and  C5_5 
REMARK    2  A    between atoms: C5_5  and  C6_7 
REMARK    3  A    between atoms: C6_7  and  C7_8 
REMARK    4  A    between atoms: C7_8  and  C9_10 
ROOT
HETATM    1  C9  UNL     1      -3.575   5.450  13.226  1.00  0.00    -0.001 C 
HETATM    2  C10 UNL     1      -2.272   4.751  13.690  1.00  0.00     0.007 C 
HETATM    3  C11 UNL     1      -1.388   5.839  14.343  1.00  0.00     0.015 C 
HETATM    4  C12 UNL     1      -2.110   7.176  14.064  1.00  0.00    -0.013 C 
HETATM    5  C13 UNL     1      -1.612   7.645  12.659  1.00  0.00     0.021 C 
HETATM    6  C14 UNL     1      -1.873   8.347  15.009  1.00  0.00    -0.070 C 
HETATM    7  C15 UNL     1      -0.722   8.508  15.682  1.00  0.00    -0.022 C 
HETATM    8  C16 UNL     1      -0.403   9.662  16.576  1.00  0.00     0.034 C 
HETATM    9  C17 UNL     1      -1.463  10.787  16.691  1.00  0.00     0.013 C 
HETATM   10  C18 UNL     1      -2.105  10.926  18.120  1.00  0.00     0.018 C 
HETATM   11  C19 UNL     1      -1.009  11.218  19.172  1.00  0.00     0.023 C 
HETATM   12  C20 UNL     1      -2.905   9.696  18.572  1.00  0.00     0.023 C 
HETATM   13  C21 UNL     1      -3.055  12.138  18.141  1.00  0.00     0.135 C 
HETATM   14  O2  UNL     1      -3.553  12.561  19.187  1.00  0.00    -0.297 OA
HETATM   15  C22 UNL     1      -3.364  12.809  16.825  1.00  0.00     0.080 C 
HETATM   16  C23 UNL     1      -3.695  11.730  15.809  1.00  0.00     0.017 C 
HETATM   17  C24 UNL     1      -2.484  10.808  15.483  1.00  0.00    -0.031 C 
HETATM   18  C25 UNL     1      -1.747  11.413  14.254  1.00  0.00     0.016 C 
HETATM   19  C26 UNL     1      -3.003   9.359  15.151  1.00  0.00     0.024 C 
HETATM   20  C27 UNL     1      -4.039   9.284  13.998  1.00  0.00     0.010 C 
HETATM   21  C28 UNL     1      -4.520   7.864  13.613  1.00  0.00     0.011 C 
HETATM   22  C29 UNL     1      -3.610   6.727  14.126  1.00  0.00    -0.029 C 
HETATM   23  C30 UNL     1      -4.085   6.324  15.558  1.00  0.00     0.016 C 
ENDROOT
BRANCH   1  24
HETATM   24  C7  UNL     1      -4.876   4.598  13.143  1.00  0.00    -0.007 C 
HETATM   25  C8  UNL     1      -6.079   5.403  13.665  1.00  0.00     0.011 C 
BRANCH  24  26
HETATM   26  C6  UNL     1      -5.198   3.908  11.801  1.00  0.00     0.087 C 
BRANCH  26  27
HETATM   27  C5  UNL     1      -4.952   2.404  11.688  1.00  0.00     0.149 C 
HETATM   28  O1  UNL     1      -5.854   1.584  11.561  1.00  0.00    -0.293 OA
BRANCH  27  29
HETATM   29  C4  UNL     1      -3.512   1.989  11.742  1.00  0.00     0.052 C 
HETATM   30  C2  UNL     1      -2.477   2.518  11.061  1.00  0.00    -0.084 C 
HETATM   31  C1  UNL     1      -2.553   3.632  10.053  1.00  0.00     0.043 C 
HETATM   32  C3  UNL     1      -1.080   1.986  11.276  1.00  0.00     0.043 C 
ENDBRANCH  27  29
ENDBRANCH  26  27
ENDBRANCH  24  26
ENDBRANCH   1  24
TORSDOF 4
ENDMDL
MODEL 5
REMARK minimizedAffinity -8.28826046
REMARK  4 active torsions:
REMARK  status: ('A' for Active; 'I' for Inactive)
REMARK    1  A    between atoms: C4_4  and  C5_5 
REMARK    2  A    between atoms: C5_5  and  C6_7 
REMARK    3  A    between atoms: C6_7  and  C7_8 
REMARK    4  A    between atoms: C7_8  and  C9_10 
ROOT
HETATM    1  C9  UNL     1      -1.156   6.372  12.657  1.00  0.00    -0.001 C 
HETATM    2  C10 UNL     1      -0.984   4.866  12.340  1.00  0.00     0.007 C 
HETATM    3  C11 UNL     1       0.343   4.720  11.557  1.00  0.00     0.015 C 
HETATM    4  C12 UNL     1       0.806   6.165  11.265  1.00  0.00    -0.013 C 
HETATM    5  C13 UNL     1       0.092   6.582   9.938  1.00  0.00     0.021 C 
HETATM    6  C14 UNL     1       2.290   6.428  11.048  1.00  0.00    -0.070 C 
HETATM    7  C15 UNL     1       3.118   5.502  10.536  1.00  0.00    -0.022 C 
HETATM    8  C16 UNL     1       4.568   5.714  10.243  1.00  0.00     0.034 C 
HETATM    9  C17 UNL     1       5.147   7.129  10.499  1.00  0.00     0.013 C 
HETATM   10  C18 UNL     1       6.221   7.190  11.646  1.00  0.00     0.018 C 
HETATM   11  C19 UNL     1       7.411   6.259  11.314  1.00  0.00     0.023 C 
HETATM   12  C20 UNL     1       5.679   6.818  13.034  1.00  0.00     0.023 C 
HETATM   13  C21 UNL     1       6.799   8.615  11.733  1.00  0.00     0.135 C 
HETATM   14  O2  UNL     1       7.774   8.882  12.439  1.00  0.00    -0.297 OA
HETATM   15  C22 UNL     1       6.131   9.693  10.917  1.00  0.00     0.080 C 
HETATM   16  C23 UNL     1       4.629   9.579  11.116  1.00  0.00     0.017 C 
HETATM   17  C24 UNL     1       4.039   8.257  10.545  1.00  0.00    -0.031 C 
HETATM   18  C25 UNL     1       3.588   8.534   9.082  1.00  0.00     0.016 C 
HETATM   19  C26 UNL     1       2.808   7.810  11.421  1.00  0.00     0.024 C 
HETATM   20  C27 UNL     1       1.682   8.870  11.553  1.00  0.00     0.010 C 
HETATM   21  C28 UNL     1       0.436   8.433  12.360  1.00  0.00     0.011 C 
HETATM   22  C29 UNL     1       0.308   6.908  12.552  1.00  0.00    -0.029 C 
HETATM   23  C30 UNL     1       1.086   6.508  13.846  1.00  0.00     0.016 C 
ENDROOT
BRANCH   1  24
HETATM   24  C7  UNL     1      -1.973   6.769  13.921  1.00  0.00    -0.007 C 
HETATM   25  C8  UNL     1      -2.803   8.036  13.650  1.00  0.00     0.011 C 
BRANCH  24  26
HETATM   26  C6  UNL     1      -2.821   5.673  14.601  1.00  0.00     0.087 C 
BRANCH  26  27
HETATM   27  C5  UNL     1      -4.281   5.525  14.177  1.00  0.00     0.149 C 
HETATM   28  O1  UNL     1      -5.213   6.033  14.790  1.00  0.00    -0.293 OA
BRANCH  27  29
HETATM   29  C4  UNL     1      -4.505   4.705  12.940  1.00  0.00     0.052 C 
HETATM   30  C2  UNL     1      -5.593   3.978  12.621  1.00  0.00    -0.084 C 
HETATM   31  C1  UNL     1      -6.822   3.799  13.470  1.00  0.00     0.043 C 
HETATM   32  C3  UNL     1      -5.650   3.241  11.304  1.00  0.00     0.043 C 
ENDBRANCH  27  29
ENDBRANCH  26  27
ENDBRANCH  24  26
ENDBRANCH   1  24
TORSDOF 4
ENDMDL
MODEL 6
REMARK minimizedAffinity -8.15311813
REMARK  4 active torsions:
REMARK  status: ('A' for Active; 'I' for Inactive)
REMARK    1  A    between atoms: C4_4  and  C5_5 
REMARK    2  A    between atoms: C5_5  and  C6_7 
REMARK    3  A    between atoms: C6_7  and  C7_8 
REMARK    4  A    between atoms: C7_8  and  C9_10 
ROOT
HETATM    1  C9  UNL     1      -1.357   6.090  12.511  1.00  0.00    -0.001 C 
HETATM    2  C10 UNL     1       0.085   5.807  13.002  1.00  0.00     0.007 C 
HETATM    3  C11 UNL     1       0.525   7.035  13.835  1.00  0.00     0.015 C 
HETATM    4  C12 UNL     1      -0.594   8.083  13.640  1.00  0.00    -0.013 C 
HETATM    5  C13 UNL     1      -0.226   8.862  12.336  1.00  0.00     0.021 C 
HETATM    6  C14 UNL     1      -0.803   9.138  14.718  1.00  0.00    -0.070 C 
HETATM    7  C15 UNL     1       0.199   9.583  15.494  1.00  0.00    -0.022 C 
HETATM    8  C16 UNL     1       0.074  10.656  16.527  1.00  0.00     0.034 C 
HETATM    9  C17 UNL     1      -1.306  11.345  16.675  1.00  0.00     0.013 C 
HETATM   10  C18 UNL     1      -2.015  11.085  18.054  1.00  0.00     0.018 C 
HETATM   11  C19 UNL     1      -1.124  11.587  19.215  1.00  0.00     0.023 C 
HETATM   12  C20 UNL     1      -2.372   9.613  18.309  1.00  0.00     0.023 C 
HETATM   13  C21 UNL     1      -3.317  11.903  18.126  1.00  0.00     0.135 C 
HETATM   14  O2  UNL     1      -3.970  12.003  19.167  1.00  0.00    -0.297 OA
HETATM   15  C22 UNL     1      -3.781  12.594  16.867  1.00  0.00     0.080 C 
HETATM   16  C23 UNL     1      -3.688  11.603  15.719  1.00  0.00     0.017 C 
HETATM   17  C24 UNL     1      -2.225  11.180  15.397  1.00  0.00    -0.031 C 
HETATM   18  C25 UNL     1      -1.686  12.143  14.301  1.00  0.00     0.016 C 
HETATM   19  C26 UNL     1      -2.212   9.695  14.875  1.00  0.00     0.024 C 
HETATM   20  C27 UNL     1      -3.115   9.429  13.641  1.00  0.00     0.010 C 
HETATM   21  C28 UNL     1      -3.074   7.989  13.072  1.00  0.00     0.011 C 
HETATM   22  C29 UNL     1      -1.856   7.161  13.534  1.00  0.00    -0.029 C 
HETATM   23  C30 UNL     1      -2.226   6.447  14.873  1.00  0.00     0.016 C 
ENDROOT
BRANCH   1  24
HETATM   24  C7  UNL     1      -2.291   4.875  12.235  1.00  0.00    -0.007 C 
HETATM   25  C8  UNL     1      -1.461   3.628  11.883  1.00  0.00     0.011 C 
BRANCH  24  26
HETATM   26  C6  UNL     1      -3.378   4.553  13.283  1.00  0.00     0.087 C 
BRANCH  26  27
HETATM   27  C5  UNL     1      -4.819   4.401  12.801  1.00  0.00     0.149 C 
HETATM   28  O1  UNL     1      -5.705   5.205  13.068  1.00  0.00    -0.293 OA
BRANCH  27  29
HETATM   29  C4  UNL     1      -5.087   3.183  11.967  1.00  0.00     0.052 C 
HETATM   30  C2  UNL     1      -6.184   2.403  11.979  1.00  0.00    -0.084 C 
HETATM   31  C1  UNL     1      -7.381   2.566  12.875  1.00  0.00     0.043 C 
HETATM   32  C3  UNL     1      -6.288   1.230  11.032  1.00  0.00     0.043 C 
ENDBRANCH  27  29
ENDBRANCH  26  27
ENDBRANCH  24  26
ENDBRANCH   1  24
TORSDOF 4
ENDMDL
MODEL 7
REMARK minimizedAffinity -8.11357594
REMARK  4 active torsions:
REMARK  status: ('A' for Active; 'I' for Inactive)
REMARK    1  A    between atoms: C4_4  and  C5_5 
REMARK    2  A    between atoms: C5_5  and  C6_7 
REMARK    3  A    between atoms: C6_7  and  C7_8 
REMARK    4  A    between atoms: C7_8  and  C9_10 
ROOT
HETATM    1  C9  UNL     1      -0.339   6.110  11.852  1.00  0.00    -0.001 C 
HETATM    2  C10 UNL     1       0.179   4.686  11.532  1.00  0.00     0.007 C 
HETATM    3  C11 UNL     1       1.681   4.822  11.186  1.00  0.00     0.015 C 
HETATM    4  C12 UNL     1       1.949   6.342  11.118  1.00  0.00    -0.013 C 
HETATM    5  C13 UNL     1       1.594   6.773   9.658  1.00  0.00     0.021 C 
HETATM    6  C14 UNL     1       3.362   6.848  11.377  1.00  0.00    -0.070 C 
HETATM    7  C15 UNL     1       4.452   6.115  11.099  1.00  0.00    -0.022 C 
HETATM    8  C16 UNL     1       5.864   6.574  11.273  1.00  0.00     0.034 C 
HETATM    9  C17 UNL     1       6.085   8.028  11.760  1.00  0.00     0.013 C 
HETATM   10  C18 UNL     1       6.747   8.140  13.182  1.00  0.00     0.018 C 
HETATM   11  C19 UNL     1       8.127   7.439  13.186  1.00  0.00     0.023 C 
HETATM   12  C20 UNL     1       5.896   7.556  14.319  1.00  0.00     0.023 C 
HETATM   13  C21 UNL     1       7.015   9.621  13.509  1.00  0.00     0.135 C 
HETATM   14  O2  UNL     1       7.678   9.964  14.490  1.00  0.00    -0.297 OA
HETATM   15  C22 UNL     1       6.438  10.659  12.579  1.00  0.00     0.080 C 
HETATM   16  C23 UNL     1       4.988  10.298  12.305  1.00  0.00     0.017 C 
HETATM   17  C24 UNL     1       4.832   8.964  11.519  1.00  0.00    -0.031 C 
HETATM   18  C25 UNL     1       4.789   9.311  10.003  1.00  0.00     0.016 C 
HETATM   19  C26 UNL     1       3.497   8.251  11.955  1.00  0.00     0.024 C 
HETATM   20  C27 UNL     1       2.215   9.108  11.787  1.00  0.00     0.010 C 
HETATM   21  C28 UNL     1       0.883   8.409  12.154  1.00  0.00     0.011 C 
HETATM   22  C29 UNL     1       0.974   6.871  12.225  1.00  0.00    -0.029 C 
HETATM   23  C30 UNL     1       1.396   6.469  13.675  1.00  0.00     0.016 C 
ENDROOT
BRANCH   1  24
HETATM   24  C7  UNL     1      -1.547   6.251  12.824  1.00  0.00    -0.007 C 
HETATM   25  C8  UNL     1      -2.184   7.646  12.691  1.00  0.00     0.011 C 
BRANCH  24  26
HETATM   26  C6  UNL     1      -2.616   5.138  12.808  1.00  0.00     0.087 C 
BRANCH  26  27
HETATM   27  C5  UNL     1      -3.992   5.453  13.391  1.00  0.00     0.149 C 
HETATM   28  O1  UNL     1      -4.182   6.324  14.232  1.00  0.00    -0.293 OA
BRANCH  27  29
HETATM   29  C4  UNL     1      -5.116   4.612  12.861  1.00  0.00     0.052 C 
HETATM   30  C2  UNL     1      -6.361   4.493  13.361  1.00  0.00    -0.084 C 
HETATM   31  C1  UNL     1      -6.888   5.159  14.603  1.00  0.00     0.043 C 
HETATM   32  C3  UNL     1      -7.376   3.619  12.663  1.00  0.00     0.043 C 
ENDBRANCH  27  29
ENDBRANCH  26  27
ENDBRANCH  24  26
ENDBRANCH   1  24
TORSDOF 4
ENDMDL
MODEL 8
REMARK minimizedAffinity -8.07612801
REMARK  4 active torsions:
REMARK  status: ('A' for Active; 'I' for Inactive)
REMARK    1  A    between atoms: C4_4  and  C5_5 
REMARK    2  A    between atoms: C5_5  and  C6_7 
REMARK    3  A    between atoms: C6_7  and  C7_8 
REMARK    4  A    between atoms: C7_8  and  C9_10 
ROOT
HETATM    1  C9  UNL     1       0.050   6.705  11.830  1.00  0.00    -0.001 C 
HETATM    2  C10 UNL     1       0.603   5.366  11.283  1.00  0.00     0.007 C 
HETATM    3  C11 UNL     1       2.135   5.536  11.146  1.00  0.00     0.015 C 
HETATM    4  C12 UNL     1       2.408   7.031  11.426  1.00  0.00    -0.013 C 
HETATM    5  C13 UNL     1       2.225   7.762  10.056  1.00  0.00     0.021 C 
HETATM    6  C14 UNL     1       3.780   7.440  11.944  1.00  0.00    -0.070 C 
HETATM    7  C15 UNL     1       4.896   6.754  11.646  1.00  0.00    -0.022 C 
HETATM    8  C16 UNL     1       6.277   7.135  12.071  1.00  0.00     0.034 C 
HETATM    9  C17 UNL     1       6.439   8.452  12.871  1.00  0.00     0.013 C 
HETATM   10  C18 UNL     1       6.932   8.253  14.351  1.00  0.00     0.018 C 
HETATM   11  C19 UNL     1       8.302   7.535  14.367  1.00  0.00     0.023 C 
HETATM   12  C20 UNL     1       5.955   7.466  15.238  1.00  0.00     0.023 C 
HETATM   13  C21 UNL     1       7.158   9.628  15.007  1.00  0.00     0.135 C 
HETATM   14  O2  UNL     1       7.703   9.746  16.107  1.00  0.00    -0.297 OA
HETATM   15  C22 UNL     1       6.692  10.849  14.253  1.00  0.00     0.080 C 
HETATM   16  C23 UNL     1       5.284  10.585  13.747  1.00  0.00     0.017 C 
HETATM   17  C24 UNL     1       5.222   9.446  12.688  1.00  0.00    -0.031 C 
HETATM   18  C25 UNL     1       5.354  10.099  11.283  1.00  0.00     0.016 C 
HETATM   19  C26 UNL     1       3.846   8.689  12.812  1.00  0.00     0.024 C 
HETATM   20  C27 UNL     1       2.591   9.592  12.680  1.00  0.00     0.010 C 
HETATM   21  C28 UNL     1       1.226   8.864  12.740  1.00  0.00     0.011 C 
HETATM   22  C29 UNL     1       1.310   7.342  12.501  1.00  0.00    -0.029 C 
HETATM   23  C30 UNL     1       1.561   6.640  13.874  1.00  0.00     0.016 C 
ENDROOT
BRANCH   1  24
HETATM   24  C7  UNL     1      -1.263   6.671  12.667  1.00  0.00    -0.007 C 
HETATM   25  C8  UNL     1      -2.051   7.980  12.485  1.00  0.00     0.011 C 
BRANCH  24  26
HETATM   26  C6  UNL     1      -2.177   5.436  12.517  1.00  0.00     0.087 C 
BRANCH  26  27
HETATM   27  C5  UNL     1      -3.203   5.162  13.616  1.00  0.00     0.149 C 
HETATM   28  O1  UNL     1      -2.969   5.327  14.808  1.00  0.00    -0.293 OA
BRANCH  27  29
HETATM   29  C4  UNL     1      -4.536   4.671  13.135  1.00  0.00     0.052 C 
HETATM   30  C2  UNL     1      -4.794   3.553  12.429  1.00  0.00    -0.084 C 
HETATM   31  C1  UNL     1      -3.778   2.562  11.930  1.00  0.00     0.043 C 
HETATM   32  C3  UNL     1      -6.217   3.202  12.063  1.00  0.00     0.043 C 
ENDBRANCH  27  29
ENDBRANCH  26  27
ENDBRANCH  24  26
ENDBRANCH   1  24
TORSDOF 4
ENDMDL
MODEL 9
REMARK minimizedAffinity -7.91775131
REMARK  4 active torsions:
REMARK  status: ('A' for Active; 'I' for Inactive)
REMARK    1  A    between atoms: C4_4  and  C5_5 
REMARK    2  A    between atoms: C5_5  and  C6_7 
REMARK    3  A    between atoms: C6_7  and  C7_8 
REMARK    4  A    between atoms: C7_8  and  C9_10 
ROOT
HETATM    1  C9  UNL     1       0.695   6.944  10.591  1.00  0.00    -0.001 C 
HETATM    2  C10 UNL     1      -0.384   5.867  10.866  1.00  0.00     0.007 C 
HETATM    3  C11 UNL     1      -0.810   6.026  12.345  1.00  0.00     0.015 C 
HETATM    4  C12 UNL     1       0.174   7.055  12.946  1.00  0.00    -0.013 C 
HETATM    5  C13 UNL     1       1.418   6.233  13.413  1.00  0.00     0.021 C 
HETATM    6  C14 UNL     1      -0.270   7.873  14.151  1.00  0.00    -0.070 C 
HETATM    7  C15 UNL     1      -1.152   7.410  15.051  1.00  0.00    -0.022 C 
HETATM    8  C16 UNL     1      -1.583   8.136  16.284  1.00  0.00     0.034 C 
HETATM    9  C17 UNL     1      -0.919   9.506  16.574  1.00  0.00     0.013 C 
HETATM   10  C18 UNL     1      -1.905  10.729  16.509  1.00  0.00     0.018 C 
HETATM   11  C19 UNL     1      -3.049  10.548  17.535  1.00  0.00     0.023 C 
HETATM   12  C20 UNL     1      -2.521  10.967  15.122  1.00  0.00     0.023 C 
HETATM   13  C21 UNL     1      -1.159  12.013  16.918  1.00  0.00     0.135 C 
HETATM   14  O2  UNL     1      -1.748  13.078  17.110  1.00  0.00    -0.297 OA
HETATM   15  C22 UNL     1       0.338  11.930  17.084  1.00  0.00     0.080 C 
HETATM   16  C23 UNL     1       0.909  11.190  15.887  1.00  0.00     0.017 C 
HETATM   17  C24 UNL     1       0.458   9.702  15.819  1.00  0.00    -0.031 C 
HETATM   18  C25 UNL     1       1.527   8.850  16.560  1.00  0.00     0.016 C 
HETATM   19  C26 UNL     1       0.350   9.255  14.313  1.00  0.00     0.024 C 
HETATM   20  C27 UNL     1       1.647   9.445  13.481  1.00  0.00     0.010 C 
HETATM   21  C28 UNL     1       1.584   8.958  12.013  1.00  0.00     0.011 C 
HETATM   22  C29 UNL     1       0.417   7.994  11.715  1.00  0.00    -0.029 C 
HETATM   23  C30 UNL     1      -0.833   8.842  11.317  1.00  0.00     0.016 C 
ENDROOT
BRANCH   1  24
HETATM   24  C7  UNL     1       0.846   7.478   9.136  1.00  0.00    -0.007 C 
HETATM   25  C8  UNL     1      -0.274   8.483   8.813  1.00  0.00     0.011 C 
BRANCH  24  26
HETATM   26  C6  UNL     1       2.228   8.016   8.709  1.00  0.00     0.087 C 
BRANCH  26  27
HETATM   27  C5  UNL     1       3.472   7.310   9.244  1.00  0.00     0.149 C 
HETATM   28  O1  UNL     1       3.669   6.107   9.118  1.00  0.00    -0.293 OA
BRANCH  27  29
HETATM   29  C4  UNL     1       4.455   8.199   9.948  1.00  0.00     0.052 C 
HETATM   30  C2  UNL     1       5.398   7.839  10.840  1.00  0.00    -0.084 C 
HETATM   31  C1  UNL     1       5.646   6.449  11.359  1.00  0.00     0.043 C 
HETATM   32  C3  UNL     1       6.327   8.879  11.419  1.00  0.00     0.043 C 
ENDBRANCH  27  29
ENDBRANCH  26  27
ENDBRANCH  24  26
ENDBRANCH   1  24
TORSDOF 4
ENDMDL
