MODEL 1
REMARK minimizedAffinity -6.77403593
REMARK CNNscore 0.672771752
REMARK CNNaffinity 7.06585646
REMARK  6 active torsions:
REMARK  status: ('A' for Active; 'I' for Inactive)
REMARK    1  A    between atoms: C2_2  and  C30_31 
REMARK    2  A    between atoms: C3_3  and  C4_4 
REMARK    3  A    between atoms: C4_4  and  C5_5 
REMARK    4  A    between atoms: C5_5  and  C6_6 
REMARK    5  A    between atoms: C6_6  and  C8_8 
REMARK    6  A    between atoms: C30_31  and  O3_33 
ROOT
HETATM    1  C8  UNL     1     -13.097 -13.341  27.062  1.00  0.00    -0.002 C 
HETATM    2  C9  UNL     1     -13.323 -12.807  25.626  1.00  0.00     0.007 C 
HETATM    3  C10 UNL     1     -13.828 -11.347  25.776  1.00  0.00     0.015 C 
HETATM    4  C11 UNL     1     -14.150 -11.189  27.281  1.00  0.00    -0.013 C 
HETATM    5  C12 UNL     1     -15.590 -11.767  27.474  1.00  0.00     0.021 C 
HETATM    6  C13 UNL     1     -14.125  -9.822  27.962  1.00  0.00    -0.070 C 
HETATM    7  C14 UNL     1     -13.874  -8.669  27.316  1.00  0.00    -0.022 C 
HETATM    8  C15 UNL     1     -13.671  -7.347  27.999  1.00  0.00     0.034 C 
HETATM    9  C16 UNL     1     -13.408  -7.496  29.517  1.00  0.00     0.013 C 
HETATM   10  C17 UNL     1     -13.146  -6.150  30.296  1.00  0.00     0.018 C 
HETATM   11  C18 UNL     1     -11.715  -6.165  30.885  1.00  0.00     0.023 C 
HETATM   12  C19 UNL     1     -13.248  -4.896  29.401  1.00  0.00     0.023 C 
HETATM   13  C20 UNL     1     -14.096  -5.963  31.493  1.00  0.00     0.135 C 
HETATM   14  O1  UNL     1     -14.540  -4.857  31.811  1.00  0.00    -0.297 OA
HETATM   15  C21 UNL     1     -14.414  -7.157  32.367  1.00  0.00     0.080 C 
HETATM   16  C22 UNL     1     -14.216  -8.497  31.674  1.00  0.00     0.017 C 
HETATM   17  C23 UNL     1     -14.472  -8.450  30.153  1.00  0.00    -0.031 C 
HETATM   18  C24 UNL     1     -15.929  -7.956  29.895  1.00  0.00     0.016 C 
HETATM   19  C25 UNL     1     -14.349  -9.884  29.488  1.00  0.00     0.024 C 
HETATM   20  C26 UNL     1     -13.316 -10.842  30.144  1.00  0.00     0.010 C 
HETATM   21  C27 UNL     1     -13.183 -12.207  29.425  1.00  0.00     0.011 C 
HETATM   22  C28 UNL     1     -12.973 -12.042  27.907  1.00  0.00    -0.029 C 
HETATM   23  C29 UNL     1     -11.577 -11.368  27.711  1.00  0.00     0.016 C 
ENDROOT
BRANCH   1  24
HETATM   24  C6  UNL     1     -12.040 -14.467  27.234  1.00  0.00    -0.014 C 
HETATM   25  C7  UNL     1     -12.287 -15.542  26.153  1.00  0.00     0.010 C 
BRANCH  24  26
HETATM   26  C5  UNL     1     -10.559 -14.033  27.172  1.00  0.00     0.008 C 
BRANCH  26  27
HETATM   27  C4  UNL     1      -9.972 -14.075  25.752  1.00  0.00     0.028 C 
BRANCH  27  28
HETATM   28  C3  UNL     1      -9.178 -12.848  25.390  1.00  0.00    -0.013 C 
HETATM   29  C2  UNL     1      -8.228 -12.730  24.442  1.00  0.00     0.008 C 
HETATM   30  C1  UNL     1      -7.534 -11.427  24.167  1.00  0.00     0.055 C 
BRANCH  29  31
HETATM   31  C30 UNL     1      -7.774 -13.900  23.657  1.00  0.00     0.171 C 
HETATM   32  O2  UNL     1      -8.244 -14.310  22.613  1.00  0.00    -0.646 OA
BRANCH  31  33
HETATM   33  O3  UNL     1      -6.731 -14.514  24.240  1.00  0.00    -0.773 OA
HETATM   34  H46 UNL     1      -6.530 -15.249  23.624  1.00  0.00     0.167 HD
ENDBRANCH  31  33
ENDBRANCH  29  31
ENDBRANCH  27  28
ENDBRANCH  26  27
ENDBRANCH  24  26
ENDBRANCH   1  24
TORSDOF 6
ENDMDL
MODEL 2
REMARK minimizedAffinity -7.10726452
REMARK CNNscore 0.64001894
REMARK CNNaffinity 6.6861949
REMARK  6 active torsions:
REMARK  status: ('A' for Active; 'I' for Inactive)
REMARK    1  A    between atoms: C2_2  and  C30_31 
REMARK    2  A    between atoms: C3_3  and  C4_4 
REMARK    3  A    between atoms: C4_4  and  C5_5 
REMARK    4  A    between atoms: C5_5  and  C6_6 
REMARK    5  A    between atoms: C6_6  and  C8_8 
REMARK    6  A    between atoms: C30_31  and  O3_33 
ROOT
HETATM    1  C8  UNL     1      -1.758  12.130  17.736  1.00  0.00    -0.002 C 
HETATM    2  C9  UNL     1      -2.323  11.175  18.815  1.00  0.00     0.007 C 
HETATM    3  C10 UNL     1      -2.534   9.804  18.120  1.00  0.00     0.015 C 
HETATM    4  C11 UNL     1      -2.362  10.092  16.610  1.00  0.00    -0.013 C 
HETATM    5  C12 UNL     1      -3.747  10.620  16.114  1.00  0.00     0.021 C 
HETATM    6  C13 UNL     1      -1.928   8.999  15.634  1.00  0.00    -0.070 C 
HETATM    7  C14 UNL     1      -1.712   7.720  15.991  1.00  0.00    -0.022 C 
HETATM    8  C15 UNL     1      -1.117   6.681  15.086  1.00  0.00     0.034 C 
HETATM    9  C16 UNL     1      -0.436   7.297  13.840  1.00  0.00     0.013 C 
HETATM   10  C17 UNL     1       0.247   6.267  12.860  1.00  0.00     0.018 C 
HETATM   11  C18 UNL     1       1.769   6.539  12.806  1.00  0.00     0.023 C 
HETATM   12  C19 UNL     1       0.070   4.797  13.299  1.00  0.00     0.023 C 
HETATM   13  C20 UNL     1      -0.260   6.400  11.413  1.00  0.00     0.135 C 
HETATM   14  O1  UNL     1      -0.418   5.420  10.681  1.00  0.00    -0.297 OA
HETATM   15  C21 UNL     1      -0.477   7.783  10.838  1.00  0.00     0.080 C 
HETATM   16  C22 UNL     1      -0.699   8.858  11.890  1.00  0.00     0.017 C 
HETATM   17  C23 UNL     1      -1.390   8.339  13.169  1.00  0.00    -0.031 C 
HETATM   18  C24 UNL     1      -2.766   7.710  12.787  1.00  0.00     0.016 C 
HETATM   19  C25 UNL     1      -1.690   9.509  14.196  1.00  0.00     0.024 C 
HETATM   20  C26 UNL     1      -0.663  10.675  14.204  1.00  0.00     0.010 C 
HETATM   21  C27 UNL     1      -0.959  11.763  15.265  1.00  0.00     0.011 C 
HETATM   22  C28 UNL     1      -1.193  11.157  16.663  1.00  0.00    -0.029 C 
HETATM   23  C29 UNL     1       0.164  10.534  17.121  1.00  0.00     0.016 C 
ENDROOT
BRANCH   1  24
HETATM   24  C6  UNL     1      -0.881  13.312  18.233  1.00  0.00    -0.014 C 
HETATM   25  C7  UNL     1      -1.721  14.606  18.175  1.00  0.00     0.010 C 
BRANCH  24  26
HETATM   26  C5  UNL     1      -0.282  13.172  19.650  1.00  0.00     0.008 C 
BRANCH  26  27
HETATM   27  C4  UNL     1       1.150  12.612  19.651  1.00  0.00     0.028 C 
BRANCH  27  28
HETATM   28  C3  UNL     1       1.722  12.421  21.031  1.00  0.00    -0.013 C 
HETATM   29  C2  UNL     1       2.653  11.528  21.422  1.00  0.00     0.008 C 
HETATM   30  C1  UNL     1       3.157  11.470  22.836  1.00  0.00     0.055 C 
BRANCH  29  31
HETATM   31  C30 UNL     1       3.188  10.515  20.486  1.00  0.00     0.171 C 
HETATM   32  O2  UNL     1       2.552   9.708  19.836  1.00  0.00    -0.646 OA
BRANCH  31  33
HETATM   33  O3  UNL     1       4.529  10.563  20.416  1.00  0.00    -0.773 OA
HETATM   34  H46 UNL     1       4.746   9.861  19.768  1.00  0.00     0.167 HD
ENDBRANCH  31  33
ENDBRANCH  29  31
ENDBRANCH  27  28
ENDBRANCH  26  27
ENDBRANCH  24  26
ENDBRANCH   1  24
TORSDOF 6
ENDMDL
MODEL 3
REMARK minimizedAffinity -7.57947731
REMARK CNNscore 0.627899647
REMARK CNNaffinity 6.63242388
REMARK  6 active torsions:
REMARK  status: ('A' for Active; 'I' for Inactive)
REMARK    1  A    between atoms: C2_2  and  C30_31 
REMARK    2  A    between atoms: C3_3  and  C4_4 
REMARK    3  A    between atoms: C4_4  and  C5_5 
REMARK    4  A    between atoms: C5_5  and  C6_6 
REMARK    5  A    between atoms: C6_6  and  C8_8 
REMARK    6  A    between atoms: C30_31  and  O3_33 
ROOT
HETATM    1  C8  UNL     1      -0.643   8.311  13.962  1.00  0.00    -0.002 C 
HETATM    2  C9  UNL     1      -0.922   7.097  14.882  1.00  0.00     0.007 C 
HETATM    3  C10 UNL     1      -1.313   7.677  16.267  1.00  0.00     0.015 C 
HETATM    4  C11 UNL     1      -0.966   9.183  16.181  1.00  0.00    -0.013 C 
HETATM    5  C12 UNL     1       0.559   9.290  16.504  1.00  0.00     0.021 C 
HETATM    6  C13 UNL     1      -1.679  10.216  17.052  1.00  0.00    -0.070 C 
HETATM    7  C14 UNL     1      -2.608   9.904  17.974  1.00  0.00    -0.022 C 
HETATM    8  C15 UNL     1      -3.440  10.915  18.708  1.00  0.00     0.034 C 
HETATM    9  C16 UNL     1      -3.398  12.314  18.046  1.00  0.00     0.013 C 
HETATM   10  C17 UNL     1      -4.281  13.420  18.739  1.00  0.00     0.018 C 
HETATM   11  C18 UNL     1      -5.376  13.897  17.756  1.00  0.00     0.023 C 
HETATM   12  C19 UNL     1      -5.006  12.918  20.007  1.00  0.00     0.023 C 
HETATM   13  C20 UNL     1      -3.472  14.675  19.115  1.00  0.00     0.135 C 
HETATM   14  O1  UNL     1      -3.694  15.314  20.146  1.00  0.00    -0.297 OA
HETATM   15  C21 UNL     1      -2.439  15.198  18.139  1.00  0.00     0.080 C 
HETATM   16  C22 UNL     1      -1.927  14.149  17.165  1.00  0.00     0.017 C 
HETATM   17  C23 UNL     1      -1.917  12.719  17.745  1.00  0.00    -0.031 C 
HETATM   18  C24 UNL     1      -1.032  12.694  19.029  1.00  0.00     0.016 C 
HETATM   19  C25 UNL     1      -1.286  11.674  16.733  1.00  0.00     0.024 C 
HETATM   20  C26 UNL     1      -1.518  11.975  15.226  1.00  0.00     0.010 C 
HETATM   21  C27 UNL     1      -0.941  10.897  14.276  1.00  0.00     0.011 C 
HETATM   22  C28 UNL     1      -1.379   9.476  14.682  1.00  0.00    -0.029 C 
HETATM   23  C29 UNL     1      -2.923   9.395  14.459  1.00  0.00     0.016 C 
ENDROOT
BRANCH   1  24
HETATM   24  C6  UNL     1      -0.854   8.100  12.438  1.00  0.00    -0.014 C 
HETATM   25  C7  UNL     1      -2.012   9.009  11.971  1.00  0.00     0.010 C 
BRANCH  24  26
HETATM   26  C5  UNL     1       0.373   8.356  11.534  1.00  0.00     0.008 C 
BRANCH  26  27
HETATM   27  C4  UNL     1       0.757   7.142  10.673  1.00  0.00     0.028 C 
BRANCH  27  28
HETATM   28  C3  UNL     1       0.927   7.467   9.213  1.00  0.00    -0.013 C 
HETATM   29  C2  UNL     1       1.915   7.066   8.388  1.00  0.00     0.008 C 
HETATM   30  C1  UNL     1       1.941   7.444   6.934  1.00  0.00     0.055 C 
BRANCH  29  31
HETATM   31  C30 UNL     1       3.062   6.277   8.887  1.00  0.00     0.171 C 
HETATM   32  O2  UNL     1       4.005   6.684   9.539  1.00  0.00    -0.646 OA
BRANCH  31  33
HETATM   33  O3  UNL     1       2.968   4.985   8.531  1.00  0.00    -0.773 OA
HETATM   34  H46 UNL     1       3.769   4.583   8.927  1.00  0.00     0.167 HD
ENDBRANCH  31  33
ENDBRANCH  29  31
ENDBRANCH  27  28
ENDBRANCH  26  27
ENDBRANCH  24  26
ENDBRANCH   1  24
TORSDOF 6
ENDMDL
MODEL 4
REMARK minimizedAffinity -6.93747568
REMARK CNNscore 0.527048171
REMARK CNNaffinity 6.41564035
REMARK  6 active torsions:
REMARK  status: ('A' for Active; 'I' for Inactive)
REMARK    1  A    between atoms: C2_2  and  C30_31 
REMARK    2  A    between atoms: C3_3  and  C4_4 
REMARK    3  A    between atoms: C4_4  and  C5_5 
REMARK    4  A    between atoms: C5_5  and  C6_6 
REMARK    5  A    between atoms: C6_6  and  C8_8 
REMARK    6  A    between atoms: C30_31  and  O3_33 
ROOT
HETATM    1  C8  UNL     1      13.251  -4.546   2.601  1.00  0.00    -0.002 C 
HETATM    2  C9  UNL     1      13.188  -6.090   2.699  1.00  0.00     0.007 C 
HETATM    3  C10 UNL     1      14.000  -6.639   1.496  1.00  0.00     0.015 C 
HETATM    4  C11 UNL     1      14.254  -5.409   0.593  1.00  0.00    -0.013 C 
HETATM    5  C12 UNL     1      12.968  -5.243  -0.279  1.00  0.00     0.021 C 
HETATM    6  C13 UNL     1      15.447  -5.354  -0.361  1.00  0.00    -0.070 C 
HETATM    7  C14 UNL     1      16.323  -6.362  -0.523  1.00  0.00    -0.022 C 
HETATM    8  C15 UNL     1      17.592  -6.257  -1.318  1.00  0.00     0.034 C 
HETATM    9  C16 UNL     1      17.985  -4.791  -1.620  1.00  0.00     0.013 C 
HETATM   10  C17 UNL     1      19.331  -4.599  -2.418  1.00  0.00     0.018 C 
HETATM   11  C18 UNL     1      20.344  -3.823  -1.543  1.00  0.00     0.023 C 
HETATM   12  C19 UNL     1      20.006  -5.932  -2.807  1.00  0.00     0.023 C 
HETATM   13  C20 UNL     1      19.147  -3.763  -3.698  1.00  0.00     0.135 C 
HETATM   14  O1  UNL     1      19.769  -4.007  -4.735  1.00  0.00    -0.297 OA
HETATM   15  C21 UNL     1      18.250  -2.545  -3.653  1.00  0.00     0.080 C 
HETATM   16  C22 UNL     1      17.216  -2.584  -2.539  1.00  0.00     0.017 C 
HETATM   17  C23 UNL     1      16.750  -4.010  -2.177  1.00  0.00    -0.031 C 
HETATM   18  C24 UNL     1      16.153  -4.690  -3.448  1.00  0.00     0.016 C 
HETATM   19  C25 UNL     1      15.603  -3.998  -1.083  1.00  0.00     0.024 C 
HETATM   20  C26 UNL     1      15.677  -2.843  -0.045  1.00  0.00     0.010 C 
HETATM   21  C27 UNL     1      14.577  -2.906   1.042  1.00  0.00     0.011 C 
HETATM   22  C28 UNL     1      14.491  -4.300   1.696  1.00  0.00    -0.029 C 
HETATM   23  C29 UNL     1      15.822  -4.515   2.485  1.00  0.00     0.016 C 
ENDROOT
BRANCH   1  24
HETATM   24  C6  UNL     1      13.105  -3.752   3.929  1.00  0.00    -0.014 C 
HETATM   25  C7  UNL     1      12.514  -2.362   3.607  1.00  0.00     0.010 C 
BRANCH  24  26
HETATM   26  C5  UNL     1      12.248  -4.412   5.032  1.00  0.00     0.008 C 
BRANCH  26  27
HETATM   27  C4  UNL     1      13.087  -5.109   6.116  1.00  0.00     0.028 C 
BRANCH  27  28
HETATM   28  C3  UNL     1      12.262  -5.699   7.229  1.00  0.00    -0.013 C 
HETATM   29  C2  UNL     1      12.542  -5.709   8.548  1.00  0.00     0.008 C 
HETATM   30  C1  UNL     1      11.607  -6.311   9.557  1.00  0.00     0.055 C 
BRANCH  29  31
HETATM   31  C30 UNL     1      13.820  -5.174   9.067  1.00  0.00     0.171 C 
HETATM   32  O2  UNL     1      14.844  -5.795   9.280  1.00  0.00    -0.646 OA
BRANCH  31  33
HETATM   33  O3  UNL     1      13.746  -3.853   9.304  1.00  0.00    -0.773 OA
HETATM   34  H46 UNL     1      14.643  -3.632   9.628  1.00  0.00     0.167 HD
ENDBRANCH  31  33
ENDBRANCH  29  31
ENDBRANCH  27  28
ENDBRANCH  26  27
ENDBRANCH  24  26
ENDBRANCH   1  24
TORSDOF 6
ENDMDL
MODEL 5
REMARK minimizedAffinity -7.83558035
REMARK CNNscore 0.508853614
REMARK CNNaffinity 6.63033438
REMARK  6 active torsions:
REMARK  status: ('A' for Active; 'I' for Inactive)
REMARK    1  A    between atoms: C2_2  and  C30_31 
REMARK    2  A    between atoms: C3_3  and  C4_4 
REMARK    3  A    between atoms: C4_4  and  C5_5 
REMARK    4  A    between atoms: C5_5  and  C6_6 
REMARK    5  A    between atoms: C6_6  and  C8_8 
REMARK    6  A    between atoms: C30_31  and  O3_33 
ROOT
HETATM    1  C8  UNL     1      -0.238  10.923  17.116  1.00  0.00    -0.002 C 
HETATM    2  C9  UNL     1      -0.995  12.271  17.185  1.00  0.00     0.007 C 
HETATM    3  C10 UNL     1      -2.336  12.061  16.434  1.00  0.00     0.015 C 
HETATM    4  C11 UNL     1      -2.179  10.701  15.713  1.00  0.00    -0.013 C 
HETATM    5  C12 UNL     1      -1.417  11.006  14.383  1.00  0.00     0.021 C 
HETATM    6  C13 UNL     1      -3.393   9.849  15.343  1.00  0.00    -0.070 C 
HETATM    7  C14 UNL     1      -4.666  10.224  15.567  1.00  0.00    -0.022 C 
HETATM    8  C15 UNL     1      -5.855   9.329  15.374  1.00  0.00     0.034 C 
HETATM    9  C16 UNL     1      -5.463   7.836  15.256  1.00  0.00     0.013 C 
HETATM   10  C17 UNL     1      -6.664   6.829  15.090  1.00  0.00     0.018 C 
HETATM   11  C18 UNL     1      -6.704   5.870  16.304  1.00  0.00     0.023 C 
HETATM   12  C19 UNL     1      -8.041   7.526  15.025  1.00  0.00     0.023 C 
HETATM   13  C20 UNL     1      -6.521   5.934  13.846  1.00  0.00     0.135 C 
HETATM   14  O1  UNL     1      -7.492   5.597  13.165  1.00  0.00    -0.297 OA
HETATM   15  C21 UNL     1      -5.159   5.367  13.507  1.00  0.00     0.080 C 
HETATM   16  C22 UNL     1      -4.000   6.162  14.087  1.00  0.00     0.017 C 
HETATM   17  C23 UNL     1      -4.293   7.670  14.229  1.00  0.00    -0.031 C 
HETATM   18  C24 UNL     1      -4.658   8.253  12.829  1.00  0.00     0.016 C 
HETATM   19  C25 UNL     1      -3.028   8.474  14.746  1.00  0.00     0.024 C 
HETATM   20  C26 UNL     1      -2.091   7.700  15.714  1.00  0.00     0.010 C 
HETATM   21  C27 UNL     1      -0.904   8.541  16.243  1.00  0.00     0.011 C 
HETATM   22  C28 UNL     1      -1.366   9.899  16.808  1.00  0.00    -0.029 C 
HETATM   23  C29 UNL     1      -2.218   9.595  18.082  1.00  0.00     0.016 C 
ENDROOT
BRANCH   1  24
HETATM   24  C6  UNL     1       0.774  10.626  18.257  1.00  0.00    -0.014 C 
HETATM   25  C7  UNL     1       2.192  10.550  17.649  1.00  0.00     0.010 C 
BRANCH  24  26
HETATM   26  C5  UNL     1       0.792  11.625  19.435  1.00  0.00     0.008 C 
BRANCH  26  27
HETATM   27  C4  UNL     1       1.285  11.002  20.751  1.00  0.00     0.028 C 
BRANCH  27  28
HETATM   28  C3  UNL     1       2.211  11.896  21.532  1.00  0.00    -0.013 C 
HETATM   29  C2  UNL     1       3.481  11.644  21.905  1.00  0.00     0.008 C 
HETATM   30  C1  UNL     1       4.304  12.648  22.661  1.00  0.00     0.055 C 
BRANCH  29  31
HETATM   31  C30 UNL     1       4.116  10.334  21.638  1.00  0.00     0.171 C 
HETATM   32  O2  UNL     1       4.120   9.359  22.365  1.00  0.00    -0.646 OA
BRANCH  31  33
HETATM   33  O3  UNL     1       4.733  10.315  20.445  1.00  0.00    -0.773 OA
HETATM   34  H46 UNL     1       5.093   9.406  20.392  1.00  0.00     0.167 HD
ENDBRANCH  31  33
ENDBRANCH  29  31
ENDBRANCH  27  28
ENDBRANCH  26  27
ENDBRANCH  24  26
ENDBRANCH   1  24
TORSDOF 6
ENDMDL
MODEL 6
REMARK minimizedAffinity -7.71120358
REMARK CNNscore 0.493800431
REMARK CNNaffinity 6.45361185
REMARK  6 active torsions:
REMARK  status: ('A' for Active; 'I' for Inactive)
REMARK    1  A    between atoms: C2_2  and  C30_31 
REMARK    2  A    between atoms: C3_3  and  C4_4 
REMARK    3  A    between atoms: C4_4  and  C5_5 
REMARK    4  A    between atoms: C5_5  and  C6_6 
REMARK    5  A    between atoms: C6_6  and  C8_8 
REMARK    6  A    between atoms: C30_31  and  O3_33 
ROOT
HETATM    1  C8  UNL     1       2.189  11.272  16.905  1.00  0.00    -0.002 C 
HETATM    2  C9  UNL     1       1.693  12.590  16.260  1.00  0.00     0.007 C 
HETATM    3  C10 UNL     1       0.679  12.185  15.159  1.00  0.00     0.015 C 
HETATM    4  C11 UNL     1       0.842  10.653  15.010  1.00  0.00    -0.013 C 
HETATM    5  C12 UNL     1       2.056  10.443  14.048  1.00  0.00     0.021 C 
HETATM    6  C13 UNL     1      -0.295   9.777  14.487  1.00  0.00    -0.070 C 
HETATM    7  C14 UNL     1      -1.484  10.259  14.079  1.00  0.00    -0.022 C 
HETATM    8  C15 UNL     1      -2.667   9.402  13.734  1.00  0.00     0.034 C 
HETATM    9  C16 UNL     1      -2.517   7.947  14.241  1.00  0.00     0.013 C 
HETATM   10  C17 UNL     1      -3.740   6.996  13.948  1.00  0.00     0.018 C 
HETATM   11  C18 UNL     1      -4.358   6.525  15.286  1.00  0.00     0.023 C 
HETATM   12  C19 UNL     1      -4.870   7.683  13.151  1.00  0.00     0.023 C 
HETATM   13  C20 UNL     1      -3.330   5.718  13.195  1.00  0.00     0.135 C 
HETATM   14  O1  UNL     1      -4.049   5.205  12.334  1.00  0.00    -0.297 OA
HETATM   15  C21 UNL     1      -2.051   5.013  13.594  1.00  0.00     0.080 C 
HETATM   16  C22 UNL     1      -1.047   5.912  14.298  1.00  0.00     0.017 C 
HETATM   17  C23 UNL     1      -1.112   7.385  13.844  1.00  0.00    -0.031 C 
HETATM   18  C24 UNL     1      -0.867   7.457  12.305  1.00  0.00     0.016 C 
HETATM   19  C25 UNL     1       0.015   8.266  14.529  1.00  0.00     0.024 C 
HETATM   20  C26 UNL     1       0.416   7.841  15.970  1.00  0.00     0.010 C 
HETATM   21  C27 UNL     1       1.471   8.765  16.625  1.00  0.00     0.011 C 
HETATM   22  C28 UNL     1       1.079  10.252  16.522  1.00  0.00    -0.029 C 
HETATM   23  C29 UNL     1      -0.198  10.448  17.400  1.00  0.00     0.016 C 
ENDROOT
BRANCH   1  24
HETATM   24  C6  UNL     1       2.679  11.350  18.377  1.00  0.00    -0.014 C 
HETATM   25  C7  UNL     1       2.319  12.741  18.942  1.00  0.00     0.010 C 
BRANCH  24  26
HETATM   26  C5  UNL     1       2.137  10.269  19.339  1.00  0.00     0.008 C 
BRANCH  26  27
HETATM   27  C4  UNL     1       1.869  10.798  20.757  1.00  0.00     0.028 C 
BRANCH  27  28
HETATM   28  C3  UNL     1       3.082  10.772  21.649  1.00  0.00    -0.013 C 
HETATM   29  C2  UNL     1       3.397   9.858  22.588  1.00  0.00     0.008 C 
HETATM   30  C1  UNL     1       4.665   9.941  23.388  1.00  0.00     0.055 C 
BRANCH  29  31
HETATM   31  C30 UNL     1       2.475   8.750  22.923  1.00  0.00     0.171 C 
HETATM   32  O2  UNL     1       1.973   7.954  22.151  1.00  0.00    -0.646 OA
BRANCH  31  33
HETATM   33  O3  UNL     1       2.219   8.697  24.240  1.00  0.00    -0.773 OA
HETATM   34  H46 UNL     1       1.617   7.929  24.322  1.00  0.00     0.167 HD
ENDBRANCH  31  33
ENDBRANCH  29  31
ENDBRANCH  27  28
ENDBRANCH  26  27
ENDBRANCH  24  26
ENDBRANCH   1  24
TORSDOF 6
ENDMDL
MODEL 7
REMARK minimizedAffinity -7.0267725
REMARK CNNscore 0.415742666
REMARK CNNaffinity 5.90523148
REMARK  6 active torsions:
REMARK  status: ('A' for Active; 'I' for Inactive)
REMARK    1  A    between atoms: C2_2  and  C30_31 
REMARK    2  A    between atoms: C3_3  and  C4_4 
REMARK    3  A    between atoms: C4_4  and  C5_5 
REMARK    4  A    between atoms: C5_5  and  C6_6 
REMARK    5  A    between atoms: C6_6  and  C8_8 
REMARK    6  A    between atoms: C30_31  and  O3_33 
ROOT
HETATM    1  C8  UNL     1       3.839  12.178  20.907  1.00  0.00    -0.002 C 
HETATM    2  C9  UNL     1       4.504  13.289  20.057  1.00  0.00     0.007 C 
HETATM    3  C10 UNL     1       3.576  13.521  18.836  1.00  0.00     0.015 C 
HETATM    4  C11 UNL     1       2.570  12.346  18.870  1.00  0.00    -0.013 C 
HETATM    5  C12 UNL     1       3.287  11.147  18.169  1.00  0.00     0.021 C 
HETATM    6  C13 UNL     1       1.183  12.465  18.239  1.00  0.00    -0.070 C 
HETATM    7  C14 UNL     1       0.753  13.556  17.579  1.00  0.00    -0.022 C 
HETATM    8  C15 UNL     1      -0.660  13.755  17.111  1.00  0.00     0.034 C 
HETATM    9  C16 UNL     1      -1.652  12.772  17.778  1.00  0.00     0.013 C 
HETATM   10  C17 UNL     1      -3.163  12.948  17.365  1.00  0.00     0.018 C 
HETATM   11  C18 UNL     1      -3.996  13.338  18.609  1.00  0.00     0.023 C 
HETATM   12  C19 UNL     1      -3.384  14.056  16.313  1.00  0.00     0.023 C 
HETATM   13  C20 UNL     1      -3.786  11.646  16.828  1.00  0.00     0.135 C 
HETATM   14  O1  UNL     1      -4.605  11.643  15.906  1.00  0.00    -0.297 OA
HETATM   15  C21 UNL     1      -3.458  10.340  17.519  1.00  0.00     0.080 C 
HETATM   16  C22 UNL     1      -2.154  10.367  18.300  1.00  0.00     0.017 C 
HETATM   17  C23 UNL     1      -1.093  11.313  17.699  1.00  0.00    -0.031 C 
HETATM   18  C24 UNL     1      -0.796  10.880  16.230  1.00  0.00     0.016 C 
HETATM   19  C25 UNL     1       0.281  11.237  18.486  1.00  0.00     0.024 C 
HETATM   20  C26 UNL     1       0.167  10.952  20.010  1.00  0.00     0.010 C 
HETATM   21  C27 UNL     1       1.527  10.950  20.750  1.00  0.00     0.011 C 
HETATM   22  C28 UNL     1       2.359  12.208  20.432  1.00  0.00    -0.029 C 
HETATM   23  C29 UNL     1       1.593  13.426  21.042  1.00  0.00     0.016 C 
ENDROOT
BRANCH   1  24
HETATM   24  C6  UNL     1       4.153  12.174  22.428  1.00  0.00    -0.014 C 
HETATM   25  C7  UNL     1       4.805  10.822  22.792  1.00  0.00     0.010 C 
BRANCH  24  26
HETATM   26  C5  UNL     1       5.058  13.315  22.944  1.00  0.00     0.008 C 
BRANCH  26  27
HETATM   27  C4  UNL     1       6.515  12.879  23.174  1.00  0.00     0.028 C 
BRANCH  27  28
HETATM   28  C3  UNL     1       7.527  13.803  22.550  1.00  0.00    -0.013 C 
HETATM   29  C2  UNL     1       8.701  13.474  21.976  1.00  0.00     0.008 C 
HETATM   30  C1  UNL     1       9.604  14.505  21.361  1.00  0.00     0.055 C 
BRANCH  29  31
HETATM   31  C30 UNL     1       9.191  12.078  21.971  1.00  0.00     0.171 C 
HETATM   32  O2  UNL     1       9.588  11.442  21.013  1.00  0.00    -0.646 OA
BRANCH  31  33
HETATM   33  O3  UNL     1       9.153  11.534  23.199  1.00  0.00    -0.773 OA
HETATM   34  H46 UNL     1       9.506  10.632  23.057  1.00  0.00     0.167 HD
ENDBRANCH  31  33
ENDBRANCH  29  31
ENDBRANCH  27  28
ENDBRANCH  26  27
ENDBRANCH  24  26
ENDBRANCH   1  24
TORSDOF 6
ENDMDL
MODEL 8
REMARK minimizedAffinity -6.33022213
REMARK CNNscore 0.403735191
REMARK CNNaffinity 6.37103271
REMARK  6 active torsions:
REMARK  status: ('A' for Active; 'I' for Inactive)
REMARK    1  A    between atoms: C2_2  and  C30_31 
REMARK    2  A    between atoms: C3_3  and  C4_4 
REMARK    3  A    between atoms: C4_4  and  C5_5 
REMARK    4  A    between atoms: C5_5  and  C6_6 
REMARK    5  A    between atoms: C6_6  and  C8_8 
REMARK    6  A    between atoms: C30_31  and  O3_33 
ROOT
HETATM    1  C8  UNL     1      -3.038  12.324  17.677  1.00  0.00    -0.002 C 
HETATM    2  C9  UNL     1      -3.223  11.315  18.837  1.00  0.00     0.007 C 
HETATM    3  C10 UNL     1      -3.000   9.905  18.230  1.00  0.00     0.015 C 
HETATM    4  C11 UNL     1      -2.982  10.127  16.699  1.00  0.00    -0.013 C 
HETATM    5  C12 UNL     1      -4.480  10.144  16.251  1.00  0.00     0.021 C 
HETATM    6  C13 UNL     1      -2.250   9.168  15.763  1.00  0.00    -0.070 C 
HETATM    7  C14 UNL     1      -1.616   8.055  16.177  1.00  0.00    -0.022 C 
HETATM    8  C15 UNL     1      -0.746   7.204  15.298  1.00  0.00     0.034 C 
HETATM    9  C16 UNL     1      -0.346   7.919  13.985  1.00  0.00     0.013 C 
HETATM   10  C17 UNL     1       0.602   7.099  13.028  1.00  0.00     0.018 C 
HETATM   11  C18 UNL     1       1.949   7.844  12.875  1.00  0.00     0.023 C 
HETATM   12  C19 UNL     1       0.929   5.685  13.555  1.00  0.00     0.023 C 
HETATM   13  C20 UNL     1       0.030   6.960  11.605  1.00  0.00     0.135 C 
HETATM   14  O1  UNL     1       0.176   5.933  10.937  1.00  0.00    -0.297 OA
HETATM   15  C21 UNL     1      -0.645   8.156  10.969  1.00  0.00     0.080 C 
HETATM   16  C22 UNL     1      -1.170   9.172  11.971  1.00  0.00     0.017 C 
HETATM   17  C23 UNL     1      -1.610   8.548  13.311  1.00  0.00    -0.031 C 
HETATM   18  C24 UNL     1      -2.718   7.483  13.040  1.00  0.00     0.016 C 
HETATM   19  C25 UNL     1      -2.239   9.626  14.288  1.00  0.00     0.024 C 
HETATM   20  C26 UNL     1      -1.649  11.059  14.176  1.00  0.00     0.010 C 
HETATM   21  C27 UNL     1      -2.247  12.064  15.190  1.00  0.00     0.011 C 
HETATM   22  C28 UNL     1      -2.223  11.514  16.630  1.00  0.00    -0.029 C 
HETATM   23  C29 UNL     1      -0.722  11.396  17.047  1.00  0.00     0.016 C 
ENDROOT
BRANCH   1  24
HETATM   24  C6  UNL     1      -2.577  13.758  18.060  1.00  0.00    -0.014 C 
HETATM   25  C7  UNL     1      -3.055  14.737  16.966  1.00  0.00     0.010 C 
BRANCH  24  26
HETATM   26  C5  UNL     1      -3.045  14.284  19.436  1.00  0.00     0.008 C 
BRANCH  26  27
HETATM   27  C4  UNL     1      -4.575  14.379  19.561  1.00  0.00     0.028 C 
BRANCH  27  28
HETATM   28  C3  UNL     1      -5.108  13.839  20.861  1.00  0.00    -0.013 C 
HETATM   29  C2  UNL     1      -6.397  13.703  21.231  1.00  0.00     0.008 C 
HETATM   30  C1  UNL     1      -6.787  13.116  22.557  1.00  0.00     0.055 C 
BRANCH  29  31
HETATM   31  C30 UNL     1      -7.500  14.182  20.368  1.00  0.00     0.171 C 
HETATM   32  O2  UNL     1      -8.060  13.564  19.483  1.00  0.00    -0.646 OA
BRANCH  31  33
HETATM   33  O3  UNL     1      -7.850  15.444  20.664  1.00  0.00    -0.773 OA
HETATM   34  H46 UNL     1      -8.581  15.628  20.039  1.00  0.00     0.167 HD
ENDBRANCH  31  33
ENDBRANCH  29  31
ENDBRANCH  27  28
ENDBRANCH  26  27
ENDBRANCH  24  26
ENDBRANCH   1  24
TORSDOF 6
ENDMDL
MODEL 9
REMARK minimizedAffinity -6.33654928
REMARK CNNscore 0.314904034
REMARK CNNaffinity 6.17615366
REMARK  6 active torsions:
REMARK  status: ('A' for Active; 'I' for Inactive)
REMARK    1  A    between atoms: C2_2  and  C30_31 
REMARK    2  A    between atoms: C3_3  and  C4_4 
REMARK    3  A    between atoms: C4_4  and  C5_5 
REMARK    4  A    between atoms: C5_5  and  C6_6 
REMARK    5  A    between atoms: C6_6  and  C8_8 
REMARK    6  A    between atoms: C30_31  and  O3_33 
ROOT
HETATM    1  C8  UNL     1      -2.154  12.604  17.945  1.00  0.00    -0.002 C 
HETATM    2  C9  UNL     1      -3.201  11.833  18.785  1.00  0.00     0.007 C 
HETATM    3  C10 UNL     1      -3.556  10.556  17.979  1.00  0.00     0.015 C 
HETATM    4  C11 UNL     1      -2.927  10.779  16.583  1.00  0.00    -0.013 C 
HETATM    5  C12 UNL     1      -3.957  11.640  15.782  1.00  0.00     0.021 C 
HETATM    6  C13 UNL     1      -2.539   9.604  15.687  1.00  0.00    -0.070 C 
HETATM    7  C14 UNL     1      -2.748   8.315  16.010  1.00  0.00    -0.022 C 
HETATM    8  C15 UNL     1      -2.214   7.151  15.226  1.00  0.00     0.034 C 
HETATM    9  C16 UNL     1      -1.099   7.563  14.235  1.00  0.00     0.013 C 
HETATM   10  C17 UNL     1      -0.461   6.386  13.403  1.00  0.00     0.018 C 
HETATM   11  C18 UNL     1       1.040   6.260  13.755  1.00  0.00     0.023 C 
HETATM   12  C19 UNL     1      -1.106   5.013  13.693  1.00  0.00     0.023 C 
HETATM   13  C20 UNL     1      -0.521   6.632  11.884  1.00  0.00     0.135 C 
HETATM   14  O1  UNL     1      -0.719   5.719  11.079  1.00  0.00    -0.297 OA
HETATM   15  C21 UNL     1      -0.229   8.021  11.357  1.00  0.00     0.080 C 
HETATM   16  C22 UNL     1      -0.445   9.125  12.380  1.00  0.00     0.017 C 
HETATM   17  C23 UNL     1      -1.554   8.810  13.406  1.00  0.00    -0.031 C 
HETATM   18  C24 UNL     1      -2.893   8.550  12.648  1.00  0.00     0.016 C 
HETATM   19  C25 UNL     1      -1.813  10.025  14.391  1.00  0.00     0.024 C 
HETATM   20  C26 UNL     1      -0.568  10.891  14.730  1.00  0.00     0.010 C 
HETATM   21  C27 UNL     1      -0.851  12.026  15.743  1.00  0.00     0.011 C 
HETATM   22  C28 UNL     1      -1.587  11.511  16.996  1.00  0.00    -0.029 C 
HETATM   23  C29 UNL     1      -0.596  10.565  17.749  1.00  0.00     0.016 C 
ENDROOT
BRANCH   1  24
HETATM   24  C6  UNL     1      -1.172  13.527  18.720  1.00  0.00    -0.014 C 
HETATM   25  C7  UNL     1      -1.997  14.536  19.548  1.00  0.00     0.010 C 
BRANCH  24  26
HETATM   26  C5  UNL     1      -0.165  12.823  19.656  1.00  0.00     0.008 C 
BRANCH  26  27
HETATM   27  C4  UNL     1       1.270  13.355  19.513  1.00  0.00     0.028 C 
BRANCH  27  28
HETATM   28  C3  UNL     1       1.942  12.941  18.231  1.00  0.00    -0.013 C 
HETATM   29  C2  UNL     1       2.773  11.898  18.035  1.00  0.00     0.008 C 
HETATM   30  C1  UNL     1       3.350  11.582  16.684  1.00  0.00     0.055 C 
BRANCH  29  31
HETATM   31  C30 UNL     1       3.209  11.039  19.158  1.00  0.00     0.171 C 
HETATM   32  O2  UNL     1       4.054  11.296  19.994  1.00  0.00    -0.646 OA
BRANCH  31  33
HETATM   33  O3  UNL     1       2.548   9.869  19.173  1.00  0.00    -0.773 OA
HETATM   34  H46 UNL     1       2.919   9.412  19.956  1.00  0.00     0.167 HD
ENDBRANCH  31  33
ENDBRANCH  29  31
ENDBRANCH  27  28
ENDBRANCH  26  27
ENDBRANCH  24  26
ENDBRANCH   1  24
TORSDOF 6
ENDMDL
