MODEL 1
REMARK minimizedAffinity -6.53369522
REMARK CNNscore 0.615043283
REMARK CNNaffinity 6.84485388
REMARK  13 active torsions:
REMARK  status: ('A' for Active; 'I' for Inactive)
REMARK    1  A    between atoms: C2_2  and  C3_3 
REMARK    2  A    between atoms: C4_5  and  C5_6 
REMARK    3  A    between atoms: C5_6  and  C6_7 
REMARK    4  A    between atoms: C6_7  and  C7_8 
REMARK    5  A    between atoms: C7_8  and  C9_10 
REMARK    6  A    between atoms: C17_18  and  C18_19 
REMARK    7  A    between atoms: C18_19  and  O2_21 
REMARK    8  A    between atoms: C18_19  and  C20_22 
REMARK    9  A    between atoms: C20_22  and  O3_23 
REMARK   10  A    between atoms: C21_24  and  C22_25 
REMARK   11  A    between atoms: C22_25  and  C23_26 
REMARK   12  A    between atoms: C23_26  and  C24_27 
REMARK   13  A    between atoms: C24_27  and  O5_29 
ROOT
HETATM    1  C9  UNL     1      -1.217  53.719  -8.438  1.00  0.00    -0.002 C 
HETATM    2  C10 UNL     1      -1.773  52.335  -8.067  1.00  0.00     0.006 C 
HETATM    3  C11 UNL     1      -2.338  51.735  -9.374  1.00  0.00     0.011 C 
HETATM    4  C12 UNL     1      -2.048  52.763 -10.504  1.00  0.00    -0.032 C 
HETATM    5  C13 UNL     1      -3.318  53.672 -10.628  1.00  0.00     0.016 C 
HETATM    6  C14 UNL     1      -1.808  52.170 -11.933  1.00  0.00     0.004 C 
HETATM    7  C15 UNL     1      -2.755  51.033 -12.310  1.00  0.00     0.007 C 
HETATM    8  C16 UNL     1      -2.681  50.843 -13.818  1.00  0.00     0.009 C 
HETATM    9  C17 UNL     1      -1.320  50.307 -14.312  1.00  0.00     0.031 C 
HETATM   10  C21 UNL     1      -0.071  50.890 -13.547  1.00  0.00    -0.025 A 
HETATM   11  C25 UNL     1       0.232  52.375 -13.463  1.00  0.00     0.021 A 
HETATM   12  C26 UNL     1      -0.380  51.729 -12.247  1.00  0.00    -0.027 A 
HETATM   13  C27 UNL     1       0.433  51.473 -11.014  1.00  0.00     0.011 C 
HETATM   14  C28 UNL     1       0.501  52.677 -10.086  1.00  0.00     0.011 C 
HETATM   15  C29 UNL     1      -0.793  53.531  -9.935  1.00  0.00    -0.032 C 
HETATM   16  C30 UNL     1      -0.560  54.898 -10.601  1.00  0.00     0.016 C 
ENDROOT
BRANCH   1  17
HETATM   17  C7  UNL     1      -0.288  54.413  -7.400  1.00  0.00    -0.014 C 
HETATM   18  C8  UNL     1      -0.608  54.177  -5.923  1.00  0.00     0.010 C 
BRANCH  17  19
HETATM   19  C6  UNL     1      -0.198  55.948  -7.621  1.00  0.00     0.008 C 
BRANCH  19  20
HETATM   20  C5  UNL     1       1.204  56.537  -7.424  1.00  0.00     0.028 C 
BRANCH  20  21
HETATM   21  C4  UNL     1       2.145  56.064  -8.499  1.00  0.00    -0.017 C 
HETATM   22  C2  UNL     1       3.404  56.487  -8.717  1.00  0.00    -0.028 C 
HETATM   23  C1  UNL     1       4.156  57.541  -7.964  1.00  0.00     0.051 C 
BRANCH  22  24
HETATM   24  C3  UNL     1       4.147  55.850  -9.843  1.00  0.00     0.265 C 
HETATM   25  O1  UNL     1       4.040  54.660 -10.117  1.00  0.00    -0.302 OA
ENDBRANCH  22  24
ENDBRANCH  20  21
ENDBRANCH  19  20
ENDBRANCH  17  19
ENDBRANCH   1  17
BRANCH  10  26
HETATM   26  C22 UNL     1       1.110  49.885 -13.522  1.00  0.00     0.021 C 
BRANCH  26  27
HETATM   27  C23 UNL     1       2.433  50.267 -14.191  1.00  0.00     0.111 C 
BRANCH  27  28
HETATM   28  C24 UNL     1       3.681  50.047 -13.386  1.00  0.00     0.139 C 
HETATM   29  O4  UNL     1       4.737  49.623 -13.827  1.00  0.00    -0.650 OA
BRANCH  28  30
HETATM   30  O5  UNL     1       3.600  50.463 -12.111  1.00  0.00    -0.776 OA
HETATM   31  H39 UNL     1       4.498  50.269 -11.764  1.00  0.00     0.167 HD
ENDBRANCH  28  30
ENDBRANCH  27  28
ENDBRANCH  26  27
ENDBRANCH  10  26
BRANCH   9  32
HETATM   32  C18 UNL     1      -1.252  50.312 -15.889  1.00  0.00     0.080 C 
HETATM   33  C19 UNL     1      -0.746  48.963 -16.438  1.00  0.00     0.048 C 
BRANCH  32  34
HETATM   34  O2  UNL     1      -0.289  51.288 -16.339  1.00  0.00    -0.388 OA
HETATM   35  H31 UNL     1       0.581  51.036 -15.982  1.00  0.00     0.210 HD
ENDBRANCH  32  34
BRANCH  32  36
HETATM   36  C20 UNL     1      -2.576  50.657 -16.603  1.00  0.00     0.201 C 
BRANCH  36  37
HETATM   37  O3  UNL     1      -2.330  51.497 -17.728  1.00  0.00    -0.398 OA
HETATM   38  H34 UNL     1      -1.420  51.248 -18.003  1.00  0.00     0.209 HD
ENDBRANCH  36  37
ENDBRANCH  32  36
ENDBRANCH   9  32
TORSDOF 13
ENDMDL
MODEL 2
REMARK minimizedAffinity -6.67523336
REMARK CNNscore 0.421793938
REMARK CNNaffinity 6.12995005
REMARK  13 active torsions:
REMARK  status: ('A' for Active; 'I' for Inactive)
REMARK    1  A    between atoms: C2_2  and  C3_3 
REMARK    2  A    between atoms: C4_5  and  C5_6 
REMARK    3  A    between atoms: C5_6  and  C6_7 
REMARK    4  A    between atoms: C6_7  and  C7_8 
REMARK    5  A    between atoms: C7_8  and  C9_10 
REMARK    6  A    between atoms: C17_18  and  C18_19 
REMARK    7  A    between atoms: C18_19  and  O2_21 
REMARK    8  A    between atoms: C18_19  and  C20_22 
REMARK    9  A    between atoms: C20_22  and  O3_23 
REMARK   10  A    between atoms: C21_24  and  C22_25 
REMARK   11  A    between atoms: C22_25  and  C23_26 
REMARK   12  A    between atoms: C23_26  and  C24_27 
REMARK   13  A    between atoms: C24_27  and  O5_29 
ROOT
HETATM    1  C9  UNL     1      -6.756  47.941 -28.450  1.00  0.00    -0.002 C 
HETATM    2  C10 UNL     1      -8.129  47.858 -27.762  1.00  0.00     0.006 C 
HETATM    3  C11 UNL     1      -9.163  47.653 -28.891  1.00  0.00     0.011 C 
HETATM    4  C12 UNL     1      -8.364  47.563 -30.223  1.00  0.00    -0.032 C 
HETATM    5  C13 UNL     1      -8.318  49.008 -30.823  1.00  0.00     0.016 C 
HETATM    6  C14 UNL     1      -8.983  46.657 -31.341  1.00  0.00     0.004 C 
HETATM    7  C15 UNL     1     -10.496  46.792 -31.493  1.00  0.00     0.007 C 
HETATM    8  C16 UNL     1     -10.886  46.191 -32.835  1.00  0.00     0.009 C 
HETATM    9  C17 UNL     1     -10.688  44.662 -32.915  1.00  0.00     0.031 C 
HETATM   10  C21 UNL     1      -9.400  44.131 -32.179  1.00  0.00    -0.025 A 
HETATM   11  C25 UNL     1      -7.998  44.608 -32.512  1.00  0.00     0.021 A 
HETATM   12  C26 UNL     1      -8.638  45.171 -31.270  1.00  0.00    -0.027 A 
HETATM   13  C27 UNL     1      -8.190  44.743 -29.905  1.00  0.00     0.011 C 
HETATM   14  C28 UNL     1      -6.993  45.533 -29.396  1.00  0.00     0.011 C 
HETATM   15  C29 UNL     1      -6.955  47.055 -29.726  1.00  0.00    -0.032 C 
HETATM   16  C30 UNL     1      -5.824  47.311 -30.737  1.00  0.00     0.016 C 
ENDROOT
BRANCH   1  17
HETATM   17  C7  UNL     1      -5.498  47.809 -27.543  1.00  0.00    -0.014 C 
HETATM   18  C8  UNL     1      -5.708  48.006 -26.041  1.00  0.00     0.010 C 
BRANCH  17  19
HETATM   19  C6  UNL     1      -4.349  48.756 -27.985  1.00  0.00     0.008 C 
BRANCH  19  20
HETATM   20  C5  UNL     1      -3.310  49.048 -26.895  1.00  0.00     0.028 C 
BRANCH  20  21
HETATM   21  C4  UNL     1      -2.408  50.184 -27.298  1.00  0.00    -0.017 C 
HETATM   22  C2  UNL     1      -1.572  50.875 -26.501  1.00  0.00    -0.028 C 
HETATM   23  C1  UNL     1      -1.360  50.699 -25.029  1.00  0.00     0.051 C 
BRANCH  22  24
HETATM   24  C3  UNL     1      -0.765  51.953 -27.142  1.00  0.00     0.265 C 
HETATM   25  O1  UNL     1      -0.164  51.791 -28.197  1.00  0.00    -0.302 OA
ENDBRANCH  22  24
ENDBRANCH  20  21
ENDBRANCH  19  20
ENDBRANCH  17  19
ENDBRANCH   1  17
BRANCH  10  26
HETATM   26  C22 UNL     1      -9.591  42.683 -31.655  1.00  0.00     0.021 C 
BRANCH  26  27
HETATM   27  C23 UNL     1     -10.993  42.207 -31.267  1.00  0.00     0.111 C 
BRANCH  27  28
HETATM   28  C24 UNL     1     -11.403  42.419 -29.838  1.00  0.00     0.139 C 
HETATM   29  O4  UNL     1     -11.465  41.547 -28.986  1.00  0.00    -0.650 OA
BRANCH  28  30
HETATM   30  O5  UNL     1     -11.605  43.705 -29.505  1.00  0.00    -0.776 OA
HETATM   31  H39 UNL     1     -11.829  43.647 -28.549  1.00  0.00     0.167 HD
ENDBRANCH  28  30
ENDBRANCH  27  28
ENDBRANCH  26  27
ENDBRANCH  10  26
BRANCH   9  32
HETATM   32  C18 UNL     1     -10.933  44.138 -34.384  1.00  0.00     0.080 C 
HETATM   33  C19 UNL     1     -10.943  45.296 -35.403  1.00  0.00     0.048 C 
BRANCH  32  34
HETATM   34  O2  UNL     1     -12.240  43.536 -34.482  1.00  0.00    -0.388 OA
HETATM   35  H31 UNL     1     -12.901  44.220 -34.272  1.00  0.00     0.210 HD
ENDBRANCH  32  34
BRANCH  32  36
HETATM   36  C20 UNL     1      -9.932  43.072 -34.877  1.00  0.00     0.201 C 
BRANCH  36  37
HETATM   37  O3  UNL     1      -9.002  43.649 -35.791  1.00  0.00    -0.398 OA
HETATM   38  H34 UNL     1      -8.954  44.587 -35.504  1.00  0.00     0.209 HD
ENDBRANCH  36  37
ENDBRANCH  32  36
ENDBRANCH   9  32
TORSDOF 13
ENDMDL
MODEL 3
REMARK minimizedAffinity -7.41422653
REMARK CNNscore 0.264377028
REMARK CNNaffinity 6.65572548
REMARK  13 active torsions:
REMARK  status: ('A' for Active; 'I' for Inactive)
REMARK    1  A    between atoms: C2_2  and  C3_3 
REMARK    2  A    between atoms: C4_5  and  C5_6 
REMARK    3  A    between atoms: C5_6  and  C6_7 
REMARK    4  A    between atoms: C6_7  and  C7_8 
REMARK    5  A    between atoms: C7_8  and  C9_10 
REMARK    6  A    between atoms: C17_18  and  C18_19 
REMARK    7  A    between atoms: C18_19  and  O2_21 
REMARK    8  A    between atoms: C18_19  and  C20_22 
REMARK    9  A    between atoms: C20_22  and  O3_23 
REMARK   10  A    between atoms: C21_24  and  C22_25 
REMARK   11  A    between atoms: C22_25  and  C23_26 
REMARK   12  A    between atoms: C23_26  and  C24_27 
REMARK   13  A    between atoms: C24_27  and  O5_29 
ROOT
HETATM    1  C9  UNL     1      -3.333  48.941 -20.031  1.00  0.00    -0.002 C 
HETATM    2  C10 UNL     1      -2.897  47.495 -20.318  1.00  0.00     0.006 C 
HETATM    3  C11 UNL     1      -4.107  46.807 -20.988  1.00  0.00     0.011 C 
HETATM    4  C12 UNL     1      -5.217  47.887 -21.134  1.00  0.00    -0.032 C 
HETATM    5  C13 UNL     1      -6.129  47.773 -19.866  1.00  0.00     0.016 C 
HETATM    6  C14 UNL     1      -6.174  47.733 -22.363  1.00  0.00     0.004 C 
HETATM    7  C15 UNL     1      -6.617  46.299 -22.640  1.00  0.00     0.007 C 
HETATM    8  C16 UNL     1      -7.822  46.353 -23.567  1.00  0.00     0.009 C 
HETATM    9  C17 UNL     1      -7.495  46.871 -24.985  1.00  0.00     0.031 C 
HETATM   10  C21 UNL     1      -6.439  48.040 -25.027  1.00  0.00    -0.025 A 
HETATM   11  C25 UNL     1      -6.626  49.353 -24.290  1.00  0.00     0.021 A 
HETATM   12  C26 UNL     1      -5.688  48.348 -23.674  1.00  0.00    -0.027 A 
HETATM   13  C27 UNL     1      -4.204  48.554 -23.705  1.00  0.00     0.011 C 
HETATM   14  C28 UNL     1      -3.699  49.419 -22.559  1.00  0.00     0.011 C 
HETATM   15  C29 UNL     1      -4.373  49.220 -21.169  1.00  0.00    -0.032 C 
HETATM   16  C30 UNL     1      -5.202  50.475 -20.841  1.00  0.00     0.016 C 
ENDROOT
BRANCH   1  17
HETATM   17  C7  UNL     1      -2.215  49.962 -19.669  1.00  0.00    -0.014 C 
HETATM   18  C8  UNL     1      -2.477  50.875 -18.470  1.00  0.00     0.010 C 
BRANCH  17  19
HETATM   19  C6  UNL     1      -1.828  50.865 -20.872  1.00  0.00     0.008 C 
BRANCH  19  20
HETATM   20  C5  UNL     1      -0.450  50.565 -21.474  1.00  0.00     0.028 C 
BRANCH  20  21
HETATM   21  C4  UNL     1       0.156  51.803 -22.081  1.00  0.00    -0.017 C 
HETATM   22  C2  UNL     1       0.066  52.203 -23.363  1.00  0.00    -0.028 C 
HETATM   23  C1  UNL     1      -0.629  51.505 -24.491  1.00  0.00     0.051 C 
BRANCH  22  24
HETATM   24  C3  UNL     1       0.743  53.483 -23.721  1.00  0.00     0.265 C 
HETATM   25  O1  UNL     1       0.453  54.128 -24.722  1.00  0.00    -0.302 OA
ENDBRANCH  22  24
ENDBRANCH  20  21
ENDBRANCH  19  20
ENDBRANCH  17  19
ENDBRANCH   1  17
BRANCH  10  26
HETATM   26  C22 UNL     1      -5.625  48.033 -26.347  1.00  0.00     0.021 C 
BRANCH  26  27
HETATM   27  C23 UNL     1      -4.236  48.677 -26.373  1.00  0.00     0.111 C 
BRANCH  27  28
HETATM   28  C24 UNL     1      -3.704  49.072 -27.720  1.00  0.00     0.139 C 
HETATM   29  O4  UNL     1      -3.029  50.064 -27.947  1.00  0.00    -0.650 OA
BRANCH  28  30
HETATM   30  O5  UNL     1      -3.933  48.174 -28.692  1.00  0.00    -0.776 OA
HETATM   31  H39 UNL     1      -3.495  48.583 -29.471  1.00  0.00     0.167 HD
ENDBRANCH  28  30
ENDBRANCH  27  28
ENDBRANCH  26  27
ENDBRANCH  10  26
BRANCH   9  32
HETATM   32  C18 UNL     1      -8.815  47.076 -25.828  1.00  0.00     0.080 C 
HETATM   33  C19 UNL     1      -9.950  47.664 -24.966  1.00  0.00     0.048 C 
BRANCH  32  34
HETATM   34  O2  UNL     1      -9.310  45.801 -26.287  1.00  0.00    -0.388 OA
HETATM   35  H31 UNL     1      -9.512  45.259 -25.504  1.00  0.00     0.210 HD
ENDBRANCH  32  34
BRANCH  32  36
HETATM   36  C20 UNL     1      -8.660  47.955 -27.087  1.00  0.00     0.201 C 
BRANCH  36  37
HETATM   37  O3  UNL     1      -9.323  49.203 -26.905  1.00  0.00    -0.398 OA
HETATM   38  H34 UNL     1      -9.282  49.343 -25.933  1.00  0.00     0.209 HD
ENDBRANCH  36  37
ENDBRANCH  32  36
ENDBRANCH   9  32
TORSDOF 13
ENDMDL
MODEL 4
REMARK minimizedAffinity -6.52726603
REMARK CNNscore 0.236994624
REMARK CNNaffinity 6.38316345
REMARK  13 active torsions:
REMARK  status: ('A' for Active; 'I' for Inactive)
REMARK    1  A    between atoms: C2_2  and  C3_3 
REMARK    2  A    between atoms: C4_5  and  C5_6 
REMARK    3  A    between atoms: C5_6  and  C6_7 
REMARK    4  A    between atoms: C6_7  and  C7_8 
REMARK    5  A    between atoms: C7_8  and  C9_10 
REMARK    6  A    between atoms: C17_18  and  C18_19 
REMARK    7  A    between atoms: C18_19  and  O2_21 
REMARK    8  A    between atoms: C18_19  and  C20_22 
REMARK    9  A    between atoms: C20_22  and  O3_23 
REMARK   10  A    between atoms: C21_24  and  C22_25 
REMARK   11  A    between atoms: C22_25  and  C23_26 
REMARK   12  A    between atoms: C23_26  and  C24_27 
REMARK   13  A    between atoms: C24_27  and  O5_29 
ROOT
HETATM    1  C9  UNL     1      -3.198  49.567 -24.179  1.00  0.00    -0.002 C 
HETATM    2  C10 UNL     1      -2.486  48.396 -23.483  1.00  0.00     0.006 C 
HETATM    3  C11 UNL     1      -3.102  48.299 -22.069  1.00  0.00     0.011 C 
HETATM    4  C12 UNL     1      -4.210  49.386 -21.985  1.00  0.00    -0.032 C 
HETATM    5  C13 UNL     1      -3.546  50.665 -21.372  1.00  0.00     0.016 C 
HETATM    6  C14 UNL     1      -5.432  49.058 -21.062  1.00  0.00     0.004 C 
HETATM    7  C15 UNL     1      -5.061  48.398 -19.737  1.00  0.00     0.007 C 
HETATM    8  C16 UNL     1      -6.259  48.512 -18.806  1.00  0.00     0.009 C 
HETATM    9  C17 UNL     1      -7.477  47.675 -19.253  1.00  0.00     0.031 C 
HETATM   10  C21 UNL     1      -7.713  47.644 -20.811  1.00  0.00    -0.025 A 
HETATM   11  C25 UNL     1      -7.918  48.897 -21.644  1.00  0.00     0.021 A 
HETATM   12  C26 UNL     1      -6.559  48.249 -21.702  1.00  0.00    -0.027 A 
HETATM   13  C27 UNL     1      -6.114  47.491 -22.916  1.00  0.00     0.011 C 
HETATM   14  C28 UNL     1      -5.505  48.386 -23.986  1.00  0.00     0.011 C 
HETATM   15  C29 UNL     1      -4.610  49.565 -23.501  1.00  0.00    -0.032 C 
HETATM   16  C30 UNL     1      -5.343  50.887 -23.786  1.00  0.00     0.016 C 
ENDROOT
BRANCH   1  17
HETATM   17  C7  UNL     1      -3.026  49.686 -25.722  1.00  0.00    -0.014 C 
HETATM   18  C8  UNL     1      -3.451  48.479 -26.558  1.00  0.00     0.010 C 
BRANCH  17  19
HETATM   19  C6  UNL     1      -1.570  50.049 -26.126  1.00  0.00     0.008 C 
BRANCH  19  20
HETATM   20  C5  UNL     1      -1.148  51.479 -25.763  1.00  0.00     0.028 C 
BRANCH  20  21
HETATM   21  C4  UNL     1      -0.534  51.528 -24.390  1.00  0.00    -0.017 C 
HETATM   22  C2  UNL     1       0.143  52.555 -23.842  1.00  0.00    -0.028 C 
HETATM   23  C1  UNL     1       0.469  53.873 -24.473  1.00  0.00     0.051 C 
BRANCH  22  24
HETATM   24  C3  UNL     1       0.644  52.368 -22.450  1.00  0.00     0.265 C 
HETATM   25  O1  UNL     1       0.034  52.772 -21.467  1.00  0.00    -0.302 OA
ENDBRANCH  22  24
ENDBRANCH  20  21
ENDBRANCH  19  20
ENDBRANCH  17  19
ENDBRANCH   1  17
BRANCH  10  26
HETATM   26  C22 UNL     1      -8.392  46.326 -21.266  1.00  0.00     0.021 C 
BRANCH  26  27
HETATM   27  C23 UNL     1      -9.386  46.358 -22.429  1.00  0.00     0.111 C 
BRANCH  27  28
HETATM   28  C24 UNL     1     -10.841  46.267 -22.072  1.00  0.00     0.139 C 
HETATM   29  O4  UNL     1     -11.294  45.668 -21.109  1.00  0.00    -0.650 OA
BRANCH  28  30
HETATM   30  O5  UNL     1     -11.651  47.005 -22.849  1.00  0.00    -0.776 OA
HETATM   31  H39 UNL     1     -12.536  46.845 -22.453  1.00  0.00     0.167 HD
ENDBRANCH  28  30
ENDBRANCH  27  28
ENDBRANCH  26  27
ENDBRANCH  10  26
BRANCH   9  32
HETATM   32  C18 UNL     1      -8.735  47.985 -18.351  1.00  0.00     0.080 C 
HETATM   33  C19 UNL     1      -9.964  48.361 -19.204  1.00  0.00     0.048 C 
BRANCH  32  34
HETATM   34  O2  UNL     1      -8.478  49.140 -17.526  1.00  0.00    -0.388 OA
HETATM   35  H31 UNL     1      -8.313  49.897 -18.115  1.00  0.00     0.210 HD
ENDBRANCH  32  34
BRANCH  32  36
HETATM   36  C20 UNL     1      -9.147  46.852 -17.387  1.00  0.00     0.201 C 
BRANCH  36  37
HETATM   37  O3  UNL     1      -8.798  45.583 -17.935  1.00  0.00    -0.398 OA
HETATM   38  H34 UNL     1      -8.020  45.785 -18.500  1.00  0.00     0.209 HD
ENDBRANCH  36  37
ENDBRANCH  32  36
ENDBRANCH   9  32
TORSDOF 13
ENDMDL
MODEL 5
REMARK minimizedAffinity -6.72642326
REMARK CNNscore 0.23091048
REMARK CNNaffinity 6.43359947
REMARK  13 active torsions:
REMARK  status: ('A' for Active; 'I' for Inactive)
REMARK    1  A    between atoms: C2_2  and  C3_3 
REMARK    2  A    between atoms: C4_5  and  C5_6 
REMARK    3  A    between atoms: C5_6  and  C6_7 
REMARK    4  A    between atoms: C6_7  and  C7_8 
REMARK    5  A    between atoms: C7_8  and  C9_10 
REMARK    6  A    between atoms: C17_18  and  C18_19 
REMARK    7  A    between atoms: C18_19  and  O2_21 
REMARK    8  A    between atoms: C18_19  and  C20_22 
REMARK    9  A    between atoms: C20_22  and  O3_23 
REMARK   10  A    between atoms: C21_24  and  C22_25 
REMARK   11  A    between atoms: C22_25  and  C23_26 
REMARK   12  A    between atoms: C23_26  and  C24_27 
REMARK   13  A    between atoms: C24_27  and  O5_29 
ROOT
HETATM    1  C9  UNL     1      -3.592  49.425 -24.261  1.00  0.00    -0.002 C 
HETATM    2  C10 UNL     1      -2.815  48.255 -23.636  1.00  0.00     0.006 C 
HETATM    3  C11 UNL     1      -3.283  48.166 -22.166  1.00  0.00     0.011 C 
HETATM    4  C12 UNL     1      -4.375  49.257 -21.974  1.00  0.00    -0.032 C 
HETATM    5  C13 UNL     1      -3.648  50.537 -21.438  1.00  0.00     0.016 C 
HETATM    6  C14 UNL     1      -5.497  48.936 -20.930  1.00  0.00     0.004 C 
HETATM    7  C15 UNL     1      -4.993  48.281 -19.646  1.00  0.00     0.007 C 
HETATM    8  C16 UNL     1      -6.089  48.402 -18.599  1.00  0.00     0.009 C 
HETATM    9  C17 UNL     1      -7.349  47.566 -18.915  1.00  0.00     0.031 C 
HETATM   10  C21 UNL     1      -7.743  47.529 -20.441  1.00  0.00    -0.025 A 
HETATM   11  C25 UNL     1      -8.029  48.778 -21.254  1.00  0.00     0.021 A 
HETATM   12  C26 UNL     1      -6.685  48.127 -21.448  1.00  0.00    -0.027 A 
HETATM   13  C27 UNL     1      -6.367  47.362 -22.697  1.00  0.00     0.011 C 
HETATM   14  C28 UNL     1      -5.869  48.251 -23.828  1.00  0.00     0.011 C 
HETATM   15  C29 UNL     1      -4.927  49.430 -23.442  1.00  0.00    -0.032 C 
HETATM   16  C30 UNL     1      -5.682  50.753 -23.658  1.00  0.00     0.016 C 
ENDROOT
BRANCH   1  17
HETATM   17  C7  UNL     1      -3.578  49.537 -25.814  1.00  0.00    -0.014 C 
HETATM   18  C8  UNL     1      -3.228  48.269 -26.594  1.00  0.00     0.010 C 
BRANCH  17  19
HETATM   19  C6  UNL     1      -2.640  50.671 -26.315  1.00  0.00     0.008 C 
BRANCH  19  20
HETATM   20  C5  UNL     1      -1.528  51.056 -25.331  1.00  0.00     0.028 C 
BRANCH  20  21
HETATM   21  C4  UNL     1      -0.181  51.035 -26.003  1.00  0.00    -0.017 C 
HETATM   22  C2  UNL     1       0.885  51.800 -25.703  1.00  0.00    -0.028 C 
HETATM   23  C1  UNL     1       0.978  52.865 -24.655  1.00  0.00     0.051 C 
BRANCH  22  24
HETATM   24  C3  UNL     1       2.122  51.582 -26.507  1.00  0.00     0.265 C 
HETATM   25  O1  UNL     1       3.044  50.873 -26.123  1.00  0.00    -0.302 OA
ENDBRANCH  22  24
ENDBRANCH  20  21
ENDBRANCH  19  20
ENDBRANCH  17  19
ENDBRANCH   1  17
BRANCH  10  26
HETATM   26  C22 UNL     1      -8.467  46.210 -20.817  1.00  0.00     0.021 C 
BRANCH  26  27
HETATM   27  C23 UNL     1      -9.053  46.053 -22.223  1.00  0.00     0.111 C 
BRANCH  27  28
HETATM   28  C24 UNL     1      -9.063  44.665 -22.795  1.00  0.00     0.139 C 
HETATM   29  O4  UNL     1      -8.168  44.173 -23.465  1.00  0.00    -0.650 OA
BRANCH  28  30
HETATM   30  O5  UNL     1     -10.116  43.918 -22.422  1.00  0.00    -0.776 OA
HETATM   31  H39 UNL     1      -9.935  43.057 -22.859  1.00  0.00     0.167 HD
ENDBRANCH  28  30
ENDBRANCH  27  28
ENDBRANCH  26  27
ENDBRANCH  10  26
BRANCH   9  32
HETATM   32  C18 UNL     1      -8.508  47.883 -17.891  1.00  0.00     0.080 C 
HETATM   33  C19 UNL     1      -8.816  49.393 -17.835  1.00  0.00     0.048 C 
BRANCH  32  34
HETATM   34  O2  UNL     1      -8.094  47.531 -16.554  1.00  0.00    -0.388 OA
HETATM   35  H31 UNL     1      -7.314  48.069 -16.331  1.00  0.00     0.210 HD
ENDBRANCH  32  34
BRANCH  32  36
HETATM   36  C20 UNL     1      -9.831  47.130 -18.142  1.00  0.00     0.201 C 
BRANCH  36  37
HETATM   37  O3  UNL     1      -9.744  45.795 -17.649  1.00  0.00    -0.398 OA
HETATM   38  H34 UNL     1      -9.098  45.867 -16.912  1.00  0.00     0.209 HD
ENDBRANCH  36  37
ENDBRANCH  32  36
ENDBRANCH   9  32
TORSDOF 13
ENDMDL
MODEL 6
REMARK minimizedAffinity -7.10589027
REMARK CNNscore 0.224166006
REMARK CNNaffinity 6.45996237
REMARK  13 active torsions:
REMARK  status: ('A' for Active; 'I' for Inactive)
REMARK    1  A    between atoms: C2_2  and  C3_3 
REMARK    2  A    between atoms: C4_5  and  C5_6 
REMARK    3  A    between atoms: C5_6  and  C6_7 
REMARK    4  A    between atoms: C6_7  and  C7_8 
REMARK    5  A    between atoms: C7_8  and  C9_10 
REMARK    6  A    between atoms: C17_18  and  C18_19 
REMARK    7  A    between atoms: C18_19  and  O2_21 
REMARK    8  A    between atoms: C18_19  and  C20_22 
REMARK    9  A    between atoms: C20_22  and  O3_23 
REMARK   10  A    between atoms: C21_24  and  C22_25 
REMARK   11  A    between atoms: C22_25  and  C23_26 
REMARK   12  A    between atoms: C23_26  and  C24_27 
REMARK   13  A    between atoms: C24_27  and  O5_29 
ROOT
HETATM    1  C9  UNL     1      -2.919  50.957 -23.746  1.00  0.00    -0.002 C 
HETATM    2  C10 UNL     1      -3.305  52.115 -22.813  1.00  0.00     0.006 C 
HETATM    3  C11 UNL     1      -4.120  51.485 -21.661  1.00  0.00     0.011 C 
HETATM    4  C12 UNL     1      -4.146  49.951 -21.916  1.00  0.00    -0.032 C 
HETATM    5  C13 UNL     1      -5.455  49.646 -22.719  1.00  0.00     0.016 C 
HETATM    6  C14 UNL     1      -4.206  49.040 -20.643  1.00  0.00     0.004 C 
HETATM    7  C15 UNL     1      -5.155  49.540 -19.556  1.00  0.00     0.007 C 
HETATM    8  C16 UNL     1      -5.414  48.388 -18.596  1.00  0.00     0.009 C 
HETATM    9  C17 UNL     1      -4.175  47.969 -17.776  1.00  0.00     0.031 C 
HETATM   10  C21 UNL     1      -2.817  48.014 -18.574  1.00  0.00    -0.025 A 
HETATM   11  C25 UNL     1      -2.579  47.232 -19.853  1.00  0.00     0.021 A 
HETATM   12  C26 UNL     1      -2.866  48.704 -19.993  1.00  0.00    -0.027 A 
HETATM   13  C27 UNL     1      -1.782  49.673 -20.361  1.00  0.00     0.011 C 
HETATM   14  C28 UNL     1      -1.567  49.782 -21.863  1.00  0.00     0.011 C 
HETATM   15  C29 UNL     1      -2.835  49.737 -22.767  1.00  0.00    -0.032 C 
HETATM   16  C30 UNL     1      -2.829  48.416 -23.557  1.00  0.00     0.016 C 
ENDROOT
BRANCH   1  17
HETATM   17  C7  UNL     1      -1.815  51.238 -24.808  1.00  0.00    -0.014 C 
HETATM   18  C8  UNL     1      -1.507  50.113 -25.797  1.00  0.00     0.010 C 
BRANCH  17  19
HETATM   19  C6  UNL     1      -0.472  51.676 -24.160  1.00  0.00     0.008 C 
BRANCH  19  20
HETATM   20  C5  UNL     1       0.605  52.111 -25.163  1.00  0.00     0.028 C 
BRANCH  20  21
HETATM   21  C4  UNL     1       0.055  53.110 -26.145  1.00  0.00    -0.017 C 
HETATM   22  C2  UNL     1       0.071  53.018 -27.488  1.00  0.00    -0.028 C 
HETATM   23  C1  UNL     1       0.658  51.921 -28.321  1.00  0.00     0.051 C 
BRANCH  22  24
HETATM   24  C3  UNL     1      -0.555  54.137 -28.250  1.00  0.00     0.265 C 
HETATM   25  O1  UNL     1      -1.735  54.444 -28.125  1.00  0.00    -0.302 OA
ENDBRANCH  22  24
ENDBRANCH  20  21
ENDBRANCH  19  20
ENDBRANCH  17  19
ENDBRANCH   1  17
BRANCH  10  26
HETATM   26  C22 UNL     1      -1.611  48.309 -17.644  1.00  0.00     0.021 C 
BRANCH  26  27
HETATM   27  C23 UNL     1      -1.782  49.298 -16.488  1.00  0.00     0.111 C 
BRANCH  27  28
HETATM   28  C24 UNL     1      -1.828  50.754 -16.850  1.00  0.00     0.139 C 
HETATM   29  O4  UNL     1      -2.814  51.346 -17.261  1.00  0.00    -0.650 OA
BRANCH  28  30
HETATM   30  O5  UNL     1      -0.698  51.428 -16.583  1.00  0.00    -0.776 OA
HETATM   31  H39 UNL     1      -0.925  52.346 -16.852  1.00  0.00     0.167 HD
ENDBRANCH  28  30
ENDBRANCH  27  28
ENDBRANCH  26  27
ENDBRANCH  10  26
BRANCH   9  32
HETATM   32  C18 UNL     1      -4.466  46.658 -16.946  1.00  0.00     0.080 C 
HETATM   33  C19 UNL     1      -5.184  45.594 -17.801  1.00  0.00     0.048 C 
BRANCH  32  34
HETATM   34  O2  UNL     1      -5.375  46.951 -15.864  1.00  0.00    -0.388 OA
HETATM   35  H31 UNL     1      -6.207  47.274 -16.252  1.00  0.00     0.210 HD
ENDBRANCH  32  34
BRANCH  32  36
HETATM   36  C20 UNL     1      -3.228  46.001 -16.300  1.00  0.00     0.201 C 
BRANCH  36  37
HETATM   37  O3  UNL     1      -2.742  44.942 -17.121  1.00  0.00    -0.398 OA
HETATM   38  H34 UNL     1      -3.008  45.216 -18.027  1.00  0.00     0.209 HD
ENDBRANCH  36  37
ENDBRANCH  32  36
ENDBRANCH   9  32
TORSDOF 13
ENDMDL
MODEL 7
REMARK minimizedAffinity -7.5762639
REMARK CNNscore 0.221036136
REMARK CNNaffinity 6.14694834
REMARK  13 active torsions:
REMARK  status: ('A' for Active; 'I' for Inactive)
REMARK    1  A    between atoms: C2_2  and  C3_3 
REMARK    2  A    between atoms: C4_5  and  C5_6 
REMARK    3  A    between atoms: C5_6  and  C6_7 
REMARK    4  A    between atoms: C6_7  and  C7_8 
REMARK    5  A    between atoms: C7_8  and  C9_10 
REMARK    6  A    between atoms: C17_18  and  C18_19 
REMARK    7  A    between atoms: C18_19  and  O2_21 
REMARK    8  A    between atoms: C18_19  and  C20_22 
REMARK    9  A    between atoms: C20_22  and  O3_23 
REMARK   10  A    between atoms: C21_24  and  C22_25 
REMARK   11  A    between atoms: C22_25  and  C23_26 
REMARK   12  A    between atoms: C23_26  and  C24_27 
REMARK   13  A    between atoms: C24_27  and  O5_29 
ROOT
HETATM    1  C9  UNL     1      -2.210  51.018 -24.766  1.00  0.00    -0.002 C 
HETATM    2  C10 UNL     1      -2.397  49.710 -25.552  1.00  0.00     0.006 C 
HETATM    3  C11 UNL     1      -2.875  48.658 -24.527  1.00  0.00     0.011 C 
HETATM    4  C12 UNL     1      -3.015  49.390 -23.162  1.00  0.00    -0.032 C 
HETATM    5  C13 UNL     1      -1.659  49.196 -22.402  1.00  0.00     0.016 C 
HETATM    6  C14 UNL     1      -4.124  48.849 -22.198  1.00  0.00     0.004 C 
HETATM    7  C15 UNL     1      -4.216  47.326 -22.137  1.00  0.00     0.007 C 
HETATM    8  C16 UNL     1      -5.022  46.956 -20.900  1.00  0.00     0.009 C 
HETATM    9  C17 UNL     1      -6.508  47.367 -20.978  1.00  0.00     0.031 C 
HETATM   10  C21 UNL     1      -6.766  48.756 -21.677  1.00  0.00    -0.025 A 
HETATM   11  C25 UNL     1      -6.145  50.055 -21.197  1.00  0.00     0.021 A 
HETATM   12  C26 UNL     1      -5.530  49.407 -22.410  1.00  0.00    -0.027 A 
HETATM   13  C27 UNL     1      -5.726  49.984 -23.779  1.00  0.00     0.011 C 
HETATM   14  C28 UNL     1      -4.724  51.080 -24.112  1.00  0.00     0.011 C 
HETATM   15  C29 UNL     1      -3.262  50.881 -23.613  1.00  0.00    -0.032 C 
HETATM   16  C30 UNL     1      -2.977  51.909 -22.504  1.00  0.00     0.016 C 
ENDROOT
BRANCH   1  17
HETATM   17  C7  UNL     1      -2.059  52.328 -25.593  1.00  0.00    -0.014 C 
HETATM   18  C8  UNL     1      -2.454  52.261 -27.068  1.00  0.00     0.010 C 
BRANCH  17  19
HETATM   19  C6  UNL     1      -0.621  52.912 -25.517  1.00  0.00     0.008 C 
BRANCH  19  20
HETATM   20  C5  UNL     1       0.284  52.237 -24.479  1.00  0.00     0.028 C 
BRANCH  20  21
HETATM   21  C4  UNL     1       0.787  53.236 -23.471  1.00  0.00    -0.017 C 
HETATM   22  C2  UNL     1       0.912  53.053 -22.143  1.00  0.00    -0.028 C 
HETATM   23  C1  UNL     1       0.559  51.831 -21.353  1.00  0.00     0.051 C 
BRANCH  22  24
HETATM   24  C3  UNL     1       1.454  54.195 -21.351  1.00  0.00     0.265 C 
HETATM   25  O1  UNL     1       1.497  54.189 -20.127  1.00  0.00    -0.302 OA
ENDBRANCH  22  24
ENDBRANCH  20  21
ENDBRANCH  19  20
ENDBRANCH  17  19
ENDBRANCH   1  17
BRANCH  10  26
HETATM   26  C22 UNL     1      -8.153  48.802 -22.371  1.00  0.00     0.021 C 
BRANCH  26  27
HETATM   27  C23 UNL     1      -8.456  47.820 -23.505  1.00  0.00     0.111 C 
BRANCH  27  28
HETATM   28  C24 UNL     1      -9.265  48.349 -24.654  1.00  0.00     0.139 C 
HETATM   29  O4  UNL     1     -10.250  47.807 -25.129  1.00  0.00    -0.650 OA
BRANCH  28  30
HETATM   30  O5  UNL     1      -8.889  49.565 -25.084  1.00  0.00    -0.776 OA
HETATM   31  H39 UNL     1      -9.538  49.751 -25.798  1.00  0.00     0.167 HD
ENDBRANCH  28  30
ENDBRANCH  27  28
ENDBRANCH  26  27
ENDBRANCH  10  26
BRANCH   9  32
HETATM   32  C18 UNL     1      -7.233  47.123 -19.597  1.00  0.00     0.080 C 
HETATM   33  C19 UNL     1      -6.289  46.463 -18.571  1.00  0.00     0.048 C 
BRANCH  32  34
HETATM   34  O2  UNL     1      -8.318  46.188 -19.768  1.00  0.00    -0.388 OA
HETATM   35  H31 UNL     1      -7.942  45.348 -20.084  1.00  0.00     0.210 HD
ENDBRANCH  32  34
BRANCH  32  36
HETATM   36  C20 UNL     1      -7.848  48.380 -18.946  1.00  0.00     0.201 C 
BRANCH  36  37
HETATM   37  O3  UNL     1      -7.122  48.737 -17.772  1.00  0.00    -0.398 OA
HETATM   38  H34 UNL     1      -6.216  48.405 -17.955  1.00  0.00     0.209 HD
ENDBRANCH  36  37
ENDBRANCH  32  36
ENDBRANCH   9  32
TORSDOF 13
ENDMDL
MODEL 8
REMARK minimizedAffinity -8.91712666
REMARK CNNscore 0.207614362
REMARK CNNaffinity 6.33956718
REMARK  13 active torsions:
REMARK  status: ('A' for Active; 'I' for Inactive)
REMARK    1  A    between atoms: C2_2  and  C3_3 
REMARK    2  A    between atoms: C4_5  and  C5_6 
REMARK    3  A    between atoms: C5_6  and  C6_7 
REMARK    4  A    between atoms: C6_7  and  C7_8 
REMARK    5  A    between atoms: C7_8  and  C9_10 
REMARK    6  A    between atoms: C17_18  and  C18_19 
REMARK    7  A    between atoms: C18_19  and  O2_21 
REMARK    8  A    between atoms: C18_19  and  C20_22 
REMARK    9  A    between atoms: C20_22  and  O3_23 
REMARK   10  A    between atoms: C21_24  and  C22_25 
REMARK   11  A    between atoms: C22_25  and  C23_26 
REMARK   12  A    between atoms: C23_26  and  C24_27 
REMARK   13  A    between atoms: C24_27  and  O5_29 
ROOT
HETATM    1  C9  UNL     1      -1.388  50.149 -20.233  1.00  0.00    -0.002 C 
HETATM    2  C10 UNL     1      -1.062  48.647 -20.268  1.00  0.00     0.006 C 
HETATM    3  C11 UNL     1      -2.361  47.936 -20.709  1.00  0.00     0.011 C 
HETATM    4  C12 UNL     1      -3.414  49.048 -20.981  1.00  0.00    -0.032 C 
HETATM    5  C13 UNL     1      -4.225  49.239 -19.655  1.00  0.00     0.016 C 
HETATM    6  C14 UNL     1      -4.475  48.739 -22.089  1.00  0.00     0.004 C 
HETATM    7  C15 UNL     1      -5.022  47.314 -22.056  1.00  0.00     0.007 C 
HETATM    8  C16 UNL     1      -6.294  47.282 -22.891  1.00  0.00     0.009 C 
HETATM    9  C17 UNL     1      -6.054  47.501 -24.400  1.00  0.00     0.031 C 
HETATM   10  C21 UNL     1      -4.939  48.562 -24.738  1.00  0.00    -0.025 A 
HETATM   11  C25 UNL     1      -4.988  50.000 -24.255  1.00  0.00     0.021 A 
HETATM   12  C26 UNL     1      -4.063  49.061 -23.524  1.00  0.00    -0.027 A 
HETATM   13  C27 UNL     1      -2.576  49.149 -23.696  1.00  0.00     0.011 C 
HETATM   14  C28 UNL     1      -1.930  50.173 -22.774  1.00  0.00     0.011 C 
HETATM   15  C29 UNL     1      -2.500  50.287 -21.329  1.00  0.00    -0.032 C 
HETATM   16  C30 UNL     1      -3.224  51.637 -21.190  1.00  0.00     0.016 C 
ENDROOT
BRANCH   1  17
HETATM   17  C7  UNL     1      -0.186  51.135 -20.150  1.00  0.00    -0.014 C 
HETATM   18  C8  UNL     1       0.070  51.797 -18.796  1.00  0.00     0.010 C 
BRANCH  17  19
HETATM   19  C6  UNL     1      -0.274  52.263 -21.215  1.00  0.00     0.008 C 
BRANCH  19  20
HETATM   20  C5  UNL     1       0.893  52.289 -22.210  1.00  0.00     0.028 C 
BRANCH  20  21
HETATM   21  C4  UNL     1       0.593  53.200 -23.371  1.00  0.00    -0.017 C 
HETATM   22  C2  UNL     1       0.406  52.840 -24.654  1.00  0.00    -0.028 C 
HETATM   23  C1  UNL     1       0.478  51.462 -25.236  1.00  0.00     0.051 C 
BRANCH  22  24
HETATM   24  C3  UNL     1       0.103  53.932 -25.625  1.00  0.00     0.265 C 
HETATM   25  O1  UNL     1       0.251  55.118 -25.355  1.00  0.00    -0.302 OA
ENDBRANCH  22  24
ENDBRANCH  20  21
ENDBRANCH  19  20
ENDBRANCH  17  19
ENDBRANCH   1  17
BRANCH  10  26
HETATM   26  C22 UNL     1      -4.236  48.250 -26.085  1.00  0.00     0.021 C 
BRANCH  26  27
HETATM   27  C23 UNL     1      -3.758  49.408 -26.965  1.00  0.00     0.111 C 
BRANCH  27  28
HETATM   28  C24 UNL     1      -3.981  49.265 -28.443  1.00  0.00     0.139 C 
HETATM   29  O4  UNL     1      -4.504  48.305 -28.987  1.00  0.00    -0.650 OA
BRANCH  28  30
HETATM   30  O5  UNL     1      -3.653  50.352 -29.161  1.00  0.00    -0.776 OA
HETATM   31  H39 UNL     1      -3.892  50.086 -30.077  1.00  0.00     0.167 HD
ENDBRANCH  28  30
ENDBRANCH  27  28
ENDBRANCH  26  27
ENDBRANCH  10  26
BRANCH   9  32
HETATM   32  C18 UNL     1      -7.424  47.642 -25.174  1.00  0.00     0.080 C 
HETATM   33  C19 UNL     1      -7.980  46.266 -25.594  1.00  0.00     0.048 C 
BRANCH  32  34
HETATM   34  O2  UNL     1      -7.223  48.361 -26.408  1.00  0.00    -0.388 OA
HETATM   35  H31 UNL     1      -6.599  47.851 -26.953  1.00  0.00     0.210 HD
ENDBRANCH  32  34
BRANCH  32  36
HETATM   36  C20 UNL     1      -8.533  48.398 -24.412  1.00  0.00     0.201 C 
BRANCH  36  37
HETATM   37  O3  UNL     1      -8.361  49.806 -24.553  1.00  0.00    -0.398 OA
HETATM   38  H34 UNL     1      -7.911  49.894 -25.422  1.00  0.00     0.209 HD
ENDBRANCH  36  37
ENDBRANCH  32  36
ENDBRANCH   9  32
TORSDOF 13
ENDMDL
MODEL 9
REMARK minimizedAffinity -7.76625776
REMARK CNNscore 0.207430959
REMARK CNNaffinity 6.13706207
REMARK  13 active torsions:
REMARK  status: ('A' for Active; 'I' for Inactive)
REMARK    1  A    between atoms: C2_2  and  C3_3 
REMARK    2  A    between atoms: C4_5  and  C5_6 
REMARK    3  A    between atoms: C5_6  and  C6_7 
REMARK    4  A    between atoms: C6_7  and  C7_8 
REMARK    5  A    between atoms: C7_8  and  C9_10 
REMARK    6  A    between atoms: C17_18  and  C18_19 
REMARK    7  A    between atoms: C18_19  and  O2_21 
REMARK    8  A    between atoms: C18_19  and  C20_22 
REMARK    9  A    between atoms: C20_22  and  O3_23 
REMARK   10  A    between atoms: C21_24  and  C22_25 
REMARK   11  A    between atoms: C22_25  and  C23_26 
REMARK   12  A    between atoms: C23_26  and  C24_27 
REMARK   13  A    between atoms: C24_27  and  O5_29 
ROOT
HETATM    1  C9  UNL     1      -2.507  50.814 -22.591  1.00  0.00    -0.002 C 
HETATM    2  C10 UNL     1      -1.773  49.540 -23.037  1.00  0.00     0.006 C 
HETATM    3  C11 UNL     1      -2.625  48.354 -22.533  1.00  0.00     0.011 C 
HETATM    4  C12 UNL     1      -3.881  48.961 -21.846  1.00  0.00    -0.032 C 
HETATM    5  C13 UNL     1      -3.547  49.088 -20.321  1.00  0.00     0.016 C 
HETATM    6  C14 UNL     1      -5.192  48.110 -21.925  1.00  0.00     0.004 C 
HETATM    7  C15 UNL     1      -4.985  46.613 -21.704  1.00  0.00     0.007 C 
HETATM    8  C16 UNL     1      -6.342  45.992 -21.408  1.00  0.00     0.009 C 
HETATM    9  C17 UNL     1      -7.311  46.010 -22.610  1.00  0.00     0.031 C 
HETATM   10  C21 UNL     1      -7.238  47.316 -23.489  1.00  0.00    -0.025 A 
HETATM   11  C25 UNL     1      -7.468  48.708 -22.928  1.00  0.00     0.021 A 
HETATM   12  C26 UNL     1      -6.040  48.296 -23.181  1.00  0.00    -0.027 A 
HETATM   13  C27 UNL     1      -5.262  48.866 -24.329  1.00  0.00     0.011 C 
HETATM   14  C28 UNL     1      -4.603  50.197 -23.999  1.00  0.00     0.011 C 
HETATM   15  C29 UNL     1      -4.006  50.359 -22.568  1.00  0.00    -0.032 C 
HETATM   16  C30 UNL     1      -4.862  51.373 -21.791  1.00  0.00     0.016 C 
ENDROOT
BRANCH   1  17
HETATM   17  C7  UNL     1      -2.064  52.156 -23.244  1.00  0.00    -0.014 C 
HETATM   18  C8  UNL     1      -2.688  52.503 -24.596  1.00  0.00     0.010 C 
BRANCH  17  19
HETATM   19  C6  UNL     1      -0.521  52.254 -23.399  1.00  0.00     0.008 C 
BRANCH  19  20
HETATM   20  C5  UNL     1       0.006  51.842 -24.779  1.00  0.00     0.028 C 
BRANCH  20  21
HETATM   21  C4  UNL     1      -0.183  52.949 -25.782  1.00  0.00    -0.017 C 
HETATM   22  C2  UNL     1      -0.153  52.840 -27.123  1.00  0.00    -0.028 C 
HETATM   23  C1  UNL     1       0.100  51.606 -27.933  1.00  0.00     0.051 C 
BRANCH  22  24
HETATM   24  C3  UNL     1      -0.385  54.087 -27.909  1.00  0.00     0.265 C 
HETATM   25  O1  UNL     1      -1.506  54.530 -28.130  1.00  0.00    -0.302 OA
ENDBRANCH  22  24
ENDBRANCH  20  21
ENDBRANCH  19  20
ENDBRANCH  17  19
ENDBRANCH   1  17
BRANCH  10  26
HETATM   26  C22 UNL     1      -7.610  47.036 -24.969  1.00  0.00     0.021 C 
BRANCH  26  27
HETATM   27  C23 UNL     1      -8.038  48.200 -25.866  1.00  0.00     0.111 C 
BRANCH  27  28
HETATM   28  C24 UNL     1      -9.447  48.692 -25.702  1.00  0.00     0.139 C 
HETATM   29  O4  UNL     1     -10.388  48.017 -25.315  1.00  0.00    -0.650 OA
BRANCH  28  30
HETATM   30  O5  UNL     1      -9.603  50.009 -25.914  1.00  0.00    -0.776 OA
HETATM   31  H39 UNL     1     -10.559  50.145 -25.734  1.00  0.00     0.167 HD
ENDBRANCH  28  30
ENDBRANCH  27  28
ENDBRANCH  26  27
ENDBRANCH  10  26
BRANCH   9  32
HETATM   32  C18 UNL     1      -8.751  45.524 -22.180  1.00  0.00     0.080 C 
HETATM   33  C19 UNL     1      -8.714  44.764 -20.839  1.00  0.00     0.048 C 
BRANCH  32  34
HETATM   34  O2  UNL     1      -9.258  44.574 -23.140  1.00  0.00    -0.388 OA
HETATM   35  H31 UNL     1      -8.654  43.811 -23.153  1.00  0.00     0.210 HD
ENDBRANCH  32  34
BRANCH  32  36
HETATM   36  C20 UNL     1      -9.815  46.637 -22.074  1.00  0.00     0.201 C 
BRANCH  36  37
HETATM   37  O3  UNL     1      -9.858  47.157 -20.747  1.00  0.00    -0.398 OA
HETATM   38  H34 UNL     1      -8.943  47.018 -20.418  1.00  0.00     0.209 HD
ENDBRANCH  36  37
ENDBRANCH  32  36
ENDBRANCH   9  32
TORSDOF 13
ENDMDL
