MODEL 1
REMARK minimizedAffinity -7.79818392
REMARK CNNscore 0.795652926
REMARK CNNaffinity 7.25163221
REMARK  3 active torsions:
REMARK  status: ('A' for Active; 'I' for Inactive)
REMARK    1  A    between atoms: C4_4  and  C5_5 
REMARK    2  A    between atoms: C5_5  and  C7_7 
REMARK    3  A    between atoms: C7_7  and  O1_10 
ROOT
HETATM    1  C1  UNL     1       3.040  58.025  -6.402  1.00  0.00     0.010 C 
HETATM    2  C2  UNL     1       3.765  56.743  -6.802  1.00  0.00    -0.009 C 
HETATM    3  C3  UNL     1       5.274  56.982  -6.938  1.00  0.00     0.037 C 
HETATM    4  C4  UNL     1       6.025  55.652  -7.114  1.00  0.00     0.129 C 
HETATM    5  O2  UNL     1       5.203  54.709  -7.833  1.00  0.00    -0.380 OA
HETATM    6  C10 UNL     1       4.335  55.265  -8.808  1.00  0.00     0.128 C 
HETATM    7  C11 UNL     1       3.557  54.122  -9.488  1.00  0.00     0.042 C 
HETATM    8  C12 UNL     1       2.110  54.641  -9.606  1.00  0.00    -0.030 C 
HETATM    9  C13 UNL     1       2.065  55.572 -10.859  1.00  0.00     0.016 C 
HETATM   10  C14 UNL     1       1.035  53.529  -9.714  1.00  0.00     0.004 C 
HETATM   11  C15 UNL     1       1.062  52.772 -11.049  1.00  0.00     0.007 C 
HETATM   12  C16 UNL     1       0.031  51.651 -11.047  1.00  0.00     0.007 C 
HETATM   13  C17 UNL     1      -1.380  52.240 -11.063  1.00  0.00     0.010 C 
HETATM   14  C18 UNL     1      -2.524  51.175 -11.020  1.00  0.00     0.018 C 
HETATM   15  C19 UNL     1      -2.308  50.069  -9.978  1.00  0.00     0.023 C 
HETATM   16  C20 UNL     1      -2.693  50.534 -12.412  1.00  0.00     0.023 C 
HETATM   17  C21 UNL     1      -3.852  51.876 -10.695  1.00  0.00     0.135 C 
HETATM   18  O3  UNL     1      -4.828  51.239 -10.276  1.00  0.00    -0.297 OA
HETATM   19  C22 UNL     1      -3.955  53.348 -10.998  1.00  0.00     0.080 C 
HETATM   20  C23 UNL     1      -2.859  54.150 -10.304  1.00  0.00     0.018 C 
HETATM   21  C24 UNL     1      -1.602  53.336 -10.017  1.00  0.00    -0.026 A 
HETATM   22  C25 UNL     1      -1.255  53.079  -8.573  1.00  0.00     0.021 A 
HETATM   23  C26 UNL     1      -0.382  54.043  -9.362  1.00  0.00    -0.027 A 
HETATM   24  C27 UNL     1      -0.522  55.530  -9.005  1.00  0.00     0.011 C 
HETATM   25  C28 UNL     1       0.658  56.212  -8.286  1.00  0.00     0.011 C 
HETATM   26  C29 UNL     1       1.947  55.382  -8.233  1.00  0.00    -0.030 C 
HETATM   27  C30 UNL     1       1.847  54.435  -6.999  1.00  0.00     0.016 C 
HETATM   28  C31 UNL     1       3.272  56.197  -8.160  1.00  0.00     0.027 C 
ENDROOT
BRANCH   4  29
HETATM   29  C5  UNL     1       6.475  54.903  -5.810  1.00  0.00     0.044 C 
HETATM   30  C6  UNL     1       6.552  53.394  -6.154  1.00  0.00     0.015 C 
BRANCH  29  31
HETATM   31  C7  UNL     1       7.793  55.406  -5.114  1.00  0.00     0.056 C 
HETATM   32  C8  UNL     1       7.509  56.392  -3.964  1.00  0.00     0.045 C 
HETATM   33  C9  UNL     1       8.630  54.263  -4.497  1.00  0.00     0.045 C 
BRANCH  31  34
HETATM   34  O1  UNL     1       8.653  56.020  -6.075  1.00  0.00    -0.390 OA
HETATM   35  H18 UNL     1       8.396  56.952  -6.191  1.00  0.00     0.210 HD
ENDBRANCH  31  34
ENDBRANCH  29  31
ENDBRANCH   4  29
TORSDOF 3
ENDMDL
MODEL 2
REMARK minimizedAffinity -7.69097281
REMARK CNNscore 0.750035822
REMARK CNNaffinity 7.02617455
REMARK  3 active torsions:
REMARK  status: ('A' for Active; 'I' for Inactive)
REMARK    1  A    between atoms: C4_4  and  C5_5 
REMARK    2  A    between atoms: C5_5  and  C7_7 
REMARK    3  A    between atoms: C7_7  and  O1_10 
ROOT
HETATM    1  C1  UNL     1      -1.283  51.287 -13.376  1.00  0.00     0.010 C 
HETATM    2  C2  UNL     1      -1.986  51.321 -12.021  1.00  0.00    -0.009 C 
HETATM    3  C3  UNL     1      -3.475  50.983 -12.165  1.00  0.00     0.037 C 
HETATM    4  C4  UNL     1      -4.129  50.793 -10.786  1.00  0.00     0.129 C 
HETATM    5  O2  UNL     1      -3.500  51.657  -9.816  1.00  0.00    -0.380 OA
HETATM    6  C10 UNL     1      -3.034  52.903 -10.309  1.00  0.00     0.128 C 
HETATM    7  C11 UNL     1      -2.418  53.698  -9.142  1.00  0.00     0.042 C 
HETATM    8  C12 UNL     1      -1.130  54.320  -9.721  1.00  0.00    -0.030 C 
HETATM    9  C13 UNL     1      -1.562  55.595 -10.513  1.00  0.00     0.016 C 
HETATM   10  C14 UNL     1      -0.056  54.675  -8.662  1.00  0.00     0.004 C 
HETATM   11  C15 UNL     1      -0.439  55.860  -7.765  1.00  0.00     0.007 C 
HETATM   12  C16 UNL     1       0.631  56.096  -6.707  1.00  0.00     0.007 C 
HETATM   13  C17 UNL     1       1.910  56.617  -7.364  1.00  0.00     0.010 C 
HETATM   14  C18 UNL     1       3.094  56.855  -6.372  1.00  0.00     0.018 C 
HETATM   15  C19 UNL     1       3.312  55.709  -5.374  1.00  0.00     0.023 C 
HETATM   16  C20 UNL     1       2.868  58.167  -5.595  1.00  0.00     0.023 C 
HETATM   17  C21 UNL     1       4.393  57.037  -7.173  1.00  0.00     0.135 C 
HETATM   18  O3  UNL     1       5.501  56.902  -6.636  1.00  0.00    -0.297 OA
HETATM   19  C22 UNL     1       4.270  57.480  -8.607  1.00  0.00     0.080 C 
HETATM   20  C23 UNL     1       3.386  56.540  -9.420  1.00  0.00     0.018 C 
HETATM   21  C24 UNL     1       2.358  55.795  -8.577  1.00  0.00    -0.026 A 
HETATM   22  C25 UNL     1       2.507  54.300  -8.459  1.00  0.00     0.021 A 
HETATM   23  C26 UNL     1       1.351  54.843  -9.284  1.00  0.00    -0.027 A 
HETATM   24  C27 UNL     1       1.471  54.678 -10.806  1.00  0.00     0.011 C 
HETATM   25  C28 UNL     1       0.525  53.678 -11.499  1.00  0.00     0.011 C 
HETATM   26  C29 UNL     1      -0.605  53.142 -10.613  1.00  0.00    -0.030 C 
HETATM   27  C30 UNL     1      -0.041  51.930  -9.810  1.00  0.00     0.016 C 
HETATM   28  C31 UNL     1      -1.904  52.714 -11.360  1.00  0.00     0.027 C 
ENDROOT
BRANCH   4  29
HETATM   29  C5  UNL     1      -4.079  49.355 -10.159  1.00  0.00     0.044 C 
HETATM   30  C6  UNL     1      -3.193  49.441  -8.890  1.00  0.00     0.015 C 
BRANCH  29  31
HETATM   31  C7  UNL     1      -5.456  48.658  -9.857  1.00  0.00     0.056 C 
HETATM   32  C8  UNL     1      -6.039  47.949 -11.095  1.00  0.00     0.045 C 
HETATM   33  C9  UNL     1      -5.363  47.580  -8.754  1.00  0.00     0.045 C 
BRANCH  31  34
HETATM   34  O1  UNL     1      -6.395  49.615  -9.363  1.00  0.00    -0.390 OA
HETATM   35  H18 UNL     1      -6.823  50.065 -10.112  1.00  0.00     0.210 HD
ENDBRANCH  31  34
ENDBRANCH  29  31
ENDBRANCH   4  29
TORSDOF 3
ENDMDL
MODEL 3
REMARK minimizedAffinity -6.97944498
REMARK CNNscore 0.68704474
REMARK CNNaffinity 7.12692499
REMARK  3 active torsions:
REMARK  status: ('A' for Active; 'I' for Inactive)
REMARK    1  A    between atoms: C4_4  and  C5_5 
REMARK    2  A    between atoms: C5_5  and  C7_7 
REMARK    3  A    between atoms: C7_7  and  O1_10 
ROOT
HETATM    1  C1  UNL     1       3.122  58.079  -6.043  1.00  0.00     0.010 C 
HETATM    2  C2  UNL     1       4.195  57.057  -6.407  1.00  0.00    -0.009 C 
HETATM    3  C3  UNL     1       5.599  57.660  -6.268  1.00  0.00     0.037 C 
HETATM    4  C4  UNL     1       6.678  56.574  -6.411  1.00  0.00     0.129 C 
HETATM    5  O2  UNL     1       6.234  55.551  -7.325  1.00  0.00    -0.380 OA
HETATM    6  C10 UNL     1       5.405  55.991  -8.390  1.00  0.00     0.128 C 
HETATM    7  C11 UNL     1       5.048  54.779  -9.273  1.00  0.00     0.042 C 
HETATM    8  C12 UNL     1       3.549  54.951  -9.595  1.00  0.00    -0.030 C 
HETATM    9  C13 UNL     1       3.455  55.979 -10.767  1.00  0.00     0.016 C 
HETATM   10  C14 UNL     1       2.817  53.636  -9.964  1.00  0.00     0.004 C 
HETATM   11  C15 UNL     1       3.228  53.061 -11.326  1.00  0.00     0.007 C 
HETATM   12  C16 UNL     1       2.522  51.735 -11.580  1.00  0.00     0.007 C 
HETATM   13  C17 UNL     1       1.026  51.971 -11.792  1.00  0.00     0.010 C 
HETATM   14  C18 UNL     1       0.194  50.668 -12.020  1.00  0.00     0.018 C 
HETATM   15  C19 UNL     1       0.526  49.535 -11.039  1.00  0.00     0.023 C 
HETATM   16  C20 UNL     1       0.396  50.166 -13.463  1.00  0.00     0.023 C 
HETATM   17  C21 UNL     1      -1.301  50.994 -11.874  1.00  0.00     0.135 C 
HETATM   18  O3  UNL     1      -2.136  50.101 -11.673  1.00  0.00    -0.297 OA
HETATM   19  C22 UNL     1      -1.726  52.424 -12.082  1.00  0.00     0.080 C 
HETATM   20  C23 UNL     1      -0.980  53.380 -11.156  1.00  0.00     0.018 C 
HETATM   21  C24 UNL     1       0.386  52.860 -10.721  1.00  0.00    -0.026 A 
HETATM   22  C25 UNL     1       0.572  52.533  -9.262  1.00  0.00     0.021 A 
HETATM   23  C26 UNL     1       1.280  53.757  -9.820  1.00  0.00    -0.027 A 
HETATM   24  C27 UNL     1       0.720  55.119  -9.384  1.00  0.00     0.011 C 
HETATM   25  C28 UNL     1       1.573  55.977  -8.429  1.00  0.00     0.011 C 
HETATM   26  C29 UNL     1       3.007  55.474  -8.220  1.00  0.00    -0.030 C 
HETATM   27  C30 UNL     1       2.969  54.398  -7.092  1.00  0.00     0.016 C 
HETATM   28  C31 UNL     1       4.060  56.567  -7.864  1.00  0.00     0.027 C 
ENDROOT
BRANCH   4  29
HETATM   29  C5  UNL     1       7.107  55.812  -5.108  1.00  0.00     0.044 C 
HETATM   30  C6  UNL     1       6.919  54.298  -5.382  1.00  0.00     0.015 C 
BRANCH  29  31
HETATM   31  C7  UNL     1       8.538  56.123  -4.533  1.00  0.00     0.056 C 
HETATM   32  C8  UNL     1       8.496  56.550  -3.053  1.00  0.00     0.045 C 
HETATM   33  C9  UNL     1       9.497  54.914  -4.601  1.00  0.00     0.045 C 
BRANCH  31  34
HETATM   34  O1  UNL     1       9.168  57.142  -5.312  1.00  0.00    -0.390 OA
HETATM   35  H18 UNL     1       8.885  58.017  -4.992  1.00  0.00     0.210 HD
ENDBRANCH  31  34
ENDBRANCH  29  31
ENDBRANCH   4  29
TORSDOF 3
ENDMDL
MODEL 4
REMARK minimizedAffinity -8.75785446
REMARK CNNscore 0.667819202
REMARK CNNaffinity 7.02733564
REMARK  3 active torsions:
REMARK  status: ('A' for Active; 'I' for Inactive)
REMARK    1  A    between atoms: C4_4  and  C5_5 
REMARK    2  A    between atoms: C5_5  and  C7_7 
REMARK    3  A    between atoms: C7_7  and  O1_10 
ROOT
HETATM    1  C1  UNL     1       2.624  51.044 -11.792  1.00  0.00     0.010 C 
HETATM    2  C2  UNL     1       1.631  52.074 -11.261  1.00  0.00    -0.009 C 
HETATM    3  C3  UNL     1       0.484  52.297 -12.254  1.00  0.00     0.037 C 
HETATM    4  C4  UNL     1      -0.627  53.154 -11.625  1.00  0.00     0.129 C 
HETATM    5  O2  UNL     1      -0.057  54.099 -10.695  1.00  0.00    -0.380 OA
HETATM    6  C10 UNL     1       1.234  54.587 -11.024  1.00  0.00     0.128 C 
HETATM    7  C11 UNL     1       1.673  55.594  -9.942  1.00  0.00     0.042 C 
HETATM    8  C12 UNL     1       3.154  55.263  -9.670  1.00  0.00    -0.030 C 
HETATM    9  C13 UNL     1       3.985  55.943 -10.804  1.00  0.00     0.016 C 
HETATM   10  C14 UNL     1       3.666  55.709  -8.277  1.00  0.00     0.004 C 
HETATM   11  C15 UNL     1       3.792  57.230  -8.123  1.00  0.00     0.007 C 
HETATM   12  C16 UNL     1       4.227  57.589  -6.708  1.00  0.00     0.007 C 
HETATM   13  C17 UNL     1       5.671  57.143  -6.476  1.00  0.00     0.010 C 
HETATM   14  C18 UNL     1       6.210  57.424  -5.036  1.00  0.00     0.018 C 
HETATM   15  C19 UNL     1       5.235  57.032  -3.917  1.00  0.00     0.023 C 
HETATM   16  C20 UNL     1       6.569  58.916  -4.896  1.00  0.00     0.023 C 
HETATM   17  C21 UNL     1       7.513  56.637  -4.824  1.00  0.00     0.135 C 
HETATM   18  O3  UNL     1       7.952  56.418  -3.686  1.00  0.00    -0.297 OA
HETATM   19  C22 UNL     1       8.287  56.228  -6.049  1.00  0.00     0.080 C 
HETATM   20  C23 UNL     1       7.436  55.408  -7.013  1.00  0.00     0.018 C 
HETATM   21  C24 UNL     1       5.944  55.695  -6.898  1.00  0.00    -0.026 A 
HETATM   22  C25 UNL     1       5.058  54.585  -6.393  1.00  0.00     0.021 A 
HETATM   23  C26 UNL     1       4.961  54.970  -7.861  1.00  0.00    -0.027 A 
HETATM   24  C27 UNL     1       5.551  53.966  -8.863  1.00  0.00     0.011 C 
HETATM   25  C28 UNL     1       4.572  53.190  -9.765  1.00  0.00     0.011 C 
HETATM   26  C29 UNL     1       3.125  53.696  -9.730  1.00  0.00    -0.030 C 
HETATM   27  C30 UNL     1       2.418  53.018  -8.517  1.00  0.00     0.016 C 
HETATM   28  C31 UNL     1       2.292  53.449 -11.024  1.00  0.00     0.027 C 
ENDROOT
BRANCH   4  29
HETATM   29  C5  UNL     1      -1.748  52.403 -10.824  1.00  0.00     0.044 C 
HETATM   30  C6  UNL     1      -1.493  52.676  -9.319  1.00  0.00     0.015 C 
BRANCH  29  31
HETATM   31  C7  UNL     1      -3.239  52.706 -11.223  1.00  0.00     0.056 C 
HETATM   32  C8  UNL     1      -4.188  51.545 -10.867  1.00  0.00     0.045 C 
HETATM   33  C9  UNL     1      -3.814  53.957 -10.521  1.00  0.00     0.045 C 
BRANCH  31  34
HETATM   34  O1  UNL     1      -3.326  52.990 -12.620  1.00  0.00    -0.390 OA
HETATM   35  H18 UNL     1      -3.396  52.155 -13.116  1.00  0.00     0.210 HD
ENDBRANCH  31  34
ENDBRANCH  29  31
ENDBRANCH   4  29
TORSDOF 3
ENDMDL
MODEL 5
REMARK minimizedAffinity -8.00502014
REMARK CNNscore 0.412211239
REMARK CNNaffinity 5.72024536
REMARK  3 active torsions:
REMARK  status: ('A' for Active; 'I' for Inactive)
REMARK    1  A    between atoms: C4_4  and  C5_5 
REMARK    2  A    between atoms: C5_5  and  C7_7 
REMARK    3  A    between atoms: C7_7  and  O1_10 
ROOT
HETATM    1  C1  UNL     1     -11.360  43.061 -29.945  1.00  0.00     0.010 C 
HETATM    2  C2  UNL     1     -11.133  44.422 -29.292  1.00  0.00    -0.009 C 
HETATM    3  C3  UNL     1      -9.643  44.786 -29.282  1.00  0.00     0.037 C 
HETATM    4  C4  UNL     1      -9.440  46.244 -28.837  1.00  0.00     0.129 C 
HETATM    5  O2  UNL     1     -10.455  46.619 -27.884  1.00  0.00    -0.380 OA
HETATM    6  C10 UNL     1     -10.910  45.583 -27.027  1.00  0.00     0.128 C 
HETATM    7  C11 UNL     1     -11.967  46.163 -26.067  1.00  0.00     0.042 C 
HETATM    8  C12 UNL     1     -13.078  45.095 -26.008  1.00  0.00    -0.030 C 
HETATM    9  C13 UNL     1     -12.598  44.000 -25.003  1.00  0.00     0.016 C 
HETATM   10  C14 UNL     1     -14.471  45.638 -25.599  1.00  0.00     0.004 C 
HETATM   11  C15 UNL     1     -14.558  46.068 -24.128  1.00  0.00     0.007 C 
HETATM   12  C16 UNL     1     -15.929  46.658 -23.826  1.00  0.00     0.007 C 
HETATM   13  C17 UNL     1     -16.994  45.561 -23.883  1.00  0.00     0.010 C 
HETATM   14  C18 UNL     1     -18.452  46.064 -23.629  1.00  0.00     0.018 C 
HETATM   15  C19 UNL     1     -18.814  47.343 -24.396  1.00  0.00     0.023 C 
HETATM   16  C20 UNL     1     -18.667  46.299 -22.121  1.00  0.00     0.023 C 
HETATM   17  C21 UNL     1     -19.443  44.967 -24.048  1.00  0.00     0.135 C 
HETATM   18  O3  UNL     1     -20.635  45.228 -24.265  1.00  0.00    -0.297 OA
HETATM   19  C22 UNL     1     -18.936  43.549 -24.089  1.00  0.00     0.080 C 
HETATM   20  C23 UNL     1     -17.719  43.406 -24.997  1.00  0.00     0.018 C 
HETATM   21  C24 UNL     1     -16.918  44.694 -25.143  1.00  0.00    -0.026 A 
HETATM   22  C25 UNL     1     -16.888  45.344 -26.503  1.00  0.00     0.021 A 
HETATM   23  C26 UNL     1     -15.618  44.678 -25.997  1.00  0.00    -0.027 A 
HETATM   24  C27 UNL     1     -15.226  43.360 -26.681  1.00  0.00     0.011 C 
HETATM   25  C28 UNL     1     -13.981  43.362 -27.589  1.00  0.00     0.011 C 
HETATM   26  C29 UNL     1     -13.126  44.632 -27.507  1.00  0.00    -0.030 C 
HETATM   27  C30 UNL     1     -13.742  45.680 -28.483  1.00  0.00     0.016 C 
HETATM   28  C31 UNL     1     -11.612  44.449 -27.825  1.00  0.00     0.027 C 
ENDROOT
BRANCH   4  29
HETATM   29  C5  UNL     1      -9.485  47.348 -29.952  1.00  0.00     0.044 C 
HETATM   30  C6  UNL     1     -10.953  47.837 -30.050  1.00  0.00     0.015 C 
BRANCH  29  31
HETATM   31  C7  UNL     1      -8.483  48.552 -29.810  1.00  0.00     0.056 C 
HETATM   32  C8  UNL     1      -7.012  48.108 -29.926  1.00  0.00     0.045 C 
HETATM   33  C9  UNL     1      -8.685  49.642 -30.886  1.00  0.00     0.045 C 
BRANCH  31  34
HETATM   34  O1  UNL     1      -8.689  49.218 -28.562  1.00  0.00    -0.390 OA
HETATM   35  H18 UNL     1      -8.189  48.761 -27.864  1.00  0.00     0.210 HD
ENDBRANCH  31  34
ENDBRANCH  29  31
ENDBRANCH   4  29
TORSDOF 3
ENDMDL
MODEL 6
REMARK minimizedAffinity -7.35287428
REMARK CNNscore 0.339668989
REMARK CNNaffinity 6.15131521
REMARK  3 active torsions:
REMARK  status: ('A' for Active; 'I' for Inactive)
REMARK    1  A    between atoms: C4_4  and  C5_5 
REMARK    2  A    between atoms: C5_5  and  C7_7 
REMARK    3  A    between atoms: C7_7  and  O1_10 
ROOT
HETATM    1  C1  UNL     1      11.428  64.305 -16.446  1.00  0.00     0.010 C 
HETATM    2  C2  UNL     1      11.358  64.790 -15.000  1.00  0.00    -0.009 C 
HETATM    3  C3  UNL     1      12.311  63.989 -14.104  1.00  0.00     0.037 C 
HETATM    4  C4  UNL     1      12.410  64.622 -12.706  1.00  0.00     0.129 C 
HETATM    5  O2  UNL     1      11.154  65.233 -12.348  1.00  0.00    -0.380 OA
HETATM    6  C10 UNL     1       9.991  64.593 -12.850  1.00  0.00     0.128 C 
HETATM    7  C11 UNL     1       8.750  65.362 -12.354  1.00  0.00     0.042 C 
HETATM    8  C12 UNL     1       7.811  65.430 -13.575  1.00  0.00    -0.030 C 
HETATM    9  C13 UNL     1       7.072  64.057 -13.653  1.00  0.00     0.016 C 
HETATM   10  C14 UNL     1       6.791  66.597 -13.537  1.00  0.00     0.004 C 
HETATM   11  C15 UNL     1       5.694  66.424 -12.478  1.00  0.00     0.007 C 
HETATM   12  C16 UNL     1       4.781  67.642 -12.453  1.00  0.00     0.007 C 
HETATM   13  C17 UNL     1       3.952  67.700 -13.738  1.00  0.00     0.010 C 
HETATM   14  C18 UNL     1       3.005  68.940 -13.838  1.00  0.00     0.018 C 
HETATM   15  C19 UNL     1       3.670  70.267 -13.449  1.00  0.00     0.023 C 
HETATM   16  C20 UNL     1       1.761  68.719 -12.956  1.00  0.00     0.023 C 
HETATM   17  C21 UNL     1       2.501  69.071 -15.284  1.00  0.00     0.135 C 
HETATM   18  O3  UNL     1       2.023  70.135 -15.703  1.00  0.00    -0.297 OA
HETATM   19  C22 UNL     1       2.517  67.834 -16.143  1.00  0.00     0.080 C 
HETATM   20  C23 UNL     1       3.909  67.215 -16.222  1.00  0.00     0.018 C 
HETATM   21  C24 UNL     1       4.783  67.530 -15.014  1.00  0.00    -0.026 A 
HETATM   22  C25 UNL     1       5.999  68.391 -15.240  1.00  0.00     0.021 A 
HETATM   23  C26 UNL     1       6.209  66.916 -14.935  1.00  0.00    -0.027 A 
HETATM   24  C27 UNL     1       6.679  66.044 -16.109  1.00  0.00     0.011 C 
HETATM   25  C28 UNL     1       8.119  65.498 -16.069  1.00  0.00     0.011 C 
HETATM   26  C29 UNL     1       8.842  65.685 -14.730  1.00  0.00    -0.030 C 
HETATM   27  C30 UNL     1       9.469  67.113 -14.728  1.00  0.00     0.016 C 
HETATM   28  C31 UNL     1       9.943  64.632 -14.403  1.00  0.00     0.027 C 
ENDROOT
BRANCH   4  29
HETATM   29  C5  UNL     1      13.493  65.739 -12.499  1.00  0.00     0.044 C 
HETATM   30  C6  UNL     1      12.920  66.742 -11.466  1.00  0.00     0.015 C 
BRANCH  29  31
HETATM   31  C7  UNL     1      14.942  65.269 -12.107  1.00  0.00     0.056 C 
HETATM   32  C8  UNL     1      15.815  64.969 -13.341  1.00  0.00     0.045 C 
HETATM   33  C9  UNL     1      15.719  66.318 -11.280  1.00  0.00     0.045 C 
BRANCH  31  34
HETATM   34  O1  UNL     1      14.874  64.112 -11.271  1.00  0.00    -0.390 OA
HETATM   35  H18 UNL     1      14.800  63.316 -11.826  1.00  0.00     0.210 HD
ENDBRANCH  31  34
ENDBRANCH  29  31
ENDBRANCH   4  29
TORSDOF 3
ENDMDL
MODEL 7
REMARK minimizedAffinity -7.67563629
REMARK CNNscore 0.326362669
REMARK CNNaffinity 5.82265663
REMARK  3 active torsions:
REMARK  status: ('A' for Active; 'I' for Inactive)
REMARK    1  A    between atoms: C4_4  and  C5_5 
REMARK    2  A    between atoms: C5_5  and  C7_7 
REMARK    3  A    between atoms: C7_7  and  O1_10 
ROOT
HETATM    1  C1  UNL     1      -9.176  45.063 -31.620  1.00  0.00     0.010 C 
HETATM    2  C2  UNL     1      -8.702  45.625 -30.282  1.00  0.00    -0.009 C 
HETATM    3  C3  UNL     1      -7.193  45.418 -30.101  1.00  0.00     0.037 C 
HETATM    4  C4  UNL     1      -6.680  46.181 -28.869  1.00  0.00     0.129 C 
HETATM    5  O2  UNL     1      -7.701  46.224 -27.851  1.00  0.00    -0.380 OA
HETATM    6  C10 UNL     1      -8.557  45.094 -27.786  1.00  0.00     0.128 C 
HETATM    7  C11 UNL     1      -9.563  45.301 -26.637  1.00  0.00     0.042 C 
HETATM    8  C12 UNL     1     -10.916  44.822 -27.203  1.00  0.00    -0.030 C 
HETATM    9  C13 UNL     1     -10.927  43.264 -27.088  1.00  0.00     0.016 C 
HETATM   10  C14 UNL     1     -12.157  45.430 -26.502  1.00  0.00     0.004 C 
HETATM   11  C15 UNL     1     -12.371  44.917 -25.072  1.00  0.00     0.007 C 
HETATM   12  C16 UNL     1     -13.561  45.615 -24.428  1.00  0.00     0.007 C 
HETATM   13  C17 UNL     1     -14.858  45.169 -25.104  1.00  0.00     0.010 C 
HETATM   14  C18 UNL     1     -16.146  45.858 -24.548  1.00  0.00     0.018 C 
HETATM   15  C19 UNL     1     -16.013  47.377 -24.367  1.00  0.00     0.023 C 
HETATM   16  C20 UNL     1     -16.540  45.219 -23.202  1.00  0.00     0.023 C 
HETATM   17  C21 UNL     1     -17.312  45.599 -25.515  1.00  0.00     0.135 C 
HETATM   18  O3  UNL     1     -18.334  46.299 -25.489  1.00  0.00    -0.297 OA
HETATM   19  C22 UNL     1     -17.210  44.405 -26.427  1.00  0.00     0.080 C 
HETATM   20  C23 UNL     1     -15.942  44.443 -27.274  1.00  0.00     0.018 C 
HETATM   21  C24 UNL     1     -14.809  45.236 -26.634  1.00  0.00    -0.026 A 
HETATM   22  C25 UNL     1     -14.375  46.507 -27.318  1.00  0.00     0.021 A 
HETATM   23  C26 UNL     1     -13.437  45.311 -27.364  1.00  0.00    -0.027 A 
HETATM   24  C27 UNL     1     -13.308  44.604 -28.721  1.00  0.00     0.011 C 
HETATM   25  C28 UNL     1     -11.975  44.742 -29.481  1.00  0.00     0.011 C 
HETATM   26  C29 UNL     1     -10.834  45.369 -28.671  1.00  0.00    -0.030 C 
HETATM   27  C30 UNL     1     -10.969  46.918 -28.788  1.00  0.00     0.016 C 
HETATM   28  C31 UNL     1      -9.395  44.938 -29.086  1.00  0.00     0.027 C 
ENDROOT
BRANCH   4  29
HETATM   29  C5  UNL     1      -6.236  47.671 -29.080  1.00  0.00     0.044 C 
HETATM   30  C6  UNL     1      -5.179  47.990 -27.992  1.00  0.00     0.015 C 
BRANCH  29  31
HETATM   31  C7  UNL     1      -5.729  48.072 -30.514  1.00  0.00     0.056 C 
HETATM   32  C8  UNL     1      -4.943  46.936 -31.197  1.00  0.00     0.045 C 
HETATM   33  C9  UNL     1      -6.875  48.439 -31.483  1.00  0.00     0.045 C 
BRANCH  31  34
HETATM   34  O1  UNL     1      -4.916  49.245 -30.438  1.00  0.00    -0.390 OA
HETATM   35  H18 UNL     1      -4.002  48.991 -30.221  1.00  0.00     0.210 HD
ENDBRANCH  31  34
ENDBRANCH  29  31
ENDBRANCH   4  29
TORSDOF 3
ENDMDL
MODEL 8
REMARK minimizedAffinity -9.81649971
REMARK CNNscore 0.312470019
REMARK CNNaffinity 6.8636322
REMARK  3 active torsions:
REMARK  status: ('A' for Active; 'I' for Inactive)
REMARK    1  A    between atoms: C4_4  and  C5_5 
REMARK    2  A    between atoms: C5_5  and  C7_7 
REMARK    3  A    between atoms: C7_7  and  O1_10 
ROOT
HETATM    1  C1  UNL     1       0.370  51.665 -21.105  1.00  0.00     0.010 C 
HETATM    2  C2  UNL     1      -0.435  51.512 -22.392  1.00  0.00    -0.009 C 
HETATM    3  C3  UNL     1      -0.018  52.562 -23.430  1.00  0.00     0.037 C 
HETATM    4  C4  UNL     1      -0.661  52.267 -24.796  1.00  0.00     0.129 C 
HETATM    5  O2  UNL     1      -1.956  51.659 -24.614  1.00  0.00    -0.380 OA
HETATM    6  C10 UNL     1      -2.681  52.082 -23.470  1.00  0.00     0.128 C 
HETATM    7  C11 UNL     1      -4.039  51.353 -23.447  1.00  0.00     0.042 C 
HETATM    8  C12 UNL     1      -4.246  50.944 -21.974  1.00  0.00    -0.030 C 
HETATM    9  C13 UNL     1      -4.780  52.206 -21.226  1.00  0.00     0.016 C 
HETATM   10  C14 UNL     1      -5.204  49.743 -21.770  1.00  0.00     0.004 C 
HETATM   11  C15 UNL     1      -6.673  50.065 -22.073  1.00  0.00     0.007 C 
HETATM   12  C16 UNL     1      -7.535  48.819 -21.922  1.00  0.00     0.007 C 
HETATM   13  C17 UNL     1      -7.613  48.413 -20.449  1.00  0.00     0.010 C 
HETATM   14  C18 UNL     1      -8.443  47.116 -20.181  1.00  0.00     0.018 C 
HETATM   15  C19 UNL     1      -8.125  45.962 -21.143  1.00  0.00     0.023 C 
HETATM   16  C20 UNL     1      -9.949  47.435 -20.251  1.00  0.00     0.023 C 
HETATM   17  C21 UNL     1      -8.164  46.628 -18.751  1.00  0.00     0.135 C 
HETATM   18  O3  UNL     1      -8.420  45.464 -18.409  1.00  0.00    -0.297 OA
HETATM   19  C22 UNL     1      -7.661  47.639 -17.755  1.00  0.00     0.080 C 
HETATM   20  C23 UNL     1      -6.388  48.327 -18.235  1.00  0.00     0.018 C 
HETATM   21  C24 UNL     1      -6.250  48.355 -19.753  1.00  0.00    -0.026 A 
HETATM   22  C25 UNL     1      -5.126  47.559 -20.365  1.00  0.00     0.021 A 
HETATM   23  C26 UNL     1      -5.025  49.076 -20.384  1.00  0.00    -0.027 A 
HETATM   24  C27 UNL     1      -3.991  49.697 -19.433  1.00  0.00     0.011 C 
HETATM   25  C28 UNL     1      -2.738  50.344 -20.055  1.00  0.00     0.011 C 
HETATM   26  C29 UNL     1      -2.790  50.515 -21.578  1.00  0.00    -0.030 C 
HETATM   27  C30 UNL     1      -2.318  49.174 -22.219  1.00  0.00     0.016 C 
HETATM   28  C31 UNL     1      -1.949  51.694 -22.154  1.00  0.00     0.027 C 
ENDROOT
BRANCH   4  29
HETATM   29  C5  UNL     1       0.118  51.308 -25.764  1.00  0.00     0.044 C 
HETATM   30  C6  UNL     1      -0.937  50.424 -26.475  1.00  0.00     0.015 C 
BRANCH  29  31
HETATM   31  C7  UNL     1       1.104  51.975 -26.793  1.00  0.00     0.056 C 
HETATM   32  C8  UNL     1       2.559  51.505 -26.601  1.00  0.00     0.045 C 
HETATM   33  C9  UNL     1       0.747  51.666 -28.264  1.00  0.00     0.045 C 
BRANCH  31  34
HETATM   34  O1  UNL     1       1.038  53.398 -26.685  1.00  0.00    -0.390 OA
HETATM   35  H18 UNL     1       1.631  53.697 -25.973  1.00  0.00     0.210 HD
ENDBRANCH  31  34
ENDBRANCH  29  31
ENDBRANCH   4  29
TORSDOF 3
ENDMDL
MODEL 9
REMARK minimizedAffinity -6.78689337
REMARK CNNscore 0.308107942
REMARK CNNaffinity 5.49580956
REMARK  3 active torsions:
REMARK  status: ('A' for Active; 'I' for Inactive)
REMARK    1  A    between atoms: C4_4  and  C5_5 
REMARK    2  A    between atoms: C5_5  and  C7_7 
REMARK    3  A    between atoms: C7_7  and  O1_10 
ROOT
HETATM    1  C1  UNL     1     -14.638  44.204 -28.575  1.00  0.00     0.010 C 
HETATM    2  C2  UNL     1     -13.406  45.043 -28.246  1.00  0.00    -0.009 C 
HETATM    3  C3  UNL     1     -12.243  44.706 -29.188  1.00  0.00     0.037 C 
HETATM    4  C4  UNL     1     -11.087  45.703 -29.008  1.00  0.00     0.129 C 
HETATM    5  O2  UNL     1     -11.023  46.146 -27.636  1.00  0.00    -0.380 OA
HETATM    6  C10 UNL     1     -11.408  45.191 -26.660  1.00  0.00     0.128 C 
HETATM    7  C11 UNL     1     -11.257  45.824 -25.263  1.00  0.00     0.042 C 
HETATM    8  C12 UNL     1     -12.516  45.382 -24.489  1.00  0.00    -0.030 C 
HETATM    9  C13 UNL     1     -12.250  43.928 -23.987  1.00  0.00     0.016 C 
HETATM   10  C14 UNL     1     -12.900  46.306 -23.306  1.00  0.00     0.004 C 
HETATM   11  C15 UNL     1     -11.928  46.230 -22.121  1.00  0.00     0.007 C 
HETATM   12  C16 UNL     1     -12.330  47.218 -21.035  1.00  0.00     0.007 C 
HETATM   13  C17 UNL     1     -13.638  46.771 -20.380  1.00  0.00     0.010 C 
HETATM   14  C18 UNL     1     -14.170  47.739 -19.275  1.00  0.00     0.018 C 
HETATM   15  C19 UNL     1     -14.132  49.221 -19.672  1.00  0.00     0.023 C 
HETATM   16  C20 UNL     1     -13.364  47.542 -17.976  1.00  0.00     0.023 C 
HETATM   17  C21 UNL     1     -15.627  47.376 -18.946  1.00  0.00     0.135 C 
HETATM   18  O3  UNL     1     -16.373  48.179 -18.368  1.00  0.00    -0.297 OA
HETATM   19  C22 UNL     1     -16.085  45.977 -19.264  1.00  0.00     0.080 C 
HETATM   20  C23 UNL     1     -15.869  45.627 -20.732  1.00  0.00     0.018 C 
HETATM   21  C24 UNL     1     -14.739  46.415 -21.384  1.00  0.00    -0.026 A 
HETATM   22  C25 UNL     1     -15.109  47.391 -22.472  1.00  0.00     0.021 A 
HETATM   23  C26 UNL     1     -14.373  46.120 -22.866  1.00  0.00    -0.027 A 
HETATM   24  C27 UNL     1     -15.200  45.062 -23.611  1.00  0.00     0.011 C 
HETATM   25  C28 UNL     1     -14.889  44.823 -25.101  1.00  0.00     0.011 C 
HETATM   26  C29 UNL     1     -13.609  45.498 -25.609  1.00  0.00    -0.030 C 
HETATM   27  C30 UNL     1     -13.973  46.963 -26.002  1.00  0.00     0.016 C 
HETATM   28  C31 UNL     1     -12.904  44.795 -26.807  1.00  0.00     0.027 C 
ENDROOT
BRANCH   4  29
HETATM   29  C5  UNL     1     -11.127  47.014 -29.870  1.00  0.00     0.044 C 
HETATM   30  C6  UNL     1     -11.948  48.059 -29.071  1.00  0.00     0.015 C 
BRANCH  29  31
HETATM   31  C7  UNL     1      -9.748  47.602 -30.345  1.00  0.00     0.056 C 
HETATM   32  C8  UNL     1      -8.551  46.924 -29.651  1.00  0.00     0.045 C 
HETATM   33  C9  UNL     1      -9.509  47.439 -31.863  1.00  0.00     0.045 C 
BRANCH  31  34
HETATM   34  O1  UNL     1      -9.708  49.011 -30.111  1.00  0.00    -0.390 OA
HETATM   35  H18 UNL     1      -9.427  49.178 -29.194  1.00  0.00     0.210 HD
ENDBRANCH  31  34
ENDBRANCH  29  31
ENDBRANCH   4  29
TORSDOF 3
ENDMDL
