MODEL 1
REMARK minimizedAffinity -9.76955414
REMARK  6 active torsions:
REMARK  status: ('A' for Active; 'I' for Inactive)
REMARK    1  A    between atoms: C2_2  and  O2_4 
REMARK    2  A    between atoms: O2_4  and  C3_5 
REMARK    3  A    between atoms: C13_15  and  C14_16 
REMARK    4  A    between atoms: C14_16  and  C16_18 
REMARK    5  A    between atoms: C16_18  and  C17_19 
REMARK    6  A    between atoms: C17_19  and  C18_20 
ROOT
HETATM    1  C3  UNL     1      -1.235  51.802 -26.659  1.00  0.00     0.136 C 
HETATM    2  C4  UNL     1       0.058  51.685 -25.839  1.00  0.00     0.034 C 
HETATM    3  C5  UNL     1      -0.139  51.939 -24.345  1.00  0.00     0.013 C 
HETATM    4  C6  UNL     1      -1.324  51.171 -23.748  1.00  0.00    -0.027 A 
HETATM    5  C7  UNL     1      -2.101  51.973 -22.727  1.00  0.00     0.021 A 
HETATM    6  C8  UNL     1      -1.367  50.735 -22.257  1.00  0.00    -0.027 A 
HETATM    7  C9  UNL     1      -0.094  50.943 -21.434  1.00  0.00     0.011 C 
HETATM    8  C10 UNL     1      -0.148  50.620 -19.928  1.00  0.00     0.011 C 
HETATM    9  C11 UNL     1      -1.404  49.866 -19.470  1.00  0.00    -0.032 C 
HETATM   10  C12 UNL     1      -2.516  50.926 -19.190  1.00  0.00     0.016 C 
HETATM   11  C13 UNL     1      -1.246  48.948 -18.209  1.00  0.00    -0.002 C 
HETATM   12  C22 UNL     1      -2.406  47.923 -18.393  1.00  0.00     0.006 C 
HETATM   13  C23 UNL     1      -2.859  47.986 -19.859  1.00  0.00     0.011 C 
HETATM   14  C24 UNL     1      -1.785  48.821 -20.580  1.00  0.00    -0.032 C 
HETATM   15  C25 UNL     1      -0.639  47.833 -20.965  1.00  0.00     0.016 C 
HETATM   16  C26 UNL     1      -2.303  49.572 -21.836  1.00  0.00     0.004 C 
HETATM   17  C27 UNL     1      -2.663  48.658 -23.015  1.00  0.00     0.006 C 
HETATM   18  C28 UNL     1      -3.200  49.479 -24.186  1.00  0.00     0.006 C 
HETATM   19  C29 UNL     1      -2.070  50.322 -24.787  1.00  0.00     0.001 C 
HETATM   20  C30 UNL     1      -2.496  51.268 -25.930  1.00  0.00     0.016 C 
HETATM   21  C31 UNL     1      -3.450  50.634 -26.944  1.00  0.00     0.013 C 
ENDROOT
BRANCH  11  22
HETATM   22  C14 UNL     1      -1.245  49.586 -16.786  1.00  0.00    -0.014 C 
HETATM   23  C15 UNL     1      -2.165  50.812 -16.717  1.00  0.00     0.010 C 
BRANCH  22  24
HETATM   24  C16 UNL     1       0.187  50.002 -16.345  1.00  0.00     0.008 C 
BRANCH  24  25
HETATM   25  C17 UNL     1       0.386  51.524 -16.251  1.00  0.00     0.028 C 
BRANCH  25  26
HETATM   26  C18 UNL     1       1.798  51.971 -16.503  1.00  0.00    -0.025 C 
HETATM   27  C19 UNL     1       2.839  51.967 -15.646  1.00  0.00    -0.091 C 
HETATM   28  C20 UNL     1       2.784  51.532 -14.209  1.00  0.00     0.042 C 
HETATM   29  C21 UNL     1       4.201  52.436 -16.095  1.00  0.00     0.042 C 
ENDBRANCH  25  26
ENDBRANCH  24  25
ENDBRANCH  22  24
ENDBRANCH  11  22
BRANCH   1  30
HETATM   30  O2  UNL     1      -1.480  53.190 -26.986  1.00  0.00    -0.316 OA
BRANCH  30  31
HETATM   31  C2  UNL     1      -0.450  53.862 -27.572  1.00  0.00     0.255 C 
HETATM   32  C1  UNL     1       0.139  53.034 -28.670  1.00  0.00     0.126 C 
HETATM   33  O1  UNL     1      -0.060  54.981 -27.268  1.00  0.00    -0.266 OA
ENDBRANCH  30  31
ENDBRANCH   1  30
TORSDOF 6
ENDMDL
MODEL 2
REMARK minimizedAffinity -9.72558308
REMARK  6 active torsions:
REMARK  status: ('A' for Active; 'I' for Inactive)
REMARK    1  A    between atoms: C2_2  and  O2_4 
REMARK    2  A    between atoms: O2_4  and  C3_5 
REMARK    3  A    between atoms: C13_15  and  C14_16 
REMARK    4  A    between atoms: C14_16  and  C16_18 
REMARK    5  A    between atoms: C16_18  and  C17_19 
REMARK    6  A    between atoms: C17_19  and  C18_20 
ROOT
HETATM    1  C3  UNL     1       0.547  52.120 -17.163  1.00  0.00     0.136 C 
HETATM    2  C4  UNL     1       0.665  53.007 -18.411  1.00  0.00     0.034 C 
HETATM    3  C5  UNL     1       0.492  52.244 -19.724  1.00  0.00     0.013 C 
HETATM    4  C6  UNL     1      -0.731  51.319 -19.733  1.00  0.00    -0.027 A 
HETATM    5  C7  UNL     1      -0.478  50.003 -20.435  1.00  0.00     0.021 A 
HETATM    6  C8  UNL     1      -1.488  50.954 -21.041  1.00  0.00    -0.027 A 
HETATM    7  C9  UNL     1      -1.078  51.698 -22.313  1.00  0.00     0.011 C 
HETATM    8  C10 UNL     1      -1.739  51.275 -23.639  1.00  0.00     0.011 C 
HETATM    9  C11 UNL     1      -2.939  50.330 -23.495  1.00  0.00    -0.032 C 
HETATM   10  C12 UNL     1      -2.387  48.872 -23.411  1.00  0.00     0.016 C 
HETATM   11  C13 UNL     1      -4.023  50.400 -24.627  1.00  0.00    -0.002 C 
HETATM   12  C22 UNL     1      -5.294  49.855 -23.908  1.00  0.00     0.006 C 
HETATM   13  C23 UNL     1      -5.045  49.926 -22.395  1.00  0.00     0.011 C 
HETATM   14  C24 UNL     1      -3.767  50.771 -22.234  1.00  0.00    -0.032 C 
HETATM   15  C25 UNL     1      -4.219  52.265 -22.242  1.00  0.00     0.016 C 
HETATM   16  C26 UNL     1      -2.954  50.454 -20.950  1.00  0.00     0.004 C 
HETATM   17  C27 UNL     1      -3.637  50.886 -19.646  1.00  0.00     0.006 C 
HETATM   18  C28 UNL     1      -2.786  50.497 -18.439  1.00  0.00     0.006 C 
HETATM   19  C29 UNL     1      -1.512  51.347 -18.412  1.00  0.00     0.001 C 
HETATM   20  C30 UNL     1      -0.516  50.997 -17.285  1.00  0.00     0.016 C 
HETATM   21  C31 UNL     1      -1.170  50.755 -15.924  1.00  0.00     0.013 C 
ENDROOT
BRANCH  11  22
HETATM   22  C14 UNL     1      -3.764  49.683 -25.987  1.00  0.00    -0.014 C 
HETATM   23  C15 UNL     1      -4.540  48.363 -26.086  1.00  0.00     0.010 C 
BRANCH  22  24
HETATM   24  C16 UNL     1      -2.251  49.399 -26.206  1.00  0.00     0.008 C 
BRANCH  24  25
HETATM   25  C17 UNL     1      -1.522  50.504 -26.988  1.00  0.00     0.028 C 
BRANCH  25  26
HETATM   26  C18 UNL     1      -0.063  50.629 -26.652  1.00  0.00    -0.025 C 
HETATM   27  C19 UNL     1       0.832  51.513 -27.137  1.00  0.00    -0.091 C 
HETATM   28  C20 UNL     1       0.545  52.564 -28.173  1.00  0.00     0.042 C 
HETATM   29  C21 UNL     1       2.261  51.499 -26.654  1.00  0.00     0.042 C 
ENDBRANCH  25  26
ENDBRANCH  24  25
ENDBRANCH  22  24
ENDBRANCH  11  22
BRANCH   1  30
HETATM   30  O2  UNL     1       1.819  51.485 -16.895  1.00  0.00    -0.316 OA
BRANCH  30  31
HETATM   31  C2  UNL     1       2.478  51.904 -15.779  1.00  0.00     0.255 C 
HETATM   32  C1  UNL     1       3.733  52.622 -16.167  1.00  0.00     0.126 C 
HETATM   33  O1  UNL     1       2.108  51.740 -14.624  1.00  0.00    -0.266 OA
ENDBRANCH  30  31
ENDBRANCH   1  30
TORSDOF 6
ENDMDL
MODEL 3
REMARK minimizedAffinity -9.0653019
REMARK  6 active torsions:
REMARK  status: ('A' for Active; 'I' for Inactive)
REMARK    1  A    between atoms: C2_2  and  O2_4 
REMARK    2  A    between atoms: O2_4  and  C3_5 
REMARK    3  A    between atoms: C13_15  and  C14_16 
REMARK    4  A    between atoms: C14_16  and  C16_18 
REMARK    5  A    between atoms: C16_18  and  C17_19 
REMARK    6  A    between atoms: C17_19  and  C18_20 
ROOT
HETATM    1  C3  UNL     1      -1.228  51.054 -26.941  1.00  0.00     0.136 C 
HETATM    2  C4  UNL     1       0.022  51.144 -26.053  1.00  0.00     0.034 C 
HETATM    3  C5  UNL     1      -0.266  51.648 -24.639  1.00  0.00     0.013 C 
HETATM    4  C6  UNL     1      -1.451  50.941 -23.972  1.00  0.00    -0.027 A 
HETATM    5  C7  UNL     1      -2.313  51.872 -23.147  1.00  0.00     0.021 A 
HETATM    6  C8  UNL     1      -1.558  50.773 -22.430  1.00  0.00    -0.027 A 
HETATM    7  C9  UNL     1      -0.341  51.183 -21.598  1.00  0.00     0.011 C 
HETATM    8  C10 UNL     1      -0.465  51.128 -20.064  1.00  0.00     0.011 C 
HETATM    9  C11 UNL     1      -1.714  50.407 -19.538  1.00  0.00    -0.032 C 
HETATM   10  C12 UNL     1      -2.881  51.445 -19.503  1.00  0.00     0.016 C 
HETATM   11  C13 UNL     1      -1.590  49.733 -18.127  1.00  0.00    -0.002 C 
HETATM   12  C22 UNL     1      -2.697  48.638 -18.181  1.00  0.00     0.006 C 
HETATM   13  C23 UNL     1      -3.072  48.421 -19.653  1.00  0.00     0.011 C 
HETATM   14  C24 UNL     1      -1.993  49.166 -20.461  1.00  0.00    -0.032 C 
HETATM   15  C25 UNL     1      -0.791  48.182 -20.609  1.00  0.00     0.016 C 
HETATM   16  C26 UNL     1      -2.471  49.659 -21.853  1.00  0.00     0.004 C 
HETATM   17  C27 UNL     1      -2.730  48.536 -22.866  1.00  0.00     0.006 C 
HETATM   18  C28 UNL     1      -3.233  49.111 -24.189  1.00  0.00     0.006 C 
HETATM   19  C29 UNL     1      -2.106  49.888 -24.876  1.00  0.00     0.001 C 
HETATM   20  C30 UNL     1      -2.505  50.596 -26.188  1.00  0.00     0.016 C 
HETATM   21  C31 UNL     1      -3.376  49.750 -27.117  1.00  0.00     0.013 C 
ENDROOT
BRANCH  11  22
HETATM   22  C14 UNL     1      -1.692  50.611 -16.842  1.00  0.00    -0.014 C 
HETATM   23  C15 UNL     1      -0.322  50.800 -16.178  1.00  0.00     0.010 C 
BRANCH  22  24
HETATM   24  C16 UNL     1      -2.677  49.999 -15.807  1.00  0.00     0.008 C 
BRANCH  24  25
HETATM   25  C17 UNL     1      -2.305  50.304 -14.346  1.00  0.00     0.028 C 
BRANCH  25  26
HETATM   26  C18 UNL     1      -3.158  51.363 -13.707  1.00  0.00    -0.025 C 
HETATM   27  C19 UNL     1      -2.943  52.022 -12.551  1.00  0.00    -0.091 C 
HETATM   28  C20 UNL     1      -1.783  51.796 -11.622  1.00  0.00     0.042 C 
HETATM   29  C21 UNL     1      -3.909  53.081 -12.083  1.00  0.00     0.042 C 
ENDBRANCH  25  26
ENDBRANCH  24  25
ENDBRANCH  22  24
ENDBRANCH  11  22
BRANCH   1  30
HETATM   30  O2  UNL     1      -1.508  52.349 -27.521  1.00  0.00    -0.316 OA
BRANCH  30  31
HETATM   31  C2  UNL     1      -0.440  53.176 -27.694  1.00  0.00     0.255 C 
HETATM   32  C1  UNL     1       0.522  52.569 -28.667  1.00  0.00     0.126 C 
HETATM   33  O1  UNL     1      -0.279  54.262 -27.154  1.00  0.00    -0.266 OA
ENDBRANCH  30  31
ENDBRANCH   1  30
TORSDOF 6
ENDMDL
MODEL 4
REMARK minimizedAffinity -8.97428799
REMARK  6 active torsions:
REMARK  status: ('A' for Active; 'I' for Inactive)
REMARK    1  A    between atoms: C2_2  and  O2_4 
REMARK    2  A    between atoms: O2_4  and  C3_5 
REMARK    3  A    between atoms: C13_15  and  C14_16 
REMARK    4  A    between atoms: C14_16  and  C16_18 
REMARK    5  A    between atoms: C16_18  and  C17_19 
REMARK    6  A    between atoms: C17_19  and  C18_20 
ROOT
HETATM    1  C3  UNL     1      -8.562  47.096 -24.605  1.00  0.00     0.136 C 
HETATM    2  C4  UNL     1      -7.311  46.982 -25.488  1.00  0.00     0.034 C 
HETATM    3  C5  UNL     1      -6.351  48.162 -25.346  1.00  0.00     0.013 C 
HETATM    4  C6  UNL     1      -6.050  48.529 -23.888  1.00  0.00    -0.027 A 
HETATM    5  C7  UNL     1      -5.958  50.021 -23.656  1.00  0.00     0.021 A 
HETATM    6  C8  UNL     1      -4.710  49.188 -23.456  1.00  0.00    -0.027 A 
HETATM    7  C9  UNL     1      -3.614  49.298 -24.518  1.00  0.00     0.011 C 
HETATM    8  C10 UNL     1      -2.319  50.045 -24.142  1.00  0.00     0.011 C 
HETATM    9  C11 UNL     1      -2.164  50.365 -22.649  1.00  0.00    -0.032 C 
HETATM   10  C12 UNL     1      -2.911  51.709 -22.373  1.00  0.00     0.016 C 
HETATM   11  C13 UNL     1      -0.695  50.478 -22.109  1.00  0.00    -0.002 C 
HETATM   12  C22 UNL     1      -0.874  50.179 -20.590  1.00  0.00     0.006 C 
HETATM   13  C23 UNL     1      -2.238  49.502 -20.402  1.00  0.00     0.011 C 
HETATM   14  C24 UNL     1      -2.715  49.147 -21.822  1.00  0.00    -0.032 C 
HETATM   15  C25 UNL     1      -2.068  47.773 -22.179  1.00  0.00     0.016 C 
HETATM   16  C26 UNL     1      -4.258  49.080 -21.976  1.00  0.00     0.004 C 
HETATM   17  C27 UNL     1      -4.914  47.897 -21.251  1.00  0.00     0.006 C 
HETATM   18  C28 UNL     1      -6.432  47.937 -21.423  1.00  0.00     0.006 C 
HETATM   19  C29 UNL     1      -6.793  47.640 -22.882  1.00  0.00     0.001 C 
HETATM   20  C30 UNL     1      -8.298  47.731 -23.215  1.00  0.00     0.016 C 
HETATM   21  C31 UNL     1      -9.211  47.087 -22.170  1.00  0.00     0.013 C 
ENDROOT
BRANCH  11  22
HETATM   22  C14 UNL     1       0.120  51.783 -22.360  1.00  0.00    -0.014 C 
HETATM   23  C15 UNL     1       0.110  52.701 -21.130  1.00  0.00     0.010 C 
BRANCH  22  24
HETATM   24  C16 UNL     1      -0.424  52.572 -23.585  1.00  0.00     0.008 C 
BRANCH  24  25
HETATM   25  C17 UNL     1       0.679  53.107 -24.514  1.00  0.00     0.028 C 
BRANCH  25  26
HETATM   26  C18 UNL     1       0.457  52.796 -25.967  1.00  0.00    -0.025 C 
HETATM   27  C19 UNL     1       1.193  52.002 -26.771  1.00  0.00    -0.091 C 
HETATM   28  C20 UNL     1       2.443  51.273 -26.369  1.00  0.00     0.042 C 
HETATM   29  C21 UNL     1       0.793  51.790 -28.210  1.00  0.00     0.042 C 
ENDBRANCH  25  26
ENDBRANCH  24  25
ENDBRANCH  22  24
ENDBRANCH  11  22
BRANCH   1  30
HETATM   30  O2  UNL     1      -9.556  47.911 -25.271  1.00  0.00    -0.316 OA
BRANCH  30  31
HETATM   31  C2  UNL     1     -10.748  47.309 -25.536  1.00  0.00     0.255 C 
HETATM   32  C1  UNL     1     -10.623  45.828 -25.357  1.00  0.00     0.126 C 
HETATM   33  O1  UNL     1     -11.782  47.877 -25.860  1.00  0.00    -0.266 OA
ENDBRANCH  30  31
ENDBRANCH   1  30
TORSDOF 6
ENDMDL
MODEL 5
REMARK minimizedAffinity -8.61220169
REMARK  6 active torsions:
REMARK  status: ('A' for Active; 'I' for Inactive)
REMARK    1  A    between atoms: C2_2  and  O2_4 
REMARK    2  A    between atoms: O2_4  and  C3_5 
REMARK    3  A    between atoms: C13_15  and  C14_16 
REMARK    4  A    between atoms: C14_16  and  C16_18 
REMARK    5  A    between atoms: C16_18  and  C17_19 
REMARK    6  A    between atoms: C17_19  and  C18_20 
ROOT
HETATM    1  C3  UNL     1      -8.550  47.741 -25.325  1.00  0.00     0.136 C 
HETATM    2  C4  UNL     1      -8.627  49.069 -24.558  1.00  0.00     0.034 C 
HETATM    3  C5  UNL     1      -7.494  49.262 -23.551  1.00  0.00     0.013 C 
HETATM    4  C6  UNL     1      -6.107  48.960 -24.131  1.00  0.00    -0.027 A 
HETATM    5  C7  UNL     1      -5.194  48.254 -23.154  1.00  0.00     0.021 A 
HETATM    6  C8  UNL     1      -4.817  49.649 -23.603  1.00  0.00    -0.027 A 
HETATM    7  C9  UNL     1      -4.997  50.785 -22.594  1.00  0.00     0.011 C 
HETATM    8  C10 UNL     1      -3.731  51.408 -21.976  1.00  0.00     0.011 C 
HETATM    9  C11 UNL     1      -2.412  50.998 -22.647  1.00  0.00    -0.032 C 
HETATM   10  C12 UNL     1      -1.952  49.651 -22.005  1.00  0.00     0.016 C 
HETATM   11  C13 UNL     1      -1.235  52.032 -22.561  1.00  0.00    -0.002 C 
HETATM   12  C22 UNL     1      -0.353  51.637 -23.784  1.00  0.00     0.006 C 
HETATM   13  C23 UNL     1      -1.210  50.778 -24.723  1.00  0.00     0.011 C 
HETATM   14  C24 UNL     1      -2.651  50.916 -24.198  1.00  0.00    -0.032 C 
HETATM   15  C25 UNL     1      -3.233  52.216 -24.836  1.00  0.00     0.016 C 
HETATM   16  C26 UNL     1      -3.561  49.699 -24.513  1.00  0.00     0.004 C 
HETATM   17  C27 UNL     1      -3.911  49.539 -25.998  1.00  0.00     0.006 C 
HETATM   18  C28 UNL     1      -4.772  48.296 -26.216  1.00  0.00     0.006 C 
HETATM   19  C29 UNL     1      -6.157  48.513 -25.598  1.00  0.00     0.001 C 
HETATM   20  C30 UNL     1      -7.105  47.296 -25.673  1.00  0.00     0.016 C 
HETATM   21  C31 UNL     1      -7.096  46.578 -27.023  1.00  0.00     0.013 C 
ENDROOT
BRANCH  11  22
HETATM   22  C14 UNL     1      -0.403  52.144 -21.247  1.00  0.00    -0.014 C 
HETATM   23  C15 UNL     1       0.865  52.984 -21.452  1.00  0.00     0.010 C 
BRANCH  22  24
HETATM   24  C16 UNL     1      -0.001  50.744 -20.701  1.00  0.00     0.008 C 
BRANCH  24  25
HETATM   25  C17 UNL     1      -0.393  50.519 -19.232  1.00  0.00     0.028 C 
BRANCH  25  26
HETATM   26  C18 UNL     1       0.256  51.477 -18.273  1.00  0.00    -0.025 C 
HETATM   27  C19 UNL     1       0.640  51.251 -17.001  1.00  0.00    -0.091 C 
HETATM   28  C20 UNL     1       0.459  49.960 -16.252  1.00  0.00     0.042 C 
HETATM   29  C21 UNL     1       1.305  52.341 -16.197  1.00  0.00     0.042 C 
ENDBRANCH  25  26
ENDBRANCH  24  25
ENDBRANCH  22  24
ENDBRANCH  11  22
BRANCH   1  30
HETATM   30  O2  UNL     1      -9.148  46.687 -24.536  1.00  0.00    -0.316 OA
BRANCH  30  31
HETATM   31  C2  UNL     1     -10.451  46.866 -24.181  1.00  0.00     0.255 C 
HETATM   32  C1  UNL     1     -10.640  46.510 -22.739  1.00  0.00     0.126 C 
HETATM   33  O1  UNL     1     -11.344  47.270 -24.912  1.00  0.00    -0.266 OA
ENDBRANCH  30  31
ENDBRANCH   1  30
TORSDOF 6
ENDMDL
MODEL 6
REMARK minimizedAffinity -8.60272026
REMARK  6 active torsions:
REMARK  status: ('A' for Active; 'I' for Inactive)
REMARK    1  A    between atoms: C2_2  and  O2_4 
REMARK    2  A    between atoms: O2_4  and  C3_5 
REMARK    3  A    between atoms: C13_15  and  C14_16 
REMARK    4  A    between atoms: C14_16  and  C16_18 
REMARK    5  A    between atoms: C16_18  and  C17_19 
REMARK    6  A    between atoms: C17_19  and  C18_20 
ROOT
HETATM    1  C3  UNL     1      -1.801  51.819 -25.322  1.00  0.00     0.136 C 
HETATM    2  C4  UNL     1      -2.883  52.218 -24.308  1.00  0.00     0.034 C 
HETATM    3  C5  UNL     1      -2.787  51.465 -22.982  1.00  0.00     0.013 C 
HETATM    4  C6  UNL     1      -1.369  51.439 -22.398  1.00  0.00    -0.027 A 
HETATM    5  C7  UNL     1      -1.014  50.116 -21.756  1.00  0.00     0.021 A 
HETATM    6  C8  UNL     1      -1.100  51.341 -20.870  1.00  0.00    -0.027 A 
HETATM    7  C9  UNL     1      -2.311  51.453 -19.942  1.00  0.00     0.011 C 
HETATM    8  C10 UNL     1      -2.082  51.250 -18.431  1.00  0.00     0.011 C 
HETATM    9  C11 UNL     1      -0.611  51.223 -17.995  1.00  0.00    -0.032 C 
HETATM   10  C12 UNL     1      -0.088  49.763 -18.178  1.00  0.00     0.016 C 
HETATM   11  C13 UNL     1      -0.309  51.693 -16.529  1.00  0.00    -0.002 C 
HETATM   12  C22 UNL     1       1.183  52.134 -16.619  1.00  0.00     0.006 C 
HETATM   13  C23 UNL     1       1.526  52.332 -18.102  1.00  0.00     0.011 C 
HETATM   14  C24 UNL     1       0.174  52.292 -18.840  1.00  0.00    -0.032 C 
HETATM   15  C25 UNL     1      -0.413  53.736 -18.770  1.00  0.00     0.016 C 
HETATM   16  C26 UNL     1       0.269  51.811 -20.313  1.00  0.00     0.004 C 
HETATM   17  C27 UNL     1       0.974  52.797 -21.254  1.00  0.00     0.006 C 
HETATM   18  C28 UNL     1       1.056  52.223 -22.668  1.00  0.00     0.006 C 
HETATM   19  C29 UNL     1      -0.345  52.163 -23.283  1.00  0.00     0.001 C 
HETATM   20  C30 UNL     1      -0.418  51.522 -24.685  1.00  0.00     0.016 C 
HETATM   21  C31 UNL     1       0.695  51.967 -25.635  1.00  0.00     0.013 C 
ENDROOT
BRANCH  11  22
HETATM   22  C14 UNL     1      -0.564  50.717 -15.340  1.00  0.00    -0.014 C 
HETATM   23  C15 UNL     1      -0.327  49.257 -15.747  1.00  0.00     0.010 C 
BRANCH  22  24
HETATM   24  C16 UNL     1      -2.008  50.859 -14.781  1.00  0.00     0.008 C 
BRANCH  24  25
HETATM   25  C17 UNL     1      -2.102  51.753 -13.533  1.00  0.00     0.028 C 
BRANCH  25  26
HETATM   26  C18 UNL     1      -2.961  51.185 -12.439  1.00  0.00    -0.025 C 
HETATM   27  C19 UNL     1      -3.711  51.850 -11.538  1.00  0.00    -0.091 C 
HETATM   28  C20 UNL     1      -3.815  53.345 -11.423  1.00  0.00     0.042 C 
HETATM   29  C21 UNL     1      -4.534  51.097 -10.522  1.00  0.00     0.042 C 
ENDBRANCH  25  26
ENDBRANCH  24  25
ENDBRANCH  22  24
ENDBRANCH  11  22
BRANCH   1  30
HETATM   30  O2  UNL     1      -2.214  50.629 -26.033  1.00  0.00    -0.316 OA
BRANCH  30  31
HETATM   31  C2  UNL     1      -2.640  50.811 -27.315  1.00  0.00     0.255 C 
HETATM   32  C1  UNL     1      -2.321  52.202 -27.765  1.00  0.00     0.126 C 
HETATM   33  O1  UNL     1      -3.189  49.971 -28.013  1.00  0.00    -0.266 OA
ENDBRANCH  30  31
ENDBRANCH   1  30
TORSDOF 6
ENDMDL
MODEL 7
REMARK minimizedAffinity -8.59083652
REMARK  6 active torsions:
REMARK  status: ('A' for Active; 'I' for Inactive)
REMARK    1  A    between atoms: C2_2  and  O2_4 
REMARK    2  A    between atoms: O2_4  and  C3_5 
REMARK    3  A    between atoms: C13_15  and  C14_16 
REMARK    4  A    between atoms: C14_16  and  C16_18 
REMARK    5  A    between atoms: C16_18  and  C17_19 
REMARK    6  A    between atoms: C17_19  and  C18_20 
ROOT
HETATM    1  C3  UNL     1      -7.837  46.749 -21.620  1.00  0.00     0.136 C 
HETATM    2  C4  UNL     1      -6.517  46.154 -22.132  1.00  0.00     0.034 C 
HETATM    3  C5  UNL     1      -5.556  47.197 -22.702  1.00  0.00     0.013 C 
HETATM    4  C6  UNL     1      -5.376  48.419 -21.794  1.00  0.00    -0.027 A 
HETATM    5  C7  UNL     1      -5.284  49.721 -22.558  1.00  0.00     0.021 A 
HETATM    6  C8  UNL     1      -4.069  49.260 -21.781  1.00  0.00    -0.027 A 
HETATM    7  C9  UNL     1      -2.885  48.719 -22.585  1.00  0.00     0.011 C 
HETATM    8  C10 UNL     1      -1.617  49.590 -22.675  1.00  0.00     0.011 C 
HETATM    9  C11 UNL     1      -1.585  50.792 -21.721  1.00  0.00    -0.032 C 
HETATM   10  C12 UNL     1      -2.334  51.971 -22.419  1.00  0.00     0.016 C 
HETATM   11  C13 UNL     1      -0.167  51.286 -21.268  1.00  0.00    -0.002 C 
HETATM   12  C22 UNL     1      -0.478  52.013 -19.925  1.00  0.00     0.006 C 
HETATM   13  C23 UNL     1      -1.863  51.550 -19.451  1.00  0.00     0.011 C 
HETATM   14  C24 UNL     1      -2.221  50.354 -20.352  1.00  0.00    -0.032 C 
HETATM   15  C25 UNL     1      -1.565  49.095 -19.703  1.00  0.00     0.016 C 
HETATM   16  C26 UNL     1      -3.747  50.137 -20.542  1.00  0.00     0.004 C 
HETATM   17  C27 UNL     1      -4.478  49.656 -19.282  1.00  0.00     0.006 C 
HETATM   18  C28 UNL     1      -5.975  49.510 -19.553  1.00  0.00     0.006 C 
HETATM   19  C29 UNL     1      -6.215  48.340 -20.511  1.00  0.00     0.001 C 
HETATM   20  C30 UNL     1      -7.684  48.133 -20.937  1.00  0.00     0.016 C 
HETATM   21  C31 UNL     1      -8.691  48.260 -19.793  1.00  0.00     0.013 C 
ENDROOT
BRANCH  11  22
HETATM   22  C14 UNL     1       0.685  52.169 -22.231  1.00  0.00    -0.014 C 
HETATM   23  C15 UNL     1       1.075  53.502 -21.577  1.00  0.00     0.010 C 
BRANCH  22  24
HETATM   24  C16 UNL     1      -0.067  52.458 -23.561  1.00  0.00     0.008 C 
BRANCH  24  25
HETATM   25  C17 UNL     1       0.752  53.282 -24.567  1.00  0.00     0.028 C 
BRANCH  25  26
HETATM   26  C18 UNL     1       0.514  52.906 -26.002  1.00  0.00    -0.025 C 
HETATM   27  C19 UNL     1       1.221  52.051 -26.768  1.00  0.00    -0.091 C 
HETATM   28  C20 UNL     1       2.451  51.305 -26.334  1.00  0.00     0.042 C 
HETATM   29  C21 UNL     1       0.808  51.780 -28.193  1.00  0.00     0.042 C 
ENDBRANCH  25  26
ENDBRANCH  24  25
ENDBRANCH  22  24
ENDBRANCH  11  22
BRANCH   1  30
HETATM   30  O2  UNL     1      -8.759  46.911 -22.724  1.00  0.00    -0.316 OA
BRANCH  30  31
HETATM   31  C2  UNL     1      -8.426  47.848 -23.654  1.00  0.00     0.255 C 
HETATM   32  C1  UNL     1      -8.085  47.182 -24.950  1.00  0.00     0.126 C 
HETATM   33  O1  UNL     1      -8.414  49.059 -23.479  1.00  0.00    -0.266 OA
ENDBRANCH  30  31
ENDBRANCH   1  30
TORSDOF 6
ENDMDL
MODEL 8
REMARK minimizedAffinity -8.5696907
REMARK  6 active torsions:
REMARK  status: ('A' for Active; 'I' for Inactive)
REMARK    1  A    between atoms: C2_2  and  O2_4 
REMARK    2  A    between atoms: O2_4  and  C3_5 
REMARK    3  A    between atoms: C13_15  and  C14_16 
REMARK    4  A    between atoms: C14_16  and  C16_18 
REMARK    5  A    between atoms: C16_18  and  C17_19 
REMARK    6  A    between atoms: C17_19  and  C18_20 
ROOT
HETATM    1  C3  UNL     1      -0.869  52.063 -24.895  1.00  0.00     0.136 C 
HETATM    2  C4  UNL     1      -1.012  52.287 -23.383  1.00  0.00     0.034 C 
HETATM    3  C5  UNL     1      -2.456  52.225 -22.888  1.00  0.00     0.013 C 
HETATM    4  C6  UNL     1      -3.227  51.007 -23.410  1.00  0.00    -0.027 A 
HETATM    5  C7  UNL     1      -4.664  51.318 -23.764  1.00  0.00     0.021 A 
HETATM    6  C8  UNL     1      -4.400  50.363 -22.619  1.00  0.00    -0.027 A 
HETATM    7  C9  UNL     1      -4.650  50.880 -21.201  1.00  0.00     0.011 C 
HETATM    8  C10 UNL     1      -5.874  50.333 -20.440  1.00  0.00     0.011 C 
HETATM    9  C11 UNL     1      -6.558  49.125 -21.093  1.00  0.00    -0.032 C 
HETATM   10  C12 UNL     1      -7.572  49.667 -22.150  1.00  0.00     0.016 C 
HETATM   11  C13 UNL     1      -7.306  48.141 -20.127  1.00  0.00    -0.002 C 
HETATM   12  C22 UNL     1      -7.316  46.813 -20.944  1.00  0.00     0.006 C 
HETATM   13  C23 UNL     1      -6.258  46.934 -22.049  1.00  0.00     0.011 C 
HETATM   14  C24 UNL     1      -5.445  48.193 -21.697  1.00  0.00    -0.032 C 
HETATM   15  C25 UNL     1      -4.349  47.745 -20.680  1.00  0.00     0.016 C 
HETATM   16  C26 UNL     1      -4.799  48.895 -22.922  1.00  0.00     0.004 C 
HETATM   17  C27 UNL     1      -3.657  48.103 -23.573  1.00  0.00     0.006 C 
HETATM   18  C28 UNL     1      -3.112  48.849 -24.790  1.00  0.00     0.006 C 
HETATM   19  C29 UNL     1      -2.384  50.117 -24.334  1.00  0.00     0.001 C 
HETATM   20  C30 UNL     1      -1.854  51.014 -25.474  1.00  0.00     0.016 C 
HETATM   21  C31 UNL     1      -1.182  50.246 -26.613  1.00  0.00     0.013 C 
ENDROOT
BRANCH  11  22
HETATM   22  C14 UNL     1      -8.723  48.514 -19.593  1.00  0.00    -0.014 C 
HETATM   23  C15 UNL     1      -8.648  49.188 -18.217  1.00  0.00     0.010 C 
BRANCH  22  24
HETATM   24  C16 UNL     1      -9.646  47.266 -19.496  1.00  0.00     0.008 C 
BRANCH  24  25
HETATM   25  C17 UNL     1     -11.085  47.524 -19.971  1.00  0.00     0.028 C 
BRANCH  25  26
HETATM   26  C18 UNL     1     -12.115  47.428 -18.880  1.00  0.00    -0.025 C 
HETATM   27  C19 UNL     1     -13.338  47.993 -18.836  1.00  0.00    -0.091 C 
HETATM   28  C20 UNL     1     -13.922  48.890 -19.890  1.00  0.00     0.042 C 
HETATM   29  C21 UNL     1     -14.247  47.757 -17.656  1.00  0.00     0.042 C 
ENDBRANCH  25  26
ENDBRANCH  24  25
ENDBRANCH  22  24
ENDBRANCH  11  22
BRANCH   1  30
HETATM   30  O2  UNL     1      -1.102  53.308 -25.596  1.00  0.00    -0.316 OA
BRANCH  30  31
HETATM   31  C2  UNL     1      -0.009  53.899 -26.153  1.00  0.00     0.255 C 
HETATM   32  C1  UNL     1       0.956  52.853 -26.616  1.00  0.00     0.126 C 
HETATM   33  O1  UNL     1       0.170  55.103 -26.277  1.00  0.00    -0.266 OA
ENDBRANCH  30  31
ENDBRANCH   1  30
TORSDOF 6
ENDMDL
MODEL 9
REMARK minimizedAffinity -8.48041534
REMARK  6 active torsions:
REMARK  status: ('A' for Active; 'I' for Inactive)
REMARK    1  A    between atoms: C2_2  and  O2_4 
REMARK    2  A    between atoms: O2_4  and  C3_5 
REMARK    3  A    between atoms: C13_15  and  C14_16 
REMARK    4  A    between atoms: C14_16  and  C16_18 
REMARK    5  A    between atoms: C16_18  and  C17_19 
REMARK    6  A    between atoms: C17_19  and  C18_20 
ROOT
HETATM    1  C3  UNL     1      -8.845  46.526 -24.726  1.00  0.00     0.136 C 
HETATM    2  C4  UNL     1      -7.639  46.512 -25.676  1.00  0.00     0.034 C 
HETATM    3  C5  UNL     1      -6.767  47.763 -25.578  1.00  0.00     0.013 C 
HETATM    4  C6  UNL     1      -6.416  48.148 -24.136  1.00  0.00    -0.027 A 
HETATM    5  C7  UNL     1      -6.427  49.642 -23.898  1.00  0.00     0.021 A 
HETATM    6  C8  UNL     1      -5.109  48.907 -23.772  1.00  0.00    -0.027 A 
HETATM    7  C9  UNL     1      -4.085  49.105 -24.891  1.00  0.00     0.011 C 
HETATM    8  C10 UNL     1      -2.833  49.949 -24.581  1.00  0.00     0.011 C 
HETATM    9  C11 UNL     1      -2.622  50.276 -23.096  1.00  0.00    -0.032 C 
HETATM   10  C12 UNL     1      -3.454  51.557 -22.770  1.00  0.00     0.016 C 
HETATM   11  C13 UNL     1      -1.139  50.501 -22.636  1.00  0.00    -0.002 C 
HETATM   12  C22 UNL     1      -1.211  50.185 -21.111  1.00  0.00     0.006 C 
HETATM   13  C23 UNL     1      -2.506  49.403 -20.854  1.00  0.00     0.011 C 
HETATM   14  C24 UNL     1      -3.031  49.017 -22.249  1.00  0.00    -0.032 C 
HETATM   15  C25 UNL     1      -2.300  47.698 -22.650  1.00  0.00     0.016 C 
HETATM   16  C26 UNL     1      -4.571  48.830 -22.319  1.00  0.00     0.004 C 
HETATM   17  C27 UNL     1      -5.092  47.598 -21.569  1.00  0.00     0.006 C 
HETATM   18  C28 UNL     1      -6.615  47.520 -21.658  1.00  0.00     0.006 C 
HETATM   19  C29 UNL     1      -7.032  47.200 -23.097  1.00  0.00     0.001 C 
HETATM   20  C30 UNL     1      -8.555  47.176 -23.347  1.00  0.00     0.016 C 
HETATM   21  C31 UNL     1      -9.357  46.460 -22.259  1.00  0.00     0.013 C 
ENDROOT
BRANCH  11  22
HETATM   22  C14 UNL     1      -0.442  51.866 -22.921  1.00  0.00    -0.014 C 
HETATM   23  C15 UNL     1      -0.026  51.990 -24.393  1.00  0.00     0.010 C 
BRANCH  22  24
HETATM   24  C16 UNL     1       0.811  52.069 -22.022  1.00  0.00     0.008 C 
BRANCH  24  25
HETATM   25  C17 UNL     1       0.748  53.336 -21.153  1.00  0.00     0.028 C 
BRANCH  25  26
HETATM   26  C18 UNL     1       1.250  53.140 -19.750  1.00  0.00    -0.025 C 
HETATM   27  C19 UNL     1       0.573  52.680 -18.679  1.00  0.00    -0.091 C 
HETATM   28  C20 UNL     1      -0.879  52.293 -18.666  1.00  0.00     0.042 C 
HETATM   29  C21 UNL     1       1.263  52.527 -17.347  1.00  0.00     0.042 C 
ENDBRANCH  25  26
ENDBRANCH  24  25
ENDBRANCH  22  24
ENDBRANCH  11  22
BRANCH   1  30
HETATM   30  O2  UNL     1      -9.934  47.263 -25.331  1.00  0.00    -0.316 OA
BRANCH  30  31
HETATM   31  C2  UNL     1      -9.601  48.431 -25.947  1.00  0.00     0.255 C 
HETATM   32  C1  UNL     1      -9.482  48.213 -27.423  1.00  0.00     0.126 C 
HETATM   33  O1  UNL     1      -9.434  49.510 -25.396  1.00  0.00    -0.266 OA
ENDBRANCH  30  31
ENDBRANCH   1  30
TORSDOF 6
ENDMDL
