MODEL 1
REMARK minimizedAffinity -8.34946442
REMARK CNNscore 0.602578998
REMARK CNNaffinity 6.8480587
REMARK  7 active torsions:
REMARK  status: ('A' for Active; 'I' for Inactive)
REMARK    1  A    between atoms: C4_4  and  C5_5 
REMARK    2  A    between atoms: C5_5  and  C6_6 
REMARK    3  A    between atoms: C6_6  and  C7_7 
REMARK    4  A    between atoms: C7_7  and  C9_9 
REMARK    5  A    between atoms: C27_27  and  O1_28 
REMARK    6  A    between atoms: C28_29  and  O2_30 
REMARK    7  A    between atoms: C29_31  and  O3_32 
ROOT
HETATM    1  C9  UNL     1      -6.278   5.999  14.735  1.00  0.00    -0.002 C 
HETATM    2  C10 UNL     1      -6.726   6.656  13.395  1.00  0.00     0.007 C 
HETATM    3  C11 UNL     1      -5.521   7.418  12.821  1.00  0.00     0.015 C 
HETATM    4  C12 UNL     1      -4.311   6.870  13.592  1.00  0.00    -0.013 C 
HETATM    5  C13 UNL     1      -3.907   5.525  12.909  1.00  0.00     0.021 C 
HETATM    6  C14 UNL     1      -3.024   7.691  13.634  1.00  0.00    -0.068 C 
HETATM    7  C15 UNL     1      -2.166   7.559  14.679  1.00  0.00    -0.065 C 
HETATM    8  C16 UNL     1      -2.531   6.686  15.890  1.00  0.00     0.036 C 
HETATM    9  C17 UNL     1      -3.905   5.976  15.885  1.00  0.00     0.015 C 
HETATM   10  C18 UNL     1      -4.931   6.733  15.035  1.00  0.00    -0.029 C 
HETATM   11  C19 UNL     1      -5.231   8.108  15.707  1.00  0.00     0.016 C 
HETATM   12  C20 UNL     1      -0.794   8.291  14.739  1.00  0.00     0.012 C 
HETATM   13  C21 UNL     1      -0.917   9.405  15.812  1.00  0.00     0.023 C 
HETATM   14  C22 UNL     1      -0.416   8.997  13.363  1.00  0.00     0.007 C 
HETATM   15  C23 UNL     1      -1.663   9.602  12.707  1.00  0.00     0.010 C 
HETATM   16  C24 UNL     1      -2.747   8.572  12.445  1.00  0.00     0.036 C 
HETATM   17  C25 UNL     1       0.488   8.127  12.419  1.00  0.00     0.018 C 
HETATM   18  C26 UNL     1       0.443   8.524  10.939  1.00  0.00     0.013 C 
HETATM   19  C27 UNL     1       0.265   6.625  12.633  1.00  0.00     0.153 C 
HETATM   20  C28 UNL     1       0.621   6.203  14.073  1.00  0.00     0.177 C 
HETATM   21  C29 UNL     1       0.411   7.352  15.093  1.00  0.00     0.162 C 
ENDROOT
BRANCH   1  22
HETATM   22  C7  UNL     1      -7.432   5.997  15.789  1.00  0.00    -0.014 C 
HETATM   23  C8  UNL     1      -7.155   7.056  16.872  1.00  0.00     0.010 C 
BRANCH  22  24
HETATM   24  C6  UNL     1      -8.818   6.236  15.147  1.00  0.00     0.008 C 
BRANCH  24  25
HETATM   25  C5  UNL     1      -9.533   7.507  15.624  1.00  0.00     0.028 C 
BRANCH  25  26
HETATM   26  C4  UNL     1     -10.218   8.201  14.477  1.00  0.00    -0.025 C 
HETATM   27  C2  UNL     1     -11.362   7.847  13.857  1.00  0.00    -0.091 C 
HETATM   28  C1  UNL     1     -12.221   6.668  14.221  1.00  0.00     0.042 C 
HETATM   29  C3  UNL     1     -11.893   8.664  12.707  1.00  0.00     0.042 C 
ENDBRANCH  25  26
ENDBRANCH  24  25
ENDBRANCH  22  24
ENDBRANCH   1  22
BRANCH  21  30
HETATM   30  O3  UNL     1       0.426   6.853  16.432  1.00  0.00    -0.392 OA
HETATM   31  H48 UNL     1       0.435   7.604  17.045  1.00  0.00     0.210 HD
ENDBRANCH  21  30
BRANCH  20  32
HETATM   32  O2  UNL     1      -0.109   5.013  14.393  1.00  0.00    -0.390 OA
HETATM   33  H46 UNL     1      -0.008   4.414  13.632  1.00  0.00     0.210 HD
ENDBRANCH  20  32
BRANCH  19  34
HETATM   34  O1  UNL     1       1.047   5.835  11.727  1.00  0.00    -0.393 OA
HETATM   35  H44 UNL     1       1.979   6.099  11.822  1.00  0.00     0.210 HD
ENDBRANCH  19  34
TORSDOF 7
ENDMDL
MODEL 2
REMARK minimizedAffinity -7.47755814
REMARK CNNscore 0.581295192
REMARK CNNaffinity 6.62822199
REMARK  7 active torsions:
REMARK  status: ('A' for Active; 'I' for Inactive)
REMARK    1  A    between atoms: C4_4  and  C5_5 
REMARK    2  A    between atoms: C5_5  and  C6_6 
REMARK    3  A    between atoms: C6_6  and  C7_7 
REMARK    4  A    between atoms: C7_7  and  C9_9 
REMARK    5  A    between atoms: C27_27  and  O1_28 
REMARK    6  A    between atoms: C28_29  and  O2_30 
REMARK    7  A    between atoms: C29_31  and  O3_32 
ROOT
HETATM    1  C9  UNL     1      -7.243   6.792  15.385  1.00  0.00    -0.002 C 
HETATM    2  C10 UNL     1      -7.129   5.287  14.995  1.00  0.00     0.007 C 
HETATM    3  C11 UNL     1      -5.735   5.067  14.385  1.00  0.00     0.015 C 
HETATM    4  C12 UNL     1      -4.929   6.309  14.795  1.00  0.00    -0.013 C 
HETATM    5  C13 UNL     1      -4.433   6.067  16.255  1.00  0.00     0.021 C 
HETATM    6  C14 UNL     1      -3.672   6.671  14.008  1.00  0.00    -0.068 C 
HETATM    7  C15 UNL     1      -3.253   7.962  13.950  1.00  0.00    -0.065 C 
HETATM    8  C16 UNL     1      -4.100   9.090  14.562  1.00  0.00     0.036 C 
HETATM    9  C17 UNL     1      -5.441   8.711  15.230  1.00  0.00     0.015 C 
HETATM   10  C18 UNL     1      -6.029   7.427  14.634  1.00  0.00    -0.029 C 
HETATM   11  C19 UNL     1      -6.422   7.692  13.148  1.00  0.00     0.016 C 
HETATM   12  C20 UNL     1      -1.932   8.387  13.248  1.00  0.00     0.012 C 
HETATM   13  C21 UNL     1      -2.325   9.129  11.943  1.00  0.00     0.023 C 
HETATM   14  C22 UNL     1      -1.030   7.142  12.833  1.00  0.00     0.007 C 
HETATM   15  C23 UNL     1      -1.906   5.982  12.344  1.00  0.00     0.010 C 
HETATM   16  C24 UNL     1      -2.915   5.529  13.383  1.00  0.00     0.036 C 
HETATM   17  C25 UNL     1       0.067   6.760  13.890  1.00  0.00     0.018 C 
HETATM   18  C26 UNL     1       0.583   5.320  13.790  1.00  0.00     0.013 C 
HETATM   19  C27 UNL     1      -0.352   7.138  15.316  1.00  0.00     0.153 C 
HETATM   20  C28 UNL     1      -0.566   8.659  15.454  1.00  0.00     0.177 C 
HETATM   21  C29 UNL     1      -1.019   9.314  14.124  1.00  0.00     0.162 C 
ENDROOT
BRANCH   1  22
HETATM   22  C7  UNL     1      -8.690   7.337  15.158  1.00  0.00    -0.014 C 
HETATM   23  C8  UNL     1      -8.686   8.875  15.220  1.00  0.00     0.010 C 
BRANCH  22  24
HETATM   24  C6  UNL     1      -9.298   6.856  13.820  1.00  0.00     0.008 C 
BRANCH  24  25
HETATM   25  C5  UNL     1     -10.823   6.682  13.836  1.00  0.00     0.028 C 
BRANCH  25  26
HETATM   26  C4  UNL     1     -11.513   7.950  13.409  1.00  0.00    -0.025 C 
HETATM   27  C2  UNL     1     -12.789   8.103  13.002  1.00  0.00    -0.091 C 
HETATM   28  C1  UNL     1     -13.814   7.006  12.917  1.00  0.00     0.042 C 
HETATM   29  C3  UNL     1     -13.304   9.460  12.597  1.00  0.00     0.042 C 
ENDBRANCH  25  26
ENDBRANCH  24  25
ENDBRANCH  22  24
ENDBRANCH   1  22
BRANCH  21  30
HETATM   30  O3  UNL     1      -1.522  10.632  14.351  1.00  0.00    -0.392 OA
HETATM   31  H48 UNL     1      -1.662  11.065  13.495  1.00  0.00     0.210 HD
ENDBRANCH  21  30
BRANCH  20  32
HETATM   32  O2  UNL     1      -1.465   8.895  16.544  1.00  0.00    -0.390 OA
HETATM   33  H46 UNL     1      -1.157   8.340  17.282  1.00  0.00     0.210 HD
ENDBRANCH  20  32
BRANCH  19  34
HETATM   34  O1  UNL     1       0.626   6.732  16.284  1.00  0.00    -0.393 OA
HETATM   35  H44 UNL     1       1.484   7.112  16.025  1.00  0.00     0.210 HD
ENDBRANCH  19  34
TORSDOF 7
ENDMDL
MODEL 3
REMARK minimizedAffinity -6.50158644
REMARK CNNscore 0.481230319
REMARK CNNaffinity 6.43047953
REMARK  7 active torsions:
REMARK  status: ('A' for Active; 'I' for Inactive)
REMARK    1  A    between atoms: C4_4  and  C5_5 
REMARK    2  A    between atoms: C5_5  and  C6_6 
REMARK    3  A    between atoms: C6_6  and  C7_7 
REMARK    4  A    between atoms: C7_7  and  C9_9 
REMARK    5  A    between atoms: C27_27  and  O1_28 
REMARK    6  A    between atoms: C28_29  and  O2_30 
REMARK    7  A    between atoms: C29_31  and  O3_32 
ROOT
HETATM    1  C9  UNL     1      -7.867   7.602  14.534  1.00  0.00    -0.002 C 
HETATM    2  C10 UNL     1      -8.158   6.113  14.174  1.00  0.00     0.007 C 
HETATM    3  C11 UNL     1      -9.683   5.917  14.192  1.00  0.00     0.015 C 
HETATM    4  C12 UNL     1     -10.259   7.341  14.153  1.00  0.00    -0.013 C 
HETATM    5  C13 UNL     1     -10.240   7.798  12.660  1.00  0.00     0.021 C 
HETATM    6  C14 UNL     1     -11.696   7.573  14.616  1.00  0.00    -0.068 C 
HETATM    7  C15 UNL     1     -12.065   8.784  15.109  1.00  0.00    -0.065 C 
HETATM    8  C16 UNL     1     -11.024   9.893  15.329  1.00  0.00     0.036 C 
HETATM    9  C17 UNL     1      -9.549   9.583  14.983  1.00  0.00     0.015 C 
HETATM   10  C18 UNL     1      -9.241   8.086  15.099  1.00  0.00    -0.029 C 
HETATM   11  C19 UNL     1      -9.365   7.657  16.594  1.00  0.00     0.016 C 
HETATM   12  C20 UNL     1     -13.531   9.118  15.509  1.00  0.00     0.012 C 
HETATM   13  C21 UNL     1     -13.577   9.190  17.059  1.00  0.00     0.023 C 
HETATM   14  C22 UNL     1     -14.561   7.992  15.055  1.00  0.00     0.007 C 
HETATM   15  C23 UNL     1     -13.943   6.598  15.218  1.00  0.00     0.010 C 
HETATM   16  C24 UNL     1     -12.657   6.430  14.428  1.00  0.00     0.036 C 
HETATM   17  C25 UNL     1     -15.248   8.268  13.670  1.00  0.00     0.018 C 
HETATM   18  C26 UNL     1     -15.817   7.025  12.975  1.00  0.00     0.013 C 
HETATM   19  C27 UNL     1     -14.359   9.106  12.744  1.00  0.00     0.153 C 
HETATM   20  C28 UNL     1     -14.059  10.490  13.355  1.00  0.00     0.177 C 
HETATM   21  C29 UNL     1     -14.061  10.464  14.904  1.00  0.00     0.162 C 
ENDROOT
BRANCH   1  22
HETATM   22  C7  UNL     1      -6.565   7.744  15.386  1.00  0.00    -0.014 C 
HETATM   23  C8  UNL     1      -5.721   6.460  15.272  1.00  0.00     0.010 C 
BRANCH  22  24
HETATM   24  C6  UNL     1      -5.725   8.976  14.979  1.00  0.00     0.008 C 
BRANCH  24  25
HETATM   25  C5  UNL     1      -4.482   9.218  15.846  1.00  0.00     0.028 C 
BRANCH  25  26
HETATM   26  C4  UNL     1      -4.261  10.690  16.068  1.00  0.00    -0.025 C 
HETATM   27  C2  UNL     1      -3.766  11.298  17.165  1.00  0.00    -0.091 C 
HETATM   28  C1  UNL     1      -3.296  10.599  18.411  1.00  0.00     0.042 C 
HETATM   29  C3  UNL     1      -3.628  12.798  17.212  1.00  0.00     0.042 C 
ENDBRANCH  25  26
ENDBRANCH  24  25
ENDBRANCH  22  24
ENDBRANCH   1  22
BRANCH  21  30
HETATM   30  O3  UNL     1     -13.466  11.650  15.435  1.00  0.00    -0.392 OA
HETATM   31  H48 UNL     1     -13.609  11.670  16.394  1.00  0.00     0.210 HD
ENDBRANCH  21  30
BRANCH  20  32
HETATM   32  O2  UNL     1     -12.836  10.981  12.792  1.00  0.00    -0.390 OA
HETATM   33  H46 UNL     1     -12.896  10.834  11.831  1.00  0.00     0.210 HD
ENDBRANCH  20  32
BRANCH  19  34
HETATM   34  O1  UNL     1     -14.965   9.303  11.459  1.00  0.00    -0.393 OA
HETATM   35  H44 UNL     1     -15.847   9.693  11.596  1.00  0.00     0.210 HD
ENDBRANCH  19  34
TORSDOF 7
ENDMDL
MODEL 4
REMARK minimizedAffinity -9.06761646
REMARK CNNscore 0.445524395
REMARK CNNaffinity 6.4516716
REMARK  7 active torsions:
REMARK  status: ('A' for Active; 'I' for Inactive)
REMARK    1  A    between atoms: C4_4  and  C5_5 
REMARK    2  A    between atoms: C5_5  and  C6_6 
REMARK    3  A    between atoms: C6_6  and  C7_7 
REMARK    4  A    between atoms: C7_7  and  C9_9 
REMARK    5  A    between atoms: C27_27  and  O1_28 
REMARK    6  A    between atoms: C28_29  and  O2_30 
REMARK    7  A    between atoms: C29_31  and  O3_32 
ROOT
HETATM    1  C9  UNL     1      -5.331   4.997  14.043  1.00  0.00    -0.002 C 
HETATM    2  C10 UNL     1      -4.993   4.414  12.637  1.00  0.00     0.007 C 
HETATM    3  C11 UNL     1      -3.727   5.121  12.129  1.00  0.00     0.015 C 
HETATM    4  C12 UNL     1      -3.123   5.784  13.377  1.00  0.00    -0.013 C 
HETATM    5  C13 UNL     1      -2.319   4.680  14.134  1.00  0.00     0.021 C 
HETATM    6  C14 UNL     1      -2.138   6.937  13.202  1.00  0.00    -0.068 C 
HETATM    7  C15 UNL     1      -2.006   7.874  14.177  1.00  0.00    -0.065 C 
HETATM    8  C16 UNL     1      -2.929   7.863  15.406  1.00  0.00     0.036 C 
HETATM    9  C17 UNL     1      -4.014   6.765  15.490  1.00  0.00     0.015 C 
HETATM   10  C18 UNL     1      -4.435   6.276  14.100  1.00  0.00    -0.029 C 
HETATM   11  C19 UNL     1      -5.150   7.441  13.348  1.00  0.00     0.016 C 
HETATM   12  C20 UNL     1      -0.956   9.019  14.107  1.00  0.00     0.012 C 
HETATM   13  C21 UNL     1      -1.732  10.336  13.838  1.00  0.00     0.023 C 
HETATM   14  C22 UNL     1       0.081   8.827  12.914  1.00  0.00     0.007 C 
HETATM   15  C23 UNL     1      -0.621   8.254  11.677  1.00  0.00     0.010 C 
HETATM   16  C24 UNL     1      -1.301   6.925  11.950  1.00  0.00     0.036 C 
HETATM   17  C25 UNL     1       1.414   8.107  13.327  1.00  0.00     0.018 C 
HETATM   18  C26 UNL     1       2.179   7.455  12.170  1.00  0.00     0.013 C 
HETATM   19  C27 UNL     1       1.208   7.151  14.509  1.00  0.00     0.153 C 
HETATM   20  C28 UNL     1       0.723   7.906  15.764  1.00  0.00     0.177 C 
HETATM   21  C29 UNL     1      -0.097   9.172  15.410  1.00  0.00     0.162 C 
ENDROOT
BRANCH   1  22
HETATM   22  C7  UNL     1      -6.874   5.099  14.268  1.00  0.00    -0.014 C 
HETATM   23  C8  UNL     1      -7.573   3.865  13.667  1.00  0.00     0.010 C 
BRANCH  22  24
HETATM   24  C6  UNL     1      -7.243   5.250  15.762  1.00  0.00     0.008 C 
BRANCH  24  25
HETATM   25  C5  UNL     1      -7.773   6.636  16.153  1.00  0.00     0.028 C 
BRANCH  25  26
HETATM   26  C4  UNL     1      -9.110   6.900  15.512  1.00  0.00    -0.025 C 
HETATM   27  C2  UNL     1      -9.637   8.088  15.153  1.00  0.00    -0.091 C 
HETATM   28  C1  UNL     1      -8.960   9.422  15.301  1.00  0.00     0.042 C 
HETATM   29  C3  UNL     1     -11.008   8.159  14.531  1.00  0.00     0.042 C 
ENDBRANCH  25  26
ENDBRANCH  24  25
ENDBRANCH  22  24
ENDBRANCH   1  22
BRANCH  21  30
HETATM   30  O3  UNL     1      -0.802   9.659  16.554  1.00  0.00    -0.392 OA
HETATM   31  H48 UNL     1      -1.187  10.523  16.340  1.00  0.00     0.210 HD
ENDBRANCH  21  30
BRANCH  20  32
HETATM   32  O2  UNL     1       0.020   6.984  16.606  1.00  0.00    -0.390 OA
HETATM   33  H46 UNL     1       0.569   6.182  16.657  1.00  0.00     0.210 HD
ENDBRANCH  20  32
BRANCH  19  34
HETATM   34  O1  UNL     1       2.414   6.450  14.844  1.00  0.00    -0.393 OA
HETATM   35  H44 UNL     1       3.113   7.109  15.003  1.00  0.00     0.210 HD
ENDBRANCH  19  34
TORSDOF 7
ENDMDL
MODEL 5
REMARK minimizedAffinity -6.49906206
REMARK CNNscore 0.373637289
REMARK CNNaffinity 6.55659723
REMARK  7 active torsions:
REMARK  status: ('A' for Active; 'I' for Inactive)
REMARK    1  A    between atoms: C4_4  and  C5_5 
REMARK    2  A    between atoms: C5_5  and  C6_6 
REMARK    3  A    between atoms: C6_6  and  C7_7 
REMARK    4  A    between atoms: C7_7  and  C9_9 
REMARK    5  A    between atoms: C27_27  and  O1_28 
REMARK    6  A    between atoms: C28_29  and  O2_30 
REMARK    7  A    between atoms: C29_31  and  O3_32 
ROOT
HETATM    1  C9  UNL     1      -9.441   7.204  14.809  1.00  0.00    -0.002 C 
HETATM    2  C10 UNL     1      -8.655   8.537  14.992  1.00  0.00     0.007 C 
HETATM    3  C11 UNL     1      -9.670   9.690  14.934  1.00  0.00     0.015 C 
HETATM    4  C12 UNL     1     -11.037   9.016  15.130  1.00  0.00    -0.013 C 
HETATM    5  C13 UNL     1     -11.223   8.803  16.665  1.00  0.00     0.021 C 
HETATM    6  C14 UNL     1     -12.298   9.750  14.680  1.00  0.00    -0.068 C 
HETATM    7  C15 UNL     1     -13.405   9.047  14.324  1.00  0.00    -0.065 C 
HETATM    8  C16 UNL     1     -13.369   7.513  14.246  1.00  0.00     0.036 C 
HETATM    9  C17 UNL     1     -12.036   6.800  14.571  1.00  0.00     0.015 C 
HETATM   10  C18 UNL     1     -10.828   7.699  14.288  1.00  0.00    -0.029 C 
HETATM   11  C19 UNL     1     -10.739   7.961  12.752  1.00  0.00     0.016 C 
HETATM   12  C20 UNL     1     -14.751   9.731  13.948  1.00  0.00     0.012 C 
HETATM   13  C21 UNL     1     -14.937   9.563  12.417  1.00  0.00     0.023 C 
HETATM   14  C22 UNL     1     -14.752  11.293  14.258  1.00  0.00     0.007 C 
HETATM   15  C23 UNL     1     -13.382  11.906  13.944  1.00  0.00     0.010 C 
HETATM   16  C24 UNL     1     -12.254  11.254  14.724  1.00  0.00     0.036 C 
HETATM   17  C25 UNL     1     -15.356  11.672  15.657  1.00  0.00     0.018 C 
HETATM   18  C26 UNL     1     -14.917  13.038  16.198  1.00  0.00     0.013 C 
HETATM   19  C27 UNL     1     -15.179  10.547  16.684  1.00  0.00     0.153 C 
HETATM   20  C28 UNL     1     -15.906   9.261  16.239  1.00  0.00     0.177 C 
HETATM   21  C29 UNL     1     -15.994   9.137  14.697  1.00  0.00     0.162 C 
ENDROOT
BRANCH   1  22
HETATM   22  C7  UNL     1      -8.615   6.157  13.994  1.00  0.00    -0.014 C 
HETATM   23  C8  UNL     1      -9.266   5.933  12.616  1.00  0.00     0.010 C 
BRANCH  22  24
HETATM   24  C6  UNL     1      -7.136   6.573  13.827  1.00  0.00     0.008 C 
BRANCH  24  25
HETATM   25  C5  UNL     1      -6.119   5.479  14.180  1.00  0.00     0.028 C 
BRANCH  25  26
HETATM   26  C4  UNL     1      -6.228   4.318  13.228  1.00  0.00    -0.025 C 
HETATM   27  C2  UNL     1      -5.243   3.734  12.516  1.00  0.00    -0.091 C 
HETATM   28  C1  UNL     1      -3.792   4.124  12.555  1.00  0.00     0.042 C 
HETATM   29  C3  UNL     1      -5.546   2.580  11.596  1.00  0.00     0.042 C 
ENDBRANCH  25  26
ENDBRANCH  24  25
ENDBRANCH  22  24
ENDBRANCH   1  22
BRANCH  21  30
HETATM   30  O3  UNL     1     -16.365   7.811  14.313  1.00  0.00    -0.392 OA
HETATM   31  H48 UNL     1     -16.549   7.801  13.361  1.00  0.00     0.210 HD
ENDBRANCH  21  30
BRANCH  20  32
HETATM   32  O2  UNL     1     -15.274   8.140  16.869  1.00  0.00    -0.390 OA
HETATM   33  H46 UNL     1     -15.158   8.379  17.806  1.00  0.00     0.210 HD
ENDBRANCH  20  32
BRANCH  19  34
HETATM   34  O1  UNL     1     -15.676  10.921  17.976  1.00  0.00    -0.393 OA
HETATM   35  H44 UNL     1     -16.603  11.202  17.874  1.00  0.00     0.210 HD
ENDBRANCH  19  34
TORSDOF 7
ENDMDL
MODEL 6
REMARK minimizedAffinity -7.40875196
REMARK CNNscore 0.361880243
REMARK CNNaffinity 6.54363632
REMARK  7 active torsions:
REMARK  status: ('A' for Active; 'I' for Inactive)
REMARK    1  A    between atoms: C4_4  and  C5_5 
REMARK    2  A    between atoms: C5_5  and  C6_6 
REMARK    3  A    between atoms: C6_6  and  C7_7 
REMARK    4  A    between atoms: C7_7  and  C9_9 
REMARK    5  A    between atoms: C27_27  and  O1_28 
REMARK    6  A    between atoms: C28_29  and  O2_30 
REMARK    7  A    between atoms: C29_31  and  O3_32 
ROOT
HETATM    1  C9  UNL     1      -8.569   7.821  14.310  1.00  0.00    -0.002 C 
HETATM    2  C10 UNL     1      -8.736   6.271  14.304  1.00  0.00     0.007 C 
HETATM    3  C11 UNL     1     -10.239   5.962  14.384  1.00  0.00     0.015 C 
HETATM    4  C12 UNL     1     -10.929   7.287  14.026  1.00  0.00    -0.013 C 
HETATM    5  C13 UNL     1     -10.936   7.390  12.468  1.00  0.00     0.021 C 
HETATM    6  C14 UNL     1     -12.383   7.503  14.439  1.00  0.00    -0.068 C 
HETATM    7  C15 UNL     1     -12.853   8.761  14.647  1.00  0.00    -0.065 C 
HETATM    8  C16 UNL     1     -11.907   9.971  14.594  1.00  0.00     0.036 C 
HETATM    9  C17 UNL     1     -10.409   9.710  14.312  1.00  0.00     0.015 C 
HETATM   10  C18 UNL     1      -9.982   8.309  14.764  1.00  0.00    -0.029 C 
HETATM   11  C19 UNL     1     -10.082   8.226  16.319  1.00  0.00     0.016 C 
HETATM   12  C20 UNL     1     -14.344   9.058  14.976  1.00  0.00     0.012 C 
HETATM   13  C21 UNL     1     -14.407   9.480  16.468  1.00  0.00     0.023 C 
HETATM   14  C22 UNL     1     -15.276   7.779  14.804  1.00  0.00     0.007 C 
HETATM   15  C23 UNL     1     -14.548   6.514  15.275  1.00  0.00     0.010 C 
HETATM   16  C24 UNL     1     -13.247   6.274  14.530  1.00  0.00     0.036 C 
HETATM   17  C25 UNL     1     -15.973   7.673  13.401  1.00  0.00     0.018 C 
HETATM   18  C26 UNL     1     -16.434   6.263  13.015  1.00  0.00     0.013 C 
HETATM   19  C27 UNL     1     -15.148   8.346  12.297  1.00  0.00     0.153 C 
HETATM   20  C28 UNL     1     -14.966   9.853  12.571  1.00  0.00     0.177 C 
HETATM   21  C29 UNL     1     -14.977  10.183  14.085  1.00  0.00     0.162 C 
ENDROOT
BRANCH   1  22
HETATM   22  C7  UNL     1      -7.289   8.259  15.092  1.00  0.00    -0.014 C 
HETATM   23  C8  UNL     1      -7.053   7.312  16.283  1.00  0.00     0.010 C 
BRANCH  22  24
HETATM   24  C6  UNL     1      -6.035   8.309  14.189  1.00  0.00     0.008 C 
BRANCH  24  25
HETATM   25  C5  UNL     1      -5.012   7.195  14.453  1.00  0.00     0.028 C 
BRANCH  25  26
HETATM   26  C4  UNL     1      -5.224   6.037  13.515  1.00  0.00    -0.025 C 
HETATM   27  C2  UNL     1      -4.330   5.101  13.137  1.00  0.00    -0.091 C 
HETATM   28  C1  UNL     1      -2.908   5.011  13.618  1.00  0.00     0.042 C 
HETATM   29  C3  UNL     1      -4.723   4.015  12.170  1.00  0.00     0.042 C 
ENDBRANCH  25  26
ENDBRANCH  24  25
ENDBRANCH  22  24
ENDBRANCH   1  22
BRANCH  21  30
HETATM   30  O3  UNL     1     -14.485  11.503  14.323  1.00  0.00    -0.392 OA
HETATM   31  H48 UNL     1     -14.636  11.731  15.253  1.00  0.00     0.210 HD
ENDBRANCH  21  30
BRANCH  20  32
HETATM   32  O2  UNL     1     -13.783  10.298  11.896  1.00  0.00    -0.390 OA
HETATM   33  H46 UNL     1     -13.823   9.931  10.996  1.00  0.00     0.210 HD
ENDBRANCH  20  32
BRANCH  19  34
HETATM   34  O1  UNL     1     -15.758   8.193  11.008  1.00  0.00    -0.393 OA
HETATM   35  H44 UNL     1     -16.670   8.532  11.062  1.00  0.00     0.210 HD
ENDBRANCH  19  34
TORSDOF 7
ENDMDL
MODEL 7
REMARK minimizedAffinity -6.8155427
REMARK CNNscore 0.360380679
REMARK CNNaffinity 5.7784791
REMARK  7 active torsions:
REMARK  status: ('A' for Active; 'I' for Inactive)
REMARK    1  A    between atoms: C4_4  and  C5_5 
REMARK    2  A    between atoms: C5_5  and  C6_6 
REMARK    3  A    between atoms: C6_6  and  C7_7 
REMARK    4  A    between atoms: C7_7  and  C9_9 
REMARK    5  A    between atoms: C27_27  and  O1_28 
REMARK    6  A    between atoms: C28_29  and  O2_30 
REMARK    7  A    between atoms: C29_31  and  O3_32 
ROOT
HETATM    1  C9  UNL     1       2.376  12.248  19.753  1.00  0.00    -0.002 C 
HETATM    2  C10 UNL     1       1.765  11.226  20.759  1.00  0.00     0.007 C 
HETATM    3  C11 UNL     1       0.411  10.767  20.195  1.00  0.00     0.015 C 
HETATM    4  C12 UNL     1       0.438  11.194  18.719  1.00  0.00    -0.013 C 
HETATM    5  C13 UNL     1       1.239  10.100  17.944  1.00  0.00     0.021 C 
HETATM    6  C14 UNL     1      -0.880  11.327  17.960  1.00  0.00    -0.068 C 
HETATM    7  C15 UNL     1      -0.975  12.178  16.905  1.00  0.00    -0.065 C 
HETATM    8  C16 UNL     1       0.192  13.108  16.539  1.00  0.00     0.036 C 
HETATM    9  C17 UNL     1       1.466  13.054  17.413  1.00  0.00     0.015 C 
HETATM   10  C18 UNL     1       1.155  12.593  18.841  1.00  0.00    -0.029 C 
HETATM   11  C19 UNL     1       0.276  13.674  19.542  1.00  0.00     0.016 C 
HETATM   12  C20 UNL     1      -2.256  12.292  16.030  1.00  0.00     0.012 C 
HETATM   13  C21 UNL     1      -2.919  13.655  16.365  1.00  0.00     0.023 C 
HETATM   14  C22 UNL     1      -3.322  11.153  16.352  1.00  0.00     0.007 C 
HETATM   15  C23 UNL     1      -3.356  10.857  17.856  1.00  0.00     0.010 C 
HETATM   16  C24 UNL     1      -2.005  10.429  18.401  1.00  0.00     0.036 C 
HETATM   17  C25 UNL     1      -3.223   9.894  15.419  1.00  0.00     0.018 C 
HETATM   18  C26 UNL     1      -3.840   8.615  15.995  1.00  0.00     0.013 C 
HETATM   19  C27 UNL     1      -1.797   9.677  14.896  1.00  0.00     0.153 C 
HETATM   20  C28 UNL     1      -1.320  10.875  14.050  1.00  0.00     0.177 C 
HETATM   21  C29 UNL     1      -1.980  12.207  14.488  1.00  0.00     0.162 C 
ENDROOT
BRANCH   1  22
HETATM   22  C7  UNL     1       3.160  13.381  20.490  1.00  0.00    -0.014 C 
HETATM   23  C8  UNL     1       3.411  14.556  19.527  1.00  0.00     0.010 C 
BRANCH  22  24
HETATM   24  C6  UNL     1       2.430  13.874  21.760  1.00  0.00     0.008 C 
BRANCH  24  25
HETATM   25  C5  UNL     1       3.014  13.349  23.079  1.00  0.00     0.028 C 
BRANCH  25  26
HETATM   26  C4  UNL     1       4.511  13.222  22.991  1.00  0.00    -0.025 C 
HETATM   27  C2  UNL     1       5.248  12.093  22.966  1.00  0.00    -0.091 C 
HETATM   28  C1  UNL     1       4.698  10.693  22.994  1.00  0.00     0.042 C 
HETATM   29  C3  UNL     1       6.751  12.162  22.889  1.00  0.00     0.042 C 
ENDBRANCH  25  26
ENDBRANCH  24  25
ENDBRANCH  22  24
ENDBRANCH   1  22
BRANCH  21  30
HETATM   30  O3  UNL     1      -1.291  13.326  13.927  1.00  0.00    -0.392 OA
HETATM   31  H48 UNL     1      -1.806  14.129  14.100  1.00  0.00     0.210 HD
ENDBRANCH  21  30
BRANCH  20  32
HETATM   32  O2  UNL     1       0.112  10.909  14.076  1.00  0.00    -0.390 OA
HETATM   33  H46 UNL     1       0.413   9.998  13.911  1.00  0.00     0.210 HD
ENDBRANCH  20  32
BRANCH  19  34
HETATM   34  O1  UNL     1      -1.699   8.492  14.095  1.00  0.00    -0.393 OA
HETATM   35  H44 UNL     1      -2.360   8.552  13.383  1.00  0.00     0.210 HD
ENDBRANCH  19  34
TORSDOF 7
ENDMDL
MODEL 8
REMARK minimizedAffinity -7.11459255
REMARK CNNscore 0.34573096
REMARK CNNaffinity 5.60876703
REMARK  7 active torsions:
REMARK  status: ('A' for Active; 'I' for Inactive)
REMARK    1  A    between atoms: C4_4  and  C5_5 
REMARK    2  A    between atoms: C5_5  and  C6_6 
REMARK    3  A    between atoms: C6_6  and  C7_7 
REMARK    4  A    between atoms: C7_7  and  C9_9 
REMARK    5  A    between atoms: C27_27  and  O1_28 
REMARK    6  A    between atoms: C28_29  and  O2_30 
REMARK    7  A    between atoms: C29_31  and  O3_32 
ROOT
HETATM    1  C9  UNL     1       2.771  11.711  20.390  1.00  0.00    -0.002 C 
HETATM    2  C10 UNL     1       1.807  10.633  20.970  1.00  0.00     0.007 C 
HETATM    3  C11 UNL     1       0.455  10.781  20.255  1.00  0.00     0.015 C 
HETATM    4  C12 UNL     1       0.760  11.637  19.017  1.00  0.00    -0.013 C 
HETATM    5  C13 UNL     1       1.337  10.675  17.930  1.00  0.00     0.021 C 
HETATM    6  C14 UNL     1      -0.384  12.372  18.322  1.00  0.00    -0.068 C 
HETATM    7  C15 UNL     1      -0.136  13.510  17.622  1.00  0.00    -0.065 C 
HETATM    8  C16 UNL     1       1.265  14.142  17.621  1.00  0.00     0.036 C 
HETATM    9  C17 UNL     1       2.373  13.453  18.449  1.00  0.00     0.015 C 
HETATM   10  C18 UNL     1       1.793  12.660  19.626  1.00  0.00    -0.029 C 
HETATM   11  C19 UNL     1       1.146  13.657  20.638  1.00  0.00     0.016 C 
HETATM   12  C20 UNL     1      -1.235  14.255  16.812  1.00  0.00     0.012 C 
HETATM   13  C21 UNL     1      -1.561  15.564  17.581  1.00  0.00     0.023 C 
HETATM   14  C22 UNL     1      -2.587  13.421  16.702  1.00  0.00     0.007 C 
HETATM   15  C23 UNL     1      -2.869  12.676  18.012  1.00  0.00     0.010 C 
HETATM   16  C24 UNL     1      -1.745  11.734  18.405  1.00  0.00     0.036 C 
HETATM   17  C25 UNL     1      -2.708  12.558  15.396  1.00  0.00     0.018 C 
HETATM   18  C26 UNL     1      -3.694  11.389  15.486  1.00  0.00     0.013 C 
HETATM   19  C27 UNL     1      -1.335  12.132  14.860  1.00  0.00     0.153 C 
HETATM   20  C28 UNL     1      -0.473  13.355  14.486  1.00  0.00     0.177 C 
HETATM   21  C29 UNL     1      -0.815  14.601  15.342  1.00  0.00     0.162 C 
ENDROOT
BRANCH   1  22
HETATM   22  C7  UNL     1       3.730  12.276  21.486  1.00  0.00    -0.014 C 
HETATM   23  C8  UNL     1       3.055  12.190  22.868  1.00  0.00     0.010 C 
BRANCH  22  24
HETATM   24  C6  UNL     1       5.093  11.547  21.510  1.00  0.00     0.008 C 
BRANCH  24  25
HETATM   25  C5  UNL     1       5.816  11.586  22.863  1.00  0.00     0.028 C 
BRANCH  25  26
HETATM   26  C4  UNL     1       6.483  12.919  23.079  1.00  0.00    -0.025 C 
HETATM   27  C2  UNL     1       7.801  13.178  23.195  1.00  0.00    -0.091 C 
HETATM   28  C1  UNL     1       8.901  12.157  23.101  1.00  0.00     0.042 C 
HETATM   29  C3  UNL     1       8.286  14.586  23.423  1.00  0.00     0.042 C 
ENDBRANCH  25  26
ENDBRANCH  24  25
ENDBRANCH  22  24
ENDBRANCH   1  22
BRANCH  21  30
HETATM   30  O3  UNL     1       0.198  15.601  15.213  1.00  0.00    -0.392 OA
HETATM   31  H48 UNL     1      -0.110  16.415  15.640  1.00  0.00     0.210 HD
ENDBRANCH  21  30
BRANCH  20  32
HETATM   32  O2  UNL     1       0.907  12.976  14.552  1.00  0.00    -0.390 OA
HETATM   33  H46 UNL     1       0.982  12.122  14.091  1.00  0.00     0.210 HD
ENDBRANCH  20  32
BRANCH  19  34
HETATM   34  O1  UNL     1      -1.452  11.293  13.703  1.00  0.00    -0.393 OA
HETATM   35  H44 UNL     1      -1.990  11.763  13.041  1.00  0.00     0.210 HD
ENDBRANCH  19  34
TORSDOF 7
ENDMDL
MODEL 9
REMARK minimizedAffinity -8.57522011
REMARK CNNscore 0.293124855
REMARK CNNaffinity 6.30165625
REMARK  7 active torsions:
REMARK  status: ('A' for Active; 'I' for Inactive)
REMARK    1  A    between atoms: C4_4  and  C5_5 
REMARK    2  A    between atoms: C5_5  and  C6_6 
REMARK    3  A    between atoms: C6_6  and  C7_7 
REMARK    4  A    between atoms: C7_7  and  C9_9 
REMARK    5  A    between atoms: C27_27  and  O1_28 
REMARK    6  A    between atoms: C28_29  and  O2_30 
REMARK    7  A    between atoms: C29_31  and  O3_32 
ROOT
HETATM    1  C9  UNL     1      -2.632   5.045  13.193  1.00  0.00    -0.002 C 
HETATM    2  C10 UNL     1      -2.028   4.768  11.783  1.00  0.00     0.007 C 
HETATM    3  C11 UNL     1      -0.796   5.671  11.617  1.00  0.00     0.015 C 
HETATM    4  C12 UNL     1      -0.462   6.142  13.040  1.00  0.00    -0.013 C 
HETATM    5  C13 UNL     1       0.351   4.996  13.720  1.00  0.00     0.021 C 
HETATM    6  C14 UNL     1       0.392   7.394  13.227  1.00  0.00    -0.068 C 
HETATM    7  C15 UNL     1       0.269   8.140  14.356  1.00  0.00    -0.065 C 
HETATM    8  C16 UNL     1      -0.813   7.815  15.398  1.00  0.00     0.036 C 
HETATM    9  C17 UNL     1      -1.759   6.626  15.116  1.00  0.00     0.015 C 
HETATM   10  C18 UNL     1      -1.914   6.368  13.613  1.00  0.00    -0.029 C 
HETATM   11  C19 UNL     1      -2.648   7.582  12.963  1.00  0.00     0.016 C 
HETATM   12  C20 UNL     1       1.173   9.370  14.654  1.00  0.00     0.012 C 
HETATM   13  C21 UNL     1       0.291  10.637  14.489  1.00  0.00     0.023 C 
HETATM   14  C22 UNL     1       2.386   9.501  13.631  1.00  0.00     0.007 C 
HETATM   15  C23 UNL     1       1.944   9.107  12.216  1.00  0.00     0.010 C 
HETATM   16  C24 UNL     1       1.395   7.693  12.145  1.00  0.00     0.036 C 
HETATM   17  C25 UNL     1       3.722   8.842  14.127  1.00  0.00     0.018 C 
HETATM   18  C26 UNL     1       4.719   8.492  13.017  1.00  0.00     0.013 C 
HETATM   19  C27 UNL     1       3.465   7.668  15.080  1.00  0.00     0.153 C 
HETATM   20  C28 UNL     1       2.717   8.127  16.349  1.00  0.00     0.177 C 
HETATM   21  C29 UNL     1       1.810   9.356  16.086  1.00  0.00     0.162 C 
ENDROOT
BRANCH   1  22
HETATM   22  C7  UNL     1      -4.192   4.959  13.178  1.00  0.00    -0.014 C 
HETATM   23  C8  UNL     1      -4.794   6.374  13.086  1.00  0.00     0.010 C 
BRANCH  22  24
HETATM   24  C6  UNL     1      -4.723   4.075  12.027  1.00  0.00     0.008 C 
BRANCH  24  25
HETATM   25  C5  UNL     1      -6.012   3.308  12.351  1.00  0.00     0.028 C 
BRANCH  25  26
HETATM   26  C4  UNL     1      -7.211   4.216  12.281  1.00  0.00    -0.025 C 
HETATM   27  C2  UNL     1      -7.892   4.772  13.303  1.00  0.00    -0.091 C 
HETATM   28  C1  UNL     1      -7.560   4.610  14.761  1.00  0.00     0.042 C 
HETATM   29  C3  UNL     1      -9.085   5.652  13.038  1.00  0.00     0.042 C 
ENDBRANCH  25  26
ENDBRANCH  24  25
ENDBRANCH  22  24
ENDBRANCH   1  22
BRANCH  21  30
HETATM   30  O3  UNL     1       0.895   9.554  17.166  1.00  0.00    -0.392 OA
HETATM   31  H48 UNL     1       0.444  10.403  17.042  1.00  0.00     0.210 HD
ENDBRANCH  21  30
BRANCH  20  32
HETATM   32  O2  UNL     1       2.016   7.004  16.895  1.00  0.00    -0.390 OA
HETATM   33  H46 UNL     1       2.645   6.260  16.898  1.00  0.00     0.210 HD
ENDBRANCH  20  32
BRANCH  19  34
HETATM   34  O1  UNL     1       4.685   7.031  15.482  1.00  0.00    -0.393 OA
HETATM   35  H44 UNL     1       5.270   7.710  15.864  1.00  0.00     0.210 HD
ENDBRANCH  19  34
TORSDOF 7
ENDMDL
