MODEL 1
REMARK minimizedAffinity -10.7959585
REMARK  0 active torsions:
REMARK  status: ('A' for Active; 'I' for Inactive)
ROOT
HETATM    1  C1  UNL     1      -7.960  46.618 -20.312  1.00  0.00     0.023 C 
HETATM    2  C2  UNL     1      -7.421  47.907 -19.672  1.00  0.00     0.017 C 
HETATM    3  C3  UNL     1      -8.646  48.789 -19.315  1.00  0.00     0.023 C 
HETATM    4  C4  UNL     1      -6.731  47.526 -18.350  1.00  0.00     0.135 C 
HETATM    5  O1  UNL     1      -7.333  47.519 -17.273  1.00  0.00    -0.297 OA
HETATM    6  C5  UNL     1      -5.309  47.026 -18.409  1.00  0.00     0.080 C 
HETATM    7  C6  UNL     1      -4.441  47.928 -19.278  1.00  0.00     0.017 C 
HETATM    8  C7  UNL     1      -4.980  48.158 -20.724  1.00  0.00    -0.035 C 
HETATM    9  C8  UNL     1      -4.935  46.782 -21.447  1.00  0.00     0.016 C 
HETATM   10  C9  UNL     1      -6.431  48.733 -20.573  1.00  0.00     0.009 C 
HETATM   11  C10 UNL     1      -7.015  49.111 -21.946  1.00  0.00     0.007 C 
HETATM   12  C11 UNL     1      -6.186  50.216 -22.591  1.00  0.00     0.011 C 
HETATM   13  C12 UNL     1      -4.697  49.863 -22.850  1.00  0.00    -0.032 C 
HETATM   14  C13 UNL     1      -4.667  48.794 -23.980  1.00  0.00     0.016 C 
HETATM   15  C14 UNL     1      -4.043  49.193 -21.546  1.00  0.00     0.003 C 
HETATM   16  C15 UNL     1      -3.386  50.265 -20.658  1.00  0.00     0.006 C 
HETATM   17  C16 UNL     1      -2.285  51.060 -21.365  1.00  0.00     0.006 C 
HETATM   18  C17 UNL     1      -2.370  51.055 -22.895  1.00  0.00    -0.000 C 
HETATM   19  C18 UNL     1      -1.438  52.117 -23.540  1.00  0.00     0.009 C 
HETATM   20  C19 UNL     1       0.084  52.086 -23.275  1.00  0.00     0.067 A 
HETATM   21  C20 UNL     1       0.688  52.780 -24.536  1.00  0.00     0.140 A 
HETATM   22  C21 UNL     1      -0.483  53.098 -25.474  1.00  0.00     0.042 C 
HETATM   23  C22 UNL     1      -1.534  52.057 -25.084  1.00  0.00    -0.037 C 
HETATM   24  C23 UNL     1      -1.127  50.695 -25.708  1.00  0.00     0.015 C 
HETATM   25  C24 UNL     1      -2.962  52.426 -25.497  1.00  0.00     0.010 C 
HETATM   26  C25 UNL     1      -3.971  51.424 -24.909  1.00  0.00     0.011 C 
HETATM   27  C26 UNL     1      -3.872  51.205 -23.351  1.00  0.00    -0.032 C 
HETATM   28  C27 UNL     1      -4.468  52.521 -22.744  1.00  0.00     0.016 C 
HETATM   29  O2  UNL     1       1.342  53.999 -24.159  1.00  0.00    -0.313 OA
HETATM   30  C28 UNL     1       1.330  54.134 -22.804  1.00  0.00     0.297 A 
HETATM   31  O3  UNL     1       1.849  55.043 -22.178  1.00  0.00    -0.262 OA
HETATM   32  C29 UNL     1       0.635  52.979 -22.218  1.00  0.00     0.175 A 
HETATM   33  C30 UNL     1       1.035  52.448 -20.862  1.00  0.00     0.218 A 
HETATM   34  O4  UNL     1      -0.163  53.212 -21.057  1.00  0.00    -0.364 OA
ENDROOT
TORSDOF 0
ENDMDL
MODEL 2
REMARK minimizedAffinity -10.3975029
REMARK  0 active torsions:
REMARK  status: ('A' for Active; 'I' for Inactive)
ROOT
HETATM    1  C1  UNL     1      -2.607  48.730 -15.902  1.00  0.00     0.023 C 
HETATM    2  C2  UNL     1      -2.366  50.143 -16.458  1.00  0.00     0.017 C 
HETATM    3  C3  UNL     1      -3.361  51.093 -15.740  1.00  0.00     0.023 C 
HETATM    4  C4  UNL     1      -0.946  50.577 -16.052  1.00  0.00     0.135 C 
HETATM    5  O1  UNL     1      -0.723  51.200 -15.011  1.00  0.00    -0.297 OA
HETATM    6  C5  UNL     1       0.209  50.106 -16.899  1.00  0.00     0.080 C 
HETATM    7  C6  UNL     1      -0.064  50.329 -18.381  1.00  0.00     0.017 C 
HETATM    8  C7  UNL     1      -1.392  49.699 -18.903  1.00  0.00    -0.035 C 
HETATM    9  C8  UNL     1      -1.240  48.156 -18.777  1.00  0.00     0.016 C 
HETATM   10  C9  UNL     1      -2.544  50.284 -18.014  1.00  0.00     0.009 C 
HETATM   11  C10 UNL     1      -3.919  49.817 -18.524  1.00  0.00     0.007 C 
HETATM   12  C11 UNL     1      -4.168  50.336 -19.936  1.00  0.00     0.011 C 
HETATM   13  C12 UNL     1      -3.143  49.870 -21.004  1.00  0.00    -0.032 C 
HETATM   14  C13 UNL     1      -3.367  48.345 -21.222  1.00  0.00     0.016 C 
HETATM   15  C14 UNL     1      -1.643  50.057 -20.463  1.00  0.00     0.003 C 
HETATM   16  C15 UNL     1      -1.086  51.431 -20.875  1.00  0.00     0.006 C 
HETATM   17  C16 UNL     1      -1.059  51.656 -22.390  1.00  0.00     0.006 C 
HETATM   18  C17 UNL     1      -2.026  50.776 -23.188  1.00  0.00    -0.000 C 
HETATM   19  C18 UNL     1      -2.186  51.257 -24.655  1.00  0.00     0.009 C 
HETATM   20  C19 UNL     1      -0.956  51.355 -25.585  1.00  0.00     0.067 A 
HETATM   21  C20 UNL     1      -1.563  51.188 -27.013  1.00  0.00     0.140 A 
HETATM   22  C21 UNL     1      -3.064  50.933 -26.832  1.00  0.00     0.042 C 
HETATM   23  C22 UNL     1      -3.147  50.324 -25.432  1.00  0.00    -0.037 C 
HETATM   24  C23 UNL     1      -2.689  48.844 -25.515  1.00  0.00     0.015 C 
HETATM   25  C24 UNL     1      -4.536  50.417 -24.791  1.00  0.00     0.010 C 
HETATM   26  C25 UNL     1      -4.488  49.953 -23.325  1.00  0.00     0.011 C 
HETATM   27  C26 UNL     1      -3.404  50.666 -22.429  1.00  0.00    -0.032 C 
HETATM   28  C27 UNL     1      -3.986  52.103 -22.201  1.00  0.00     0.016 C 
HETATM   29  O2  UNL     1      -1.372  52.391 -27.771  1.00  0.00    -0.313 OA
HETATM   30  C28 UNL     1      -0.628  53.279 -27.055  1.00  0.00     0.297 A 
HETATM   31  O3  UNL     1      -0.257  54.373 -27.448  1.00  0.00    -0.262 OA
HETATM   32  C29 UNL     1      -0.300  52.682 -25.752  1.00  0.00     0.175 A 
HETATM   33  C30 UNL     1       0.998  53.017 -25.057  1.00  0.00     0.218 A 
HETATM   34  O4  UNL     1      -0.259  53.554 -24.622  1.00  0.00    -0.364 OA
ENDROOT
TORSDOF 0
ENDMDL
MODEL 3
REMARK minimizedAffinity -10.2963867
REMARK  0 active torsions:
REMARK  status: ('A' for Active; 'I' for Inactive)
ROOT
HETATM    1  C1  UNL     1      -8.353  44.913 -21.164  1.00  0.00     0.023 C 
HETATM    2  C2  UNL     1      -7.327  44.897 -22.309  1.00  0.00     0.017 C 
HETATM    3  C3  UNL     1      -6.807  43.441 -22.438  1.00  0.00     0.023 C 
HETATM    4  C4  UNL     1      -8.070  45.234 -23.614  1.00  0.00     0.135 C 
HETATM    5  O1  UNL     1      -8.549  44.361 -24.341  1.00  0.00    -0.297 OA
HETATM    6  C5  UNL     1      -8.321  46.687 -23.933  1.00  0.00     0.080 C 
HETATM    7  C6  UNL     1      -7.059  47.520 -23.752  1.00  0.00     0.017 C 
HETATM    8  C7  UNL     1      -6.390  47.396 -22.348  1.00  0.00    -0.035 C 
HETATM    9  C8  UNL     1      -7.388  47.997 -21.318  1.00  0.00     0.016 C 
HETATM   10  C9  UNL     1      -6.107  45.871 -22.122  1.00  0.00     0.009 C 
HETATM   11  C10 UNL     1      -5.333  45.647 -20.809  1.00  0.00     0.007 C 
HETATM   12  C11 UNL     1      -3.970  46.326 -20.871  1.00  0.00     0.011 C 
HETATM   13  C12 UNL     1      -4.005  47.863 -21.082  1.00  0.00    -0.032 C 
HETATM   14  C13 UNL     1      -4.573  48.494 -19.779  1.00  0.00     0.016 C 
HETATM   15  C14 UNL     1      -5.012  48.245 -22.273  1.00  0.00     0.003 C 
HETATM   16  C15 UNL     1      -4.262  48.319 -23.615  1.00  0.00     0.006 C 
HETATM   17  C16 UNL     1      -3.125  49.345 -23.629  1.00  0.00     0.006 C 
HETATM   18  C17 UNL     1      -2.583  49.723 -22.247  1.00  0.00    -0.000 C 
HETATM   19  C18 UNL     1      -1.246  50.508 -22.335  1.00  0.00     0.009 C 
HETATM   20  C19 UNL     1      -1.170  51.839 -23.116  1.00  0.00     0.067 A 
HETATM   21  C20 UNL     1       0.010  52.598 -22.430  1.00  0.00     0.140 A 
HETATM   22  C21 UNL     1       0.490  51.719 -21.270  1.00  0.00     0.042 C 
HETATM   23  C22 UNL     1      -0.750  50.895 -20.920  1.00  0.00    -0.037 C 
HETATM   24  C23 UNL     1      -1.723  51.796 -20.114  1.00  0.00     0.015 C 
HETATM   25  C24 UNL     1      -0.448  49.610 -20.144  1.00  0.00     0.010 C 
HETATM   26  C25 UNL     1      -1.718  48.755 -19.996  1.00  0.00     0.011 C 
HETATM   27  C26 UNL     1      -2.476  48.437 -21.341  1.00  0.00    -0.032 C 
HETATM   28  C27 UNL     1      -1.564  47.379 -22.050  1.00  0.00     0.016 C 
HETATM   29  O2  UNL     1       1.082  52.784 -23.365  1.00  0.00    -0.313 OA
HETATM   30  C28 UNL     1       0.710  52.336 -24.595  1.00  0.00     0.297 A 
HETATM   31  O3  UNL     1       1.387  52.400 -25.608  1.00  0.00    -0.262 OA
HETATM   32  C29 UNL     1      -0.661  51.810 -24.516  1.00  0.00     0.175 A 
HETATM   33  C30 UNL     1      -1.593  51.908 -25.699  1.00  0.00     0.218 A 
HETATM   34  O4  UNL     1      -0.976  50.671 -25.316  1.00  0.00    -0.364 OA
ENDROOT
TORSDOF 0
ENDMDL
MODEL 4
REMARK minimizedAffinity -10.1893187
REMARK  0 active torsions:
REMARK  status: ('A' for Active; 'I' for Inactive)
ROOT
HETATM    1  C1  UNL     1      -1.709  52.345 -26.873  1.00  0.00     0.023 C 
HETATM    2  C2  UNL     1      -0.605  51.667 -26.045  1.00  0.00     0.017 C 
HETATM    3  C3  UNL     1       0.098  50.640 -26.972  1.00  0.00     0.023 C 
HETATM    4  C4  UNL     1       0.437  52.739 -25.677  1.00  0.00     0.135 C 
HETATM    5  O1  UNL     1       1.425  52.964 -26.381  1.00  0.00    -0.297 OA
HETATM    6  C5  UNL     1       0.159  53.619 -24.484  1.00  0.00     0.080 C 
HETATM    7  C6  UNL     1      -0.277  52.797 -23.279  1.00  0.00     0.017 C 
HETATM    8  C7  UNL     1      -1.495  51.856 -23.535  1.00  0.00    -0.035 C 
HETATM    9  C8  UNL     1      -2.718  52.771 -23.829  1.00  0.00     0.016 C 
HETATM   10  C9  UNL     1      -1.103  50.937 -24.744  1.00  0.00     0.009 C 
HETATM   11  C10 UNL     1      -2.193  49.883 -25.006  1.00  0.00     0.007 C 
HETATM   12  C11 UNL     1      -2.342  48.959 -23.803  1.00  0.00     0.011 C 
HETATM   13  C12 UNL     1      -2.742  49.658 -22.476  1.00  0.00    -0.032 C 
HETATM   14  C13 UNL     1      -4.211  50.146 -22.638  1.00  0.00     0.016 C 
HETATM   15  C14 UNL     1      -1.835  50.959 -22.230  1.00  0.00     0.003 C 
HETATM   16  C15 UNL     1      -0.596  50.604 -21.389  1.00  0.00     0.006 C 
HETATM   17  C16 UNL     1      -0.931  50.013 -20.017  1.00  0.00     0.006 C 
HETATM   18  C17 UNL     1      -2.328  49.393 -19.908  1.00  0.00    -0.000 C 
HETATM   19  C18 UNL     1      -2.496  48.541 -18.620  1.00  0.00     0.009 C 
HETATM   20  C19 UNL     1      -2.287  49.178 -17.228  1.00  0.00     0.067 A 
HETATM   21  C20 UNL     1      -3.163  48.293 -16.287  1.00  0.00     0.140 A 
HETATM   22  C21 UNL     1      -3.872  47.264 -17.175  1.00  0.00     0.042 C 
HETATM   23  C22 UNL     1      -3.928  47.960 -18.536  1.00  0.00    -0.037 C 
HETATM   24  C23 UNL     1      -5.059  49.022 -18.496  1.00  0.00     0.015 C 
HETATM   25  C24 UNL     1      -4.134  47.006 -19.717  1.00  0.00     0.010 C 
HETATM   26  C25 UNL     1      -3.993  47.758 -21.051  1.00  0.00     0.011 C 
HETATM   27  C26 UNL     1      -2.663  48.586 -21.221  1.00  0.00    -0.032 C 
HETATM   28  C27 UNL     1      -1.563  47.494 -21.451  1.00  0.00     0.016 C 
HETATM   29  O2  UNL     1      -2.329  47.611 -15.340  1.00  0.00    -0.313 OA
HETATM   30  C28 UNL     1      -1.037  48.019 -15.478  1.00  0.00     0.297 A 
HETATM   31  O3  UNL     1      -0.101  47.656 -14.786  1.00  0.00    -0.262 OA
HETATM   32  C29 UNL     1      -0.964  49.008 -16.564  1.00  0.00     0.175 A 
HETATM   33  C30 UNL     1       0.050  50.125 -16.520  1.00  0.00     0.218 A 
HETATM   34  O4  UNL     1       0.200  48.994 -17.389  1.00  0.00    -0.364 OA
ENDROOT
TORSDOF 0
ENDMDL
MODEL 5
REMARK minimizedAffinity -9.68615055
REMARK  0 active torsions:
REMARK  status: ('A' for Active; 'I' for Inactive)
ROOT
HETATM    1  C1  UNL     1      -0.230  53.800 -27.072  1.00  0.00     0.023 C 
HETATM    2  C2  UNL     1       0.042  52.314 -26.784  1.00  0.00     0.017 C 
HETATM    3  C3  UNL     1       0.303  51.623 -28.148  1.00  0.00     0.023 C 
HETATM    4  C4  UNL     1       1.343  52.221 -25.967  1.00  0.00     0.135 C 
HETATM    5  O1  UNL     1       2.445  52.080 -26.503  1.00  0.00    -0.297 OA
HETATM    6  C5  UNL     1       1.264  52.439 -24.477  1.00  0.00     0.080 C 
HETATM    7  C6  UNL     1       0.132  51.630 -23.858  1.00  0.00     0.017 C 
HETATM    8  C7  UNL     1      -1.269  51.867 -24.501  1.00  0.00    -0.035 C 
HETATM    9  C8  UNL     1      -1.658  53.344 -24.205  1.00  0.00     0.016 C 
HETATM   10  C9  UNL     1      -1.116  51.561 -26.032  1.00  0.00     0.009 C 
HETATM   11  C10 UNL     1      -2.477  51.648 -26.746  1.00  0.00     0.007 C 
HETATM   12  C11 UNL     1      -3.435  50.598 -26.198  1.00  0.00     0.011 C 
HETATM   13  C12 UNL     1      -3.748  50.713 -24.682  1.00  0.00    -0.032 C 
HETATM   14  C13 UNL     1      -4.600  52.000 -24.484  1.00  0.00     0.016 C 
HETATM   15  C14 UNL     1      -2.394  50.906 -23.842  1.00  0.00     0.003 C 
HETATM   16  C15 UNL     1      -1.844  49.544 -23.381  1.00  0.00     0.006 C 
HETATM   17  C16 UNL     1      -2.817  48.751 -22.505  1.00  0.00     0.006 C 
HETATM   18  C17 UNL     1      -4.290  49.146 -22.659  1.00  0.00    -0.000 C 
HETATM   19  C18 UNL     1      -5.248  48.117 -22.001  1.00  0.00     0.009 C 
HETATM   20  C19 UNL     1      -5.130  47.791 -20.495  1.00  0.00     0.067 A 
HETATM   21  C20 UNL     1      -6.570  47.324 -20.110  1.00  0.00     0.140 A 
HETATM   22  C21 UNL     1      -7.438  47.475 -21.364  1.00  0.00     0.042 C 
HETATM   23  C22 UNL     1      -6.720  48.570 -22.155  1.00  0.00    -0.037 C 
HETATM   24  C23 UNL     1      -7.050  49.939 -21.503  1.00  0.00     0.015 C 
HETATM   25  C24 UNL     1      -7.067  48.593 -23.647  1.00  0.00     0.010 C 
HETATM   26  C25 UNL     1      -6.171  49.593 -24.396  1.00  0.00     0.011 C 
HETATM   27  C26 UNL     1      -4.621  49.402 -24.180  1.00  0.00    -0.032 C 
HETATM   28  C27 UNL     1      -4.278  48.116 -25.007  1.00  0.00     0.016 C 
HETATM   29  O2  UNL     1      -6.547  45.948 -19.707  1.00  0.00    -0.313 OA
HETATM   30  C28 UNL     1      -5.266  45.490 -19.682  1.00  0.00     0.297 A 
HETATM   31  O3  UNL     1      -4.917  44.374 -19.335  1.00  0.00    -0.262 OA
HETATM   32  C29 UNL     1      -4.365  46.578 -20.092  1.00  0.00     0.175 A 
HETATM   33  C30 UNL     1      -2.968  46.675 -19.526  1.00  0.00     0.218 A 
HETATM   34  O4  UNL     1      -3.218  46.225 -20.865  1.00  0.00    -0.364 OA
ENDROOT
TORSDOF 0
ENDMDL
MODEL 6
REMARK minimizedAffinity -9.16548824
REMARK  0 active torsions:
REMARK  status: ('A' for Active; 'I' for Inactive)
ROOT
HETATM    1  C1  UNL     1      -9.061  44.757 -21.334  1.00  0.00     0.023 C 
HETATM    2  C2  UNL     1      -7.938  44.525 -22.358  1.00  0.00     0.017 C 
HETATM    3  C3  UNL     1      -7.164  43.257 -21.909  1.00  0.00     0.023 C 
HETATM    4  C4  UNL     1      -8.592  44.205 -23.714  1.00  0.00     0.135 C 
HETATM    5  O1  UNL     1      -8.838  43.049 -24.068  1.00  0.00    -0.297 OA
HETATM    6  C5  UNL     1      -9.056  45.358 -24.568  1.00  0.00     0.080 C 
HETATM    7  C6  UNL     1      -7.981  46.431 -24.681  1.00  0.00     0.017 C 
HETATM    8  C7  UNL     1      -7.446  46.967 -23.317  1.00  0.00    -0.035 C 
HETATM    9  C8  UNL     1      -8.631  47.694 -22.621  1.00  0.00     0.016 C 
HETATM   10  C9  UNL     1      -6.928  45.720 -22.520  1.00  0.00     0.009 C 
HETATM   11  C10 UNL     1      -6.265  46.151 -21.199  1.00  0.00     0.007 C 
HETATM   12  C11 UNL     1      -5.040  47.015 -21.476  1.00  0.00     0.011 C 
HETATM   13  C12 UNL     1      -5.317  48.327 -22.256  1.00  0.00    -0.032 C 
HETATM   14  C13 UNL     1      -6.114  49.268 -21.307  1.00  0.00     0.016 C 
HETATM   15  C14 UNL     1      -6.249  48.038 -23.530  1.00  0.00     0.003 C 
HETATM   16  C15 UNL     1      -5.391  47.760 -24.778  1.00  0.00     0.006 C 
HETATM   17  C16 UNL     1      -4.452  48.912 -25.149  1.00  0.00     0.006 C 
HETATM   18  C17 UNL     1      -4.126  49.871 -23.999  1.00  0.00    -0.000 C 
HETATM   19  C18 UNL     1      -2.942  50.816 -24.340  1.00  0.00     0.009 C 
HETATM   20  C19 UNL     1      -3.018  51.754 -25.566  1.00  0.00     0.067 A 
HETATM   21  C20 UNL     1      -2.061  52.928 -25.187  1.00  0.00     0.140 A 
HETATM   22  C21 UNL     1      -1.556  52.651 -23.766  1.00  0.00     0.042 C 
HETATM   23  C22 UNL     1      -2.665  51.786 -23.165  1.00  0.00    -0.037 C 
HETATM   24  C23 UNL     1      -3.856  52.708 -22.790  1.00  0.00     0.015 C 
HETATM   25  C24 UNL     1      -2.227  50.962 -21.950  1.00  0.00     0.010 C 
HETATM   26  C25 UNL     1      -3.340  49.989 -21.525  1.00  0.00     0.011 C 
HETATM   27  C26 UNL     1      -3.892  49.056 -22.669  1.00  0.00    -0.032 C 
HETATM   28  C27 UNL     1      -2.744  48.014 -22.896  1.00  0.00     0.016 C 
HETATM   29  O2  UNL     1      -0.948  52.965 -26.090  1.00  0.00    -0.313 OA
HETATM   30  C28 UNL     1      -1.111  52.033 -27.068  1.00  0.00     0.297 A 
HETATM   31  O3  UNL     1      -0.357  51.853 -28.010  1.00  0.00    -0.262 OA
HETATM   32  C29 UNL     1      -2.372  51.313 -26.834  1.00  0.00     0.175 A 
HETATM   33  C30 UNL     1      -3.182  50.783 -27.992  1.00  0.00     0.218 A 
HETATM   34  O4  UNL     1      -2.403  49.922 -27.151  1.00  0.00    -0.364 OA
ENDROOT
TORSDOF 0
ENDMDL
MODEL 7
REMARK minimizedAffinity -9.08618927
REMARK  0 active torsions:
REMARK  status: ('A' for Active; 'I' for Inactive)
ROOT
HETATM    1  C1  UNL     1      -8.014  45.816 -18.245  1.00  0.00     0.023 C 
HETATM    2  C2  UNL     1      -7.583  45.720 -19.718  1.00  0.00     0.017 C 
HETATM    3  C3  UNL     1      -7.289  44.225 -20.012  1.00  0.00     0.023 C 
HETATM    4  C4  UNL     1      -8.783  46.131 -20.590  1.00  0.00     0.135 C 
HETATM    5  O1  UNL     1      -9.597  45.308 -21.016  1.00  0.00    -0.297 OA
HETATM    6  C5  UNL     1      -9.027  47.602 -20.815  1.00  0.00     0.080 C 
HETATM    7  C6  UNL     1      -7.745  48.321 -21.216  1.00  0.00     0.017 C 
HETATM    8  C7  UNL     1      -6.552  48.129 -20.230  1.00  0.00    -0.035 C 
HETATM    9  C8  UNL     1      -6.959  48.806 -18.891  1.00  0.00     0.016 C 
HETATM   10  C9  UNL     1      -6.325  46.583 -20.100  1.00  0.00     0.009 C 
HETATM   11  C10 UNL     1      -5.085  46.282 -19.238  1.00  0.00     0.007 C 
HETATM   12  C11 UNL     1      -3.829  46.841 -19.897  1.00  0.00     0.011 C 
HETATM   13  C12 UNL     1      -3.825  48.377 -20.120  1.00  0.00    -0.032 C 
HETATM   14  C13 UNL     1      -3.726  49.045 -18.718  1.00  0.00     0.016 C 
HETATM   15  C14 UNL     1      -5.210  48.854 -20.777  1.00  0.00     0.003 C 
HETATM   16  C15 UNL     1      -5.104  48.872 -22.312  1.00  0.00     0.006 C 
HETATM   17  C16 UNL     1      -4.004  49.795 -22.843  1.00  0.00     0.006 C 
HETATM   18  C17 UNL     1      -2.892  50.115 -21.837  1.00  0.00    -0.000 C 
HETATM   19  C18 UNL     1      -1.663  50.781 -22.511  1.00  0.00     0.009 C 
HETATM   20  C19 UNL     1      -1.820  52.106 -23.290  1.00  0.00     0.067 A 
HETATM   21  C20 UNL     1      -0.403  52.755 -23.198  1.00  0.00     0.140 A 
HETATM   22  C21 UNL     1       0.455  51.828 -22.329  1.00  0.00     0.042 C 
HETATM   23  C22 UNL     1      -0.578  51.113 -21.457  1.00  0.00    -0.037 C 
HETATM   24  C23 UNL     1      -1.035  52.089 -20.340  1.00  0.00     0.015 C 
HETATM   25  C24 UNL     1      -0.079  49.800 -20.845  1.00  0.00     0.010 C 
HETATM   26  C25 UNL     1      -1.229  49.058 -20.143  1.00  0.00     0.011 C 
HETATM   27  C26 UNL     1      -2.513  48.818 -21.024  1.00  0.00    -0.032 C 
HETATM   28  C27 UNL     1      -2.083  47.689 -22.022  1.00  0.00     0.016 C 
HETATM   29  O2  UNL     1       0.177  52.853 -24.506  1.00  0.00    -0.313 OA
HETATM   30  C28 UNL     1      -0.721  52.449 -25.445  1.00  0.00     0.297 A 
HETATM   31  O3  UNL     1      -0.541  52.461 -26.652  1.00  0.00    -0.262 OA
HETATM   32  C29 UNL     1      -1.964  52.043 -24.772  1.00  0.00     0.175 A 
HETATM   33  C30 UNL     1      -3.301  52.231 -25.446  1.00  0.00     0.218 A 
HETATM   34  O4  UNL     1      -2.683  50.942 -25.326  1.00  0.00    -0.364 OA
ENDROOT
TORSDOF 0
ENDMDL
MODEL 8
REMARK minimizedAffinity -8.83271694
REMARK  0 active torsions:
REMARK  status: ('A' for Active; 'I' for Inactive)
ROOT
HETATM    1  C1  UNL     1      -0.296  50.952 -25.767  1.00  0.00     0.023 C 
HETATM    2  C2  UNL     1      -1.398  51.700 -24.999  1.00  0.00     0.017 C 
HETATM    3  C3  UNL     1      -0.796  53.052 -24.533  1.00  0.00     0.023 C 
HETATM    4  C4  UNL     1      -2.531  52.021 -25.990  1.00  0.00     0.135 C 
HETATM    5  O1  UNL     1      -2.572  53.082 -26.619  1.00  0.00    -0.297 OA
HETATM    6  C5  UNL     1      -3.544  50.943 -26.285  1.00  0.00     0.080 C 
HETATM    7  C6  UNL     1      -4.059  50.303 -25.003  1.00  0.00     0.017 C 
HETATM    8  C7  UNL     1      -2.950  49.741 -24.061  1.00  0.00    -0.035 C 
HETATM    9  C8  UNL     1      -2.266  48.568 -24.818  1.00  0.00     0.016 C 
HETATM   10  C9  UNL     1      -1.979  50.933 -23.755  1.00  0.00     0.009 C 
HETATM   11  C10 UNL     1      -0.907  50.516 -22.731  1.00  0.00     0.007 C 
HETATM   12  C11 UNL     1      -1.555  50.146 -21.402  1.00  0.00     0.011 C 
HETATM   13  C12 UNL     1      -2.562  48.967 -21.461  1.00  0.00    -0.032 C 
HETATM   14  C13 UNL     1      -1.741  47.675 -21.742  1.00  0.00     0.016 C 
HETATM   15  C14 UNL     1      -3.581  49.157 -22.687  1.00  0.00     0.003 C 
HETATM   16  C15 UNL     1      -4.848  49.901 -22.228  1.00  0.00     0.006 C 
HETATM   17  C16 UNL     1      -5.608  49.188 -21.107  1.00  0.00     0.006 C 
HETATM   18  C17 UNL     1      -4.770  48.201 -20.287  1.00  0.00    -0.000 C 
HETATM   19  C18 UNL     1      -5.492  47.753 -18.988  1.00  0.00     0.009 C 
HETATM   20  C19 UNL     1      -6.873  47.063 -19.059  1.00  0.00     0.067 A 
HETATM   21  C20 UNL     1      -6.920  46.206 -17.755  1.00  0.00     0.140 A 
HETATM   22  C21 UNL     1      -5.567  46.384 -17.056  1.00  0.00     0.042 C 
HETATM   23  C22 UNL     1      -4.624  46.736 -18.207  1.00  0.00    -0.037 C 
HETATM   24  C23 UNL     1      -4.292  45.434 -18.983  1.00  0.00     0.015 C 
HETATM   25  C24 UNL     1      -3.335  47.437 -17.767  1.00  0.00     0.010 C 
HETATM   26  C25 UNL     1      -2.536  47.919 -18.990  1.00  0.00     0.011 C 
HETATM   27  C26 UNL     1      -3.341  48.809 -20.012  1.00  0.00    -0.032 C 
HETATM   28  C27 UNL     1      -3.497  50.185 -19.277  1.00  0.00     0.016 C 
HETATM   29  O2  UNL     1      -7.967  46.678 -16.896  1.00  0.00    -0.313 OA
HETATM   30  C28 UNL     1      -8.671  47.663 -17.518  1.00  0.00     0.297 A 
HETATM   31  O3  UNL     1      -9.651  48.231 -17.063  1.00  0.00    -0.262 OA
HETATM   32  C29 UNL     1      -8.091  47.894 -18.849  1.00  0.00     0.175 A 
HETATM   33  C30 UNL     1      -8.962  48.329 -20.003  1.00  0.00     0.218 A 
HETATM   34  O4  UNL     1      -8.075  49.237 -19.335  1.00  0.00    -0.364 OA
ENDROOT
TORSDOF 0
ENDMDL
MODEL 9
REMARK minimizedAffinity -8.81152916
REMARK  0 active torsions:
REMARK  status: ('A' for Active; 'I' for Inactive)
ROOT
HETATM    1  C1  UNL     1      -3.040  49.243 -19.164  1.00  0.00     0.023 C 
HETATM    2  C2  UNL     1      -3.323  50.058 -20.436  1.00  0.00     0.017 C 
HETATM    3  C3  UNL     1      -3.769  51.474 -19.984  1.00  0.00     0.023 C 
HETATM    4  C4  UNL     1      -1.997  50.219 -21.201  1.00  0.00     0.135 C 
HETATM    5  O1  UNL     1      -1.252  51.187 -21.026  1.00  0.00    -0.297 OA
HETATM    6  C5  UNL     1      -1.549  49.088 -22.092  1.00  0.00     0.080 C 
HETATM    7  C6  UNL     1      -2.682  48.609 -22.990  1.00  0.00     0.017 C 
HETATM    8  C7  UNL     1      -3.987  48.203 -22.238  1.00  0.00    -0.035 C 
HETATM    9  C8  UNL     1      -3.640  46.957 -21.373  1.00  0.00     0.016 C 
HETATM   10  C9  UNL     1      -4.417  49.448 -21.387  1.00  0.00     0.009 C 
HETATM   11  C10 UNL     1      -5.768  49.195 -20.692  1.00  0.00     0.007 C 
HETATM   12  C11 UNL     1      -6.868  48.987 -21.726  1.00  0.00     0.011 C 
HETATM   13  C12 UNL     1      -6.657  47.786 -22.686  1.00  0.00    -0.032 C 
HETATM   14  C13 UNL     1      -6.818  46.489 -21.842  1.00  0.00     0.016 C 
HETATM   15  C14 UNL     1      -5.163  47.789 -23.272  1.00  0.00     0.003 C 
HETATM   16  C15 UNL     1      -5.105  48.557 -24.606  1.00  0.00     0.006 C 
HETATM   17  C16 UNL     1      -6.020  47.978 -25.689  1.00  0.00     0.006 C 
HETATM   18  C17 UNL     1      -7.182  47.129 -25.163  1.00  0.00    -0.000 C 
HETATM   19  C18 UNL     1      -8.242  46.837 -26.259  1.00  0.00     0.009 C 
HETATM   20  C19 UNL     1      -7.839  46.111 -27.563  1.00  0.00     0.067 A 
HETATM   21  C20 UNL     1      -9.167  45.432 -28.026  1.00  0.00     0.140 A 
HETATM   22  C21 UNL     1     -10.220  45.732 -26.953  1.00  0.00     0.042 C 
HETATM   23  C22 UNL     1      -9.380  45.953 -25.694  1.00  0.00    -0.037 C 
HETATM   24  C23 UNL     1      -8.924  44.569 -25.162  1.00  0.00     0.015 C 
HETATM   25  C24 UNL     1     -10.100  46.737 -24.592  1.00  0.00     0.010 C 
HETATM   26  C25 UNL     1      -9.132  47.073 -23.446  1.00  0.00     0.011 C 
HETATM   27  C26 UNL     1      -7.803  47.802 -23.879  1.00  0.00    -0.032 C 
HETATM   28  C27 UNL     1      -8.264  49.257 -24.230  1.00  0.00     0.016 C 
HETATM   29  O2  UNL     1      -9.590  45.988 -29.279  1.00  0.00    -0.313 OA
HETATM   30  C28 UNL     1      -8.656  46.865 -29.738  1.00  0.00     0.297 A 
HETATM   31  O3  UNL     1      -8.707  47.463 -30.800  1.00  0.00    -0.262 OA
HETATM   32  C29 UNL     1      -7.551  46.933 -28.771  1.00  0.00     0.175 A 
HETATM   33  C30 UNL     1      -6.137  47.192 -29.234  1.00  0.00     0.218 A 
HETATM   34  O4  UNL     1      -6.921  48.200 -28.581  1.00  0.00    -0.364 OA
ENDROOT
TORSDOF 0
ENDMDL
