MODEL 1
REMARK minimizedAffinity -10.9551201
REMARK  0 active torsions:
REMARK  status: ('A' for Active; 'I' for Inactive)
ROOT
HETATM    1  C1  UNL     1      -8.861  48.081 -20.542  1.00  0.00     0.023 C 
HETATM    2  C2  UNL     1      -7.495  47.391 -20.751  1.00  0.00     0.017 C 
HETATM    3  C3  UNL     1      -7.747  46.111 -21.568  1.00  0.00     0.023 C 
HETATM    4  C4  UNL     1      -6.984  47.009 -19.358  1.00  0.00     0.135 C 
HETATM    5  O1  UNL     1      -7.317  45.966 -18.792  1.00  0.00    -0.297 OA
HETATM    6  C5  UNL     1      -6.112  48.017 -18.655  1.00  0.00     0.080 C 
HETATM    7  C6  UNL     1      -4.868  48.373 -19.462  1.00  0.00     0.017 C 
HETATM    8  C7  UNL     1      -4.986  48.194 -21.019  1.00  0.00    -0.035 C 
HETATM    9  C8  UNL     1      -4.478  46.767 -21.332  1.00  0.00     0.016 C 
HETATM   10  C9  UNL     1      -4.108  49.326 -21.712  1.00  0.00     0.003 C 
HETATM   11  C10 UNL     1      -2.604  49.253 -21.375  1.00  0.00     0.006 C 
HETATM   12  C11 UNL     1      -1.834  50.501 -21.817  1.00  0.00     0.006 C 
HETATM   13  C12 UNL     1      -2.028  50.821 -23.303  1.00  0.00    -0.000 C 
HETATM   14  C13 UNL     1      -1.217  52.039 -23.804  1.00  0.00     0.009 C 
HETATM   15  C14 UNL     1       0.301  52.137 -23.546  1.00  0.00     0.067 A 
HETATM   16  C15 UNL     1       0.809  53.036 -24.715  1.00  0.00     0.140 A 
HETATM   17  C16 UNL     1      -0.400  53.335 -25.610  1.00  0.00     0.042 C 
HETATM   18  C17 UNL     1      -1.334  52.152 -25.348  1.00  0.00    -0.037 C 
HETATM   19  C18 UNL     1      -0.803  50.925 -26.137  1.00  0.00     0.015 C 
HETATM   20  C19 UNL     1      -2.799  52.410 -25.723  1.00  0.00     0.010 C 
HETATM   21  C20 UNL     1      -3.724  51.293 -25.199  1.00  0.00     0.011 C 
HETATM   22  C21 UNL     1      -3.567  50.965 -23.670  1.00  0.00    -0.032 C 
HETATM   23  C22 UNL     1      -4.183  52.199 -22.925  1.00  0.00     0.016 C 
HETATM   24  C23 UNL     1      -4.337  49.588 -23.253  1.00  0.00    -0.032 C 
HETATM   25  C24 UNL     1      -3.806  48.405 -24.117  1.00  0.00     0.016 C 
HETATM   26  C25 UNL     1      -5.865  49.690 -23.515  1.00  0.00     0.011 C 
HETATM   27  C26 UNL     1      -6.678  48.527 -22.940  1.00  0.00     0.007 C 
HETATM   28  C27 UNL     1      -6.491  48.401 -21.418  1.00  0.00     0.009 C 
HETATM   29  O2  UNL     1       1.330  54.267 -24.192  1.00  0.00    -0.313 OA
HETATM   30  C28 UNL     1       1.296  54.250 -22.831  1.00  0.00     0.297 A 
HETATM   31  O3  UNL     1       1.694  55.141 -22.101  1.00  0.00    -0.262 OA
HETATM   32  C29 UNL     1       0.747  52.961 -22.386  1.00  0.00     0.175 A 
HETATM   33  C30 UNL     1       1.190  52.347 -21.080  1.00  0.00     0.218 A 
HETATM   34  O4  UNL     1      -0.095  52.965 -21.230  1.00  0.00    -0.364 OA
ENDROOT
TORSDOF 0
ENDMDL
MODEL 2
REMARK minimizedAffinity -10.5578022
REMARK  0 active torsions:
REMARK  status: ('A' for Active; 'I' for Inactive)
ROOT
HETATM    1  C1  UNL     1       0.297  51.050 -27.196  1.00  0.00     0.023 C 
HETATM    2  C2  UNL     1      -0.646  51.879 -26.297  1.00  0.00     0.017 C 
HETATM    3  C3  UNL     1      -1.711  52.516 -27.209  1.00  0.00     0.023 C 
HETATM    4  C4  UNL     1       0.211  52.986 -25.673  1.00  0.00     0.135 C 
HETATM    5  O1  UNL     1       0.442  54.050 -26.249  1.00  0.00    -0.297 OA
HETATM    6  C5  UNL     1       0.846  52.682 -24.340  1.00  0.00     0.080 C 
HETATM    7  C6  UNL     1      -0.183  52.314 -23.276  1.00  0.00     0.017 C 
HETATM    8  C7  UNL     1      -1.530  51.704 -23.807  1.00  0.00    -0.035 C 
HETATM    9  C8  UNL     1      -2.505  52.893 -23.985  1.00  0.00     0.016 C 
HETATM   10  C9  UNL     1      -2.043  50.641 -22.740  1.00  0.00     0.003 C 
HETATM   11  C10 UNL     1      -2.350  51.239 -21.350  1.00  0.00     0.006 C 
HETATM   12  C11 UNL     1      -2.566  50.169 -20.277  1.00  0.00     0.006 C 
HETATM   13  C12 UNL     1      -3.644  49.152 -20.664  1.00  0.00    -0.000 C 
HETATM   14  C13 UNL     1      -3.937  48.089 -19.578  1.00  0.00     0.009 C 
HETATM   15  C14 UNL     1      -4.254  48.508 -18.128  1.00  0.00     0.067 A 
HETATM   16  C15 UNL     1      -5.118  47.326 -17.590  1.00  0.00     0.140 A 
HETATM   17  C16 UNL     1      -5.317  46.349 -18.755  1.00  0.00     0.042 C 
HETATM   18  C17 UNL     1      -5.169  47.238 -19.992  1.00  0.00    -0.037 C 
HETATM   19  C18 UNL     1      -6.485  48.039 -20.178  1.00  0.00     0.015 C 
HETATM   20  C19 UNL     1      -4.842  46.476 -21.281  1.00  0.00     0.010 C 
HETATM   21  C20 UNL     1      -4.451  47.435 -22.424  1.00  0.00     0.011 C 
HETATM   22  C21 UNL     1      -3.325  48.470 -22.063  1.00  0.00    -0.032 C 
HETATM   23  C22 UNL     1      -2.011  47.622 -21.958  1.00  0.00     0.016 C 
HETATM   24  C23 UNL     1      -3.176  49.638 -23.193  1.00  0.00    -0.032 C 
HETATM   25  C24 UNL     1      -4.541  50.366 -23.380  1.00  0.00     0.016 C 
HETATM   26  C25 UNL     1      -2.786  49.045 -24.575  1.00  0.00     0.011 C 
HETATM   27  C26 UNL     1      -2.410  50.094 -25.624  1.00  0.00     0.007 C 
HETATM   28  C27 UNL     1      -1.229  50.964 -25.159  1.00  0.00     0.009 C 
HETATM   29  O2  UNL     1      -4.423  46.661 -16.524  1.00  0.00    -0.313 OA
HETATM   30  C28 UNL     1      -3.256  47.306 -16.251  1.00  0.00     0.297 A 
HETATM   31  O3  UNL     1      -2.461  46.995 -15.380  1.00  0.00    -0.262 OA
HETATM   32  C29 UNL     1      -3.136  48.469 -17.143  1.00  0.00     0.175 A 
HETATM   33  C30 UNL     1      -2.411  49.713 -16.690  1.00  0.00     0.218 A 
HETATM   34  O4  UNL     1      -1.831  48.797 -17.628  1.00  0.00    -0.364 OA
ENDROOT
TORSDOF 0
ENDMDL
MODEL 3
REMARK minimizedAffinity -10.4981041
REMARK  0 active torsions:
REMARK  status: ('A' for Active; 'I' for Inactive)
ROOT
HETATM    1  C1  UNL     1      -0.592  50.719 -27.022  1.00  0.00     0.023 C 
HETATM    2  C2  UNL     1      -1.340  51.572 -25.974  1.00  0.00     0.017 C 
HETATM    3  C3  UNL     1      -2.680  52.001 -26.601  1.00  0.00     0.023 C 
HETATM    4  C4  UNL     1      -0.477  52.815 -25.731  1.00  0.00     0.135 C 
HETATM    5  O1  UNL     1      -0.536  53.815 -26.447  1.00  0.00    -0.297 OA
HETATM    6  C5  UNL     1       0.531  52.733 -24.613  1.00  0.00     0.080 C 
HETATM    7  C6  UNL     1      -0.117  52.416 -23.268  1.00  0.00     0.017 C 
HETATM    8  C7  UNL     1      -1.480  51.636 -23.331  1.00  0.00    -0.035 C 
HETATM    9  C8  UNL     1      -2.594  52.708 -23.336  1.00  0.00     0.016 C 
HETATM   10  C9  UNL     1      -1.554  50.674 -22.065  1.00  0.00     0.003 C 
HETATM   11  C10 UNL     1      -1.533  51.413 -20.710  1.00  0.00     0.006 C 
HETATM   12  C11 UNL     1      -1.322  50.470 -19.522  1.00  0.00     0.006 C 
HETATM   13  C12 UNL     1      -2.342  49.327 -19.485  1.00  0.00    -0.000 C 
HETATM   14  C13 UNL     1      -2.202  48.386 -18.265  1.00  0.00     0.009 C 
HETATM   15  C14 UNL     1      -2.154  48.955 -16.831  1.00  0.00     0.067 A 
HETATM   16  C15 UNL     1      -2.695  47.781 -15.958  1.00  0.00     0.140 A 
HETATM   17  C16 UNL     1      -3.094  46.654 -16.918  1.00  0.00     0.042 C 
HETATM   18  C17 UNL     1      -3.394  47.392 -18.225  1.00  0.00    -0.037 C 
HETATM   19  C18 UNL     1      -4.793  48.052 -18.103  1.00  0.00     0.015 C 
HETATM   20  C19 UNL     1      -3.349  46.505 -19.475  1.00  0.00     0.010 C 
HETATM   21  C20 UNL     1      -3.399  47.344 -20.768  1.00  0.00     0.011 C 
HETATM   22  C21 UNL     1      -2.344  48.506 -20.845  1.00  0.00    -0.032 C 
HETATM   23  C22 UNL     1      -0.963  47.788 -21.040  1.00  0.00     0.016 C 
HETATM   24  C23 UNL     1      -2.646  49.533 -22.077  1.00  0.00    -0.032 C 
HETATM   25  C24 UNL     1      -4.083  50.116 -21.935  1.00  0.00     0.016 C 
HETATM   26  C25 UNL     1      -2.586  48.807 -23.449  1.00  0.00     0.011 C 
HETATM   27  C26 UNL     1      -2.635  49.745 -24.657  1.00  0.00     0.007 C 
HETATM   28  C27 UNL     1      -1.479  50.760 -24.635  1.00  0.00     0.009 C 
HETATM   29  O2  UNL     1      -1.663  47.313 -15.077  1.00  0.00    -0.313 OA
HETATM   30  C28 UNL     1      -0.547  48.081 -15.212  1.00  0.00     0.297 A 
HETATM   31  O3  UNL     1       0.486  47.948 -14.579  1.00  0.00    -0.262 OA
HETATM   32  C29 UNL     1      -0.811  49.130 -16.208  1.00  0.00     0.175 A 
HETATM   33  C30 UNL     1      -0.137  50.477 -16.103  1.00  0.00     0.218 A 
HETATM   34  O4  UNL     1       0.265  49.502 -17.075  1.00  0.00    -0.364 OA
ENDROOT
TORSDOF 0
ENDMDL
MODEL 4
REMARK minimizedAffinity -10.2449646
REMARK  0 active torsions:
REMARK  status: ('A' for Active; 'I' for Inactive)
ROOT
HETATM    1  C1  UNL     1      -3.216  51.132 -15.375  1.00  0.00     0.023 C 
HETATM    2  C2  UNL     1      -2.287  50.177 -16.157  1.00  0.00     0.017 C 
HETATM    3  C3  UNL     1      -2.595  48.745 -15.684  1.00  0.00     0.023 C 
HETATM    4  C4  UNL     1      -0.853  50.543 -15.757  1.00  0.00     0.135 C 
HETATM    5  O1  UNL     1      -0.311  50.092 -14.748  1.00  0.00    -0.297 OA
HETATM    6  C5  UNL     1      -0.151  51.564 -16.614  1.00  0.00     0.080 C 
HETATM    7  C6  UNL     1      -0.071  51.141 -18.077  1.00  0.00     0.017 C 
HETATM    8  C7  UNL     1      -1.189  50.151 -18.566  1.00  0.00    -0.035 C 
HETATM    9  C8  UNL     1      -0.619  48.725 -18.379  1.00  0.00     0.016 C 
HETATM   10  C9  UNL     1      -1.515  50.490 -20.087  1.00  0.00     0.003 C 
HETATM   11  C10 UNL     1      -0.318  50.308 -21.044  1.00  0.00     0.006 C 
HETATM   12  C11 UNL     1      -0.571  50.903 -22.432  1.00  0.00     0.006 C 
HETATM   13  C12 UNL     1      -1.853  50.369 -23.080  1.00  0.00    -0.000 C 
HETATM   14  C13 UNL     1      -2.113  50.898 -24.511  1.00  0.00     0.009 C 
HETATM   15  C14 UNL     1      -1.021  50.806 -25.597  1.00  0.00     0.067 A 
HETATM   16  C15 UNL     1      -1.836  50.769 -26.926  1.00  0.00     0.140 A 
HETATM   17  C16 UNL     1      -3.320  50.759 -26.543  1.00  0.00     0.042 C 
HETATM   18  C17 UNL     1      -3.319  50.150 -25.139  1.00  0.00    -0.037 C 
HETATM   19  C18 UNL     1      -3.140  48.614 -25.273  1.00  0.00     0.015 C 
HETATM   20  C19 UNL     1      -4.579  50.452 -24.320  1.00  0.00     0.010 C 
HETATM   21  C20 UNL     1      -4.409  50.040 -22.844  1.00  0.00     0.011 C 
HETATM   22  C21 UNL     1      -3.116  50.599 -22.145  1.00  0.00    -0.032 C 
HETATM   23  C22 UNL     1      -3.381  52.134 -21.969  1.00  0.00     0.016 C 
HETATM   24  C23 UNL     1      -2.838  49.887 -20.703  1.00  0.00    -0.032 C 
HETATM   25  C24 UNL     1      -2.727  48.344 -20.891  1.00  0.00     0.016 C 
HETATM   26  C25 UNL     1      -4.005  50.139 -19.710  1.00  0.00     0.011 C 
HETATM   27  C26 UNL     1      -3.714  49.696 -18.275  1.00  0.00     0.007 C 
HETATM   28  C27 UNL     1      -2.475  50.406 -17.701  1.00  0.00     0.009 C 
HETATM   29  O2  UNL     1      -1.552  51.942 -27.705  1.00  0.00    -0.313 OA
HETATM   30  C28 UNL     1      -0.603  52.696 -27.087  1.00  0.00     0.297 A 
HETATM   31  O3  UNL     1      -0.134  53.737 -27.515  1.00  0.00    -0.262 OA
HETATM   32  C29 UNL     1      -0.196  52.023 -25.844  1.00  0.00     0.175 A 
HETATM   33  C30 UNL     1       1.211  52.169 -25.316  1.00  0.00     0.218 A 
HETATM   34  O4  UNL     1       0.101  52.848 -24.714  1.00  0.00    -0.364 OA
ENDROOT
TORSDOF 0
ENDMDL
MODEL 5
REMARK minimizedAffinity -9.92284584
REMARK  0 active torsions:
REMARK  status: ('A' for Active; 'I' for Inactive)
ROOT
HETATM    1  C1  UNL     1      -7.772  43.899 -22.843  1.00  0.00     0.023 C 
HETATM    2  C2  UNL     1      -8.086  45.405 -22.710  1.00  0.00     0.017 C 
HETATM    3  C3  UNL     1      -9.073  45.568 -21.539  1.00  0.00     0.023 C 
HETATM    4  C4  UNL     1      -8.777  45.822 -24.013  1.00  0.00     0.135 C 
HETATM    5  O1  UNL     1      -9.987  45.683 -24.196  1.00  0.00    -0.297 OA
HETATM    6  C5  UNL     1      -7.889  46.336 -25.117  1.00  0.00     0.080 C 
HETATM    7  C6  UNL     1      -7.067  47.546 -24.686  1.00  0.00     0.017 C 
HETATM    8  C7  UNL     1      -6.773  47.663 -23.147  1.00  0.00    -0.035 C 
HETATM    9  C8  UNL     1      -7.906  48.531 -22.552  1.00  0.00     0.016 C 
HETATM   10  C9  UNL     1      -5.334  48.320 -22.969  1.00  0.00     0.003 C 
HETATM   11  C10 UNL     1      -5.217  49.747 -23.547  1.00  0.00     0.006 C 
HETATM   12  C11 UNL     1      -3.770  50.243 -23.619  1.00  0.00     0.006 C 
HETATM   13  C12 UNL     1      -3.048  50.157 -22.270  1.00  0.00    -0.000 C 
HETATM   14  C13 UNL     1      -1.602  50.707 -22.285  1.00  0.00     0.009 C 
HETATM   15  C14 UNL     1      -1.299  52.115 -22.838  1.00  0.00     0.067 A 
HETATM   16  C15 UNL     1      -0.001  52.530 -22.079  1.00  0.00     0.140 A 
HETATM   17  C16 UNL     1       0.322  51.401 -21.092  1.00  0.00     0.042 C 
HETATM   18  C17 UNL     1      -1.040  50.753 -20.838  1.00  0.00    -0.037 C 
HETATM   19  C18 UNL     1      -1.834  51.653 -19.855  1.00  0.00     0.015 C 
HETATM   20  C19 UNL     1      -0.965  49.325 -20.284  1.00  0.00     0.010 C 
HETATM   21  C20 UNL     1      -2.346  48.639 -20.296  1.00  0.00     0.011 C 
HETATM   22  C21 UNL     1      -3.096  48.685 -21.677  1.00  0.00    -0.032 C 
HETATM   23  C22 UNL     1      -2.298  47.706 -22.606  1.00  0.00     0.016 C 
HETATM   24  C23 UNL     1      -4.656  48.222 -21.547  1.00  0.00    -0.032 C 
HETATM   25  C24 UNL     1      -5.386  49.121 -20.504  1.00  0.00     0.016 C 
HETATM   26  C25 UNL     1      -4.774  46.758 -21.043  1.00  0.00     0.011 C 
HETATM   27  C26 UNL     1      -6.191  46.184 -21.112  1.00  0.00     0.007 C 
HETATM   28  C27 UNL     1      -6.746  46.211 -22.547  1.00  0.00     0.009 C 
HETATM   29  O2  UNL     1       1.083  52.674 -23.010  1.00  0.00    -0.313 OA
HETATM   30  C28 UNL     1       0.638  52.481 -24.281  1.00  0.00     0.297 A 
HETATM   31  O3  UNL     1       1.317  52.564 -25.291  1.00  0.00    -0.262 OA
HETATM   32  C29 UNL     1      -0.807  52.208 -24.243  1.00  0.00     0.175 A 
HETATM   33  C30 UNL     1      -1.699  52.625 -25.387  1.00  0.00     0.218 A 
HETATM   34  O4  UNL     1      -1.324  51.256 -25.177  1.00  0.00    -0.364 OA
ENDROOT
TORSDOF 0
ENDMDL
MODEL 6
REMARK minimizedAffinity -9.71100616
REMARK  0 active torsions:
REMARK  status: ('A' for Active; 'I' for Inactive)
ROOT
HETATM    1  C1  UNL     1      -0.305  54.041 -25.092  1.00  0.00     0.023 C 
HETATM    2  C2  UNL     1      -0.338  52.581 -25.595  1.00  0.00     0.017 C 
HETATM    3  C3  UNL     1       1.050  51.969 -25.326  1.00  0.00     0.023 C 
HETATM    4  C4  UNL     1      -0.574  52.648 -27.107  1.00  0.00     0.135 C 
HETATM    5  O1  UNL     1       0.342  52.806 -27.916  1.00  0.00    -0.297 OA
HETATM    6  C5  UNL     1      -2.007  52.602 -27.572  1.00  0.00     0.080 C 
HETATM    7  C6  UNL     1      -2.731  51.345 -27.102  1.00  0.00     0.017 C 
HETATM    8  C7  UNL     1      -2.174  50.683 -25.790  1.00  0.00    -0.035 C 
HETATM    9  C8  UNL     1      -1.144  49.621 -26.243  1.00  0.00     0.016 C 
HETATM   10  C9  UNL     1      -3.402  50.052 -24.997  1.00  0.00     0.003 C 
HETATM   11  C10 UNL     1      -4.146  48.941 -25.767  1.00  0.00     0.006 C 
HETATM   12  C11 UNL     1      -5.475  48.552 -25.114  1.00  0.00     0.006 C 
HETATM   13  C12 UNL     1      -5.318  48.161 -23.641  1.00  0.00    -0.000 C 
HETATM   14  C13 UNL     1      -6.629  47.701 -22.960  1.00  0.00     0.009 C 
HETATM   15  C14 UNL     1      -7.506  46.604 -23.597  1.00  0.00     0.067 A 
HETATM   16  C15 UNL     1      -8.251  45.982 -22.376  1.00  0.00     0.140 A 
HETATM   17  C16 UNL     1      -7.716  46.681 -21.120  1.00  0.00     0.042 C 
HETATM   18  C17 UNL     1      -6.322  47.147 -21.542  1.00  0.00    -0.037 C 
HETATM   19  C18 UNL     1      -5.366  45.925 -21.510  1.00  0.00     0.015 C 
HETATM   20  C19 UNL     1      -5.745  48.275 -20.678  1.00  0.00     0.010 C 
HETATM   21  C20 UNL     1      -4.469  48.874 -21.303  1.00  0.00     0.011 C 
HETATM   22  C21 UNL     1      -4.611  49.312 -22.806  1.00  0.00    -0.032 C 
HETATM   23  C22 UNL     1      -5.522  50.588 -22.773  1.00  0.00     0.016 C 
HETATM   24  C23 UNL     1      -3.167  49.645 -23.490  1.00  0.00    -0.032 C 
HETATM   25  C24 UNL     1      -2.231  48.404 -23.374  1.00  0.00     0.016 C 
HETATM   26  C25 UNL     1      -2.452  50.819 -22.766  1.00  0.00     0.011 C 
HETATM   27  C26 UNL     1      -1.204  51.333 -23.487  1.00  0.00     0.007 C 
HETATM   28  C27 UNL     1      -1.528  51.814 -24.912  1.00  0.00     0.009 C 
HETATM   29  O2  UNL     1      -9.662  46.223 -22.491  1.00  0.00    -0.313 OA
HETATM   30  C28 UNL     1      -9.936  46.853 -23.666  1.00  0.00     0.297 A 
HETATM   31  O3  UNL     1     -11.045  47.167 -24.060  1.00  0.00    -0.262 OA
HETATM   32  C29 UNL     1      -8.679  47.046 -24.405  1.00  0.00     0.175 A 
HETATM   33  C30 UNL     1      -8.668  47.049 -25.915  1.00  0.00     0.218 A 
HETATM   34  O4  UNL     1      -8.533  48.257 -25.153  1.00  0.00    -0.364 OA
ENDROOT
TORSDOF 0
ENDMDL
MODEL 7
REMARK minimizedAffinity -9.36767006
REMARK  0 active torsions:
REMARK  status: ('A' for Active; 'I' for Inactive)
ROOT
HETATM    1  C1  UNL     1      -1.521  49.620 -26.629  1.00  0.00     0.023 C 
HETATM    2  C2  UNL     1      -1.989  50.801 -25.751  1.00  0.00     0.017 C 
HETATM    3  C3  UNL     1      -3.440  51.126 -26.153  1.00  0.00     0.023 C 
HETATM    4  C4  UNL     1      -1.089  51.990 -26.107  1.00  0.00     0.135 C 
HETATM    5  O1  UNL     1      -1.318  52.732 -27.062  1.00  0.00    -0.297 OA
HETATM    6  C5  UNL     1       0.159  52.166 -25.280  1.00  0.00     0.080 C 
HETATM    7  C6  UNL     1      -0.144  52.314 -23.793  1.00  0.00     0.017 C 
HETATM    8  C7  UNL     1      -1.484  51.659 -23.298  1.00  0.00    -0.035 C 
HETATM    9  C8  UNL     1      -2.563  52.764 -23.375  1.00  0.00     0.016 C 
HETATM   10  C9  UNL     1      -1.252  51.127 -21.816  1.00  0.00     0.003 C 
HETATM   11  C10 UNL     1      -0.901  52.231 -20.796  1.00  0.00     0.006 C 
HETATM   12  C11 UNL     1      -0.411  51.671 -19.458  1.00  0.00     0.006 C 
HETATM   13  C12 UNL     1      -1.394  50.673 -18.838  1.00  0.00    -0.000 C 
HETATM   14  C13 UNL     1      -0.965  50.130 -17.454  1.00  0.00     0.009 C 
HETATM   15  C14 UNL     1      -0.569  51.094 -16.317  1.00  0.00     0.067 A 
HETATM   16  C15 UNL     1      -0.886  50.279 -15.025  1.00  0.00     0.140 A 
HETATM   17  C16 UNL     1      -1.509  48.952 -15.474  1.00  0.00     0.042 C 
HETATM   18  C17 UNL     1      -2.115  49.288 -16.838  1.00  0.00    -0.037 C 
HETATM   19  C18 UNL     1      -3.441  50.061 -16.607  1.00  0.00     0.015 C 
HETATM   20  C19 UNL     1      -2.377  48.069 -17.730  1.00  0.00     0.010 C 
HETATM   21  C20 UNL     1      -2.737  48.486 -19.170  1.00  0.00     0.011 C 
HETATM   22  C21 UNL     1      -1.728  49.487 -19.841  1.00  0.00    -0.032 C 
HETATM   23  C22 UNL     1      -0.439  48.640 -20.118  1.00  0.00     0.016 C 
HETATM   24  C23 UNL     1      -2.317  50.121 -21.225  1.00  0.00    -0.032 C 
HETATM   25  C24 UNL     1      -3.675  50.830 -20.943  1.00  0.00     0.016 C 
HETATM   26  C25 UNL     1      -2.594  49.018 -22.283  1.00  0.00     0.011 C 
HETATM   27  C26 UNL     1      -2.932  49.555 -23.675  1.00  0.00     0.007 C 
HETATM   28  C27 UNL     1      -1.802  50.438 -24.233  1.00  0.00     0.009 C 
HETATM   29  O2  UNL     1       0.328  50.016 -14.305  1.00  0.00    -0.313 OA
HETATM   30  C28 UNL     1       1.379  50.621 -14.922  1.00  0.00     0.297 A 
HETATM   31  O3  UNL     1       2.535  50.602 -14.535  1.00  0.00    -0.262 OA
HETATM   32  C29 UNL     1       0.885  51.343 -16.104  1.00  0.00     0.175 A 
HETATM   33  C30 UNL     1       1.569  52.604 -16.576  1.00  0.00     0.218 A 
HETATM   34  O4  UNL     1       1.720  51.355 -17.267  1.00  0.00    -0.364 OA
ENDROOT
TORSDOF 0
ENDMDL
MODEL 8
REMARK minimizedAffinity -9.32783699
REMARK  0 active torsions:
REMARK  status: ('A' for Active; 'I' for Inactive)
ROOT
HETATM    1  C1  UNL     1      -0.108  54.311 -25.456  1.00  0.00     0.023 C 
HETATM    2  C2  UNL     1      -0.260  52.784 -25.629  1.00  0.00     0.017 C 
HETATM    3  C3  UNL     1       1.157  52.180 -25.648  1.00  0.00     0.023 C 
HETATM    4  C4  UNL     1      -0.920  52.564 -26.994  1.00  0.00     0.135 C 
HETATM    5  O1  UNL     1      -0.276  52.524 -28.043  1.00  0.00    -0.297 OA
HETATM    6  C5  UNL     1      -2.425  52.488 -27.015  1.00  0.00     0.080 C 
HETATM    7  C6  UNL     1      -2.963  51.378 -26.119  1.00  0.00     0.017 C 
HETATM    8  C7  UNL     1      -2.043  50.962 -24.915  1.00  0.00    -0.035 C 
HETATM    9  C8  UNL     1      -1.168  49.791 -25.421  1.00  0.00     0.016 C 
HETATM   10  C9  UNL     1      -2.983  50.549 -23.698  1.00  0.00     0.003 C 
HETATM   11  C10 UNL     1      -3.897  49.340 -23.989  1.00  0.00     0.006 C 
HETATM   12  C11 UNL     1      -4.978  49.141 -22.923  1.00  0.00     0.006 C 
HETATM   13  C12 UNL     1      -4.400  49.038 -21.507  1.00  0.00    -0.000 C 
HETATM   14  C13 UNL     1      -5.454  48.774 -20.406  1.00  0.00     0.009 C 
HETATM   15  C14 UNL     1      -6.459  47.611 -20.537  1.00  0.00     0.067 A 
HETATM   16  C15 UNL     1      -6.813  47.270 -19.057  1.00  0.00     0.140 A 
HETATM   17  C16 UNL     1      -5.953  48.178 -18.169  1.00  0.00     0.042 C 
HETATM   18  C17 UNL     1      -4.745  48.496 -19.053  1.00  0.00    -0.037 C 
HETATM   19  C18 UNL     1      -3.800  47.265 -19.050  1.00  0.00     0.015 C 
HETATM   20  C19 UNL     1      -3.965  49.745 -18.629  1.00  0.00     0.010 C 
HETATM   21  C20 UNL     1      -2.930  50.158 -19.696  1.00  0.00     0.011 C 
HETATM   22  C21 UNL     1      -3.503  50.300 -21.152  1.00  0.00    -0.032 C 
HETATM   23  C22 UNL     1      -4.387  51.594 -21.117  1.00  0.00     0.016 C 
HETATM   24  C23 UNL     1      -2.320  50.433 -22.269  1.00  0.00    -0.032 C 
HETATM   25  C24 UNL     1      -1.370  49.202 -22.179  1.00  0.00     0.016 C 
HETATM   26  C25 UNL     1      -1.448  51.696 -22.026  1.00  0.00     0.011 C 
HETATM   27  C26 UNL     1      -0.467  52.007 -23.158  1.00  0.00     0.007 C 
HETATM   28  C27 UNL     1      -1.193  52.215 -24.498  1.00  0.00     0.009 C 
HETATM   29  O2  UNL     1      -8.201  47.542 -18.813  1.00  0.00    -0.313 OA
HETATM   30  C28 UNL     1      -8.810  47.942 -19.963  1.00  0.00     0.297 A 
HETATM   31  O3  UNL     1      -9.991  48.219 -20.081  1.00  0.00    -0.262 OA
HETATM   32  C29 UNL     1      -7.820  47.936 -21.051  1.00  0.00     0.175 A 
HETATM   33  C30 UNL     1      -8.241  47.643 -22.471  1.00  0.00     0.218 A 
HETATM   34  O4  UNL     1      -7.914  48.970 -22.035  1.00  0.00    -0.364 OA
ENDROOT
TORSDOF 0
ENDMDL
MODEL 9
REMARK minimizedAffinity -9.1765461
REMARK  0 active torsions:
REMARK  status: ('A' for Active; 'I' for Inactive)
ROOT
HETATM    1  C1  UNL     1      -0.347  53.345 -24.828  1.00  0.00     0.023 C 
HETATM    2  C2  UNL     1      -0.965  51.967 -25.155  1.00  0.00     0.017 C 
HETATM    3  C3  UNL     1       0.152  51.094 -25.757  1.00  0.00     0.023 C 
HETATM    4  C4  UNL     1      -2.039  52.215 -26.219  1.00  0.00     0.135 C 
HETATM    5  O1  UNL     1      -1.780  52.279 -27.422  1.00  0.00    -0.297 OA
HETATM    6  C5  UNL     1      -3.439  52.472 -25.722  1.00  0.00     0.080 C 
HETATM    7  C6  UNL     1      -3.971  51.328 -24.865  1.00  0.00     0.017 C 
HETATM    8  C7  UNL     1      -2.885  50.458 -24.133  1.00  0.00    -0.035 C 
HETATM    9  C8  UNL     1      -2.568  49.274 -25.077  1.00  0.00     0.016 C 
HETATM   10  C9  UNL     1      -3.490  49.988 -22.738  1.00  0.00     0.003 C 
HETATM   11  C10 UNL     1      -4.750  49.105 -22.862  1.00  0.00     0.006 C 
HETATM   12  C11 UNL     1      -5.469  48.904 -21.525  1.00  0.00     0.006 C 
HETATM   13  C12 UNL     1      -4.544  48.357 -20.432  1.00  0.00    -0.000 C 
HETATM   14  C13 UNL     1      -5.246  48.080 -19.082  1.00  0.00     0.009 C 
HETATM   15  C14 UNL     1      -6.527  47.222 -19.020  1.00  0.00     0.067 A 
HETATM   16  C15 UNL     1      -6.499  46.635 -17.575  1.00  0.00     0.140 A 
HETATM   17  C16 UNL     1      -5.193  47.106 -16.924  1.00  0.00     0.042 C 
HETATM   18  C17 UNL     1      -4.270  47.351 -18.119  1.00  0.00    -0.037 C 
HETATM   19  C18 UNL     1      -3.753  45.979 -18.626  1.00  0.00     0.015 C 
HETATM   20  C19 UNL     1      -3.081  48.272 -17.819  1.00  0.00     0.010 C 
HETATM   21  C20 UNL     1      -2.345  48.686 -19.109  1.00  0.00     0.011 C 
HETATM   22  C21 UNL     1      -3.266  49.279 -20.236  1.00  0.00    -0.032 C 
HETATM   23  C22 UNL     1      -3.699  50.689 -19.706  1.00  0.00     0.016 C 
HETATM   24  C23 UNL     1      -2.488  49.408 -21.665  1.00  0.00    -0.032 C 
HETATM   25  C24 UNL     1      -1.939  48.014 -22.093  1.00  0.00     0.016 C 
HETATM   26  C25 UNL     1      -1.266  50.362 -21.563  1.00  0.00     0.011 C 
HETATM   27  C26 UNL     1      -0.626  50.707 -22.909  1.00  0.00     0.007 C 
HETATM   28  C27 UNL     1      -1.634  51.368 -23.865  1.00  0.00     0.009 C 
HETATM   29  O2  UNL     1      -7.615  47.135 -16.823  1.00  0.00    -0.313 OA
HETATM   30  C28 UNL     1      -8.404  47.910 -17.616  1.00  0.00     0.297 A 
HETATM   31  O3  UNL     1      -9.439  48.455 -17.271  1.00  0.00    -0.262 OA
HETATM   32  C29 UNL     1      -7.832  47.941 -18.970  1.00  0.00     0.175 A 
HETATM   33  C30 UNL     1      -8.726  48.081 -20.179  1.00  0.00     0.218 A 
HETATM   34  O4  UNL     1      -7.925  49.170 -19.698  1.00  0.00    -0.364 OA
ENDROOT
TORSDOF 0
ENDMDL
