MODEL 1
REMARK minimizedAffinity -7.29448223
REMARK CNNscore 0.893933535
REMARK CNNaffinity 6.13602304
REMARK  11 active torsions:
REMARK  status: ('A' for Active; 'I' for Inactive)
REMARK    1  A    between atoms: C2_2  and  C27_32 
REMARK    2  A    between atoms: C3_3  and  C4_4 
REMARK    3  A    between atoms: C4_4  and  C5_5 
REMARK    4  A    between atoms: C5_5  and  C6_6 
REMARK    5  A    between atoms: C6_6  and  C8_8 
REMARK    6  A    between atoms: C10_10  and  O1_11 
REMARK    7  A    between atoms: C11_12  and  O2_13 
REMARK    8  A    between atoms: C21_23  and  O3_24 
REMARK    9  A    between atoms: C24_27  and  O4_28 
REMARK   10  A    between atoms: C26_30  and  O5_31 
REMARK   11  A    between atoms: C27_32  and  O6_33 
ROOT
HETATM    1  C8  UNL     1      -3.042  11.846  15.524  1.00  0.00     0.003 C 
HETATM    2  C9  UNL     1      -1.579  12.195  15.814  1.00  0.00     0.041 C 
HETATM    3  C10 UNL     1      -0.854  10.903  15.470  1.00  0.00     0.156 C 
HETATM    4  C11 UNL     1      -1.701   9.821  16.179  1.00  0.00     0.122 C 
HETATM    5  C12 UNL     1      -3.203  10.370  16.080  1.00  0.00    -0.003 C 
HETATM    6  C13 UNL     1      -3.896  10.296  17.451  1.00  0.00     0.019 C 
HETATM    7  C14 UNL     1      -4.042   9.543  15.073  1.00  0.00     0.013 C 
HETATM    8  C15 UNL     1      -3.229   9.064  13.874  1.00  0.00     0.009 C 
HETATM    9  C16 UNL     1      -2.099   8.076  14.244  1.00  0.00     0.032 C 
HETATM   10  C17 UNL     1      -1.108   7.769  13.032  1.00  0.00    -0.031 C 
HETATM   11  C18 UNL     1      -1.531   6.367  12.488  1.00  0.00     0.016 C 
HETATM   12  C19 UNL     1      -1.203   8.766  11.837  1.00  0.00     0.012 C 
HETATM   13  C20 UNL     1      -0.224   8.465  10.697  1.00  0.00     0.032 C 
HETATM   14  C21 UNL     1       1.217   8.318  11.177  1.00  0.00     0.118 C 
HETATM   15  C22 UNL     1       1.349   7.374  12.373  1.00  0.00     0.039 C 
HETATM   16  C23 UNL     1       0.376   7.779  13.491  1.00  0.00     0.025 C 
HETATM   17  C24 UNL     1       0.545   6.994  14.789  1.00  0.00     0.126 C 
HETATM   18  C25 UNL     1      -0.053   7.823  15.918  1.00  0.00     0.073 C 
HETATM   19  C26 UNL     1      -1.490   8.347  15.668  1.00  0.00     0.099 C 
ENDROOT
BRANCH   1  20
HETATM   20  C6  UNL     1      -4.000  13.035  15.847  1.00  0.00    -0.013 C 
HETATM   21  C7  UNL     1      -4.093  14.154  14.814  1.00  0.00     0.010 C 
BRANCH  20  22
HETATM   22  C5  UNL     1      -3.947  13.515  17.323  1.00  0.00     0.008 C 
BRANCH  22  23
HETATM   23  C4  UNL     1      -5.238  13.673  18.133  1.00  0.00     0.028 C 
BRANCH  23  24
HETATM   24  C3  UNL     1      -5.097  13.403  19.605  1.00  0.00    -0.022 C 
HETATM   25  C2  UNL     1      -6.063  13.477  20.545  1.00  0.00    -0.064 C 
HETATM   26  C1  UNL     1      -5.754  13.151  21.984  1.00  0.00     0.045 C 
BRANCH  25  27
HETATM   27  C27 UNL     1      -7.493  13.866  20.284  1.00  0.00     0.197 C 
BRANCH  27  28
HETATM   28  O6  UNL     1      -8.348  12.981  20.993  1.00  0.00    -0.397 OA
HETATM   29  H46 UNL     1      -8.085  13.034  21.928  1.00  0.00     0.209 HD
ENDBRANCH  27  28
ENDBRANCH  25  27
ENDBRANCH  23  24
ENDBRANCH  22  23
ENDBRANCH  20  22
ENDBRANCH   1  20
BRANCH   3  30
HETATM   30  O1  UNL     1       0.476  10.978  15.957  1.00  0.00    -0.392 OA
HETATM   31  H17 UNL     1       0.396  10.824  16.922  1.00  0.00     0.210 HD
ENDBRANCH   3  30
BRANCH   4  32
HETATM   32  O2  UNL     1      -1.270   9.850  17.569  1.00  0.00    -0.383 OA
HETATM   33  H18 UNL     1      -1.558   8.988  17.938  1.00  0.00     0.210 HD
ENDBRANCH   4  32
BRANCH  19  34
HETATM   34  O5  UNL     1      -2.248   7.535  16.632  1.00  0.00    -0.386 OA
HETATM   35  H43 UNL     1      -3.164   7.427  16.332  1.00  0.00     0.210 HD
ENDBRANCH  19  34
BRANCH  17  36
HETATM   36  O4  UNL     1       1.928   6.783  15.063  1.00  0.00    -0.395 OA
HETATM   37  H40 UNL     1       1.995   6.352  15.933  1.00  0.00     0.210 HD
ENDBRANCH  17  36
BRANCH  14  38
HETATM   38  O3  UNL     1       2.009   7.838  10.096  1.00  0.00    -0.396 OA
HETATM   39  H35 UNL     1       2.926   7.772  10.418  1.00  0.00     0.210 HD
ENDBRANCH  14  38
TORSDOF 11
ENDMDL
MODEL 2
REMARK minimizedAffinity -6.90264082
REMARK CNNscore 0.839070976
REMARK CNNaffinity 6.09072876
REMARK  11 active torsions:
REMARK  status: ('A' for Active; 'I' for Inactive)
REMARK    1  A    between atoms: C2_2  and  C27_32 
REMARK    2  A    between atoms: C3_3  and  C4_4 
REMARK    3  A    between atoms: C4_4  and  C5_5 
REMARK    4  A    between atoms: C5_5  and  C6_6 
REMARK    5  A    between atoms: C6_6  and  C8_8 
REMARK    6  A    between atoms: C10_10  and  O1_11 
REMARK    7  A    between atoms: C11_12  and  O2_13 
REMARK    8  A    between atoms: C21_23  and  O3_24 
REMARK    9  A    between atoms: C24_27  and  O4_28 
REMARK   10  A    between atoms: C26_30  and  O5_31 
REMARK   11  A    between atoms: C27_32  and  O6_33 
ROOT
HETATM    1  C8  UNL     1      -2.712  11.690  15.350  1.00  0.00     0.003 C 
HETATM    2  C9  UNL     1      -1.241  12.032  15.606  1.00  0.00     0.041 C 
HETATM    3  C10 UNL     1      -0.528  10.745  15.222  1.00  0.00     0.156 C 
HETATM    4  C11 UNL     1      -1.358   9.654  15.936  1.00  0.00     0.122 C 
HETATM    5  C12 UNL     1      -2.861  10.206  15.886  1.00  0.00    -0.003 C 
HETATM    6  C13 UNL     1      -3.517  10.111  17.274  1.00  0.00     0.019 C 
HETATM    7  C14 UNL     1      -3.728   9.395  14.888  1.00  0.00     0.013 C 
HETATM    8  C15 UNL     1      -2.948   8.935  13.661  1.00  0.00     0.009 C 
HETATM    9  C16 UNL     1      -1.810   7.940  13.985  1.00  0.00     0.032 C 
HETATM   10  C17 UNL     1      -0.852   7.652  12.742  1.00  0.00    -0.031 C 
HETATM   11  C18 UNL     1      -1.292   6.258  12.188  1.00  0.00     0.016 C 
HETATM   12  C19 UNL     1      -0.978   8.668  11.566  1.00  0.00     0.012 C 
HETATM   13  C20 UNL     1      -0.029   8.383  10.396  1.00  0.00     0.032 C 
HETATM   14  C21 UNL     1       1.424   8.226  10.835  1.00  0.00     0.118 C 
HETATM   15  C22 UNL     1       1.586   7.264  12.012  1.00  0.00     0.039 C 
HETATM   16  C23 UNL     1       0.644   7.652  13.161  1.00  0.00     0.025 C 
HETATM   17  C24 UNL     1       0.846   6.846  14.442  1.00  0.00     0.126 C 
HETATM   18  C25 UNL     1       0.279   7.658  15.599  1.00  0.00     0.073 C 
HETATM   19  C26 UNL     1      -1.163   8.188  15.396  1.00  0.00     0.099 C 
ENDROOT
BRANCH   1  20
HETATM   20  C6  UNL     1      -3.659  12.875  15.717  1.00  0.00    -0.013 C 
HETATM   21  C7  UNL     1      -3.334  14.238  15.114  1.00  0.00     0.010 C 
BRANCH  20  22
HETATM   22  C5  UNL     1      -4.090  12.909  17.208  1.00  0.00     0.008 C 
BRANCH  22  23
HETATM   23  C4  UNL     1      -3.273  13.703  18.233  1.00  0.00     0.028 C 
BRANCH  23  24
HETATM   24  C3  UNL     1      -2.046  13.001  18.744  1.00  0.00    -0.022 C 
HETATM   25  C2  UNL     1      -0.957  13.564  19.308  1.00  0.00    -0.064 C 
HETATM   26  C1  UNL     1       0.185  12.706  19.788  1.00  0.00     0.045 C 
BRANCH  25  27
HETATM   27  C27 UNL     1      -0.763  15.042  19.522  1.00  0.00     0.197 C 
BRANCH  27  28
HETATM   28  O6  UNL     1      -0.303  15.259  20.847  1.00  0.00    -0.397 OA
HETATM   29  H46 UNL     1       0.509  14.732  20.947  1.00  0.00     0.209 HD
ENDBRANCH  27  28
ENDBRANCH  25  27
ENDBRANCH  23  24
ENDBRANCH  22  23
ENDBRANCH  20  22
ENDBRANCH   1  20
BRANCH   3  30
HETATM   30  O1  UNL     1       0.815  10.811  15.675  1.00  0.00    -0.392 OA
HETATM   31  H17 UNL     1       0.760  10.642  16.639  1.00  0.00     0.210 HD
ENDBRANCH   3  30
BRANCH   4  32
HETATM   32  O2  UNL     1      -0.890   9.660  17.315  1.00  0.00    -0.383 OA
HETATM   33  H18 UNL     1      -1.169   8.792  17.677  1.00  0.00     0.210 HD
ENDBRANCH   4  32
BRANCH  19  34
HETATM   34  O5  UNL     1      -1.896   7.361  16.367  1.00  0.00    -0.386 OA
HETATM   35  H43 UNL     1      -2.820   7.259  16.090  1.00  0.00     0.210 HD
ENDBRANCH  19  34
BRANCH  17  36
HETATM   36  O4  UNL     1       2.235   6.629  14.676  1.00  0.00    -0.395 OA
HETATM   37  H40 UNL     1       2.325   6.185  15.536  1.00  0.00     0.210 HD
ENDBRANCH  17  36
BRANCH  14  38
HETATM   38  O3  UNL     1       2.186   7.763   9.726  1.00  0.00    -0.396 OA
HETATM   39  H35 UNL     1       3.111   7.691  10.022  1.00  0.00     0.210 HD
ENDBRANCH  14  38
TORSDOF 11
ENDMDL
MODEL 3
REMARK minimizedAffinity -6.75811815
REMARK CNNscore 0.816322088
REMARK CNNaffinity 6.10257339
REMARK  11 active torsions:
REMARK  status: ('A' for Active; 'I' for Inactive)
REMARK    1  A    between atoms: C2_2  and  C27_32 
REMARK    2  A    between atoms: C3_3  and  C4_4 
REMARK    3  A    between atoms: C4_4  and  C5_5 
REMARK    4  A    between atoms: C5_5  and  C6_6 
REMARK    5  A    between atoms: C6_6  and  C8_8 
REMARK    6  A    between atoms: C10_10  and  O1_11 
REMARK    7  A    between atoms: C11_12  and  O2_13 
REMARK    8  A    between atoms: C21_23  and  O3_24 
REMARK    9  A    between atoms: C24_27  and  O4_28 
REMARK   10  A    between atoms: C26_30  and  O5_31 
REMARK   11  A    between atoms: C27_32  and  O6_33 
ROOT
HETATM    1  C8  UNL     1      -2.802  12.124  15.778  1.00  0.00     0.003 C 
HETATM    2  C9  UNL     1      -1.304  12.381  15.967  1.00  0.00     0.041 C 
HETATM    3  C10 UNL     1      -0.687  11.044  15.587  1.00  0.00     0.156 C 
HETATM    4  C11 UNL     1      -1.551  10.022  16.360  1.00  0.00     0.122 C 
HETATM    5  C12 UNL     1      -3.018  10.664  16.358  1.00  0.00    -0.003 C 
HETATM    6  C13 UNL     1      -3.621  10.641  17.772  1.00  0.00     0.019 C 
HETATM    7  C14 UNL     1      -3.974   9.887  15.416  1.00  0.00     0.013 C 
HETATM    8  C15 UNL     1      -3.275   9.352  14.170  1.00  0.00     0.009 C 
HETATM    9  C16 UNL     1      -2.187   8.296  14.472  1.00  0.00     0.032 C 
HETATM   10  C17 UNL     1      -1.302   7.922  13.199  1.00  0.00    -0.031 C 
HETATM   11  C18 UNL     1      -1.848   6.546  12.698  1.00  0.00     0.016 C 
HETATM   12  C19 UNL     1      -1.414   8.917  12.004  1.00  0.00     0.012 C 
HETATM   13  C20 UNL     1      -0.534   8.548  10.805  1.00  0.00     0.032 C 
HETATM   14  C21 UNL     1       0.924   8.312  11.189  1.00  0.00     0.118 C 
HETATM   15  C22 UNL     1       1.076   7.368  12.381  1.00  0.00     0.039 C 
HETATM   16  C23 UNL     1       0.208   7.839  13.558  1.00  0.00     0.025 C 
HETATM   17  C24 UNL     1       0.414   7.051  14.850  1.00  0.00     0.126 C 
HETATM   18  C25 UNL     1      -0.054   7.922  16.008  1.00  0.00     0.073 C 
HETATM   19  C26 UNL     1      -1.468   8.535  15.850  1.00  0.00     0.099 C 
ENDROOT
BRANCH   1  20
HETATM   20  C6  UNL     1      -3.660  13.373  16.154  1.00  0.00    -0.013 C 
HETATM   21  C7  UNL     1      -4.498  13.284  17.426  1.00  0.00     0.010 C 
BRANCH  20  22
HETATM   22  C5  UNL     1      -4.375  14.043  14.950  1.00  0.00     0.008 C 
BRANCH  22  23
HETATM   23  C4  UNL     1      -3.875  15.384  14.400  1.00  0.00     0.028 C 
BRANCH  23  24
HETATM   24  C3  UNL     1      -2.629  15.911  15.055  1.00  0.00    -0.022 C 
HETATM   25  C2  UNL     1      -1.415  16.075  14.488  1.00  0.00    -0.064 C 
HETATM   26  C1  UNL     1      -0.269  16.640  15.288  1.00  0.00     0.045 C 
BRANCH  25  27
HETATM   27  C27 UNL     1      -1.077  15.739  13.060  1.00  0.00     0.197 C 
BRANCH  27  28
HETATM   28  O6  UNL     1      -1.687  14.503  12.720  1.00  0.00    -0.397 OA
HETATM   29  H46 UNL     1      -2.639  14.610  12.890  1.00  0.00     0.209 HD
ENDBRANCH  27  28
ENDBRANCH  25  27
ENDBRANCH  23  24
ENDBRANCH  22  23
ENDBRANCH  20  22
ENDBRANCH   1  20
BRANCH   3  30
HETATM   30  O1  UNL     1       0.675  11.037  15.983  1.00  0.00    -0.392 OA
HETATM   31  H17 UNL     1       0.651  10.893  16.953  1.00  0.00     0.210 HD
ENDBRANCH   3  30
BRANCH   4  32
HETATM   32  O2  UNL     1      -1.026  10.030  17.719  1.00  0.00    -0.383 OA
HETATM   33  H18 UNL     1      -1.343   9.189  18.113  1.00  0.00     0.210 HD
ENDBRANCH   4  32
BRANCH  19  34
HETATM   34  O5  UNL     1      -2.209   7.777  16.869  1.00  0.00    -0.386 OA
HETATM   35  H43 UNL     1      -3.148   7.726  16.632  1.00  0.00     0.210 HD
ENDBRANCH  19  34
BRANCH  17  36
HETATM   36  O4  UNL     1       1.796   6.754  15.032  1.00  0.00    -0.395 OA
HETATM   37  H40 UNL     1       1.894   6.324  15.899  1.00  0.00     0.210 HD
ENDBRANCH  17  36
BRANCH  14  38
HETATM   38  O3  UNL     1       1.609   7.778  10.061  1.00  0.00    -0.396 OA
HETATM   39  H35 UNL     1       2.540   7.655  10.322  1.00  0.00     0.210 HD
ENDBRANCH  14  38
TORSDOF 11
ENDMDL
MODEL 4
REMARK minimizedAffinity -7.40794611
REMARK CNNscore 0.778983414
REMARK CNNaffinity 6.45202208
REMARK  11 active torsions:
REMARK  status: ('A' for Active; 'I' for Inactive)
REMARK    1  A    between atoms: C2_2  and  C27_32 
REMARK    2  A    between atoms: C3_3  and  C4_4 
REMARK    3  A    between atoms: C4_4  and  C5_5 
REMARK    4  A    between atoms: C5_5  and  C6_6 
REMARK    5  A    between atoms: C6_6  and  C8_8 
REMARK    6  A    between atoms: C10_10  and  O1_11 
REMARK    7  A    between atoms: C11_12  and  O2_13 
REMARK    8  A    between atoms: C21_23  and  O3_24 
REMARK    9  A    between atoms: C24_27  and  O4_28 
REMARK   10  A    between atoms: C26_30  and  O5_31 
REMARK   11  A    between atoms: C27_32  and  O6_33 
ROOT
HETATM    1  C8  UNL     1     -10.372   7.485  14.658  1.00  0.00     0.003 C 
HETATM    2  C9  UNL     1     -10.119   8.925  15.112  1.00  0.00     0.041 C 
HETATM    3  C10 UNL     1     -11.522   9.511  15.158  1.00  0.00     0.156 C 
HETATM    4  C11 UNL     1     -12.138   9.063  13.813  1.00  0.00     0.122 C 
HETATM    5  C12 UNL     1     -11.491   7.623  13.543  1.00  0.00    -0.003 C 
HETATM    6  C13 UNL     1     -10.950   7.535  12.107  1.00  0.00     0.019 C 
HETATM    7  C14 UNL     1     -12.533   6.491  13.735  1.00  0.00     0.013 C 
HETATM    8  C15 UNL     1     -13.529   6.782  14.853  1.00  0.00     0.009 C 
HETATM    9  C16 UNL     1     -14.428   8.009  14.580  1.00  0.00     0.032 C 
HETATM   10  C17 UNL     1     -15.294   8.450  15.845  1.00  0.00    -0.031 C 
HETATM   11  C18 UNL     1     -16.735   7.909  15.578  1.00  0.00     0.016 C 
HETATM   12  C19 UNL     1     -14.827   7.845  17.204  1.00  0.00     0.012 C 
HETATM   13  C20 UNL     1     -15.658   8.305  18.407  1.00  0.00     0.032 C 
HETATM   14  C21 UNL     1     -15.784   9.823  18.496  1.00  0.00     0.118 C 
HETATM   15  C22 UNL     1     -16.206  10.460  17.172  1.00  0.00     0.039 C 
HETATM   16  C23 UNL     1     -15.289   9.993  16.030  1.00  0.00     0.025 C 
HETATM   17  C24 UNL     1     -15.531  10.697  14.698  1.00  0.00     0.126 C 
HETATM   18  C25 UNL     1     -14.267  10.560  13.860  1.00  0.00     0.073 C 
HETATM   19  C26 UNL     1     -13.709   9.120  13.731  1.00  0.00     0.099 C 
ENDROOT
BRANCH   1  20
HETATM   20  C6  UNL     1      -9.043   6.682  14.499  1.00  0.00    -0.013 C 
HETATM   21  C7  UNL     1      -7.756   7.369  14.946  1.00  0.00     0.010 C 
BRANCH  20  22
HETATM   22  C5  UNL     1      -8.929   5.892  13.166  1.00  0.00     0.008 C 
BRANCH  22  23
HETATM   23  C4  UNL     1      -8.305   4.493  13.145  1.00  0.00     0.028 C 
BRANCH  23  24
HETATM   24  C3  UNL     1      -6.911   4.431  12.585  1.00  0.00    -0.022 C 
HETATM   25  C2  UNL     1      -6.248   3.334  12.164  1.00  0.00    -0.064 C 
HETATM   26  C1  UNL     1      -4.852   3.453  11.606  1.00  0.00     0.045 C 
BRANCH  25  27
HETATM   27  C27 UNL     1      -6.795   1.932  12.190  1.00  0.00     0.197 C 
BRANCH  27  28
HETATM   28  O6  UNL     1      -8.151   1.973  12.608  1.00  0.00    -0.397 OA
HETATM   29  H46 UNL     1      -8.611   2.569  11.991  1.00  0.00     0.209 HD
ENDBRANCH  27  28
ENDBRANCH  25  27
ENDBRANCH  23  24
ENDBRANCH  22  23
ENDBRANCH  20  22
ENDBRANCH   1  20
BRANCH   3  30
HETATM   30  O1  UNL     1     -11.427  10.921  15.288  1.00  0.00    -0.392 OA
HETATM   31  H17 UNL     1     -11.189  11.237  14.391  1.00  0.00     0.210 HD
ENDBRANCH   3  30
BRANCH   4  32
HETATM   32  O2  UNL     1     -11.631  10.009  12.829  1.00  0.00    -0.383 OA
HETATM   33  H18 UNL     1     -12.245   9.930  12.067  1.00  0.00     0.210 HD
ENDBRANCH   4  32
BRANCH  19  34
HETATM   34  O5  UNL     1     -13.991   8.843  12.315  1.00  0.00    -0.386 OA
HETATM   35  H43 UNL     1     -14.094   7.889  12.174  1.00  0.00     0.210 HD
ENDBRANCH  19  34
BRANCH  17  36
HETATM   36  O4  UNL     1     -15.787  12.084  14.911  1.00  0.00    -0.395 OA
HETATM   37  H40 UNL     1     -15.857  12.509  14.039  1.00  0.00     0.210 HD
ENDBRANCH  17  36
BRANCH  14  38
HETATM   38  O3  UNL     1     -16.733  10.141  19.508  1.00  0.00    -0.396 OA
HETATM   39  H35 UNL     1     -16.782  11.112  19.561  1.00  0.00     0.210 HD
ENDBRANCH  14  38
TORSDOF 11
ENDMDL
MODEL 5
REMARK minimizedAffinity -6.9613061
REMARK CNNscore 0.778874159
REMARK CNNaffinity 6.02891779
REMARK  11 active torsions:
REMARK  status: ('A' for Active; 'I' for Inactive)
REMARK    1  A    between atoms: C2_2  and  C27_32 
REMARK    2  A    between atoms: C3_3  and  C4_4 
REMARK    3  A    between atoms: C4_4  and  C5_5 
REMARK    4  A    between atoms: C5_5  and  C6_6 
REMARK    5  A    between atoms: C6_6  and  C8_8 
REMARK    6  A    between atoms: C10_10  and  O1_11 
REMARK    7  A    between atoms: C11_12  and  O2_13 
REMARK    8  A    between atoms: C21_23  and  O3_24 
REMARK    9  A    between atoms: C24_27  and  O4_28 
REMARK   10  A    between atoms: C26_30  and  O5_31 
REMARK   11  A    between atoms: C27_32  and  O6_33 
ROOT
HETATM    1  C8  UNL     1      -2.683  12.102  15.870  1.00  0.00     0.003 C 
HETATM    2  C9  UNL     1      -1.177  12.304  16.064  1.00  0.00     0.041 C 
HETATM    3  C10 UNL     1      -0.605  10.957  15.649  1.00  0.00     0.156 C 
HETATM    4  C11 UNL     1      -1.503   9.945  16.396  1.00  0.00     0.122 C 
HETATM    5  C12 UNL     1      -2.948  10.635  16.410  1.00  0.00    -0.003 C 
HETATM    6  C13 UNL     1      -3.551  10.595  17.824  1.00  0.00     0.019 C 
HETATM    7  C14 UNL     1      -3.928   9.916  15.449  1.00  0.00     0.013 C 
HETATM    8  C15 UNL     1      -3.247   9.390  14.189  1.00  0.00     0.009 C 
HETATM    9  C16 UNL     1      -2.195   8.292  14.463  1.00  0.00     0.032 C 
HETATM   10  C17 UNL     1      -1.322   7.921  13.180  1.00  0.00    -0.031 C 
HETATM   11  C18 UNL     1      -1.913   6.578  12.643  1.00  0.00     0.016 C 
HETATM   12  C19 UNL     1      -1.400   8.951  12.012  1.00  0.00     0.012 C 
HETATM   13  C20 UNL     1      -0.532   8.585  10.803  1.00  0.00     0.032 C 
HETATM   14  C21 UNL     1       0.917   8.291  11.180  1.00  0.00     0.118 C 
HETATM   15  C22 UNL     1       1.037   7.311  12.347  1.00  0.00     0.039 C 
HETATM   16  C23 UNL     1       0.184   7.779  13.536  1.00  0.00     0.025 C 
HETATM   17  C24 UNL     1       0.363   6.951  14.806  1.00  0.00     0.126 C 
HETATM   18  C25 UNL     1      -0.076   7.806  15.987  1.00  0.00     0.073 C 
HETATM   19  C26 UNL     1      -1.469   8.470  15.846  1.00  0.00     0.099 C 
ENDROOT
BRANCH   1  20
HETATM   20  C6  UNL     1      -3.499  13.369  16.279  1.00  0.00    -0.013 C 
HETATM   21  C7  UNL     1      -3.535  13.724  17.762  1.00  0.00     0.010 C 
BRANCH  20  22
HETATM   22  C5  UNL     1      -4.856  13.520  15.541  1.00  0.00     0.008 C 
BRANCH  22  23
HETATM   23  C4  UNL     1      -5.960  14.409  16.123  1.00  0.00     0.028 C 
BRANCH  23  24
HETATM   24  C3  UNL     1      -7.188  13.673  16.581  1.00  0.00    -0.022 C 
HETATM   25  C2  UNL     1      -8.386  13.620  15.963  1.00  0.00    -0.064 C 
HETATM   26  C1  UNL     1      -9.515  12.811  16.552  1.00  0.00     0.045 C 
BRANCH  25  27
HETATM   27  C27 UNL     1      -8.723  14.318  14.672  1.00  0.00     0.197 C 
BRANCH  27  28
HETATM   28  O6  UNL     1      -9.392  13.405  13.815  1.00  0.00    -0.397 OA
HETATM   29  H46 UNL     1     -10.167  13.081  14.307  1.00  0.00     0.209 HD
ENDBRANCH  27  28
ENDBRANCH  25  27
ENDBRANCH  23  24
ENDBRANCH  22  23
ENDBRANCH  20  22
ENDBRANCH   1  20
BRANCH   3  30
HETATM   30  O1  UNL     1       0.756  10.895  16.044  1.00  0.00    -0.392 OA
HETATM   31  H17 UNL     1       0.726  10.726  17.010  1.00  0.00     0.210 HD
ENDBRANCH   3  30
BRANCH   4  32
HETATM   32  O2  UNL     1      -0.979   9.899  17.753  1.00  0.00    -0.383 OA
HETATM   33  H18 UNL     1      -1.323   9.059  18.126  1.00  0.00     0.210 HD
ENDBRANCH   4  32
BRANCH  19  34
HETATM   34  O5  UNL     1      -2.236   7.711  16.846  1.00  0.00    -0.386 OA
HETATM   35  H43 UNL     1      -3.176   7.697  16.607  1.00  0.00     0.210 HD
ENDBRANCH  19  34
BRANCH  17  36
HETATM   36  O4  UNL     1       1.734   6.604  14.980  1.00  0.00    -0.395 OA
HETATM   37  H40 UNL     1       1.818   6.148  15.836  1.00  0.00     0.210 HD
ENDBRANCH  17  36
BRANCH  14  38
HETATM   38  O3  UNL     1       1.584   7.764  10.038  1.00  0.00    -0.396 OA
HETATM   39  H35 UNL     1       2.510   7.603  10.295  1.00  0.00     0.210 HD
ENDBRANCH  14  38
TORSDOF 11
ENDMDL
MODEL 6
REMARK minimizedAffinity -9.65753555
REMARK CNNscore 0.769056976
REMARK CNNaffinity 6.63106298
REMARK  11 active torsions:
REMARK  status: ('A' for Active; 'I' for Inactive)
REMARK    1  A    between atoms: C2_2  and  C27_32 
REMARK    2  A    between atoms: C3_3  and  C4_4 
REMARK    3  A    between atoms: C4_4  and  C5_5 
REMARK    4  A    between atoms: C5_5  and  C6_6 
REMARK    5  A    between atoms: C6_6  and  C8_8 
REMARK    6  A    between atoms: C10_10  and  O1_11 
REMARK    7  A    between atoms: C11_12  and  O2_13 
REMARK    8  A    between atoms: C21_23  and  O3_24 
REMARK    9  A    between atoms: C24_27  and  O4_28 
REMARK   10  A    between atoms: C26_30  and  O5_31 
REMARK   11  A    between atoms: C27_32  and  O6_33 
ROOT
HETATM    1  C8  UNL     1      -2.818   7.265  12.897  1.00  0.00     0.003 C 
HETATM    2  C9  UNL     1      -2.333   8.703  13.105  1.00  0.00     0.041 C 
HETATM    3  C10 UNL     1      -0.849   8.603  12.784  1.00  0.00     0.156 C 
HETATM    4  C11 UNL     1      -0.398   7.355  13.576  1.00  0.00     0.122 C 
HETATM    5  C12 UNL     1      -1.664   6.375  13.522  1.00  0.00    -0.003 C 
HETATM    6  C13 UNL     1      -1.988   5.835  14.925  1.00  0.00     0.019 C 
HETATM    7  C14 UNL     1      -1.402   5.164  12.590  1.00  0.00     0.013 C 
HETATM    8  C15 UNL     1      -0.549   5.521  11.377  1.00  0.00     0.009 C 
HETATM    9  C16 UNL     1       0.886   5.970  11.736  1.00  0.00     0.032 C 
HETATM   10  C17 UNL     1       1.689   6.568  10.495  1.00  0.00    -0.031 C 
HETATM   11  C18 UNL     1       2.654   5.429  10.031  1.00  0.00     0.016 C 
HETATM   12  C19 UNL     1       0.810   6.947   9.264  1.00  0.00     0.012 C 
HETATM   13  C20 UNL     1       1.602   7.543   8.095  1.00  0.00     0.032 C 
HETATM   14  C21 UNL     1       2.492   8.709   8.515  1.00  0.00     0.118 C 
HETATM   15  C22 UNL     1       3.346   8.390   9.742  1.00  0.00     0.039 C 
HETATM   16  C23 UNL     1       2.470   7.853  10.885  1.00  0.00     0.025 C 
HETATM   17  C24 UNL     1       3.209   7.656  12.207  1.00  0.00     0.126 C 
HETATM   18  C25 UNL     1       2.175   7.663  13.325  1.00  0.00     0.073 C 
HETATM   19  C26 UNL     1       0.966   6.715  13.118  1.00  0.00     0.099 C 
ENDROOT
BRANCH   1  20
HETATM   20  C6  UNL     1      -4.338   7.111  13.213  1.00  0.00    -0.013 C 
HETATM   21  C7  UNL     1      -5.075   8.351  13.710  1.00  0.00     0.010 C 
BRANCH  20  22
HETATM   22  C5  UNL     1      -4.708   5.796  13.950  1.00  0.00     0.008 C 
BRANCH  22  23
HETATM   23  C4  UNL     1      -5.643   4.775  13.293  1.00  0.00     0.028 C 
BRANCH  23  24
HETATM   24  C3  UNL     1      -7.028   5.283  13.002  1.00  0.00    -0.022 C 
HETATM   25  C2  UNL     1      -7.950   5.700  13.895  1.00  0.00    -0.064 C 
HETATM   26  C1  UNL     1      -9.292   6.202  13.428  1.00  0.00     0.045 C 
BRANCH  25  27
HETATM   27  C27 UNL     1      -7.757   5.723  15.388  1.00  0.00     0.197 C 
BRANCH  27  28
HETATM   28  O6  UNL     1      -7.975   4.417  15.901  1.00  0.00    -0.397 OA
HETATM   29  H46 UNL     1      -7.360   3.829  15.428  1.00  0.00     0.209 HD
ENDBRANCH  27  28
ENDBRANCH  25  27
ENDBRANCH  23  24
ENDBRANCH  22  23
ENDBRANCH  20  22
ENDBRANCH   1  20
BRANCH   3  30
HETATM   30  O1  UNL     1      -0.207   9.795  13.206  1.00  0.00    -0.392 OA
HETATM   31  H17 UNL     1      -0.130   9.704  14.180  1.00  0.00     0.210 HD
ENDBRANCH   3  30
BRANCH   4  32
HETATM   32  O2  UNL     1      -0.207   7.819  14.942  1.00  0.00    -0.383 OA
HETATM   33  H18 UNL     1       0.363   7.138  15.360  1.00  0.00     0.210 HD
ENDBRANCH   4  32
BRANCH  19  34
HETATM   34  O5  UNL     1       1.235   5.701  14.149  1.00  0.00    -0.386 OA
HETATM   35  H43 UNL     1       0.840   4.852  13.896  1.00  0.00     0.210 HD
ENDBRANCH  19  34
BRANCH  17  36
HETATM   36  O4  UNL     1       4.124   8.726  12.426  1.00  0.00    -0.395 OA
HETATM   37  H40 UNL     1       4.514   8.606  13.309  1.00  0.00     0.210 HD
ENDBRANCH  17  36
BRANCH  14  38
HETATM   38  O3  UNL     1       3.333   9.054   7.420  1.00  0.00    -0.396 OA
HETATM   39  H35 UNL     1       3.877   9.812   7.702  1.00  0.00     0.210 HD
ENDBRANCH  14  38
TORSDOF 11
ENDMDL
MODEL 7
REMARK minimizedAffinity -7.87502098
REMARK CNNscore 0.757570386
REMARK CNNaffinity 6.33521128
REMARK  11 active torsions:
REMARK  status: ('A' for Active; 'I' for Inactive)
REMARK    1  A    between atoms: C2_2  and  C27_32 
REMARK    2  A    between atoms: C3_3  and  C4_4 
REMARK    3  A    between atoms: C4_4  and  C5_5 
REMARK    4  A    between atoms: C5_5  and  C6_6 
REMARK    5  A    between atoms: C6_6  and  C8_8 
REMARK    6  A    between atoms: C10_10  and  O1_11 
REMARK    7  A    between atoms: C11_12  and  O2_13 
REMARK    8  A    between atoms: C21_23  and  O3_24 
REMARK    9  A    between atoms: C24_27  and  O4_28 
REMARK   10  A    between atoms: C26_30  and  O5_31 
REMARK   11  A    between atoms: C27_32  and  O6_33 
ROOT
HETATM    1  C8  UNL     1      -3.715   7.403  15.389  1.00  0.00     0.003 C 
HETATM    2  C9  UNL     1      -2.488   6.507  15.583  1.00  0.00     0.041 C 
HETATM    3  C10 UNL     1      -1.353   7.514  15.689  1.00  0.00     0.156 C 
HETATM    4  C11 UNL     1      -1.617   8.471  14.504  1.00  0.00     0.122 C 
HETATM    5  C12 UNL     1      -3.214   8.530  14.393  1.00  0.00    -0.003 C 
HETATM    6  C13 UNL     1      -3.663   8.317  12.938  1.00  0.00     0.019 C 
HETATM    7  C14 UNL     1      -3.763   9.900  14.869  1.00  0.00     0.013 C 
HETATM    8  C15 UNL     1      -2.966  10.489  16.028  1.00  0.00     0.009 C 
HETATM    9  C16 UNL     1      -1.504  10.834  15.667  1.00  0.00     0.032 C 
HETATM   10  C17 UNL     1      -0.615  11.220  16.933  1.00  0.00    -0.031 C 
HETATM   11  C18 UNL     1      -0.504  12.779  16.910  1.00  0.00     0.016 C 
HETATM   12  C19 UNL     1      -1.230  10.829  18.312  1.00  0.00     0.012 C 
HETATM   13  C20 UNL     1      -0.345  11.188  19.511  1.00  0.00     0.032 C 
HETATM   14  C21 UNL     1       1.080  10.659  19.375  1.00  0.00     0.118 C 
HETATM   15  C22 UNL     1       1.708  10.991  18.021  1.00  0.00     0.039 C 
HETATM   16  C23 UNL     1       0.785  10.549  16.875  1.00  0.00     0.025 C 
HETATM   17  C24 UNL     1       1.395  10.692  15.483  1.00  0.00     0.126 C 
HETATM   18  C25 UNL     1       0.648   9.754  14.546  1.00  0.00     0.073 C 
HETATM   19  C26 UNL     1      -0.897   9.869  14.583  1.00  0.00     0.099 C 
ENDROOT
BRANCH   1  20
HETATM   20  C6  UNL     1      -5.023   6.570  15.215  1.00  0.00    -0.013 C 
HETATM   21  C7  UNL     1      -5.076   5.594  14.043  1.00  0.00     0.010 C 
BRANCH  20  22
HETATM   22  C5  UNL     1      -6.329   7.376  15.449  1.00  0.00     0.008 C 
BRANCH  22  23
HETATM   23  C4  UNL     1      -7.565   6.693  16.045  1.00  0.00     0.028 C 
BRANCH  23  24
HETATM   24  C3  UNL     1      -8.867   7.053  15.385  1.00  0.00    -0.022 C 
HETATM   25  C2  UNL     1      -9.282   6.699  14.151  1.00  0.00    -0.064 C 
HETATM   26  C1  UNL     1     -10.636   7.131  13.648  1.00  0.00     0.045 C 
BRANCH  25  27
HETATM   27  C27 UNL     1      -8.490   5.867  13.180  1.00  0.00     0.197 C 
BRANCH  27  28
HETATM   28  O6  UNL     1      -8.858   4.504  13.332  1.00  0.00    -0.397 OA
HETATM   29  H46 UNL     1      -9.822   4.463  13.199  1.00  0.00     0.209 HD
ENDBRANCH  27  28
ENDBRANCH  25  27
ENDBRANCH  23  24
ENDBRANCH  22  23
ENDBRANCH  20  22
ENDBRANCH   1  20
BRANCH   3  30
HETATM   30  O1  UNL     1      -0.117   6.827  15.587  1.00  0.00    -0.392 OA
HETATM   31  H17 UNL     1      -0.021   6.629  14.631  1.00  0.00     0.210 HD
ENDBRANCH   3  30
BRANCH   4  32
HETATM   32  O2  UNL     1      -1.081   7.787  13.335  1.00  0.00    -0.383 OA
HETATM   33  H18 UNL     1      -0.960   8.495  12.666  1.00  0.00     0.210 HD
ENDBRANCH   4  32
BRANCH  19  34
HETATM   34  O5  UNL     1      -1.158  10.468  13.266  1.00  0.00    -0.386 OA
HETATM   35  H43 UNL     1      -1.984  10.977  13.287  1.00  0.00     0.210 HD
ENDBRANCH  19  34
BRANCH  17  36
HETATM   36  O4  UNL     1       2.770  10.314  15.504  1.00  0.00    -0.395 OA
HETATM   37  H40 UNL     1       3.099  10.343  14.589  1.00  0.00     0.210 HD
ENDBRANCH  17  36
BRANCH  14  38
HETATM   38  O3  UNL     1       1.871  11.213  20.421  1.00  0.00    -0.396 OA
HETATM   39  H35 UNL     1       2.769  10.846  20.328  1.00  0.00     0.210 HD
ENDBRANCH  14  38
TORSDOF 11
ENDMDL
MODEL 8
REMARK minimizedAffinity -9.93097019
REMARK CNNscore 0.747404099
REMARK CNNaffinity 6.75996447
REMARK  11 active torsions:
REMARK  status: ('A' for Active; 'I' for Inactive)
REMARK    1  A    between atoms: C2_2  and  C27_32 
REMARK    2  A    between atoms: C3_3  and  C4_4 
REMARK    3  A    between atoms: C4_4  and  C5_5 
REMARK    4  A    between atoms: C5_5  and  C6_6 
REMARK    5  A    between atoms: C6_6  and  C8_8 
REMARK    6  A    between atoms: C10_10  and  O1_11 
REMARK    7  A    between atoms: C11_12  and  O2_13 
REMARK    8  A    between atoms: C21_23  and  O3_24 
REMARK    9  A    between atoms: C24_27  and  O4_28 
REMARK   10  A    between atoms: C26_30  and  O5_31 
REMARK   11  A    between atoms: C27_32  and  O6_33 
ROOT
HETATM    1  C8  UNL     1      -2.895   7.190  12.892  1.00  0.00     0.003 C 
HETATM    2  C9  UNL     1      -2.420   8.635  13.072  1.00  0.00     0.041 C 
HETATM    3  C10 UNL     1      -0.930   8.535  12.783  1.00  0.00     0.156 C 
HETATM    4  C11 UNL     1      -0.489   7.309  13.616  1.00  0.00     0.122 C 
HETATM    5  C12 UNL     1      -1.749   6.323  13.563  1.00  0.00    -0.003 C 
HETATM    6  C13 UNL     1      -2.099   5.817  14.972  1.00  0.00     0.019 C 
HETATM    7  C14 UNL     1      -1.464   5.089  12.667  1.00  0.00     0.013 C 
HETATM    8  C15 UNL     1      -0.588   5.419  11.463  1.00  0.00     0.009 C 
HETATM    9  C16 UNL     1       0.837   5.884  11.839  1.00  0.00     0.032 C 
HETATM   10  C17 UNL     1       1.662   6.453  10.598  1.00  0.00    -0.031 C 
HETATM   11  C18 UNL     1       2.641   5.308  10.183  1.00  0.00     0.016 C 
HETATM   12  C19 UNL     1       0.806   6.796   9.341  1.00  0.00     0.012 C 
HETATM   13  C20 UNL     1       1.619   7.365   8.173  1.00  0.00     0.032 C 
HETATM   14  C21 UNL     1       2.496   8.546   8.580  1.00  0.00     0.118 C 
HETATM   15  C22 UNL     1       3.326   8.263   9.832  1.00  0.00     0.039 C 
HETATM   16  C23 UNL     1       2.430   7.751  10.971  1.00  0.00     0.025 C 
HETATM   17  C24 UNL     1       3.143   7.592  12.312  1.00  0.00     0.126 C 
HETATM   18  C25 UNL     1       2.087   7.623  13.408  1.00  0.00     0.073 C 
HETATM   19  C26 UNL     1       0.887   6.665  13.203  1.00  0.00     0.099 C 
ENDROOT
BRANCH   1  20
HETATM   20  C6  UNL     1      -4.420   7.037  13.181  1.00  0.00    -0.013 C 
HETATM   21  C7  UNL     1      -5.146   8.253  13.750  1.00  0.00     0.010 C 
BRANCH  20  22
HETATM   22  C5  UNL     1      -4.815   5.683  13.829  1.00  0.00     0.008 C 
BRANCH  22  23
HETATM   23  C4  UNL     1      -6.052   4.921  13.341  1.00  0.00     0.028 C 
BRANCH  23  24
HETATM   24  C3  UNL     1      -5.772   3.838  12.336  1.00  0.00    -0.022 C 
HETATM   25  C2  UNL     1      -6.436   2.673  12.185  1.00  0.00    -0.064 C 
HETATM   26  C1  UNL     1      -6.034   1.700  11.105  1.00  0.00     0.045 C 
BRANCH  25  27
HETATM   27  C27 UNL     1      -7.602   2.229  13.026  1.00  0.00     0.197 C 
BRANCH  27  28
HETATM   28  O6  UNL     1      -8.662   3.161  12.873  1.00  0.00    -0.397 OA
HETATM   29  H46 UNL     1      -8.853   3.208  11.920  1.00  0.00     0.209 HD
ENDBRANCH  27  28
ENDBRANCH  25  27
ENDBRANCH  23  24
ENDBRANCH  22  23
ENDBRANCH  20  22
ENDBRANCH   1  20
BRANCH   3  30
HETATM   30  O1  UNL     1      -0.301   9.740  13.187  1.00  0.00    -0.392 OA
HETATM   31  H17 UNL     1      -0.244   9.675  14.164  1.00  0.00     0.210 HD
ENDBRANCH   3  30
BRANCH   4  32
HETATM   32  O2  UNL     1      -0.328   7.810  14.974  1.00  0.00    -0.383 OA
HETATM   33  H18 UNL     1       0.237   7.143  15.420  1.00  0.00     0.210 HD
ENDBRANCH   4  32
BRANCH  19  34
HETATM   34  O5  UNL     1       1.139   5.679  14.265  1.00  0.00    -0.386 OA
HETATM   35  H43 UNL     1       0.753   4.822  14.025  1.00  0.00     0.210 HD
ENDBRANCH  19  34
BRANCH  17  36
HETATM   36  O4  UNL     1       4.049   8.673  12.521  1.00  0.00    -0.395 OA
HETATM   37  H40 UNL     1       4.421   8.577  13.415  1.00  0.00     0.210 HD
ENDBRANCH  17  36
BRANCH  14  38
HETATM   38  O3  UNL     1       3.357   8.868   7.494  1.00  0.00    -0.396 OA
HETATM   39  H35 UNL     1       3.891   9.635   7.767  1.00  0.00     0.210 HD
ENDBRANCH  14  38
TORSDOF 11
ENDMDL
MODEL 9
REMARK minimizedAffinity -7.2014513
REMARK CNNscore 0.729807019
REMARK CNNaffinity 6.15064669
REMARK  11 active torsions:
REMARK  status: ('A' for Active; 'I' for Inactive)
REMARK    1  A    between atoms: C2_2  and  C27_32 
REMARK    2  A    between atoms: C3_3  and  C4_4 
REMARK    3  A    between atoms: C4_4  and  C5_5 
REMARK    4  A    between atoms: C5_5  and  C6_6 
REMARK    5  A    between atoms: C6_6  and  C8_8 
REMARK    6  A    between atoms: C10_10  and  O1_11 
REMARK    7  A    between atoms: C11_12  and  O2_13 
REMARK    8  A    between atoms: C21_23  and  O3_24 
REMARK    9  A    between atoms: C24_27  and  O4_28 
REMARK   10  A    between atoms: C26_30  and  O5_31 
REMARK   11  A    between atoms: C27_32  and  O6_33 
ROOT
HETATM    1  C8  UNL     1      -0.750   7.919  13.210  1.00  0.00     0.003 C 
HETATM    2  C9  UNL     1      -2.120   8.057  12.540  1.00  0.00     0.041 C 
HETATM    3  C10 UNL     1      -2.799   9.123  13.386  1.00  0.00     0.156 C 
HETATM    4  C11 UNL     1      -2.525   8.655  14.833  1.00  0.00     0.122 C 
HETATM    5  C12 UNL     1      -1.073   7.983  14.761  1.00  0.00    -0.003 C 
HETATM    6  C13 UNL     1      -1.079   6.608  15.450  1.00  0.00     0.019 C 
HETATM    7  C14 UNL     1      -0.006   8.865  15.460  1.00  0.00     0.013 C 
HETATM    8  C15 UNL     1      -0.264  10.358  15.287  1.00  0.00     0.009 C 
HETATM    9  C16 UNL     1      -1.573  10.845  15.949  1.00  0.00     0.032 C 
HETATM   10  C17 UNL     1      -1.956  12.344  15.563  1.00  0.00    -0.031 C 
HETATM   11  C18 UNL     1      -1.549  13.213  16.796  1.00  0.00     0.016 C 
HETATM   12  C19 UNL     1      -1.195  12.920  14.330  1.00  0.00     0.012 C 
HETATM   13  C20 UNL     1      -1.600  14.352  13.964  1.00  0.00     0.032 C 
HETATM   14  C21 UNL     1      -3.109  14.520  13.806  1.00  0.00     0.118 C 
HETATM   15  C22 UNL     1      -3.895  13.935  14.979  1.00  0.00     0.039 C 
HETATM   16  C23 UNL     1      -3.471  12.482  15.244  1.00  0.00     0.025 C 
HETATM   17  C24 UNL     1      -4.312  11.760  16.293  1.00  0.00     0.126 C 
HETATM   18  C25 UNL     1      -4.161  10.262  16.063  1.00  0.00     0.073 C 
HETATM   19  C26 UNL     1      -2.703   9.751  15.949  1.00  0.00     0.099 C 
ENDROOT
BRANCH   1  20
HETATM   20  C6  UNL     1       0.130   6.829  12.522  1.00  0.00    -0.013 C 
HETATM   21  C7  UNL     1       0.681   5.718  13.410  1.00  0.00     0.010 C 
BRANCH  20  22
HETATM   22  C5  UNL     1       1.134   7.385  11.476  1.00  0.00     0.008 C 
BRANCH  22  23
HETATM   23  C4  UNL     1       0.665   8.368  10.398  1.00  0.00     0.028 C 
BRANCH  23  24
HETATM   24  C3  UNL     1       0.794   7.867   8.986  1.00  0.00    -0.022 C 
HETATM   25  C2  UNL     1       1.924   7.769   8.255  1.00  0.00    -0.064 C 
HETATM   26  C1  UNL     1       1.879   7.220   6.851  1.00  0.00     0.045 C 
BRANCH  25  27
HETATM   27  C27 UNL     1       3.296   8.166   8.729  1.00  0.00     0.197 C 
BRANCH  27  28
HETATM   28  O6  UNL     1       3.934   7.032   9.296  1.00  0.00    -0.397 OA
HETATM   29  H46 UNL     1       3.934   6.342   8.609  1.00  0.00     0.209 HD
ENDBRANCH  27  28
ENDBRANCH  25  27
ENDBRANCH  23  24
ENDBRANCH  22  23
ENDBRANCH  20  22
ENDBRANCH   1  20
BRANCH   3  30
HETATM   30  O1  UNL     1      -4.180   9.156  13.062  1.00  0.00    -0.392 OA
HETATM   31  H17 UNL     1      -4.560   8.374  13.516  1.00  0.00     0.210 HD
ENDBRANCH   3  30
BRANCH   4  32
HETATM   32  O2  UNL     1      -3.518   7.623  15.095  1.00  0.00    -0.383 OA
HETATM   33  H18 UNL     1      -3.555   7.554  16.073  1.00  0.00     0.210 HD
ENDBRANCH   4  32
BRANCH  19  34
HETATM   34  O5  UNL     1      -2.580   8.992  17.202  1.00  0.00    -0.386 OA
HETATM   35  H43 UNL     1      -1.653   8.962  17.487  1.00  0.00     0.210 HD
ENDBRANCH  19  34
BRANCH  17  36
HETATM   36  O4  UNL     1      -5.687  12.106  16.148  1.00  0.00    -0.395 OA
HETATM   37  H40 UNL     1      -6.196  11.569  16.779  1.00  0.00     0.210 HD
ENDBRANCH  17  36
BRANCH  14  38
HETATM   38  O3  UNL     1      -3.400  15.907  13.675  1.00  0.00    -0.396 OA
HETATM   39  H35 UNL     1      -4.363  15.989  13.554  1.00  0.00     0.210 HD
ENDBRANCH  14  38
TORSDOF 11
ENDMDL
