MODEL 1
REMARK minimizedAffinity -9.56395817
REMARK  11 active torsions:
REMARK  status: ('A' for Active; 'I' for Inactive)
REMARK    1  A    between atoms: C4_4  and  C5_5 
REMARK    2  A    between atoms: C15_15  and  C16_16 
REMARK    3  A    between atoms: C16_16  and  C18_18 
REMARK    4  A    between atoms: C19_19  and  C20_20 
REMARK    5  A    between atoms: C20_20  and  O1_21 
REMARK    6  A    between atoms: C20_20  and  C21_22 
REMARK    7  A    between atoms: C20_20  and  C22_24 
REMARK    8  A    between atoms: C21_22  and  O2_23 
REMARK    9  A    between atoms: C22_24  and  O3_27 
REMARK   10  A    between atoms: C26_29  and  O4_30 
REMARK   11  A    between atoms: C28_32  and  O5_33 
ROOT
HETATM    1  C5  UNL     1       1.459   6.036  10.956  1.00  0.00     0.004 C 
HETATM    2  C6  UNL     1       0.612   6.105  12.006  1.00  0.00    -0.075 C 
HETATM    3  C7  UNL     1       0.986   5.834  13.446  1.00  0.00     0.034 C 
HETATM    4  C8  UNL     1       0.421   6.860  14.435  1.00  0.00     0.005 C 
HETATM    5  C9  UNL     1      -0.308   8.020  13.765  1.00  0.00     0.010 C 
HETATM    6  C10 UNL     1      -1.400   7.582  12.746  1.00  0.00    -0.032 C 
HETATM    7  C11 UNL     1      -1.741   8.840  11.929  1.00  0.00     0.016 C 
HETATM    8  C12 UNL     1      -0.846   6.495  11.763  1.00  0.00     0.023 C 
HETATM    9  C13 UNL     1      -1.794   5.300  11.874  1.00  0.00     0.010 C 
HETATM   10  C14 UNL     1      -2.381   5.392  13.265  1.00  0.00     0.007 C 
HETATM   11  C15 UNL     1      -2.619   6.901  13.500  1.00  0.00     0.002 C 
ENDROOT
BRANCH  11  12
HETATM   12  C16 UNL     1      -4.081   7.319  13.111  1.00  0.00     0.009 C 
HETATM   13  C17 UNL     1      -4.491   8.700  13.645  1.00  0.00     0.014 C 
BRANCH  12  14
HETATM   14  C18 UNL     1      -5.163   6.356  13.588  1.00  0.00    -0.023 C 
HETATM   15  C19 UNL     1      -6.492   6.571  13.549  1.00  0.00     0.012 C 
BRANCH  15  16
HETATM   16  C20 UNL     1      -7.594   5.618  14.017  1.00  0.00     0.126 C 
BRANCH  16  17
HETATM   17  O1  UNL     1      -8.803   5.955  13.313  1.00  0.00    -0.381 OA
HETATM   18  H26 UNL     1      -9.204   5.120  13.010  1.00  0.00     0.211 HD
ENDBRANCH  16  17
BRANCH  16  19
HETATM   19  C21 UNL     1      -7.169   4.177  13.605  1.00  0.00     0.209 C 
BRANCH  19  20
HETATM   20  O2  UNL     1      -8.313   3.326  13.434  1.00  0.00    -0.397 OA
HETATM   21  H29 UNL     1      -9.091   3.906  13.305  1.00  0.00     0.209 HD
ENDBRANCH  19  20
ENDBRANCH  16  19
BRANCH  16  22
HETATM   22  C22 UNL     1      -7.835   5.752  15.571  1.00  0.00     0.087 C 
HETATM   23  C23 UNL     1      -6.571   6.227  16.314  1.00  0.00     0.049 C 
HETATM   24  C24 UNL     1      -8.960   6.747  15.901  1.00  0.00     0.049 C 
BRANCH  22  25
HETATM   25  O3  UNL     1      -8.242   4.489  16.122  1.00  0.00    -0.387 OA
HETATM   26  H36 UNL     1      -7.437   3.970  16.301  1.00  0.00     0.210 HD
ENDBRANCH  22  25
ENDBRANCH  16  22
ENDBRANCH  15  16
ENDBRANCH  12  14
ENDBRANCH  11  12
BRANCH   1  27
HETATM   27  C4  UNL     1       2.856   5.646  10.982  1.00  0.00     0.008 C 
HETATM   28  C3  UNL     1       3.924   6.432  10.731  1.00  0.00    -0.048 C 
HETATM   29  C2  UNL     1       3.877   7.847  10.388  1.00  0.00    -0.033 C 
HETATM   30  C25 UNL     1       5.337   5.879  10.879  1.00  0.00     0.071 C 
HETATM   31  C1  UNL     1       3.260   8.297   9.282  1.00  0.00     0.022 C 
HETATM   32  C28 UNL     1       4.668   8.771  11.293  1.00  0.00     0.153 C 
HETATM   33  C27 UNL     1       5.714   8.044  12.150  1.00  0.00     0.068 C 
HETATM   34  C26 UNL     1       6.374   6.907  11.378  1.00  0.00     0.125 C 
BRANCH  32  35
HETATM   35  O5  UNL     1       3.770   9.455  12.170  1.00  0.00    -0.391 OA
HETATM   36  H44 UNL     1       3.083   8.811  12.416  1.00  0.00     0.210 HD
ENDBRANCH  32  35
BRANCH  34  37
HETATM   37  O4  UNL     1       7.099   7.436  10.266  1.00  0.00    -0.395 OA
HETATM   38  H40 UNL     1       7.820   7.987  10.618  1.00  0.00     0.210 HD
ENDBRANCH  34  37
ENDBRANCH   1  27
TORSDOF 11
ENDMDL
MODEL 2
REMARK minimizedAffinity -9.23513222
REMARK  11 active torsions:
REMARK  status: ('A' for Active; 'I' for Inactive)
REMARK    1  A    between atoms: C4_4  and  C5_5 
REMARK    2  A    between atoms: C15_15  and  C16_16 
REMARK    3  A    between atoms: C16_16  and  C18_18 
REMARK    4  A    between atoms: C19_19  and  C20_20 
REMARK    5  A    between atoms: C20_20  and  O1_21 
REMARK    6  A    between atoms: C20_20  and  C21_22 
REMARK    7  A    between atoms: C20_20  and  C22_24 
REMARK    8  A    between atoms: C21_22  and  O2_23 
REMARK    9  A    between atoms: C22_24  and  O3_27 
REMARK   10  A    between atoms: C26_29  and  O4_30 
REMARK   11  A    between atoms: C28_32  and  O5_33 
ROOT
HETATM    1  C5  UNL     1       1.814   7.231  12.949  1.00  0.00     0.004 C 
HETATM    2  C6  UNL     1       0.526   7.127  12.557  1.00  0.00    -0.075 C 
HETATM    3  C7  UNL     1       0.066   6.741  11.169  1.00  0.00     0.034 C 
HETATM    4  C8  UNL     1      -1.081   5.723  11.159  1.00  0.00     0.005 C 
HETATM    5  C9  UNL     1      -1.457   5.209  12.544  1.00  0.00     0.010 C 
HETATM    6  C10 UNL     1      -1.729   6.331  13.588  1.00  0.00    -0.032 C 
HETATM    7  C11 UNL     1      -1.717   5.639  14.962  1.00  0.00     0.016 C 
HETATM    8  C12 UNL     1      -0.586   7.403  13.569  1.00  0.00     0.023 C 
HETATM    9  C13 UNL     1      -1.271   8.749  13.329  1.00  0.00     0.010 C 
HETATM   10  C14 UNL     1      -2.539   8.416  12.575  1.00  0.00     0.007 C 
HETATM   11  C15 UNL     1      -3.060   7.114  13.224  1.00  0.00     0.002 C 
ENDROOT
BRANCH  11  12
HETATM   12  C16 UNL     1      -4.097   7.416  14.363  1.00  0.00     0.009 C 
HETATM   13  C17 UNL     1      -3.682   6.871  15.738  1.00  0.00     0.014 C 
BRANCH  12  14
HETATM   14  C18 UNL     1      -5.496   6.864  14.108  1.00  0.00    -0.023 C 
HETATM   15  C19 UNL     1      -6.128   5.928  14.842  1.00  0.00     0.012 C 
BRANCH  15  16
HETATM   16  C20 UNL     1      -7.531   5.364  14.607  1.00  0.00     0.126 C 
BRANCH  16  17
HETATM   17  O1  UNL     1      -7.899   4.589  15.762  1.00  0.00    -0.381 OA
HETATM   18  H26 UNL     1      -8.814   4.829  15.993  1.00  0.00     0.211 HD
ENDBRANCH  16  17
BRANCH  16  19
HETATM   19  C21 UNL     1      -8.505   6.575  14.495  1.00  0.00     0.209 C 
BRANCH  19  20
HETATM   20  O2  UNL     1      -9.812   6.237  14.989  1.00  0.00    -0.397 OA
HETATM   21  H29 UNL     1      -9.712   5.450  15.562  1.00  0.00     0.209 HD
ENDBRANCH  19  20
ENDBRANCH  16  19
BRANCH  16  22
HETATM   22  C22 UNL     1      -7.564   4.447  13.324  1.00  0.00     0.087 C 
HETATM   23  C23 UNL     1      -8.043   5.213  12.076  1.00  0.00     0.049 C 
HETATM   24  C24 UNL     1      -6.182   3.856  12.995  1.00  0.00     0.049 C 
BRANCH  22  25
HETATM   25  O3  UNL     1      -8.439   3.326  13.536  1.00  0.00    -0.387 OA
HETATM   26  H36 UNL     1      -9.347   3.617  13.340  1.00  0.00     0.210 HD
ENDBRANCH  22  25
ENDBRANCH  16  22
ENDBRANCH  15  16
ENDBRANCH  12  14
ENDBRANCH  11  12
BRANCH   1  27
HETATM   27  C4  UNL     1       2.997   7.050  12.128  1.00  0.00     0.008 C 
HETATM   28  C3  UNL     1       4.233   7.535  12.365  1.00  0.00    -0.048 C 
HETATM   29  C2  UNL     1       4.624   8.341  13.515  1.00  0.00    -0.033 C 
HETATM   30  C25 UNL     1       5.389   7.183  11.436  1.00  0.00     0.071 C 
HETATM   31  C1  UNL     1       4.081   9.544  13.766  1.00  0.00     0.022 C 
HETATM   32  C28 UNL     1       5.767   7.791  14.346  1.00  0.00     0.153 C 
HETATM   33  C27 UNL     1       6.595   6.720  13.621  1.00  0.00     0.068 C 
HETATM   34  C26 UNL     1       6.754   7.047  12.140  1.00  0.00     0.125 C 
BRANCH  32  35
HETATM   35  O5  UNL     1       5.244   7.215  15.546  1.00  0.00    -0.391 OA
HETATM   36  H44 UNL     1       4.411   6.776  15.298  1.00  0.00     0.210 HD
ENDBRANCH  32  35
BRANCH  34  37
HETATM   37  O4  UNL     1       7.495   8.261  11.992  1.00  0.00    -0.395 OA
HETATM   38  H40 UNL     1       8.391   8.105  12.340  1.00  0.00     0.210 HD
ENDBRANCH  34  37
ENDBRANCH   1  27
TORSDOF 11
ENDMDL
MODEL 3
REMARK minimizedAffinity -9.10548401
REMARK  11 active torsions:
REMARK  status: ('A' for Active; 'I' for Inactive)
REMARK    1  A    between atoms: C4_4  and  C5_5 
REMARK    2  A    between atoms: C15_15  and  C16_16 
REMARK    3  A    between atoms: C16_16  and  C18_18 
REMARK    4  A    between atoms: C19_19  and  C20_20 
REMARK    5  A    between atoms: C20_20  and  O1_21 
REMARK    6  A    between atoms: C20_20  and  C21_22 
REMARK    7  A    between atoms: C20_20  and  C22_24 
REMARK    8  A    between atoms: C21_22  and  O2_23 
REMARK    9  A    between atoms: C22_24  and  O3_27 
REMARK   10  A    between atoms: C26_29  and  O4_30 
REMARK   11  A    between atoms: C28_32  and  O5_33 
ROOT
HETATM    1  C5  UNL     1      -4.862   6.623  12.943  1.00  0.00     0.004 C 
HETATM    2  C6  UNL     1      -3.760   5.857  13.094  1.00  0.00    -0.075 C 
HETATM    3  C7  UNL     1      -3.761   4.356  13.275  1.00  0.00     0.034 C 
HETATM    4  C8  UNL     1      -2.709   3.630  12.428  1.00  0.00     0.005 C 
HETATM    5  C9  UNL     1      -1.946   4.548  11.480  1.00  0.00     0.010 C 
HETATM    6  C10 UNL     1      -1.328   5.801  12.165  1.00  0.00    -0.032 C 
HETATM    7  C11 UNL     1      -0.943   6.759  11.025  1.00  0.00     0.016 C 
HETATM    8  C12 UNL     1      -2.382   6.520  13.074  1.00  0.00     0.023 C 
HETATM    9  C13 UNL     1      -1.757   6.602  14.467  1.00  0.00     0.010 C 
HETATM   10  C14 UNL     1      -0.793   5.438  14.535  1.00  0.00     0.007 C 
HETATM   11  C15 UNL     1      -0.145   5.374  13.133  1.00  0.00     0.002 C 
ENDROOT
BRANCH  11  12
HETATM   12  C16 UNL     1       1.202   6.180  13.086  1.00  0.00     0.009 C 
HETATM   13  C17 UNL     1       1.018   7.699  13.233  1.00  0.00     0.014 C 
BRANCH  12  14
HETATM   14  C18 UNL     1       2.012   5.985  11.809  1.00  0.00    -0.023 C 
HETATM   15  C19 UNL     1       2.382   6.951  10.946  1.00  0.00     0.012 C 
BRANCH  15  16
HETATM   16  C20 UNL     1       3.198   6.778   9.664  1.00  0.00     0.126 C 
BRANCH  16  17
HETATM   17  O1  UNL     1       4.525   7.276   9.910  1.00  0.00    -0.381 OA
HETATM   18  H26 UNL     1       5.152   6.626   9.542  1.00  0.00     0.211 HD
ENDBRANCH  16  17
BRANCH  16  19
HETATM   19  C21 UNL     1       3.291   5.250   9.374  1.00  0.00     0.209 C 
BRANCH  19  20
HETATM   20  O2  UNL     1       4.590   4.735   9.709  1.00  0.00    -0.397 OA
HETATM   21  H29 UNL     1       5.006   5.373  10.324  1.00  0.00     0.209 HD
ENDBRANCH  19  20
ENDBRANCH  16  19
BRANCH  16  22
HETATM   22  C22 UNL     1       2.549   7.577   8.469  1.00  0.00     0.087 C 
HETATM   23  C23 UNL     1       2.283   6.677   7.247  1.00  0.00     0.049 C 
HETATM   24  C24 UNL     1       1.208   8.222   8.860  1.00  0.00     0.049 C 
BRANCH  22  25
HETATM   25  O3  UNL     1       3.409   8.655   8.064  1.00  0.00    -0.387 OA
HETATM   26  H36 UNL     1       4.072   8.291   7.449  1.00  0.00     0.210 HD
ENDBRANCH  22  25
ENDBRANCH  16  22
ENDBRANCH  15  16
ENDBRANCH  12  14
ENDBRANCH  11  12
BRANCH   1  27
HETATM   27  C4  UNL     1      -6.245   6.185  12.975  1.00  0.00     0.008 C 
HETATM   28  C3  UNL     1      -7.135   6.377  13.970  1.00  0.00    -0.048 C 
HETATM   29  C2  UNL     1      -6.876   7.081  15.219  1.00  0.00    -0.033 C 
HETATM   30  C25 UNL     1      -8.580   5.918  13.809  1.00  0.00     0.071 C 
HETATM   31  C1  UNL     1      -5.951   6.662  16.100  1.00  0.00     0.022 C 
HETATM   32  C28 UNL     1      -7.795   8.249  15.521  1.00  0.00     0.153 C 
HETATM   33  C27 UNL     1      -9.090   8.241  14.696  1.00  0.00     0.068 C 
HETATM   34  C26 UNL     1      -9.618   6.824  14.502  1.00  0.00     0.125 C 
BRANCH  32  35
HETATM   35  O5  UNL     1      -7.105   9.473  15.257  1.00  0.00    -0.391 OA
HETATM   36  H44 UNL     1      -6.566   9.317  14.461  1.00  0.00     0.210 HD
ENDBRANCH  32  35
BRANCH  34  37
HETATM   37  O4  UNL     1      -9.974   6.264  15.769  1.00  0.00    -0.395 OA
HETATM   38  H40 UNL     1     -10.711   6.788  16.127  1.00  0.00     0.210 HD
ENDBRANCH  34  37
ENDBRANCH   1  27
TORSDOF 11
ENDMDL
MODEL 4
REMARK minimizedAffinity -9.04432297
REMARK  11 active torsions:
REMARK  status: ('A' for Active; 'I' for Inactive)
REMARK    1  A    between atoms: C4_4  and  C5_5 
REMARK    2  A    between atoms: C15_15  and  C16_16 
REMARK    3  A    between atoms: C16_16  and  C18_18 
REMARK    4  A    between atoms: C19_19  and  C20_20 
REMARK    5  A    between atoms: C20_20  and  O1_21 
REMARK    6  A    between atoms: C20_20  and  C21_22 
REMARK    7  A    between atoms: C20_20  and  C22_24 
REMARK    8  A    between atoms: C21_22  and  O2_23 
REMARK    9  A    between atoms: C22_24  and  O3_27 
REMARK   10  A    between atoms: C26_29  and  O4_30 
REMARK   11  A    between atoms: C28_32  and  O5_33 
ROOT
HETATM    1  C5  UNL     1      -4.297   7.984  15.268  1.00  0.00     0.004 C 
HETATM    2  C6  UNL     1      -3.470   7.884  14.205  1.00  0.00    -0.075 C 
HETATM    3  C7  UNL     1      -3.722   8.496  12.845  1.00  0.00     0.034 C 
HETATM    4  C8  UNL     1      -2.494   9.189  12.242  1.00  0.00     0.005 C 
HETATM    5  C9  UNL     1      -1.292   9.229  13.178  1.00  0.00     0.010 C 
HETATM    6  C10 UNL     1      -0.902   7.846  13.775  1.00  0.00    -0.032 C 
HETATM    7  C11 UNL     1       0.053   8.145  14.943  1.00  0.00     0.016 C 
HETATM    8  C12 UNL     1      -2.161   7.108  14.348  1.00  0.00     0.023 C 
HETATM    9  C13 UNL     1      -2.210   5.749  13.650  1.00  0.00     0.010 C 
HETATM   10  C14 UNL     1      -1.516   5.962  12.324  1.00  0.00     0.007 C 
HETATM   11  C15 UNL     1      -0.326   6.896  12.641  1.00  0.00     0.002 C 
ENDROOT
BRANCH  11  12
HETATM   12  C16 UNL     1       0.984   6.081  12.929  1.00  0.00     0.009 C 
HETATM   13  C17 UNL     1       1.868   6.698  14.024  1.00  0.00     0.014 C 
BRANCH  12  14
HETATM   14  C18 UNL     1       1.895   5.899  11.719  1.00  0.00    -0.023 C 
HETATM   15  C19 UNL     1       2.194   6.838  10.801  1.00  0.00     0.012 C 
BRANCH  15  16
HETATM   16  C20 UNL     1       3.108   6.679   9.584  1.00  0.00     0.126 C 
BRANCH  16  17
HETATM   17  O1  UNL     1       4.376   7.282   9.897  1.00  0.00    -0.381 OA
HETATM   18  H26 UNL     1       5.072   6.668   9.600  1.00  0.00     0.211 HD
ENDBRANCH  16  17
BRANCH  16  19
HETATM   19  C21 UNL     1       3.330   5.152   9.365  1.00  0.00     0.209 C 
BRANCH  19  20
HETATM   20  O2  UNL     1       4.649   4.754   9.774  1.00  0.00    -0.397 OA
HETATM   21  H29 UNL     1       4.988   5.447  10.376  1.00  0.00     0.209 HD
ENDBRANCH  19  20
ENDBRANCH  16  19
BRANCH  16  22
HETATM   22  C22 UNL     1       2.489   7.383   8.316  1.00  0.00     0.087 C 
HETATM   23  C23 UNL     1       2.404   6.430   7.108  1.00  0.00     0.049 C 
HETATM   24  C24 UNL     1       1.069   7.913   8.579  1.00  0.00     0.049 C 
BRANCH  22  25
HETATM   25  O3  UNL     1       3.279   8.524   7.943  1.00  0.00    -0.387 OA
HETATM   26  H36 UNL     1       4.019   8.207   7.395  1.00  0.00     0.210 HD
ENDBRANCH  22  25
ENDBRANCH  16  22
ENDBRANCH  15  16
ENDBRANCH  12  14
ENDBRANCH  11  12
BRANCH   1  27
HETATM   27  C4  UNL     1      -5.591   8.638  15.313  1.00  0.00     0.008 C 
HETATM   28  C3  UNL     1      -6.788   8.094  15.008  1.00  0.00    -0.048 C 
HETATM   29  C2  UNL     1      -7.012   6.721  14.575  1.00  0.00    -0.033 C 
HETATM   30  C25 UNL     1      -8.068   8.902  15.185  1.00  0.00     0.071 C 
HETATM   31  C1  UNL     1      -6.477   6.228  13.446  1.00  0.00     0.022 C 
HETATM   32  C28 UNL     1      -7.983   5.916  15.416  1.00  0.00     0.153 C 
HETATM   33  C27 UNL     1      -8.882   6.779  16.313  1.00  0.00     0.068 C 
HETATM   34  C26 UNL     1      -9.293   8.070  15.613  1.00  0.00     0.125 C 
BRANCH  32  35
HETATM   35  O5  UNL     1      -7.251   5.015  16.251  1.00  0.00    -0.391 OA
HETATM   36  H44 UNL     1      -6.456   5.497  16.541  1.00  0.00     0.210 HD
ENDBRANCH  32  35
BRANCH  34  37
HETATM   37  O4  UNL     1     -10.090   7.762  14.466  1.00  0.00    -0.395 OA
HETATM   38  H40 UNL     1     -10.910   7.343  14.779  1.00  0.00     0.210 HD
ENDBRANCH  34  37
ENDBRANCH   1  27
TORSDOF 11
ENDMDL
MODEL 5
REMARK minimizedAffinity -8.90679455
REMARK  11 active torsions:
REMARK  status: ('A' for Active; 'I' for Inactive)
REMARK    1  A    between atoms: C4_4  and  C5_5 
REMARK    2  A    between atoms: C15_15  and  C16_16 
REMARK    3  A    between atoms: C16_16  and  C18_18 
REMARK    4  A    between atoms: C19_19  and  C20_20 
REMARK    5  A    between atoms: C20_20  and  O1_21 
REMARK    6  A    between atoms: C20_20  and  C21_22 
REMARK    7  A    between atoms: C20_20  and  C22_24 
REMARK    8  A    between atoms: C21_22  and  O2_23 
REMARK    9  A    between atoms: C22_24  and  O3_27 
REMARK   10  A    between atoms: C26_29  and  O4_30 
REMARK   11  A    between atoms: C28_32  and  O5_33 
ROOT
HETATM    1  C5  UNL     1      -5.481   4.183  12.483  1.00  0.00     0.004 C 
HETATM    2  C6  UNL     1      -6.547   4.498  13.251  1.00  0.00    -0.075 C 
HETATM    3  C7  UNL     1      -7.231   3.559  14.220  1.00  0.00     0.034 C 
HETATM    4  C8  UNL     1      -7.555   4.198  15.575  1.00  0.00     0.005 C 
HETATM    5  C9  UNL     1      -7.021   5.618  15.727  1.00  0.00     0.010 C 
HETATM    6  C10 UNL     1      -7.413   6.574  14.563  1.00  0.00    -0.032 C 
HETATM    7  C11 UNL     1      -6.498   7.803  14.701  1.00  0.00     0.016 C 
HETATM    8  C12 UNL     1      -7.132   5.908  13.172  1.00  0.00     0.023 C 
HETATM    9  C13 UNL     1      -8.456   5.946  12.409  1.00  0.00     0.010 C 
HETATM   10  C14 UNL     1      -9.527   5.955  13.477  1.00  0.00     0.007 C 
HETATM   11  C15 UNL     1      -8.971   6.871  14.592  1.00  0.00     0.002 C 
ENDROOT
BRANCH  11  12
HETATM   12  C16 UNL     1      -9.465   8.350  14.418  1.00  0.00     0.009 C 
HETATM   13  C17 UNL     1      -8.914   9.314  15.481  1.00  0.00     0.014 C 
BRANCH  12  14
HETATM   14  C18 UNL     1     -10.980   8.521  14.455  1.00  0.00    -0.023 C 
HETATM   15  C19 UNL     1     -11.727   9.195  13.559  1.00  0.00     0.012 C 
BRANCH  15  16
HETATM   16  C20 UNL     1     -13.246   9.375  13.575  1.00  0.00     0.126 C 
BRANCH  16  17
HETATM   17  O1  UNL     1     -13.631   9.801  14.894  1.00  0.00    -0.381 OA
HETATM   18  H26 UNL     1     -14.267  10.533  14.788  1.00  0.00     0.211 HD
ENDBRANCH  16  17
BRANCH  16  19
HETATM   19  C21 UNL     1     -13.590  10.513  12.569  1.00  0.00     0.209 C 
BRANCH  19  20
HETATM   20  O2  UNL     1     -12.839  10.377  11.351  1.00  0.00    -0.397 OA
HETATM   21  H29 UNL     1     -12.529   9.450  11.303  1.00  0.00     0.209 HD
ENDBRANCH  19  20
ENDBRANCH  16  19
BRANCH  16  22
HETATM   22  C22 UNL     1     -13.978   8.022  13.224  1.00  0.00     0.087 C 
HETATM   23  C23 UNL     1     -12.984   6.901  12.864  1.00  0.00     0.049 C 
HETATM   24  C24 UNL     1     -14.842   7.509  14.389  1.00  0.00     0.049 C 
BRANCH  22  25
HETATM   25  O3  UNL     1     -14.873   8.213  12.115  1.00  0.00    -0.387 OA
HETATM   26  H36 UNL     1     -14.352   8.133  11.296  1.00  0.00     0.210 HD
ENDBRANCH  22  25
ENDBRANCH  16  22
ENDBRANCH  15  16
ENDBRANCH  12  14
ENDBRANCH  11  12
BRANCH   1  27
HETATM   27  C4  UNL     1      -4.819   2.896  12.390  1.00  0.00     0.008 C 
HETATM   28  C3  UNL     1      -3.805   2.561  11.566  1.00  0.00    -0.048 C 
HETATM   29  C2  UNL     1      -3.165   3.447  10.601  1.00  0.00    -0.033 C 
HETATM   30  C25 UNL     1      -3.167   1.179  11.652  1.00  0.00     0.071 C 
HETATM   31  C1  UNL     1      -3.840   4.001   9.580  1.00  0.00     0.022 C 
HETATM   32  C28 UNL     1      -1.666   3.611  10.750  1.00  0.00     0.153 C 
HETATM   33  C27 UNL     1      -1.009   2.515  11.601  1.00  0.00     0.068 C 
HETATM   34  C26 UNL     1      -1.654   1.155  11.354  1.00  0.00     0.125 C 
BRANCH  32  35
HETATM   35  O5  UNL     1      -1.387   4.875  11.358  1.00  0.00    -0.391 OA
HETATM   36  H44 UNL     1      -2.080   5.015  12.027  1.00  0.00     0.210 HD
ENDBRANCH  32  35
BRANCH  34  37
HETATM   37  O4  UNL     1      -1.438   0.760   9.996  1.00  0.00    -0.395 OA
HETATM   38  H40 UNL     1      -0.481   0.639   9.872  1.00  0.00     0.210 HD
ENDBRANCH  34  37
ENDBRANCH   1  27
TORSDOF 11
ENDMDL
MODEL 6
REMARK minimizedAffinity -8.89555454
REMARK  11 active torsions:
REMARK  status: ('A' for Active; 'I' for Inactive)
REMARK    1  A    between atoms: C4_4  and  C5_5 
REMARK    2  A    between atoms: C15_15  and  C16_16 
REMARK    3  A    between atoms: C16_16  and  C18_18 
REMARK    4  A    between atoms: C19_19  and  C20_20 
REMARK    5  A    between atoms: C20_20  and  O1_21 
REMARK    6  A    between atoms: C20_20  and  C21_22 
REMARK    7  A    between atoms: C20_20  and  C22_24 
REMARK    8  A    between atoms: C21_22  and  O2_23 
REMARK    9  A    between atoms: C22_24  and  O3_27 
REMARK   10  A    between atoms: C26_29  and  O4_30 
REMARK   11  A    between atoms: C28_32  and  O5_33 
ROOT
HETATM    1  C5  UNL     1      -4.663   5.321  13.182  1.00  0.00     0.004 C 
HETATM    2  C6  UNL     1      -3.684   6.245  13.069  1.00  0.00    -0.075 C 
HETATM    3  C7  UNL     1      -3.904   7.726  12.859  1.00  0.00     0.034 C 
HETATM    4  C8  UNL     1      -3.019   8.614  13.741  1.00  0.00     0.005 C 
HETATM    5  C9  UNL     1      -2.173   7.834  14.742  1.00  0.00     0.010 C 
HETATM    6  C10 UNL     1      -1.338   6.683  14.111  1.00  0.00    -0.032 C 
HETATM    7  C11 UNL     1      -0.870   5.808  15.286  1.00  0.00     0.016 C 
HETATM    8  C12 UNL     1      -2.225   5.801  13.166  1.00  0.00     0.023 C 
HETATM    9  C13 UNL     1      -1.525   5.799  11.807  1.00  0.00     0.010 C 
HETATM   10  C14 UNL     1      -0.748   7.096  11.763  1.00  0.00     0.007 C 
HETATM   11  C15 UNL     1      -0.187   7.274  13.192  1.00  0.00     0.002 C 
ENDROOT
BRANCH  11  12
HETATM   12  C16 UNL     1       1.262   6.684  13.318  1.00  0.00     0.009 C 
HETATM   13  C17 UNL     1       2.091   7.316  14.448  1.00  0.00     0.014 C 
BRANCH  12  14
HETATM   14  C18 UNL     1       2.113   6.819  12.060  1.00  0.00    -0.023 C 
HETATM   15  C19 UNL     1       2.388   5.839  11.177  1.00  0.00     0.012 C 
BRANCH  15  16
HETATM   16  C20 UNL     1       3.233   5.954   9.907  1.00  0.00     0.126 C 
BRANCH  16  17
HETATM   17  O1  UNL     1       4.416   6.709  10.226  1.00  0.00    -0.381 OA
HETATM   18  H26 UNL     1       5.174   6.244   9.826  1.00  0.00     0.211 HD
ENDBRANCH  16  17
BRANCH  16  19
HETATM   19  C21 UNL     1       3.664   4.512   9.503  1.00  0.00     0.209 C 
BRANCH  19  20
HETATM   20  O2  UNL     1       2.818   3.525  10.117  1.00  0.00    -0.397 OA
HETATM   21  H29 UNL     1       1.991   3.976  10.384  1.00  0.00     0.209 HD
ENDBRANCH  19  20
ENDBRANCH  16  19
BRANCH  16  22
HETATM   22  C22 UNL     1       2.435   6.685   8.760  1.00  0.00     0.087 C 
HETATM   23  C23 UNL     1       0.954   6.899   9.131  1.00  0.00     0.049 C 
HETATM   24  C24 UNL     1       3.026   8.066   8.429  1.00  0.00     0.049 C 
BRANCH  22  25
HETATM   25  O3  UNL     1       2.496   5.921   7.545  1.00  0.00    -0.387 OA
HETATM   26  H36 UNL     1       1.798   5.242   7.585  1.00  0.00     0.210 HD
ENDBRANCH  22  25
ENDBRANCH  16  22
ENDBRANCH  15  16
ENDBRANCH  12  14
ENDBRANCH  11  12
BRANCH   1  27
HETATM   27  C4  UNL     1      -6.093   5.542  13.075  1.00  0.00     0.008 C 
HETATM   28  C3  UNL     1      -6.931   5.927  14.060  1.00  0.00    -0.048 C 
HETATM   29  C2  UNL     1      -6.552   6.207  15.439  1.00  0.00    -0.033 C 
HETATM   30  C25 UNL     1      -8.402   6.192  13.758  1.00  0.00     0.071 C 
HETATM   31  C1  UNL     1      -6.011   5.272  16.238  1.00  0.00     0.022 C 
HETATM   32  C28 UNL     1      -6.915   7.586  15.955  1.00  0.00     0.153 C 
HETATM   33  C27 UNL     1      -7.977   8.300  15.107  1.00  0.00     0.068 C 
HETATM   34  C26 UNL     1      -9.031   7.323  14.596  1.00  0.00     0.125 C 
BRANCH  32  35
HETATM   35  O5  UNL     1      -5.742   8.403  15.982  1.00  0.00    -0.391 OA
HETATM   36  H44 UNL     1      -5.228   8.170  15.189  1.00  0.00     0.210 HD
ENDBRANCH  32  35
BRANCH  34  37
HETATM   37  O4  UNL     1      -9.745   6.763  15.701  1.00  0.00    -0.395 OA
HETATM   38  H40 UNL     1     -10.226   7.485  16.140  1.00  0.00     0.210 HD
ENDBRANCH  34  37
ENDBRANCH   1  27
TORSDOF 11
ENDMDL
MODEL 7
REMARK minimizedAffinity -8.85791874
REMARK  11 active torsions:
REMARK  status: ('A' for Active; 'I' for Inactive)
REMARK    1  A    between atoms: C4_4  and  C5_5 
REMARK    2  A    between atoms: C15_15  and  C16_16 
REMARK    3  A    between atoms: C16_16  and  C18_18 
REMARK    4  A    between atoms: C19_19  and  C20_20 
REMARK    5  A    between atoms: C20_20  and  O1_21 
REMARK    6  A    between atoms: C20_20  and  C21_22 
REMARK    7  A    between atoms: C20_20  and  C22_24 
REMARK    8  A    between atoms: C21_22  and  O2_23 
REMARK    9  A    between atoms: C22_24  and  O3_27 
REMARK   10  A    between atoms: C26_29  and  O4_30 
REMARK   11  A    between atoms: C28_32  and  O5_33 
ROOT
HETATM    1  C5  UNL     1      -3.487  11.014  15.498  1.00  0.00     0.004 C 
HETATM    2  C6  UNL     1      -3.821   9.735  15.218  1.00  0.00    -0.075 C 
HETATM    3  C7  UNL     1      -5.216   9.159  15.308  1.00  0.00     0.034 C 
HETATM    4  C8  UNL     1      -5.602   8.280  14.113  1.00  0.00     0.005 C 
HETATM    5  C9  UNL     1      -4.550   8.252  13.009  1.00  0.00     0.010 C 
HETATM    6  C10 UNL     1      -3.116   7.906  13.504  1.00  0.00    -0.032 C 
HETATM    7  C11 UNL     1      -2.170   8.288  12.353  1.00  0.00     0.016 C 
HETATM    8  C12 UNL     1      -2.734   8.764  14.758  1.00  0.00     0.023 C 
HETATM    9  C13 UNL     1      -2.343   7.768  15.851  1.00  0.00     0.010 C 
HETATM   10  C14 UNL     1      -3.103   6.503  15.520  1.00  0.00     0.007 C 
HETATM   11  C15 UNL     1      -3.045   6.393  13.979  1.00  0.00     0.002 C 
ENDROOT
BRANCH  11  12
HETATM   12  C16 UNL     1      -1.836   5.508  13.512  1.00  0.00     0.009 C 
HETATM   13  C17 UNL     1      -0.656   6.318  12.953  1.00  0.00     0.014 C 
BRANCH  12  14
HETATM   14  C18 UNL     1      -2.179   4.484  12.435  1.00  0.00    -0.023 C 
HETATM   15  C19 UNL     1      -3.327   3.786  12.338  1.00  0.00     0.012 C 
BRANCH  15  16
HETATM   16  C20 UNL     1      -3.693   2.760  11.265  1.00  0.00     0.126 C 
BRANCH  16  17
HETATM   17  O1  UNL     1      -3.035   3.139  10.043  1.00  0.00    -0.381 OA
HETATM   18  H26 UNL     1      -2.644   2.331   9.661  1.00  0.00     0.211 HD
ENDBRANCH  16  17
BRANCH  16  19
HETATM   19  C21 UNL     1      -3.125   1.383  11.724  1.00  0.00     0.209 C 
BRANCH  19  20
HETATM   20  O2  UNL     1      -2.054   0.951  10.869  1.00  0.00    -0.397 OA
HETATM   21  H29 UNL     1      -1.720   1.742  10.399  1.00  0.00     0.209 HD
ENDBRANCH  19  20
ENDBRANCH  16  19
BRANCH  16  22
HETATM   22  C22 UNL     1      -5.253   2.718  11.031  1.00  0.00     0.087 C 
HETATM   23  C23 UNL     1      -5.839   1.315  11.284  1.00  0.00     0.049 C 
HETATM   24  C24 UNL     1      -6.005   3.698  11.948  1.00  0.00     0.049 C 
BRANCH  22  25
HETATM   25  O3  UNL     1      -5.566   3.108   9.684  1.00  0.00    -0.387 OA
HETATM   26  H36 UNL     1      -5.469   2.322   9.117  1.00  0.00     0.210 HD
ENDBRANCH  22  25
ENDBRANCH  16  22
ENDBRANCH  15  16
ENDBRANCH  12  14
ENDBRANCH  11  12
BRANCH   1  27
HETATM   27  C4  UNL     1      -4.365  12.062  15.983  1.00  0.00     0.008 C 
HETATM   28  C3  UNL     1      -4.417  12.564  17.234  1.00  0.00    -0.048 C 
HETATM   29  C2  UNL     1      -3.582  12.147  18.353  1.00  0.00    -0.033 C 
HETATM   30  C25 UNL     1      -5.350  13.725  17.559  1.00  0.00     0.071 C 
HETATM   31  C1  UNL     1      -3.601  10.892  18.834  1.00  0.00     0.022 C 
HETATM   32  C28 UNL     1      -2.778  13.245  19.020  1.00  0.00     0.153 C 
HETATM   33  C27 UNL     1      -3.282  14.659  18.697  1.00  0.00     0.068 C 
HETATM   34  C26 UNL     1      -4.804  14.704  18.618  1.00  0.00     0.125 C 
BRANCH  32  35
HETATM   35  O5  UNL     1      -1.414  13.151  18.603  1.00  0.00    -0.391 OA
HETATM   36  H44 UNL     1      -1.432  12.901  17.662  1.00  0.00     0.210 HD
ENDBRANCH  32  35
BRANCH  34  37
HETATM   37  O4  UNL     1      -5.361  14.388  19.897  1.00  0.00    -0.395 OA
HETATM   38  H40 UNL     1      -5.095  15.088  20.517  1.00  0.00     0.210 HD
ENDBRANCH  34  37
ENDBRANCH   1  27
TORSDOF 11
ENDMDL
MODEL 8
REMARK minimizedAffinity -8.77760506
REMARK  11 active torsions:
REMARK  status: ('A' for Active; 'I' for Inactive)
REMARK    1  A    between atoms: C4_4  and  C5_5 
REMARK    2  A    between atoms: C15_15  and  C16_16 
REMARK    3  A    between atoms: C16_16  and  C18_18 
REMARK    4  A    between atoms: C19_19  and  C20_20 
REMARK    5  A    between atoms: C20_20  and  O1_21 
REMARK    6  A    between atoms: C20_20  and  C21_22 
REMARK    7  A    between atoms: C20_20  and  C22_24 
REMARK    8  A    between atoms: C21_22  and  O2_23 
REMARK    9  A    between atoms: C22_24  and  O3_27 
REMARK   10  A    between atoms: C26_29  and  O4_30 
REMARK   11  A    between atoms: C28_32  and  O5_33 
ROOT
HETATM    1  C5  UNL     1       2.272   8.373  13.053  1.00  0.00     0.004 C 
HETATM    2  C6  UNL     1       1.089   8.018  12.506  1.00  0.00    -0.075 C 
HETATM    3  C7  UNL     1       0.588   8.461  11.150  1.00  0.00     0.034 C 
HETATM    4  C8  UNL     1      -0.030   7.331  10.319  1.00  0.00     0.005 C 
HETATM    5  C9  UNL     1       0.086   5.957  10.971  1.00  0.00     0.010 C 
HETATM    6  C10 UNL     1      -0.428   5.903  12.439  1.00  0.00    -0.032 C 
HETATM    7  C11 UNL     1       0.105   4.584  13.024  1.00  0.00     0.016 C 
HETATM    8  C12 UNL     1       0.158   7.086  13.282  1.00  0.00     0.023 C 
HETATM    9  C13 UNL     1      -1.044   7.824  13.873  1.00  0.00     0.010 C 
HETATM   10  C14 UNL     1      -2.179   7.560  12.909  1.00  0.00     0.007 C 
HETATM   11  C15 UNL     1      -2.004   6.086  12.479  1.00  0.00     0.002 C 
ENDROOT
BRANCH  11  12
HETATM   12  C16 UNL     1      -2.857   5.121  13.378  1.00  0.00     0.009 C 
HETATM   13  C17 UNL     1      -3.585   4.022  12.588  1.00  0.00     0.014 C 
BRANCH  12  14
HETATM   14  C18 UNL     1      -3.933   5.814  14.207  1.00  0.00    -0.023 C 
HETATM   15  C19 UNL     1      -5.262   5.613  14.112  1.00  0.00     0.012 C 
BRANCH  15  16
HETATM   16  C20 UNL     1      -6.358   6.292  14.936  1.00  0.00     0.126 C 
BRANCH  16  17
HETATM   17  O1  UNL     1      -5.975   6.232  16.322  1.00  0.00    -0.381 OA
HETATM   18  H26 UNL     1      -6.139   7.112  16.707  1.00  0.00     0.211 HD
ENDBRANCH  16  17
BRANCH  16  19
HETATM   19  C21 UNL     1      -6.405   7.788  14.503  1.00  0.00     0.209 C 
BRANCH  19  20
HETATM   20  O2  UNL     1      -5.749   8.630  15.465  1.00  0.00    -0.397 OA
HETATM   21  H29 UNL     1      -5.160   8.058  15.998  1.00  0.00     0.209 HD
ENDBRANCH  19  20
ENDBRANCH  16  19
BRANCH  16  22
HETATM   22  C22 UNL     1      -7.744   5.566  14.740  1.00  0.00     0.087 C 
HETATM   23  C23 UNL     1      -8.869   6.554  14.375  1.00  0.00     0.049 C 
HETATM   24  C24 UNL     1      -7.693   4.503  13.630  1.00  0.00     0.049 C 
BRANCH  22  25
HETATM   25  O3  UNL     1      -8.118   4.873  15.943  1.00  0.00    -0.387 OA
HETATM   26  H36 UNL     1      -8.548   5.516  16.535  1.00  0.00     0.210 HD
ENDBRANCH  22  25
ENDBRANCH  16  22
ENDBRANCH  15  16
ENDBRANCH  12  14
ENDBRANCH  11  12
BRANCH   1  27
HETATM   27  C4  UNL     1       3.261   9.273  12.492  1.00  0.00     0.008 C 
HETATM   28  C3  UNL     1       4.602   9.128  12.522  1.00  0.00    -0.048 C 
HETATM   29  C2  UNL     1       5.324   8.016  13.126  1.00  0.00    -0.033 C 
HETATM   30  C25 UNL     1       5.501  10.134  11.810  1.00  0.00     0.071 C 
HETATM   31  C1  UNL     1       5.245   7.737  14.438  1.00  0.00     0.022 C 
HETATM   32  C28 UNL     1       6.264   7.263  12.205  1.00  0.00     0.153 C 
HETATM   33  C27 UNL     1       6.623   8.035  10.927  1.00  0.00     0.068 C 
HETATM   34  C26 UNL     1       6.782   9.526  11.203  1.00  0.00     0.125 C 
BRANCH  32  35
HETATM   35  O5  UNL     1       5.660   6.024  11.823  1.00  0.00    -0.391 OA
HETATM   36  H44 UNL     1       4.712   6.209  11.700  1.00  0.00     0.210 HD
ENDBRANCH  32  35
BRANCH  34  37
HETATM   37  O4  UNL     1       7.882   9.737  12.093  1.00  0.00    -0.395 OA
HETATM   38  H40 UNL     1       8.691   9.452  11.635  1.00  0.00     0.210 HD
ENDBRANCH  34  37
ENDBRANCH   1  27
TORSDOF 11
ENDMDL
MODEL 9
REMARK minimizedAffinity -8.73217201
REMARK  11 active torsions:
REMARK  status: ('A' for Active; 'I' for Inactive)
REMARK    1  A    between atoms: C4_4  and  C5_5 
REMARK    2  A    between atoms: C15_15  and  C16_16 
REMARK    3  A    between atoms: C16_16  and  C18_18 
REMARK    4  A    between atoms: C19_19  and  C20_20 
REMARK    5  A    between atoms: C20_20  and  O1_21 
REMARK    6  A    between atoms: C20_20  and  C21_22 
REMARK    7  A    between atoms: C20_20  and  C22_24 
REMARK    8  A    between atoms: C21_22  and  O2_23 
REMARK    9  A    between atoms: C22_24  and  O3_27 
REMARK   10  A    between atoms: C26_29  and  O4_30 
REMARK   11  A    between atoms: C28_32  and  O5_33 
ROOT
HETATM    1  C5  UNL     1      -9.959   6.841  13.717  1.00  0.00     0.004 C 
HETATM    2  C6  UNL     1      -8.771   6.520  14.274  1.00  0.00    -0.075 C 
HETATM    3  C7  UNL     1      -8.548   6.219  15.739  1.00  0.00     0.034 C 
HETATM    4  C8  UNL     1      -7.662   4.994  15.992  1.00  0.00     0.005 C 
HETATM    5  C9  UNL     1      -7.273   4.247  14.721  1.00  0.00     0.010 C 
HETATM    6  C10 UNL     1      -6.657   5.150  13.614  1.00  0.00    -0.032 C 
HETATM    7  C11 UNL     1      -6.685   4.312  12.323  1.00  0.00     0.016 C 
HETATM    8  C12 UNL     1      -7.530   6.431  13.385  1.00  0.00     0.023 C 
HETATM    9  C13 UNL     1      -6.592   7.623  13.575  1.00  0.00     0.010 C 
HETATM   10  C14 UNL     1      -5.511   7.128  14.510  1.00  0.00     0.007 C 
HETATM   11  C15 UNL     1      -5.228   5.677  14.061  1.00  0.00     0.002 C 
ENDROOT
BRANCH  11  12
HETATM   12  C16 UNL     1      -4.042   5.613  13.036  1.00  0.00     0.009 C 
HETATM   13  C17 UNL     1      -3.780   4.205  12.480  1.00  0.00     0.014 C 
BRANCH  12  14
HETATM   14  C18 UNL     1      -2.703   6.094  13.586  1.00  0.00    -0.023 C 
HETATM   15  C19 UNL     1      -2.031   7.195  13.196  1.00  0.00     0.012 C 
BRANCH  15  16
HETATM   16  C20 UNL     1      -0.692   7.697  13.737  1.00  0.00     0.126 C 
BRANCH  16  17
HETATM   17  O1  UNL     1       0.326   6.758  13.347  1.00  0.00    -0.381 OA
HETATM   18  H26 UNL     1       1.085   7.273  13.016  1.00  0.00     0.211 HD
ENDBRANCH  16  17
BRANCH  16  19
HETATM   19  C21 UNL     1      -0.393   9.061  13.047  1.00  0.00     0.209 C 
BRANCH  19  20
HETATM   20  O2  UNL     1      -1.606   9.705  12.621  1.00  0.00    -0.397 OA
HETATM   21  H29 UNL     1      -2.341   9.307  13.130  1.00  0.00     0.209 HD
ENDBRANCH  19  20
ENDBRANCH  16  19
BRANCH  16  22
HETATM   22  C22 UNL     1      -0.725   7.814  15.310  1.00  0.00     0.087 C 
HETATM   23  C23 UNL     1       0.286   8.851  15.835  1.00  0.00     0.049 C 
HETATM   24  C24 UNL     1      -2.112   8.224  15.833  1.00  0.00     0.049 C 
BRANCH  22  25
HETATM   25  O3  UNL     1      -0.430   6.542  15.911  1.00  0.00    -0.387 OA
HETATM   26  H36 UNL     1       0.539   6.449  15.948  1.00  0.00     0.210 HD
ENDBRANCH  22  25
ENDBRANCH  16  22
ENDBRANCH  15  16
ENDBRANCH  12  14
ENDBRANCH  11  12
BRANCH   1  27
HETATM   27  C4  UNL     1     -11.228   7.013  14.399  1.00  0.00     0.008 C 
HETATM   28  C3  UNL     1     -11.952   8.147  14.495  1.00  0.00    -0.048 C 
HETATM   29  C2  UNL     1     -11.595   9.435  13.915  1.00  0.00    -0.033 C 
HETATM   30  C25 UNL     1     -13.311   8.136  15.185  1.00  0.00     0.071 C 
HETATM   31  C1  UNL     1     -10.478  10.095  14.265  1.00  0.00     0.022 C 
HETATM   32  C28 UNL     1     -12.621  10.043  12.979  1.00  0.00     0.153 C 
HETATM   33  C27 UNL     1     -14.021   9.430  13.120  1.00  0.00     0.068 C 
HETATM   34  C26 UNL     1     -14.344   9.105  14.574  1.00  0.00     0.125 C 
BRANCH  32  35
HETATM   35  O5  UNL     1     -12.190   9.868  11.627  1.00  0.00    -0.391 OA
HETATM   36  H44 UNL     1     -11.780   8.986  11.584  1.00  0.00     0.210 HD
ENDBRANCH  32  35
BRANCH  34  37
HETATM   37  O4  UNL     1     -14.382  10.312  15.340  1.00  0.00    -0.395 OA
HETATM   38  H40 UNL     1     -15.120  10.851  15.007  1.00  0.00     0.210 HD
ENDBRANCH  34  37
ENDBRANCH   1  27
TORSDOF 11
ENDMDL
