MODEL 1
REMARK minimizedAffinity -8.48419666
REMARK CNNscore 0.435577661
REMARK CNNaffinity 6.91738081
REMARK  9 active torsions:
REMARK  status: ('A' for Active; 'I' for Inactive)
REMARK    1  A    between atoms: C2_2  and  C3_3 
REMARK    2  A    between atoms: C2_2  and  C9_12 
REMARK    3  A    between atoms: C3_3  and  C4_4 
REMARK    4  A    between atoms: C4_4  and  C5_5 
REMARK    5  A    between atoms: C5_5  and  O1_6 
REMARK    6  A    between atoms: C5_5  and  C6_7 
REMARK    7  A    between atoms: C6_7  and  O2_9 
REMARK    8  A    between atoms: C6_7  and  C8_10 
REMARK    9  A    between atoms: C8_10  and  O3_11 
ROOT
HETATM    1  C9  UNL     1      -5.706   7.313  15.228  1.00  0.00    -0.002 C 
HETATM    2  C10 UNL     1      -5.986   8.568  14.349  1.00  0.00     0.007 C 
HETATM    3  C11 UNL     1      -4.745   8.811  13.473  1.00  0.00     0.015 C 
HETATM    4  C12 UNL     1      -3.637   7.952  14.107  1.00  0.00    -0.005 C 
HETATM    5  C13 UNL     1      -3.056   8.771  15.302  1.00  0.00     0.021 C 
HETATM    6  C14 UNL     1      -2.415   7.544  13.297  1.00  0.00    -0.000 C 
HETATM    7  C15 UNL     1      -1.752   6.381  13.515  1.00  0.00    -0.060 C 
HETATM    8  C16 UNL     1      -2.261   5.423  14.611  1.00  0.00     0.036 C 
HETATM    9  C17 UNL     1      -3.560   5.793  15.362  1.00  0.00     0.015 C 
HETATM   10  C18 UNL     1      -4.475   6.676  14.510  1.00  0.00    -0.028 C 
HETATM   11  C19 UNL     1      -4.970   5.850  13.280  1.00  0.00     0.016 C 
HETATM   12  C20 UNL     1      -0.544   5.888  12.649  1.00  0.00    -0.014 C 
HETATM   13  C21 UNL     1      -1.074   4.651  11.865  1.00  0.00     0.020 C 
HETATM   14  C22 UNL     1       0.642   5.415  13.539  1.00  0.00     0.021 C 
HETATM   15  C23 UNL     1       1.666   6.503  13.804  1.00  0.00     0.080 C 
HETATM   16  C24 UNL     1       2.333   6.918  12.513  1.00  0.00     0.135 C 
HETATM   17  O4  UNL     1       3.507   7.290  12.515  1.00  0.00    -0.297 OA
HETATM   18  C25 UNL     1       1.499   6.868  11.224  1.00  0.00     0.018 C 
HETATM   19  C26 UNL     1       1.868   5.580  10.463  1.00  0.00     0.023 C 
HETATM   20  C27 UNL     1       1.941   8.042  10.318  1.00  0.00     0.023 C 
HETATM   21  C28 UNL     1      -0.040   6.950  11.575  1.00  0.00     0.020 C 
HETATM   22  C29 UNL     1      -0.423   8.384  11.968  1.00  0.00     0.090 C 
HETATM   23  C30 UNL     1      -1.880   8.496  12.293  1.00  0.00     0.157 C 
HETATM   24  O5  UNL     1      -2.567   9.390  11.807  1.00  0.00    -0.293 OA
ENDROOT
BRANCH   1  25
HETATM   25  C2  UNL     1      -6.998   6.472  15.469  1.00  0.00    -0.014 C 
HETATM   26  C1  UNL     1      -6.761   5.315  16.444  1.00  0.00     0.010 C 
BRANCH  25  27
HETATM   27  C3  UNL     1      -8.142   7.387  15.998  1.00  0.00     0.007 C 
BRANCH  27  28
HETATM   28  C4  UNL     1      -9.058   7.935  14.893  1.00  0.00     0.035 C 
BRANCH  28  29
HETATM   29  C5  UNL     1     -10.212   7.005  14.469  1.00  0.00     0.154 C 
BRANCH  29  30
HETATM   30  O1  UNL     1      -9.641   5.870  13.803  1.00  0.00    -0.392 OA
HETATM   31  H10 UNL     1      -9.588   6.128  12.860  1.00  0.00     0.210 HD
ENDBRANCH  29  30
BRANCH  29  32
HETATM   32  C6  UNL     1     -11.326   7.613  13.574  1.00  0.00     0.101 C 
HETATM   33  C7  UNL     1     -12.671   6.926  13.864  1.00  0.00     0.051 C 
BRANCH  32  34
HETATM   34  O2  UNL     1     -11.022   7.324  12.194  1.00  0.00    -0.385 OA
HETATM   35  H14 UNL     1     -11.641   7.883  11.680  1.00  0.00     0.210 HD
ENDBRANCH  32  34
BRANCH  32  36
HETATM   36  C8  UNL     1     -11.451   9.140  13.738  1.00  0.00     0.204 C 
BRANCH  36  37
HETATM   37  O3  UNL     1     -11.672   9.740  12.457  1.00  0.00    -0.398 OA
HETATM   38  H17 UNL     1     -11.769  10.697  12.604  1.00  0.00     0.209 HD
ENDBRANCH  36  37
ENDBRANCH  32  36
ENDBRANCH  29  32
ENDBRANCH  28  29
ENDBRANCH  27  28
ENDBRANCH  25  27
ENDBRANCH   1  25
TORSDOF 9
ENDMDL
MODEL 2
REMARK minimizedAffinity -7.01619101
REMARK CNNscore 0.433368206
REMARK CNNaffinity 6.81635427
REMARK  9 active torsions:
REMARK  status: ('A' for Active; 'I' for Inactive)
REMARK    1  A    between atoms: C2_2  and  C3_3 
REMARK    2  A    between atoms: C2_2  and  C9_12 
REMARK    3  A    between atoms: C3_3  and  C4_4 
REMARK    4  A    between atoms: C4_4  and  C5_5 
REMARK    5  A    between atoms: C5_5  and  O1_6 
REMARK    6  A    between atoms: C5_5  and  C6_7 
REMARK    7  A    between atoms: C6_7  and  O2_9 
REMARK    8  A    between atoms: C6_7  and  C8_10 
REMARK    9  A    between atoms: C8_10  and  O3_11 
ROOT
HETATM    1  C9  UNL     1     -12.051   7.872  14.792  1.00  0.00    -0.002 C 
HETATM    2  C10 UNL     1     -12.155   6.764  13.702  1.00  0.00     0.007 C 
HETATM    3  C11 UNL     1     -13.397   7.066  12.846  1.00  0.00     0.015 C 
HETATM    4  C12 UNL     1     -14.198   8.098  13.659  1.00  0.00    -0.005 C 
HETATM    5  C13 UNL     1     -15.021   7.301  14.719  1.00  0.00     0.021 C 
HETATM    6  C14 UNL     1     -15.224   8.992  12.978  1.00  0.00    -0.000 C 
HETATM    7  C15 UNL     1     -15.502  10.246  13.416  1.00  0.00    -0.060 C 
HETATM    8  C16 UNL     1     -14.741  10.798  14.639  1.00  0.00     0.036 C 
HETATM    9  C17 UNL     1     -13.630   9.925  15.265  1.00  0.00     0.015 C 
HETATM   10  C18 UNL     1     -13.016   8.968  14.240  1.00  0.00    -0.028 C 
HETATM   11  C19 UNL     1     -12.273   9.805  13.151  1.00  0.00     0.016 C 
HETATM   12  C20 UNL     1     -16.487  11.226  12.694  1.00  0.00    -0.014 C 
HETATM   13  C21 UNL     1     -15.592  12.359  12.112  1.00  0.00     0.020 C 
HETATM   14  C22 UNL     1     -17.485  11.875  13.697  1.00  0.00     0.021 C 
HETATM   15  C23 UNL     1     -18.798  11.122  13.812  1.00  0.00     0.080 C 
HETATM   16  C24 UNL     1     -19.539  11.160  12.496  1.00  0.00     0.135 C 
HETATM   17  O4  UNL     1     -20.771  11.168  12.480  1.00  0.00    -0.297 OA
HETATM   18  C25 UNL     1     -18.710  11.177  11.204  1.00  0.00     0.018 C 
HETATM   19  C26 UNL     1     -18.655  12.628  10.688  1.00  0.00     0.023 C 
HETATM   20  C27 UNL     1     -19.476  10.369  10.128  1.00  0.00     0.023 C 
HETATM   21  C28 UNL     1     -17.275  10.571  11.476  1.00  0.00     0.020 C 
HETATM   22  C29 UNL     1     -17.356   9.042  11.603  1.00  0.00     0.090 C 
HETATM   23  C30 UNL     1     -16.009   8.438  11.848  1.00  0.00     0.157 C 
HETATM   24  O5  UNL     1     -15.621   7.476  11.191  1.00  0.00    -0.293 OA
ENDROOT
BRANCH   1  25
HETATM   25  C2  UNL     1     -10.567   8.225  15.122  1.00  0.00    -0.014 C 
HETATM   26  C1  UNL     1     -10.450   9.150  16.338  1.00  0.00     0.010 C 
BRANCH  25  27
HETATM   27  C3  UNL     1      -9.748   6.923  15.364  1.00  0.00     0.007 C 
BRANCH  27  28
HETATM   28  C4  UNL     1      -8.229   7.112  15.231  1.00  0.00     0.035 C 
BRANCH  28  29
HETATM   29  C5  UNL     1      -7.393   5.819  15.295  1.00  0.00     0.154 C 
BRANCH  29  30
HETATM   30  O1  UNL     1      -6.211   6.095  16.062  1.00  0.00    -0.392 OA
HETATM   31  H10 UNL     1      -5.554   6.411  15.410  1.00  0.00     0.210 HD
ENDBRANCH  29  30
BRANCH  29  32
HETATM   32  C6  UNL     1      -6.984   5.166  13.947  1.00  0.00     0.101 C 
HETATM   33  C7  UNL     1      -5.476   5.351  13.705  1.00  0.00     0.051 C 
BRANCH  32  34
HETATM   34  O2  UNL     1      -7.647   5.864  12.873  1.00  0.00    -0.385 OA
HETATM   35  H14 UNL     1      -7.505   5.300  12.084  1.00  0.00     0.210 HD
ENDBRANCH  32  34
BRANCH  32  36
HETATM   36  C8  UNL     1      -7.366   3.675  13.871  1.00  0.00     0.204 C 
BRANCH  36  37
HETATM   37  O3  UNL     1      -8.642   3.543  13.234  1.00  0.00    -0.398 OA
HETATM   38  H17 UNL     1      -8.837   2.590  13.183  1.00  0.00     0.209 HD
ENDBRANCH  36  37
ENDBRANCH  32  36
ENDBRANCH  29  32
ENDBRANCH  28  29
ENDBRANCH  27  28
ENDBRANCH  25  27
ENDBRANCH   1  25
TORSDOF 9
ENDMDL
MODEL 3
REMARK minimizedAffinity -9.25207806
REMARK CNNscore 0.366836339
REMARK CNNaffinity 7.04317474
REMARK  9 active torsions:
REMARK  status: ('A' for Active; 'I' for Inactive)
REMARK    1  A    between atoms: C2_2  and  C3_3 
REMARK    2  A    between atoms: C2_2  and  C9_12 
REMARK    3  A    between atoms: C3_3  and  C4_4 
REMARK    4  A    between atoms: C4_4  and  C5_5 
REMARK    5  A    between atoms: C5_5  and  O1_6 
REMARK    6  A    between atoms: C5_5  and  C6_7 
REMARK    7  A    between atoms: C6_7  and  O2_9 
REMARK    8  A    between atoms: C6_7  and  C8_10 
REMARK    9  A    between atoms: C8_10  and  O3_11 
ROOT
HETATM    1  C9  UNL     1       0.665   7.465  13.238  1.00  0.00    -0.002 C 
HETATM    2  C10 UNL     1       0.808   6.232  12.298  1.00  0.00     0.007 C 
HETATM    3  C11 UNL     1      -0.563   5.537  12.229  1.00  0.00     0.015 C 
HETATM    4  C12 UNL     1      -1.369   6.130  13.397  1.00  0.00    -0.005 C 
HETATM    5  C13 UNL     1      -0.947   5.351  14.682  1.00  0.00     0.021 C 
HETATM    6  C14 UNL     1      -2.889   6.068  13.399  1.00  0.00    -0.000 C 
HETATM    7  C15 UNL     1      -3.656   7.020  13.990  1.00  0.00    -0.060 C 
HETATM    8  C16 UNL     1      -2.967   8.220  14.671  1.00  0.00     0.036 C 
HETATM    9  C17 UNL     1      -1.429   8.331  14.579  1.00  0.00     0.015 C 
HETATM   10  C18 UNL     1      -0.884   7.631  13.331  1.00  0.00    -0.028 C 
HETATM   11  C19 UNL     1      -1.395   8.389  12.064  1.00  0.00     0.016 C 
HETATM   12  C20 UNL     1      -5.221   7.035  13.940  1.00  0.00    -0.014 C 
HETATM   13  C21 UNL     1      -5.595   8.253  13.045  1.00  0.00     0.020 C 
HETATM   14  C22 UNL     1      -5.834   7.275  15.351  1.00  0.00     0.021 C 
HETATM   15  C23 UNL     1      -6.172   5.991  16.086  1.00  0.00     0.080 C 
HETATM   16  C24 UNL     1      -7.254   5.236  15.349  1.00  0.00     0.135 C 
HETATM   17  O4  UNL     1      -8.069   4.556  15.975  1.00  0.00    -0.297 OA
HETATM   18  C25 UNL     1      -7.290   5.343  13.817  1.00  0.00     0.018 C 
HETATM   19  C26 UNL     1      -8.380   6.362  13.433  1.00  0.00     0.023 C 
HETATM   20  C27 UNL     1      -7.759   3.981  13.251  1.00  0.00     0.023 C 
HETATM   21  C28 UNL     1      -5.861   5.740  13.271  1.00  0.00     0.020 C 
HETATM   22  C29 UNL     1      -4.911   4.536  13.334  1.00  0.00     0.090 C 
HETATM   23  C30 UNL     1      -3.551   4.879  12.810  1.00  0.00     0.157 C 
HETATM   24  O5  UNL     1      -2.990   4.155  11.993  1.00  0.00    -0.293 OA
ENDROOT
BRANCH   1  25
HETATM   25  C2  UNL     1       1.558   8.658  12.771  1.00  0.00    -0.014 C 
HETATM   26  C1  UNL     1       2.753   8.883  13.702  1.00  0.00     0.010 C 
BRANCH  25  27
HETATM   27  C3  UNL     1       2.056   8.416  11.316  1.00  0.00     0.007 C 
BRANCH  27  28
HETATM   28  C4  UNL     1       3.134   7.326  11.203  1.00  0.00     0.035 C 
BRANCH  28  29
HETATM   29  C5  UNL     1       3.616   7.019   9.772  1.00  0.00     0.154 C 
BRANCH  29  30
HETATM   30  O1  UNL     1       3.386   8.186   8.969  1.00  0.00    -0.392 OA
HETATM   31  H10 UNL     1       2.478   8.077   8.617  1.00  0.00     0.210 HD
ENDBRANCH  29  30
BRANCH  29  32
HETATM   32  C6  UNL     1       3.001   5.782   9.061  1.00  0.00     0.101 C 
HETATM   33  C7  UNL     1       2.634   6.134   7.610  1.00  0.00     0.051 C 
BRANCH  32  34
HETATM   34  O2  UNL     1       1.760   5.442   9.713  1.00  0.00    -0.385 OA
HETATM   35  H14 UNL     1       1.522   4.562   9.354  1.00  0.00     0.210 HD
ENDBRANCH  32  34
BRANCH  32  36
HETATM   36  C8  UNL     1       3.929   4.552   9.102  1.00  0.00     0.204 C 
BRANCH  36  37
HETATM   37  O3  UNL     1       3.244   3.461   9.727  1.00  0.00    -0.398 OA
HETATM   38  H17 UNL     1       3.851   2.700   9.713  1.00  0.00     0.209 HD
ENDBRANCH  36  37
ENDBRANCH  32  36
ENDBRANCH  29  32
ENDBRANCH  28  29
ENDBRANCH  27  28
ENDBRANCH  25  27
ENDBRANCH   1  25
TORSDOF 9
ENDMDL
MODEL 4
REMARK minimizedAffinity -7.48190594
REMARK CNNscore 0.327459067
REMARK CNNaffinity 6.19075584
REMARK  9 active torsions:
REMARK  status: ('A' for Active; 'I' for Inactive)
REMARK    1  A    between atoms: C2_2  and  C3_3 
REMARK    2  A    between atoms: C2_2  and  C9_12 
REMARK    3  A    between atoms: C3_3  and  C4_4 
REMARK    4  A    between atoms: C4_4  and  C5_5 
REMARK    5  A    between atoms: C5_5  and  O1_6 
REMARK    6  A    between atoms: C5_5  and  C6_7 
REMARK    7  A    between atoms: C6_7  and  O2_9 
REMARK    8  A    between atoms: C6_7  and  C8_10 
REMARK    9  A    between atoms: C8_10  and  O3_11 
ROOT
HETATM    1  C9  UNL     1      -4.714 -11.122   7.341  1.00  0.00    -0.002 C 
HETATM    2  C10 UNL     1      -3.332 -10.476   7.025  1.00  0.00     0.007 C 
HETATM    3  C11 UNL     1      -3.252 -10.267   5.503  1.00  0.00     0.015 C 
HETATM    4  C12 UNL     1      -4.393 -11.120   4.924  1.00  0.00    -0.005 C 
HETATM    5  C13 UNL     1      -3.865 -12.586   4.833  1.00  0.00     0.021 C 
HETATM    6  C14 UNL     1      -4.948 -10.831   3.536  1.00  0.00    -0.000 C 
HETATM    7  C15 UNL     1      -6.243 -11.069   3.206  1.00  0.00    -0.060 C 
HETATM    8  C16 UNL     1      -7.197 -11.637   4.277  1.00  0.00     0.036 C 
HETATM    9  C17 UNL     1      -6.655 -11.834   5.710  1.00  0.00     0.015 C 
HETATM   10  C18 UNL     1      -5.504 -10.872   6.018  1.00  0.00    -0.028 C 
HETATM   11  C19 UNL     1      -6.054  -9.410   6.018  1.00  0.00     0.016 C 
HETATM   12  C20 UNL     1      -6.871 -10.707   1.818  1.00  0.00    -0.014 C 
HETATM   13  C21 UNL     1      -7.865  -9.544   2.104  1.00  0.00     0.020 C 
HETATM   14  C22 UNL     1      -7.685 -11.898   1.232  1.00  0.00     0.021 C 
HETATM   15  C23 UNL     1      -6.876 -12.778   0.297  1.00  0.00     0.080 C 
HETATM   16  C24 UNL     1      -6.458 -11.995  -0.926  1.00  0.00     0.135 C 
HETATM   17  O4  UNL     1      -6.344 -12.562  -2.014  1.00  0.00    -0.297 OA
HETATM   18  C25 UNL     1      -6.178 -10.494  -0.758  1.00  0.00     0.018 C 
HETATM   19  C26 UNL     1      -7.414  -9.717  -1.251  1.00  0.00     0.023 C 
HETATM   20  C27 UNL     1      -5.023 -10.111  -1.715  1.00  0.00     0.023 C 
HETATM   21  C28 UNL     1      -5.817 -10.179   0.748  1.00  0.00     0.020 C 
HETATM   22  C29 UNL     1      -4.392 -10.653   1.067  1.00  0.00     0.090 C 
HETATM   23  C30 UNL     1      -4.017 -10.355   2.485  1.00  0.00     0.157 C 
HETATM   24  O5  UNL     1      -2.947  -9.816   2.754  1.00  0.00    -0.293 OA
ENDROOT
BRANCH   1  25
HETATM   25  C2  UNL     1      -5.288 -10.627   8.706  1.00  0.00    -0.014 C 
HETATM   26  C1  UNL     1      -4.230  -9.912   9.552  1.00  0.00     0.010 C 
BRANCH  25  27
HETATM   27  C3  UNL     1      -6.503  -9.684   8.465  1.00  0.00     0.007 C 
BRANCH  27  28
HETATM   28  C4  UNL     1      -7.738 -10.036   9.310  1.00  0.00     0.035 C 
BRANCH  28  29
HETATM   29  C5  UNL     1      -8.292  -8.892  10.181  1.00  0.00     0.154 C 
BRANCH  29  30
HETATM   30  O1  UNL     1      -7.909  -7.649   9.572  1.00  0.00    -0.392 OA
HETATM   31  H10 UNL     1      -7.036  -7.435   9.960  1.00  0.00     0.210 HD
ENDBRANCH  29  30
BRANCH  29  32
HETATM   32  C6  UNL     1      -7.882  -8.872  11.679  1.00  0.00     0.101 C 
HETATM   33  C7  UNL     1      -7.683 -10.308  12.193  1.00  0.00     0.051 C 
BRANCH  32  34
HETATM   34  O2  UNL     1      -8.969  -8.321  12.450  1.00  0.00    -0.385 OA
HETATM   35  H14 UNL     1      -8.588  -8.159  13.338  1.00  0.00     0.210 HD
ENDBRANCH  32  34
BRANCH  32  36
HETATM   36  C8  UNL     1      -6.620  -8.025  11.937  1.00  0.00     0.204 C 
BRANCH  36  37
HETATM   37  O3  UNL     1      -6.184  -8.222  13.287  1.00  0.00    -0.398 OA
HETATM   38  H17 UNL     1      -5.375  -7.692  13.404  1.00  0.00     0.209 HD
ENDBRANCH  36  37
ENDBRANCH  32  36
ENDBRANCH  29  32
ENDBRANCH  28  29
ENDBRANCH  27  28
ENDBRANCH  25  27
ENDBRANCH   1  25
TORSDOF 9
ENDMDL
MODEL 5
REMARK minimizedAffinity -6.67182446
REMARK CNNscore 0.322372437
REMARK CNNaffinity 6.17291307
REMARK  9 active torsions:
REMARK  status: ('A' for Active; 'I' for Inactive)
REMARK    1  A    between atoms: C2_2  and  C3_3 
REMARK    2  A    between atoms: C2_2  and  C9_12 
REMARK    3  A    between atoms: C3_3  and  C4_4 
REMARK    4  A    between atoms: C4_4  and  C5_5 
REMARK    5  A    between atoms: C5_5  and  O1_6 
REMARK    6  A    between atoms: C5_5  and  C6_7 
REMARK    7  A    between atoms: C6_7  and  O2_9 
REMARK    8  A    between atoms: C6_7  and  C8_10 
REMARK    9  A    between atoms: C8_10  and  O3_11 
ROOT
HETATM    1  C9  UNL     1      -6.050 -11.558   2.615  1.00  0.00    -0.002 C 
HETATM    2  C10 UNL     1      -4.661 -11.690   1.924  1.00  0.00     0.007 C 
HETATM    3  C11 UNL     1      -4.800 -11.148   0.491  1.00  0.00     0.015 C 
HETATM    4  C12 UNL     1      -6.315 -11.064   0.243  1.00  0.00    -0.005 C 
HETATM    5  C13 UNL     1      -6.788 -12.495  -0.165  1.00  0.00     0.021 C 
HETATM    6  C14 UNL     1      -6.874 -10.157  -0.844  1.00  0.00    -0.000 C 
HETATM    7  C15 UNL     1      -8.092  -9.569  -0.747  1.00  0.00    -0.060 C 
HETATM    8  C16 UNL     1      -8.941  -9.809   0.518  1.00  0.00     0.036 C 
HETATM    9  C17 UNL     1      -8.330 -10.649   1.662  1.00  0.00     0.015 C 
HETATM   10  C18 UNL     1      -6.800 -10.575   1.664  1.00  0.00    -0.028 C 
HETATM   11  C19 UNL     1      -6.366  -9.111   1.992  1.00  0.00     0.016 C 
HETATM   12  C20 UNL     1      -8.664  -8.564  -1.804  1.00  0.00    -0.014 C 
HETATM   13  C21 UNL     1      -8.691  -7.181  -1.088  1.00  0.00     0.020 C 
HETATM   14  C22 UNL     1     -10.126  -8.924  -2.201  1.00  0.00     0.021 C 
HETATM   15  C23 UNL     1     -10.215  -9.802  -3.435  1.00  0.00     0.080 C 
HETATM   16  C24 UNL     1      -9.689  -9.062  -4.642  1.00  0.00     0.135 C 
HETATM   17  O4  UNL     1     -10.166  -9.278  -5.757  1.00  0.00    -0.297 OA
HETATM   18  C25 UNL     1      -8.549  -8.055  -4.428  1.00  0.00     0.018 C 
HETATM   19  C26 UNL     1      -9.157  -6.640  -4.401  1.00  0.00     0.023 C 
HETATM   20  C27 UNL     1      -7.627  -8.100  -5.671  1.00  0.00     0.023 C 
HETATM   21  C28 UNL     1      -7.760  -8.407  -3.105  1.00  0.00     0.020 C 
HETATM   22  C29 UNL     1      -6.862  -9.633  -3.327  1.00  0.00     0.090 C 
HETATM   23  C30 UNL     1      -6.091  -9.983  -2.093  1.00  0.00     0.157 C 
HETATM   24  O5  UNL     1      -4.883 -10.194  -2.143  1.00  0.00    -0.293 OA
ENDROOT
BRANCH   1  25
HETATM   25  C2  UNL     1      -5.914 -11.231   4.136  1.00  0.00    -0.014 C 
HETATM   26  C1  UNL     1      -7.167 -11.621   4.925  1.00  0.00     0.010 C 
BRANCH  25  27
HETATM   27  C3  UNL     1      -4.667 -11.951   4.729  1.00  0.00     0.007 C 
BRANCH  27  28
HETATM   28  C4  UNL     1      -3.723 -11.018   5.504  1.00  0.00     0.035 C 
BRANCH  28  29
HETATM   29  C5  UNL     1      -3.774 -11.152   7.038  1.00  0.00     0.154 C 
BRANCH  29  30
HETATM   30  O1  UNL     1      -4.818 -12.081   7.366  1.00  0.00    -0.392 OA
HETATM   31  H10 UNL     1      -5.626 -11.535   7.451  1.00  0.00     0.210 HD
ENDBRANCH  29  30
BRANCH  29  32
HETATM   32  C6  UNL     1      -3.974  -9.850   7.862  1.00  0.00     0.101 C 
HETATM   33  C7  UNL     1      -5.112  -9.011   7.258  1.00  0.00     0.051 C 
BRANCH  32  34
HETATM   34  O2  UNL     1      -2.783  -9.044   7.752  1.00  0.00    -0.385 OA
HETATM   35  H14 UNL     1      -2.891  -8.345   8.430  1.00  0.00     0.210 HD
ENDBRANCH  32  34
BRANCH  32  36
HETATM   36  C8  UNL     1      -4.240 -10.129   9.355  1.00  0.00     0.204 C 
BRANCH  36  37
HETATM   37  O3  UNL     1      -3.215  -9.514  10.143  1.00  0.00    -0.398 OA
HETATM   38  H17 UNL     1      -3.429  -9.691  11.076  1.00  0.00     0.209 HD
ENDBRANCH  36  37
ENDBRANCH  32  36
ENDBRANCH  29  32
ENDBRANCH  28  29
ENDBRANCH  27  28
ENDBRANCH  25  27
ENDBRANCH   1  25
TORSDOF 9
ENDMDL
MODEL 6
REMARK minimizedAffinity -6.74406958
REMARK CNNscore 0.249995872
REMARK CNNaffinity 5.88553429
REMARK  9 active torsions:
REMARK  status: ('A' for Active; 'I' for Inactive)
REMARK    1  A    between atoms: C2_2  and  C3_3 
REMARK    2  A    between atoms: C2_2  and  C9_12 
REMARK    3  A    between atoms: C3_3  and  C4_4 
REMARK    4  A    between atoms: C4_4  and  C5_5 
REMARK    5  A    between atoms: C5_5  and  O1_6 
REMARK    6  A    between atoms: C5_5  and  C6_7 
REMARK    7  A    between atoms: C6_7  and  O2_9 
REMARK    8  A    between atoms: C6_7  and  C8_10 
REMARK    9  A    between atoms: C8_10  and  O3_11 
ROOT
HETATM    1  C9  UNL     1      -5.495 -10.710   6.570  1.00  0.00    -0.002 C 
HETATM    2  C10 UNL     1      -4.692 -11.386   7.720  1.00  0.00     0.007 C 
HETATM    3  C11 UNL     1      -3.536 -12.173   7.081  1.00  0.00     0.015 C 
HETATM    4  C12 UNL     1      -3.892 -12.261   5.587  1.00  0.00    -0.005 C 
HETATM    5  C13 UNL     1      -4.896 -13.447   5.429  1.00  0.00     0.021 C 
HETATM    6  C14 UNL     1      -2.815 -12.536   4.548  1.00  0.00    -0.000 C 
HETATM    7  C15 UNL     1      -2.883 -12.052   3.283  1.00  0.00    -0.060 C 
HETATM    8  C16 UNL     1      -4.086 -11.174   2.881  1.00  0.00     0.036 C 
HETATM    9  C17 UNL     1      -5.126 -10.814   3.966  1.00  0.00     0.015 C 
HETATM   10  C18 UNL     1      -4.508 -10.824   5.367  1.00  0.00    -0.028 C 
HETATM   11  C19 UNL     1      -3.451  -9.679   5.460  1.00  0.00     0.016 C 
HETATM   12  C20 UNL     1      -1.756 -12.242   2.212  1.00  0.00    -0.014 C 
HETATM   13  C21 UNL     1      -1.145 -10.826   1.998  1.00  0.00     0.020 C 
HETATM   14  C22 UNL     1      -2.337 -12.722   0.850  1.00  0.00     0.021 C 
HETATM   15  C23 UNL     1      -2.325 -14.231   0.689  1.00  0.00     0.080 C 
HETATM   16  C24 UNL     1      -0.905 -14.744   0.672  1.00  0.00     0.135 C 
HETATM   17  O4  UNL     1      -0.613 -15.736   0.002  1.00  0.00    -0.297 OA
HETATM   18  C25 UNL     1       0.140 -13.997   1.514  1.00  0.00     0.018 C 
HETATM   19  C26 UNL     1       0.948 -13.080   0.575  1.00  0.00     0.023 C 
HETATM   20  C27 UNL     1       1.146 -15.036   2.066  1.00  0.00     0.023 C 
HETATM   21  C28 UNL     1      -0.575 -13.202   2.679  1.00  0.00     0.020 C 
HETATM   22  C29 UNL     1      -1.026 -14.166   3.786  1.00  0.00     0.090 C 
HETATM   23  C30 UNL     1      -1.695 -13.440   4.910  1.00  0.00     0.157 C 
HETATM   24  O5  UNL     1      -1.378 -13.654   6.076  1.00  0.00    -0.293 OA
ENDROOT
BRANCH   1  25
HETATM   25  C2  UNL     1      -6.059  -9.317   6.996  1.00  0.00    -0.014 C 
HETATM   26  C1  UNL     1      -7.092  -8.783   6.000  1.00  0.00     0.010 C 
BRANCH  25  27
HETATM   27  C3  UNL     1      -6.688  -9.406   8.418  1.00  0.00     0.007 C 
BRANCH  27  28
HETATM   28  C4  UNL     1      -5.742  -9.992   9.478  1.00  0.00     0.035 C 
BRANCH  28  29
HETATM   29  C5  UNL     1      -5.541  -9.124  10.736  1.00  0.00     0.154 C 
BRANCH  29  30
HETATM   30  O1  UNL     1      -4.642  -9.819  11.613  1.00  0.00    -0.392 OA
HETATM   31  H10 UNL     1      -5.217 -10.381  12.171  1.00  0.00     0.210 HD
ENDBRANCH  29  30
BRANCH  29  32
HETATM   32  C6  UNL     1      -6.811  -8.712  11.530  1.00  0.00     0.101 C 
HETATM   33  C7  UNL     1      -8.072  -9.216  10.809  1.00  0.00     0.051 C 
BRANCH  32  34
HETATM   34  O2  UNL     1      -6.906  -7.273  11.538  1.00  0.00    -0.385 OA
HETATM   35  H14 UNL     1      -7.601  -7.073  12.199  1.00  0.00     0.210 HD
ENDBRANCH  32  34
BRANCH  32  36
HETATM   36  C8  UNL     1      -6.785  -9.210  12.988  1.00  0.00     0.204 C 
BRANCH  36  37
HETATM   37  O3  UNL     1      -6.106  -8.250  13.806  1.00  0.00    -0.398 OA
HETATM   38  H17 UNL     1      -6.131  -8.587  14.719  1.00  0.00     0.209 HD
ENDBRANCH  36  37
ENDBRANCH  32  36
ENDBRANCH  29  32
ENDBRANCH  28  29
ENDBRANCH  27  28
ENDBRANCH  25  27
ENDBRANCH   1  25
TORSDOF 9
ENDMDL
MODEL 7
REMARK minimizedAffinity -7.00127316
REMARK CNNscore 0.249079496
REMARK CNNaffinity 5.08614111
REMARK  9 active torsions:
REMARK  status: ('A' for Active; 'I' for Inactive)
REMARK    1  A    between atoms: C2_2  and  C3_3 
REMARK    2  A    between atoms: C2_2  and  C9_12 
REMARK    3  A    between atoms: C3_3  and  C4_4 
REMARK    4  A    between atoms: C4_4  and  C5_5 
REMARK    5  A    between atoms: C5_5  and  O1_6 
REMARK    6  A    between atoms: C5_5  and  C6_7 
REMARK    7  A    between atoms: C6_7  and  O2_9 
REMARK    8  A    between atoms: C6_7  and  C8_10 
REMARK    9  A    between atoms: C8_10  and  O3_11 
ROOT
HETATM    1  C9  UNL     1      11.471  11.083  16.343  1.00  0.00    -0.002 C 
HETATM    2  C10 UNL     1      11.801  12.024  15.146  1.00  0.00     0.007 C 
HETATM    3  C11 UNL     1      10.749  11.774  14.052  1.00  0.00     0.015 C 
HETATM    4  C12 UNL     1      10.064  10.456  14.453  1.00  0.00    -0.005 C 
HETATM    5  C13 UNL     1      10.981   9.297  13.951  1.00  0.00     0.021 C 
HETATM    6  C14 UNL     1       8.684  10.106  13.916  1.00  0.00    -0.000 C 
HETATM    7  C15 UNL     1       7.795   9.362  14.622  1.00  0.00    -0.060 C 
HETATM    8  C16 UNL     1       8.186   8.863  16.028  1.00  0.00     0.036 C 
HETATM    9  C17 UNL     1       9.548   9.304  16.609  1.00  0.00     0.015 C 
HETATM   10  C18 UNL     1      10.010  10.640  16.020  1.00  0.00    -0.028 C 
HETATM   11  C19 UNL     1       9.022  11.760  16.475  1.00  0.00     0.016 C 
HETATM   12  C20 UNL     1       6.338   9.052  14.140  1.00  0.00    -0.014 C 
HETATM   13  C21 UNL     1       5.406   9.846  15.103  1.00  0.00     0.020 C 
HETATM   14  C22 UNL     1       5.997   7.540  14.286  1.00  0.00     0.021 C 
HETATM   15  C23 UNL     1       6.260   6.740  13.023  1.00  0.00     0.080 C 
HETATM   16  C24 UNL     1       5.350   7.205  11.911  1.00  0.00     0.135 C 
HETATM   17  O4  UNL     1       4.954   6.407  11.061  1.00  0.00    -0.297 OA
HETATM   18  C25 UNL     1       4.954   8.689  11.879  1.00  0.00     0.018 C 
HETATM   19  C26 UNL     1       3.537   8.821  12.469  1.00  0.00     0.023 C 
HETATM   20  C27 UNL     1       4.842   9.126  10.398  1.00  0.00     0.023 C 
HETATM   21  C28 UNL     1       6.025   9.550  12.661  1.00  0.00     0.020 C 
HETATM   22  C29 UNL     1       7.305   9.699  11.825  1.00  0.00     0.090 C 
HETATM   23  C30 UNL     1       8.333  10.522  12.536  1.00  0.00     0.157 C 
HETATM   24  O5  UNL     1       8.910  11.441  11.963  1.00  0.00    -0.293 OA
ENDROOT
BRANCH   1  25
HETATM   25  C2  UNL     1      11.807  11.748  17.714  1.00  0.00    -0.014 C 
HETATM   26  C1  UNL     1      11.397  10.868  18.899  1.00  0.00     0.010 C 
BRANCH  25  27
HETATM   27  C3  UNL     1      13.327  12.073  17.794  1.00  0.00     0.007 C 
BRANCH  27  28
HETATM   28  C4  UNL     1      13.713  12.940  19.003  1.00  0.00     0.035 C 
BRANCH  28  29
HETATM   29  C5  UNL     1      15.186  13.391  19.050  1.00  0.00     0.154 C 
BRANCH  29  30
HETATM   30  O1  UNL     1      15.866  12.794  17.936  1.00  0.00    -0.392 OA
HETATM   31  H10 UNL     1      16.187  11.930  18.267  1.00  0.00     0.210 HD
ENDBRANCH  29  30
BRANCH  29  32
HETATM   32  C6  UNL     1      15.982  13.094  20.351  1.00  0.00     0.101 C 
HETATM   33  C7  UNL     1      17.121  12.103  20.059  1.00  0.00     0.051 C 
BRANCH  32  34
HETATM   34  O2  UNL     1      15.109  12.432  21.288  1.00  0.00    -0.385 OA
HETATM   35  H14 UNL     1      15.599  12.444  22.136  1.00  0.00     0.210 HD
ENDBRANCH  32  34
BRANCH  32  36
HETATM   36  C8  UNL     1      16.533  14.372  21.013  1.00  0.00     0.204 C 
BRANCH  36  37
HETATM   37  O3  UNL     1      16.015  14.479  22.344  1.00  0.00    -0.398 OA
HETATM   38  H17 UNL     1      16.402  15.282  22.736  1.00  0.00     0.209 HD
ENDBRANCH  36  37
ENDBRANCH  32  36
ENDBRANCH  29  32
ENDBRANCH  28  29
ENDBRANCH  27  28
ENDBRANCH  25  27
ENDBRANCH   1  25
TORSDOF 9
ENDMDL
MODEL 8
REMARK minimizedAffinity -9.03646278
REMARK CNNscore 0.241339073
REMARK CNNaffinity 6.58231163
REMARK  9 active torsions:
REMARK  status: ('A' for Active; 'I' for Inactive)
REMARK    1  A    between atoms: C2_2  and  C3_3 
REMARK    2  A    between atoms: C2_2  and  C9_12 
REMARK    3  A    between atoms: C3_3  and  C4_4 
REMARK    4  A    between atoms: C4_4  and  C5_5 
REMARK    5  A    between atoms: C5_5  and  O1_6 
REMARK    6  A    between atoms: C5_5  and  C6_7 
REMARK    7  A    between atoms: C6_7  and  O2_9 
REMARK    8  A    between atoms: C6_7  and  C8_10 
REMARK    9  A    between atoms: C8_10  and  O3_11 
ROOT
HETATM    1  C9  UNL     1       0.799   7.659  12.964  1.00  0.00    -0.002 C 
HETATM    2  C10 UNL     1       0.931   6.486  11.949  1.00  0.00     0.007 C 
HETATM    3  C11 UNL     1      -0.426   5.765  11.890  1.00  0.00     0.015 C 
HETATM    4  C12 UNL     1      -1.199   6.272  13.120  1.00  0.00    -0.005 C 
HETATM    5  C13 UNL     1      -0.712   5.429  14.341  1.00  0.00     0.021 C 
HETATM    6  C14 UNL     1      -2.717   6.175  13.175  1.00  0.00    -0.000 C 
HETATM    7  C15 UNL     1      -3.480   7.073  13.847  1.00  0.00    -0.060 C 
HETATM    8  C16 UNL     1      -2.790   8.248  14.572  1.00  0.00     0.036 C 
HETATM    9  C17 UNL     1      -1.259   8.398  14.430  1.00  0.00     0.015 C 
HETATM   10  C18 UNL     1      -0.748   7.785  13.124  1.00  0.00    -0.028 C 
HETATM   11  C19 UNL     1      -1.323   8.602  11.923  1.00  0.00     0.016 C 
HETATM   12  C20 UNL     1      -5.046   7.056  13.857  1.00  0.00    -0.014 C 
HETATM   13  C21 UNL     1      -5.478   8.315  13.048  1.00  0.00     0.020 C 
HETATM   14  C22 UNL     1      -5.610   7.200  15.301  1.00  0.00     0.021 C 
HETATM   15  C23 UNL     1      -5.893   5.868  15.971  1.00  0.00     0.080 C 
HETATM   16  C24 UNL     1      -6.986   5.133  15.232  1.00  0.00     0.135 C 
HETATM   17  O4  UNL     1      -7.763   4.400  15.846  1.00  0.00    -0.297 OA
HETATM   18  C25 UNL     1      -7.083   5.327  13.712  1.00  0.00     0.018 C 
HETATM   19  C26 UNL     1      -8.208   6.342  13.428  1.00  0.00     0.023 C 
HETATM   20  C27 UNL     1      -7.546   3.990  13.084  1.00  0.00     0.023 C 
HETATM   21  C28 UNL     1      -5.684   5.788  13.137  1.00  0.00     0.020 C 
HETATM   22  C29 UNL     1      -4.708   4.604  13.095  1.00  0.00     0.090 C 
HETATM   23  C30 UNL     1      -3.376   5.007  12.541  1.00  0.00     0.157 C 
HETATM   24  O5  UNL     1      -2.832   4.344  11.663  1.00  0.00    -0.293 OA
ENDROOT
BRANCH   1  25
HETATM   25  C2  UNL     1       1.649   8.897  12.535  1.00  0.00    -0.014 C 
HETATM   26  C1  UNL     1       2.124   9.716  13.739  1.00  0.00     0.010 C 
BRANCH  25  27
HETATM   27  C3  UNL     1       2.873   8.438  11.689  1.00  0.00     0.007 C 
BRANCH  27  28
HETATM   28  C4  UNL     1       4.227   8.877  12.269  1.00  0.00     0.035 C 
BRANCH  28  29
HETATM   29  C5  UNL     1       5.274   7.757  12.421  1.00  0.00     0.154 C 
BRANCH  29  30
HETATM   30  O1  UNL     1       4.642   6.512  12.086  1.00  0.00    -0.392 OA
HETATM   31  H10 UNL     1       4.264   6.185  12.928  1.00  0.00     0.210 HD
ENDBRANCH  29  30
BRANCH  29  32
HETATM   32  C6  UNL     1       5.975   7.616  13.800  1.00  0.00     0.101 C 
HETATM   33  C7  UNL     1       7.243   8.486  13.841  1.00  0.00     0.051 C 
BRANCH  32  34
HETATM   34  O2  UNL     1       6.422   6.254  13.957  1.00  0.00    -0.385 OA
HETATM   35  H14 UNL     1       6.677   6.182  14.900  1.00  0.00     0.210 HD
ENDBRANCH  32  34
BRANCH  32  36
HETATM   36  C8  UNL     1       5.042   7.964  14.977  1.00  0.00     0.204 C 
BRANCH  36  37
HETATM   37  O3  UNL     1       4.855   6.803  15.794  1.00  0.00    -0.398 OA
HETATM   38  H17 UNL     1       4.282   7.067  16.536  1.00  0.00     0.209 HD
ENDBRANCH  36  37
ENDBRANCH  32  36
ENDBRANCH  29  32
ENDBRANCH  28  29
ENDBRANCH  27  28
ENDBRANCH  25  27
ENDBRANCH   1  25
TORSDOF 9
ENDMDL
MODEL 9
REMARK minimizedAffinity -7.01503658
REMARK CNNscore 0.234707341
REMARK CNNaffinity 6.23975754
REMARK  9 active torsions:
REMARK  status: ('A' for Active; 'I' for Inactive)
REMARK    1  A    between atoms: C2_2  and  C3_3 
REMARK    2  A    between atoms: C2_2  and  C9_12 
REMARK    3  A    between atoms: C3_3  and  C4_4 
REMARK    4  A    between atoms: C4_4  and  C5_5 
REMARK    5  A    between atoms: C5_5  and  O1_6 
REMARK    6  A    between atoms: C5_5  and  C6_7 
REMARK    7  A    between atoms: C6_7  and  O2_9 
REMARK    8  A    between atoms: C6_7  and  C8_10 
REMARK    9  A    between atoms: C8_10  and  O3_11 
ROOT
HETATM    1  C9  UNL     1       7.892   9.216  15.395  1.00  0.00    -0.002 C 
HETATM    2  C10 UNL     1       8.876   9.058  14.198  1.00  0.00     0.007 C 
HETATM    3  C11 UNL     1       8.058   8.596  12.980  1.00  0.00     0.015 C 
HETATM    4  C12 UNL     1       6.710   8.132  13.559  1.00  0.00    -0.005 C 
HETATM    5  C13 UNL     1       6.917   6.674  14.076  1.00  0.00     0.021 C 
HETATM    6  C14 UNL     1       5.475   8.048  12.675  1.00  0.00    -0.000 C 
HETATM    7  C15 UNL     1       4.222   8.251  13.153  1.00  0.00    -0.060 C 
HETATM    8  C16 UNL     1       4.037   8.596  14.645  1.00  0.00     0.036 C 
HETATM    9  C17 UNL     1       5.299   8.778  15.517  1.00  0.00     0.015 C 
HETATM   10  C18 UNL     1       6.504   9.222  14.683  1.00  0.00    -0.028 C 
HETATM   11  C19 UNL     1       6.226  10.649  14.114  1.00  0.00     0.016 C 
HETATM   12  C20 UNL     1       2.935   8.257  12.260  1.00  0.00    -0.014 C 
HETATM   13  C21 UNL     1       2.441   9.733  12.256  1.00  0.00     0.020 C 
HETATM   14  C22 UNL     1       1.808   7.378  12.877  1.00  0.00     0.021 C 
HETATM   15  C23 UNL     1       1.799   5.955  12.351  1.00  0.00     0.080 C 
HETATM   16  C24 UNL     1       1.490   5.945  10.873  1.00  0.00     0.135 C 
HETATM   17  O4  UNL     1       0.872   5.003  10.376  1.00  0.00    -0.297 OA
HETATM   18  C25 UNL     1       1.978   7.132  10.028  1.00  0.00     0.018 C 
HETATM   19  C26 UNL     1       0.786   8.082   9.802  1.00  0.00     0.023 C 
HETATM   20  C27 UNL     1       2.371   6.599   8.629  1.00  0.00     0.023 C 
HETATM   21  C28 UNL     1       3.196   7.839  10.746  1.00  0.00     0.020 C 
HETATM   22  C29 UNL     1       4.469   6.993  10.598  1.00  0.00     0.090 C 
HETATM   23  C30 UNL     1       5.644   7.645  11.257  1.00  0.00     0.157 C 
HETATM   24  O5  UNL     1       6.714   7.758  10.667  1.00  0.00    -0.293 OA
ENDROOT
BRANCH   1  25
HETATM   25  C2  UNL     1       8.302  10.396  16.332  1.00  0.00    -0.014 C 
HETATM   26  C1  UNL     1       7.432  10.462  17.591  1.00  0.00     0.010 C 
BRANCH  25  27
HETATM   27  C3  UNL     1       9.802  10.269  16.728  1.00  0.00     0.007 C 
BRANCH  27  28
HETATM   28  C4  UNL     1      10.460  11.608  17.099  1.00  0.00     0.035 C 
BRANCH  28  29
HETATM   29  C5  UNL     1      11.353  11.581  18.355  1.00  0.00     0.154 C 
BRANCH  29  30
HETATM   30  O1  UNL     1      11.596  10.207  18.693  1.00  0.00    -0.392 OA
HETATM   31  H10 UNL     1      10.860   9.958  19.290  1.00  0.00     0.210 HD
ENDBRANCH  29  30
BRANCH  29  32
HETATM   32  C6  UNL     1      10.838  12.331  19.614  1.00  0.00     0.101 C 
HETATM   33  C7  UNL     1      10.621  13.819  19.291  1.00  0.00     0.051 C 
BRANCH  32  34
HETATM   34  O2  UNL     1      11.861  12.290  20.629  1.00  0.00    -0.385 OA
HETATM   35  H14 UNL     1      11.416  12.603  21.444  1.00  0.00     0.210 HD
ENDBRANCH  32  34
BRANCH  32  36
HETATM   36  C8  UNL     1       9.551  11.709  20.189  1.00  0.00     0.204 C 
BRANCH  36  37
HETATM   37  O3  UNL     1       9.636  11.679  21.618  1.00  0.00    -0.398 OA
HETATM   38  H17 UNL     1       8.798  11.304  21.945  1.00  0.00     0.209 HD
ENDBRANCH  36  37
ENDBRANCH  32  36
ENDBRANCH  29  32
ENDBRANCH  28  29
ENDBRANCH  27  28
ENDBRANCH  25  27
ENDBRANCH   1  25
TORSDOF 9
ENDMDL
