MODEL 1
REMARK minimizedAffinity -9.91776848
REMARK  8 active torsions:
REMARK  status: ('A' for Active; 'I' for Inactive)
REMARK    1  A    between atoms: C2_2  and  C3_3 
REMARK    2  A    between atoms: C2_2  and  C9_12 
REMARK    3  A    between atoms: C3_3  and  C4_4 
REMARK    4  A    between atoms: C4_4  and  O1_5 
REMARK    5  A    between atoms: C4_4  and  C5_6 
REMARK    6  A    between atoms: C5_6  and  O2_7 
REMARK    7  A    between atoms: C5_6  and  C6_8 
REMARK    8  A    between atoms: C6_8  and  O3_11 
ROOT
HETATM    1  C9  UNL     1      -3.262   7.684  14.246  1.00  0.00     0.097 A 
HETATM    2  C10 UNL     1      -2.930   9.050  14.771  1.00  0.00     0.042 A 
HETATM    3  C11 UNL     1      -1.392   9.127  14.884  1.00  0.00     0.016 A 
HETATM    4  C12 UNL     1      -0.772   7.813  14.293  1.00  0.00    -0.002 A 
HETATM    5  C13 UNL     1       0.048   7.155  15.429  1.00  0.00     0.019 C 
HETATM    6  C14 UNL     1      -1.982   6.932  13.979  1.00  0.00     0.101 A 
HETATM    7  C15 UNL     1      -1.810   5.720  13.120  1.00  0.00     0.042 C 
HETATM    8  C16 UNL     1      -0.927   5.972  11.900  1.00  0.00     0.009 C 
HETATM    9  C17 UNL     1       0.403   6.665  12.279  1.00  0.00     0.003 C 
HETATM   10  C18 UNL     1       1.534   6.593  11.145  1.00  0.00    -0.035 C 
HETATM   11  C19 UNL     1       2.004   5.106  11.135  1.00  0.00     0.016 C 
HETATM   12  C20 UNL     1       0.979   6.916   9.735  1.00  0.00     0.017 C 
HETATM   13  C21 UNL     1       2.021   6.959   8.632  1.00  0.00     0.080 C 
HETATM   14  C22 UNL     1       3.136   7.910   8.981  1.00  0.00     0.135 C 
HETATM   15  O4  UNL     1       3.497   8.763   8.169  1.00  0.00    -0.297 OA
HETATM   16  C23 UNL     1       3.846   7.703  10.322  1.00  0.00     0.017 C 
HETATM   17  C24 UNL     1       4.782   8.913  10.576  1.00  0.00     0.023 C 
HETATM   18  C25 UNL     1       4.782   6.479  10.188  1.00  0.00     0.023 C 
HETATM   19  C26 UNL     1       2.774   7.525  11.477  1.00  0.00     0.009 C 
HETATM   20  C27 UNL     1       2.311   8.898  12.027  1.00  0.00     0.007 C 
HETATM   21  C28 UNL     1       1.408   8.763  13.250  1.00  0.00     0.011 C 
HETATM   22  C29 UNL     1       0.072   8.059  12.941  1.00  0.00    -0.029 C 
HETATM   23  C30 UNL     1      -0.753   8.983  11.996  1.00  0.00     0.016 C 
HETATM   24  O5  UNL     1      -2.824   6.643  15.120  1.00  0.00    -0.362 OA
ENDROOT
BRANCH   1  25
HETATM   25  C2  UNL     1      -4.595   7.403  13.577  1.00  0.00     0.022 C 
HETATM   26  C1  UNL     1      -5.611   8.493  13.939  1.00  0.00     0.013 C 
BRANCH  25  27
HETATM   27  C3  UNL     1      -5.097   5.982  13.929  1.00  0.00     0.041 C 
BRANCH  27  28
HETATM   28  C4  UNL     1      -6.345   5.907  14.833  1.00  0.00     0.150 C 
BRANCH  28  29
HETATM   29  O1  UNL     1      -5.877   5.964  16.199  1.00  0.00    -0.393 OA
HETATM   30  H8  UNL     1      -5.480   6.847  16.324  1.00  0.00     0.210 HD
ENDBRANCH  28  29
BRANCH  28  31
HETATM   31  C5  UNL     1      -7.142   4.586  14.680  1.00  0.00     0.180 C 
BRANCH  31  32
HETATM   32  O2  UNL     1      -8.125   4.530  15.728  1.00  0.00    -0.390 OA
HETATM   33  H10 UNL     1      -8.372   5.467  15.877  1.00  0.00     0.210 HD
ENDBRANCH  31  32
BRANCH  31  34
HETATM   34  C6  UNL     1      -7.814   4.418  13.285  1.00  0.00     0.079 C 
HETATM   35  C7  UNL     1      -6.829   4.041  12.171  1.00  0.00     0.048 C 
HETATM   36  C8  UNL     1      -8.545   5.714  12.901  1.00  0.00     0.048 C 
BRANCH  34  37
HETATM   37  O3  UNL     1      -8.794   3.375  13.386  1.00  0.00    -0.388 OA
HETATM   38  H17 UNL     1      -9.314   3.377  12.565  1.00  0.00     0.210 HD
ENDBRANCH  34  37
ENDBRANCH  31  34
ENDBRANCH  28  31
ENDBRANCH  27  28
ENDBRANCH  25  27
ENDBRANCH   1  25
TORSDOF 8
ENDMDL
MODEL 2
REMARK minimizedAffinity -9.77521133
REMARK  8 active torsions:
REMARK  status: ('A' for Active; 'I' for Inactive)
REMARK    1  A    between atoms: C2_2  and  C3_3 
REMARK    2  A    between atoms: C2_2  and  C9_12 
REMARK    3  A    between atoms: C3_3  and  C4_4 
REMARK    4  A    between atoms: C4_4  and  O1_5 
REMARK    5  A    between atoms: C4_4  and  C5_6 
REMARK    6  A    between atoms: C5_6  and  O2_7 
REMARK    7  A    between atoms: C5_6  and  C6_8 
REMARK    8  A    between atoms: C6_8  and  O3_11 
ROOT
HETATM    1  C9  UNL     1      -3.325   7.194  14.383  1.00  0.00     0.097 A 
HETATM    2  C10 UNL     1      -4.149   7.844  13.312  1.00  0.00     0.042 A 
HETATM    3  C11 UNL     1      -3.197   8.749  12.499  1.00  0.00     0.016 A 
HETATM    4  C12 UNL     1      -1.732   8.543  13.018  1.00  0.00    -0.002 A 
HETATM    5  C13 UNL     1      -1.228   9.925  13.499  1.00  0.00     0.019 C 
HETATM    6  C14 UNL     1      -1.886   7.621  14.229  1.00  0.00     0.101 A 
HETATM    7  C15 UNL     1      -0.680   6.954  14.808  1.00  0.00     0.042 C 
HETATM    8  C16 UNL     1       0.257   6.384  13.744  1.00  0.00     0.009 C 
HETATM    9  C17 UNL     1       0.582   7.419  12.642  1.00  0.00     0.003 C 
HETATM   10  C18 UNL     1       1.850   7.045  11.735  1.00  0.00    -0.035 C 
HETATM   11  C19 UNL     1       3.086   7.251  12.664  1.00  0.00     0.016 C 
HETATM   12  C20 UNL     1       1.842   5.562  11.291  1.00  0.00     0.017 C 
HETATM   13  C21 UNL     1       2.967   5.170  10.350  1.00  0.00     0.080 C 
HETATM   14  C22 UNL     1       3.000   6.072   9.144  1.00  0.00     0.135 C 
HETATM   15  O4  UNL     1       3.049   5.590   8.013  1.00  0.00    -0.297 OA
HETATM   16  C23 UNL     1       3.070   7.581   9.395  1.00  0.00     0.017 C 
HETATM   17  C24 UNL     1       2.859   8.315   8.045  1.00  0.00     0.023 C 
HETATM   18  C25 UNL     1       4.510   7.931   9.834  1.00  0.00     0.023 C 
HETATM   19  C26 UNL     1       1.986   7.998  10.475  1.00  0.00     0.009 C 
HETATM   20  C27 UNL     1       0.608   8.254   9.815  1.00  0.00     0.007 C 
HETATM   21  C28 UNL     1      -0.415   8.818  10.798  1.00  0.00     0.011 C 
HETATM   22  C29 UNL     1      -0.765   7.839  11.935  1.00  0.00    -0.029 C 
HETATM   23  C30 UNL     1      -1.512   6.622  11.311  1.00  0.00     0.016 C 
HETATM   24  O5  UNL     1      -2.740   8.144  15.274  1.00  0.00    -0.362 OA
ENDROOT
BRANCH   1  25
HETATM   25  C2  UNL     1      -3.788   5.919  15.065  1.00  0.00     0.022 C 
HETATM   26  C1  UNL     1      -3.661   4.728  14.107  1.00  0.00     0.013 C 
BRANCH  25  27
HETATM   27  C3  UNL     1      -5.223   6.084  15.622  1.00  0.00     0.041 C 
BRANCH  27  28
HETATM   28  C4  UNL     1      -6.352   6.171  14.573  1.00  0.00     0.150 C 
BRANCH  28  29
HETATM   29  O1  UNL     1      -7.130   7.345  14.891  1.00  0.00    -0.393 OA
HETATM   30  H8  UNL     1      -6.546   8.116  14.753  1.00  0.00     0.210 HD
ENDBRANCH  28  29
BRANCH  28  31
HETATM   31  C5  UNL     1      -7.320   4.961  14.607  1.00  0.00     0.180 C 
BRANCH  31  32
HETATM   32  O2  UNL     1      -8.480   5.334  15.372  1.00  0.00    -0.390 OA
HETATM   33  H10 UNL     1      -8.585   6.293  15.196  1.00  0.00     0.210 HD
ENDBRANCH  31  32
BRANCH  31  34
HETATM   34  C6  UNL     1      -7.734   4.449  13.195  1.00  0.00     0.079 C 
HETATM   35  C7  UNL     1      -6.545   4.020  12.325  1.00  0.00     0.048 C 
HETATM   36  C8  UNL     1      -8.534   5.538  12.462  1.00  0.00     0.048 C 
BRANCH  34  37
HETATM   37  O3  UNL     1      -8.593   3.314  13.367  1.00  0.00    -0.388 OA
HETATM   38  H17 UNL     1      -8.970   3.093  12.498  1.00  0.00     0.210 HD
ENDBRANCH  34  37
ENDBRANCH  31  34
ENDBRANCH  28  31
ENDBRANCH  27  28
ENDBRANCH  25  27
ENDBRANCH   1  25
TORSDOF 8
ENDMDL
MODEL 3
REMARK minimizedAffinity -9.35286331
REMARK  8 active torsions:
REMARK  status: ('A' for Active; 'I' for Inactive)
REMARK    1  A    between atoms: C2_2  and  C3_3 
REMARK    2  A    between atoms: C2_2  and  C9_12 
REMARK    3  A    between atoms: C3_3  and  C4_4 
REMARK    4  A    between atoms: C4_4  and  O1_5 
REMARK    5  A    between atoms: C4_4  and  C5_6 
REMARK    6  A    between atoms: C5_6  and  O2_7 
REMARK    7  A    between atoms: C5_6  and  C6_8 
REMARK    8  A    between atoms: C6_8  and  O3_11 
ROOT
HETATM    1  C9  UNL     1      -3.264   7.269  14.629  1.00  0.00     0.097 A 
HETATM    2  C10 UNL     1      -2.965   5.941  15.260  1.00  0.00     0.042 A 
HETATM    3  C11 UNL     1      -2.381   5.039  14.151  1.00  0.00     0.016 A 
HETATM    4  C12 UNL     1      -2.208   5.886  12.843  1.00  0.00    -0.002 A 
HETATM    5  C13 UNL     1      -3.057   5.198  11.748  1.00  0.00     0.019 C 
HETATM    6  C14 UNL     1      -2.836   7.238  13.183  1.00  0.00     0.101 A 
HETATM    7  C15 UNL     1      -2.590   8.412  12.289  1.00  0.00     0.042 C 
HETATM    8  C16 UNL     1      -1.135   8.530  11.842  1.00  0.00     0.009 C 
HETATM    9  C17 UNL     1      -0.589   7.193  11.286  1.00  0.00     0.003 C 
HETATM   10  C18 UNL     1       0.763   7.334  10.436  1.00  0.00    -0.035 C 
HETATM   11  C19 UNL     1       0.334   8.019   9.102  1.00  0.00     0.016 C 
HETATM   12  C20 UNL     1       1.801   8.256  11.122  1.00  0.00     0.017 C 
HETATM   13  C21 UNL     1       3.139   8.352  10.414  1.00  0.00     0.080 C 
HETATM   14  C22 UNL     1       3.730   6.985  10.190  1.00  0.00     0.135 C 
HETATM   15  O4  UNL     1       4.895   6.754  10.514  1.00  0.00    -0.297 OA
HETATM   16  C23 UNL     1       2.862   5.952   9.466  1.00  0.00     0.017 C 
HETATM   17  C24 UNL     1       3.563   4.571   9.552  1.00  0.00     0.023 C 
HETATM   18  C25 UNL     1       2.839   6.310   7.962  1.00  0.00     0.023 C 
HETATM   19  C26 UNL     1       1.411   5.923  10.107  1.00  0.00     0.009 C 
HETATM   20  C27 UNL     1       1.361   4.983  11.337  1.00  0.00     0.007 C 
HETATM   21  C28 UNL     1      -0.056   4.802  11.876  1.00  0.00     0.011 C 
HETATM   22  C29 UNL     1      -0.665   6.106  12.427  1.00  0.00    -0.029 C 
HETATM   23  C30 UNL     1       0.143   6.518  13.694  1.00  0.00     0.016 C 
HETATM   24  O5  UNL     1      -4.226   7.170  13.578  1.00  0.00    -0.362 OA
ENDROOT
BRANCH   1  25
HETATM   25  C2  UNL     1      -3.404   8.524  15.472  1.00  0.00     0.022 C 
HETATM   26  C1  UNL     1      -2.311   8.567  16.546  1.00  0.00     0.013 C 
BRANCH  25  27
HETATM   27  C3  UNL     1      -4.829   8.630  16.067  1.00  0.00     0.041 C 
BRANCH  27  28
HETATM   28  C4  UNL     1      -5.949   7.927  15.274  1.00  0.00     0.150 C 
BRANCH  28  29
HETATM   29  O1  UNL     1      -6.965   8.920  15.012  1.00  0.00    -0.393 OA
HETATM   30  H8  UNL     1      -6.563   9.584  14.420  1.00  0.00     0.210 HD
ENDBRANCH  28  29
BRANCH  28  31
HETATM   31  C5  UNL     1      -6.631   6.775  16.056  1.00  0.00     0.180 C 
BRANCH  31  32
HETATM   32  O2  UNL     1      -7.329   7.344  17.177  1.00  0.00    -0.390 OA
HETATM   33  H10 UNL     1      -7.622   8.223  16.858  1.00  0.00     0.210 HD
ENDBRANCH  31  32
BRANCH  31  34
HETATM   34  C6  UNL     1      -7.595   5.912  15.188  1.00  0.00     0.079 C 
HETATM   35  C7  UNL     1      -7.019   5.542  13.815  1.00  0.00     0.048 C 
HETATM   36  C8  UNL     1      -8.927   6.655  14.997  1.00  0.00     0.048 C 
BRANCH  34  37
HETATM   37  O3  UNL     1      -7.868   4.697  15.899  1.00  0.00    -0.388 OA
HETATM   38  H17 UNL     1      -8.583   4.234  15.431  1.00  0.00     0.210 HD
ENDBRANCH  34  37
ENDBRANCH  31  34
ENDBRANCH  28  31
ENDBRANCH  27  28
ENDBRANCH  25  27
ENDBRANCH   1  25
TORSDOF 8
ENDMDL
MODEL 4
REMARK minimizedAffinity -8.84291649
REMARK  8 active torsions:
REMARK  status: ('A' for Active; 'I' for Inactive)
REMARK    1  A    between atoms: C2_2  and  C3_3 
REMARK    2  A    between atoms: C2_2  and  C9_12 
REMARK    3  A    between atoms: C3_3  and  C4_4 
REMARK    4  A    between atoms: C4_4  and  O1_5 
REMARK    5  A    between atoms: C4_4  and  C5_6 
REMARK    6  A    between atoms: C5_6  and  O2_7 
REMARK    7  A    between atoms: C5_6  and  C6_8 
REMARK    8  A    between atoms: C6_8  and  O3_11 
ROOT
HETATM    1  C9  UNL     1      -7.109   4.751  13.536  1.00  0.00     0.097 A 
HETATM    2  C10 UNL     1      -8.239   5.710  13.308  1.00  0.00     0.042 A 
HETATM    3  C11 UNL     1      -8.053   6.870  14.311  1.00  0.00     0.016 A 
HETATM    4  C12 UNL     1      -6.703   6.665  15.082  1.00  0.00    -0.002 A 
HETATM    5  C13 UNL     1      -7.056   6.575  16.587  1.00  0.00     0.019 C 
HETATM    6  C14 UNL     1      -6.200   5.301  14.607  1.00  0.00     0.101 A 
HETATM    7  C15 UNL     1      -4.789   4.895  14.889  1.00  0.00     0.042 C 
HETATM    8  C16 UNL     1      -3.782   6.017  14.642  1.00  0.00     0.009 C 
HETATM    9  C17 UNL     1      -4.205   7.337  15.330  1.00  0.00     0.003 C 
HETATM   10  C18 UNL     1      -3.030   8.420  15.461  1.00  0.00    -0.035 C 
HETATM   11  C19 UNL     1      -2.072   7.848  16.551  1.00  0.00     0.016 C 
HETATM   12  C20 UNL     1      -2.213   8.569  14.154  1.00  0.00     0.017 C 
HETATM   13  C21 UNL     1      -1.147   9.649  14.184  1.00  0.00     0.080 C 
HETATM   14  C22 UNL     1      -1.737  10.977  14.580  1.00  0.00     0.135 C 
HETATM   15  O4  UNL     1      -1.508  11.981  13.905  1.00  0.00    -0.297 OA
HETATM   16  C23 UNL     1      -2.534  11.033  15.887  1.00  0.00     0.017 C 
HETATM   17  C24 UNL     1      -3.236  12.413  15.978  1.00  0.00     0.023 C 
HETATM   18  C25 UNL     1      -1.532  11.002  17.064  1.00  0.00     0.023 C 
HETATM   19  C26 UNL     1      -3.570   9.833  15.938  1.00  0.00     0.009 C 
HETATM   20  C27 UNL     1      -4.889  10.202  15.214  1.00  0.00     0.007 C 
HETATM   21  C28 UNL     1      -5.968   9.136  15.387  1.00  0.00     0.011 C 
HETATM   22  C29 UNL     1      -5.597   7.788  14.740  1.00  0.00    -0.029 C 
HETATM   23  C30 UNL     1      -5.549   7.990  13.196  1.00  0.00     0.016 C 
HETATM   24  O5  UNL     1      -7.113   4.206  14.857  1.00  0.00    -0.362 OA
ENDROOT
BRANCH   1  25
HETATM   25  C2  UNL     1      -6.694   3.758  12.465  1.00  0.00     0.022 C 
HETATM   26  C1  UNL     1      -7.601   2.522  12.506  1.00  0.00     0.013 C 
BRANCH  25  27
HETATM   27  C3  UNL     1      -5.194   3.400  12.600  1.00  0.00     0.041 C 
BRANCH  27  28
HETATM   28  C4  UNL     1      -4.537   2.755  11.362  1.00  0.00     0.150 C 
BRANCH  28  29
HETATM   29  O1  UNL     1      -5.414   1.691  10.929  1.00  0.00    -0.393 OA
HETATM   30  H8  UNL     1      -6.242   2.113  10.631  1.00  0.00     0.210 HD
ENDBRANCH  28  29
BRANCH  28  31
HETATM   31  C5  UNL     1      -3.157   2.114  11.658  1.00  0.00     0.180 C 
BRANCH  31  32
HETATM   32  O2  UNL     1      -3.252   0.703  11.399  1.00  0.00    -0.390 OA
HETATM   33  H10 UNL     1      -3.895   0.635  10.663  1.00  0.00     0.210 HD
ENDBRANCH  31  32
BRANCH  31  34
HETATM   34  C6  UNL     1      -1.986   2.745  10.846  1.00  0.00     0.079 C 
HETATM   35  C7  UNL     1      -0.856   3.295  11.726  1.00  0.00     0.048 C 
HETATM   36  C8  UNL     1      -2.524   3.869   9.947  1.00  0.00     0.048 C 
BRANCH  34  37
HETATM   37  O3  UNL     1      -1.435   1.729   9.997  1.00  0.00    -0.388 OA
HETATM   38  H17 UNL     1      -0.813   2.159   9.386  1.00  0.00     0.210 HD
ENDBRANCH  34  37
ENDBRANCH  31  34
ENDBRANCH  28  31
ENDBRANCH  27  28
ENDBRANCH  25  27
ENDBRANCH   1  25
TORSDOF 8
ENDMDL
MODEL 5
REMARK minimizedAffinity -8.71778965
REMARK  8 active torsions:
REMARK  status: ('A' for Active; 'I' for Inactive)
REMARK    1  A    between atoms: C2_2  and  C3_3 
REMARK    2  A    between atoms: C2_2  and  C9_12 
REMARK    3  A    between atoms: C3_3  and  C4_4 
REMARK    4  A    between atoms: C4_4  and  O1_5 
REMARK    5  A    between atoms: C4_4  and  C5_6 
REMARK    6  A    between atoms: C5_6  and  O2_7 
REMARK    7  A    between atoms: C5_6  and  C6_8 
REMARK    8  A    between atoms: C6_8  and  O3_11 
ROOT
HETATM    1  C9  UNL     1      -2.904   7.955  14.790  1.00  0.00     0.097 A 
HETATM    2  C10 UNL     1      -2.572   6.711  15.560  1.00  0.00     0.042 A 
HETATM    3  C11 UNL     1      -2.078   5.667  14.535  1.00  0.00     0.016 A 
HETATM    4  C12 UNL     1      -1.992   6.341  13.122  1.00  0.00    -0.002 A 
HETATM    5  C13 UNL     1      -2.925   5.537  12.185  1.00  0.00     0.019 C 
HETATM    6  C14 UNL     1      -2.581   7.736  13.333  1.00  0.00     0.101 A 
HETATM    7  C15 UNL     1      -2.391   8.785  12.284  1.00  0.00     0.042 C 
HETATM    8  C16 UNL     1      -0.970   8.819  11.723  1.00  0.00     0.009 C 
HETATM    9  C17 UNL     1      -0.479   7.414  11.302  1.00  0.00     0.003 C 
HETATM   10  C18 UNL     1       0.810   7.422  10.348  1.00  0.00    -0.035 C 
HETATM   11  C19 UNL     1       0.292   7.944   8.972  1.00  0.00     0.016 C 
HETATM   12  C20 UNL     1       1.903   8.404  10.838  1.00  0.00     0.017 C 
HETATM   13  C21 UNL     1       3.187   8.386  10.029  1.00  0.00     0.080 C 
HETATM   14  C22 UNL     1       3.747   6.991   9.938  1.00  0.00     0.135 C 
HETATM   15  O4  UNL     1       4.931   6.782  10.205  1.00  0.00    -0.297 OA
HETATM   16  C23 UNL     1       2.819   5.892   9.413  1.00  0.00     0.017 C 
HETATM   17  C24 UNL     1       3.512   4.520   9.622  1.00  0.00     0.023 C 
HETATM   18  C25 UNL     1       2.691   6.060   7.881  1.00  0.00     0.023 C 
HETATM   19  C26 UNL     1       1.419   5.971  10.153  1.00  0.00     0.009 C 
HETATM   20  C27 UNL     1       1.449   5.192  11.492  1.00  0.00     0.007 C 
HETATM   21  C28 UNL     1       0.074   5.105  12.149  1.00  0.00     0.011 C 
HETATM   22  C29 UNL     1      -0.482   6.479  12.573  1.00  0.00    -0.029 C 
HETATM   23  C30 UNL     1       0.420   7.031  13.718  1.00  0.00     0.016 C 
HETATM   24  O5  UNL     1      -3.940   7.743  13.831  1.00  0.00    -0.362 OA
ENDROOT
BRANCH   1  25
HETATM   25  C2  UNL     1      -2.970   9.308  15.476  1.00  0.00     0.022 C 
HETATM   26  C1  UNL     1      -4.407   9.840  15.463  1.00  0.00     0.013 C 
BRANCH  25  27
HETATM   27  C3  UNL     1      -1.963  10.296  14.839  1.00  0.00     0.041 C 
BRANCH  27  28
HETATM   28  C4  UNL     1      -0.808  10.767  15.746  1.00  0.00     0.150 C 
BRANCH  28  29
HETATM   29  O1  UNL     1       0.422  10.458  15.054  1.00  0.00    -0.393 OA
HETATM   30  H8  UNL     1       0.439  11.012  14.251  1.00  0.00     0.210 HD
ENDBRANCH  28  29
BRANCH  28  31
HETATM   31  C5  UNL     1      -0.757  10.035  17.112  1.00  0.00     0.180 C 
BRANCH  31  32
HETATM   32  O2  UNL     1       0.598   9.612  17.345  1.00  0.00    -0.390 OA
HETATM   33  H10 UNL     1       1.143  10.305  16.918  1.00  0.00     0.210 HD
ENDBRANCH  31  32
BRANCH  31  34
HETATM   34  C6  UNL     1      -1.279  10.893  18.304  1.00  0.00     0.079 C 
HETATM   35  C7  UNL     1      -0.258  11.055  19.437  1.00  0.00     0.048 C 
HETATM   36  C8  UNL     1      -2.568  10.272  18.865  1.00  0.00     0.048 C 
BRANCH  34  37
HETATM   37  O3  UNL     1      -1.602  12.198  17.804  1.00  0.00    -0.388 OA
HETATM   38  H17 UNL     1      -2.067  12.678  18.510  1.00  0.00     0.210 HD
ENDBRANCH  34  37
ENDBRANCH  31  34
ENDBRANCH  28  31
ENDBRANCH  27  28
ENDBRANCH  25  27
ENDBRANCH   1  25
TORSDOF 8
ENDMDL
MODEL 6
REMARK minimizedAffinity -8.69211864
REMARK  8 active torsions:
REMARK  status: ('A' for Active; 'I' for Inactive)
REMARK    1  A    between atoms: C2_2  and  C3_3 
REMARK    2  A    between atoms: C2_2  and  C9_12 
REMARK    3  A    between atoms: C3_3  and  C4_4 
REMARK    4  A    between atoms: C4_4  and  O1_5 
REMARK    5  A    between atoms: C4_4  and  C5_6 
REMARK    6  A    between atoms: C5_6  and  O2_7 
REMARK    7  A    between atoms: C5_6  and  C6_8 
REMARK    8  A    between atoms: C6_8  and  O3_11 
ROOT
HETATM    1  C9  UNL     1      -2.766   7.795  14.956  1.00  0.00     0.097 A 
HETATM    2  C10 UNL     1      -2.486   6.483  15.627  1.00  0.00     0.042 A 
HETATM    3  C11 UNL     1      -2.051   5.497  14.521  1.00  0.00     0.016 A 
HETATM    4  C12 UNL     1      -1.946   6.270  13.161  1.00  0.00    -0.002 A 
HETATM    5  C13 UNL     1      -2.924   5.582  12.178  1.00  0.00     0.019 C 
HETATM    6  C14 UNL     1      -2.468   7.671  13.482  1.00  0.00     0.101 A 
HETATM    7  C15 UNL     1      -2.238   8.785  12.511  1.00  0.00     0.042 C 
HETATM    8  C16 UNL     1      -0.823   8.796  11.937  1.00  0.00     0.009 C 
HETATM    9  C17 UNL     1      -0.401   7.406  11.406  1.00  0.00     0.003 C 
HETATM   10  C18 UNL     1       0.877   7.427  10.439  1.00  0.00    -0.035 C 
HETATM   11  C19 UNL     1       0.371   8.073   9.113  1.00  0.00     0.016 C 
HETATM   12  C20 UNL     1       2.019   8.318  10.987  1.00  0.00     0.017 C 
HETATM   13  C21 UNL     1       3.294   8.302  10.163  1.00  0.00     0.080 C 
HETATM   14  C22 UNL     1       3.788   6.894   9.962  1.00  0.00     0.135 C 
HETATM   15  O4  UNL     1       4.963   6.611  10.198  1.00  0.00    -0.297 OA
HETATM   16  C23 UNL     1       2.805   5.880   9.368  1.00  0.00     0.017 C 
HETATM   17  C24 UNL     1       3.435   4.466   9.466  1.00  0.00     0.023 C 
HETATM   18  C25 UNL     1       2.670   6.168   7.855  1.00  0.00     0.023 C 
HETATM   19  C26 UNL     1       1.416   5.967  10.130  1.00  0.00     0.009 C 
HETATM   20  C27 UNL     1       1.423   5.090  11.407  1.00  0.00     0.007 C 
HETATM   21  C28 UNL     1       0.051   5.018  12.072  1.00  0.00     0.011 C 
HETATM   22  C29 UNL     1      -0.436   6.380  12.605  1.00  0.00    -0.029 C 
HETATM   23  C30 UNL     1       0.500   6.803  13.776  1.00  0.00     0.016 C 
HETATM   24  O5  UNL     1      -3.820   7.703  13.996  1.00  0.00    -0.362 OA
ENDROOT
BRANCH   1  25
HETATM   25  C2  UNL     1      -2.763   9.094  15.741  1.00  0.00     0.022 C 
HETATM   26  C1  UNL     1      -2.688  10.291  14.786  1.00  0.00     0.013 C 
BRANCH  25  27
HETATM   27  C3  UNL     1      -1.626   9.098  16.791  1.00  0.00     0.041 C 
BRANCH  27  28
HETATM   28  C4  UNL     1      -0.244   9.565  16.292  1.00  0.00     0.150 C 
BRANCH  28  29
HETATM   29  O1  UNL     1       0.709   8.555  16.691  1.00  0.00    -0.393 OA
HETATM   30  H8  UNL     1       0.482   7.743  16.200  1.00  0.00     0.210 HD
ENDBRANCH  28  29
BRANCH  28  31
HETATM   31  C5  UNL     1       0.222  10.903  16.920  1.00  0.00     0.180 C 
BRANCH  31  32
HETATM   32  O2  UNL     1      -0.913  11.523  17.550  1.00  0.00    -0.390 OA
HETATM   33  H10 UNL     1      -1.455  10.770  17.864  1.00  0.00     0.210 HD
ENDBRANCH  31  32
BRANCH  31  34
HETATM   34  C6  UNL     1       1.395  10.746  17.934  1.00  0.00     0.079 C 
HETATM   35  C7  UNL     1       0.957  10.843  19.400  1.00  0.00     0.048 C 
HETATM   36  C8  UNL     1       2.470  11.807  17.652  1.00  0.00     0.048 C 
BRANCH  34  37
HETATM   37  O3  UNL     1       1.988   9.456  17.730  1.00  0.00    -0.388 OA
HETATM   38  H17 UNL     1       2.808   9.421  18.252  1.00  0.00     0.210 HD
ENDBRANCH  34  37
ENDBRANCH  31  34
ENDBRANCH  28  31
ENDBRANCH  27  28
ENDBRANCH  25  27
ENDBRANCH   1  25
TORSDOF 8
ENDMDL
MODEL 7
REMARK minimizedAffinity -8.68707848
REMARK  8 active torsions:
REMARK  status: ('A' for Active; 'I' for Inactive)
REMARK    1  A    between atoms: C2_2  and  C3_3 
REMARK    2  A    between atoms: C2_2  and  C9_12 
REMARK    3  A    between atoms: C3_3  and  C4_4 
REMARK    4  A    between atoms: C4_4  and  O1_5 
REMARK    5  A    between atoms: C4_4  and  C5_6 
REMARK    6  A    between atoms: C5_6  and  O2_7 
REMARK    7  A    between atoms: C5_6  and  C6_8 
REMARK    8  A    between atoms: C6_8  and  O3_11 
ROOT
HETATM    1  C9  UNL     1      -0.294   6.590  13.305  1.00  0.00     0.097 A 
HETATM    2  C10 UNL     1      -1.418   6.681  12.317  1.00  0.00     0.042 A 
HETATM    3  C11 UNL     1      -2.661   7.166  13.094  1.00  0.00     0.016 A 
HETATM    4  C12 UNL     1      -2.243   7.496  14.569  1.00  0.00    -0.002 A 
HETATM    5  C13 UNL     1      -3.098   6.592  15.490  1.00  0.00     0.019 C 
HETATM    6  C14 UNL     1      -0.782   7.053  14.655  1.00  0.00     0.101 A 
HETATM    7  C15 UNL     1       0.054   7.487  15.817  1.00  0.00     0.042 C 
HETATM    8  C16 UNL     1      -0.143   8.958  16.179  1.00  0.00     0.009 C 
HETATM    9  C17 UNL     1      -1.639   9.328  16.311  1.00  0.00     0.003 C 
HETATM   10  C18 UNL     1      -1.914  10.712  17.073  1.00  0.00    -0.035 C 
HETATM   11  C19 UNL     1      -1.581  10.423  18.569  1.00  0.00     0.016 C 
HETATM   12  C20 UNL     1      -0.975  11.847  16.596  1.00  0.00     0.017 C 
HETATM   13  C21 UNL     1      -1.251  13.206  17.211  1.00  0.00     0.080 C 
HETATM   14  C22 UNL     1      -2.689  13.606  17.012  1.00  0.00     0.135 C 
HETATM   15  O4  UNL     1      -2.965  14.717  16.559  1.00  0.00    -0.297 OA
HETATM   16  C23 UNL     1      -3.766  12.624  17.483  1.00  0.00     0.017 C 
HETATM   17  C24 UNL     1      -5.144  13.122  16.976  1.00  0.00     0.023 C 
HETATM   18  C25 UNL     1      -3.843  12.697  19.026  1.00  0.00     0.023 C 
HETATM   19  C26 UNL     1      -3.430  11.165  16.959  1.00  0.00     0.009 C 
HETATM   20  C27 UNL     1      -3.974  10.947  15.526  1.00  0.00     0.007 C 
HETATM   21  C28 UNL     1      -3.817   9.503  15.055  1.00  0.00     0.011 C 
HETATM   22  C29 UNL     1      -2.345   9.066  14.924  1.00  0.00    -0.029 C 
HETATM   23  C30 UNL     1      -1.699   9.885  13.766  1.00  0.00     0.016 C 
HETATM   24  O5  UNL     1      -0.561   5.656  14.352  1.00  0.00    -0.362 OA
ENDROOT
BRANCH   1  25
HETATM   25  C2  UNL     1       1.154   6.602  12.849  1.00  0.00     0.022 C 
HETATM   26  C1  UNL     1       2.030   7.321  13.882  1.00  0.00     0.013 C 
BRANCH  25  27
HETATM   27  C3  UNL     1       1.279   7.215  11.433  1.00  0.00     0.041 C 
BRANCH  27  28
HETATM   28  C4  UNL     1       1.276   6.214  10.259  1.00  0.00     0.150 C 
BRANCH  28  29
HETATM   29  O1  UNL     1       1.479   4.901  10.826  1.00  0.00    -0.393 OA
HETATM   30  H8  UNL     1       0.696   4.707  11.375  1.00  0.00     0.210 HD
ENDBRANCH  28  29
BRANCH  28  31
HETATM   31  C5  UNL     1       2.420   6.452   9.241  1.00  0.00     0.180 C 
BRANCH  31  32
HETATM   32  O2  UNL     1       2.834   5.176   8.724  1.00  0.00    -0.390 OA
HETATM   33  H10 UNL     1       2.014   4.640   8.720  1.00  0.00     0.210 HD
ENDBRANCH  31  32
BRANCH  31  34
HETATM   34  C6  UNL     1       2.036   7.419   8.080  1.00  0.00     0.079 C 
HETATM   35  C7  UNL     1       2.010   6.743   6.703  1.00  0.00     0.048 C 
HETATM   36  C8  UNL     1       3.014   8.604   8.047  1.00  0.00     0.048 C 
BRANCH  34  37
HETATM   37  O3  UNL     1       0.727   7.938   8.348  1.00  0.00    -0.388 OA
HETATM   38  H17 UNL     1       0.554   8.650   7.710  1.00  0.00     0.210 HD
ENDBRANCH  34  37
ENDBRANCH  31  34
ENDBRANCH  28  31
ENDBRANCH  27  28
ENDBRANCH  25  27
ENDBRANCH   1  25
TORSDOF 8
ENDMDL
MODEL 8
REMARK minimizedAffinity -8.40582085
REMARK  8 active torsions:
REMARK  status: ('A' for Active; 'I' for Inactive)
REMARK    1  A    between atoms: C2_2  and  C3_3 
REMARK    2  A    between atoms: C2_2  and  C9_12 
REMARK    3  A    between atoms: C3_3  and  C4_4 
REMARK    4  A    between atoms: C4_4  and  O1_5 
REMARK    5  A    between atoms: C4_4  and  C5_6 
REMARK    6  A    between atoms: C5_6  and  O2_7 
REMARK    7  A    between atoms: C5_6  and  C6_8 
REMARK    8  A    between atoms: C6_8  and  O3_11 
ROOT
HETATM    1  C9  UNL     1      -0.750   6.491  13.586  1.00  0.00     0.097 A 
HETATM    2  C10 UNL     1      -1.886   6.563  12.610  1.00  0.00     0.042 A 
HETATM    3  C11 UNL     1      -3.106   7.112  13.381  1.00  0.00     0.016 A 
HETATM    4  C12 UNL     1      -2.659   7.500  14.833  1.00  0.00    -0.002 A 
HETATM    5  C13 UNL     1      -3.520   6.660  15.807  1.00  0.00     0.019 C 
HETATM    6  C14 UNL     1      -1.207   7.028  14.920  1.00  0.00     0.101 A 
HETATM    7  C15 UNL     1      -0.344   7.495  16.048  1.00  0.00     0.042 C 
HETATM    8  C16 UNL     1      -0.502   8.985  16.345  1.00  0.00     0.009 C 
HETATM    9  C17 UNL     1      -1.987   9.396  16.480  1.00  0.00     0.003 C 
HETATM   10  C18 UNL     1      -2.219  10.820  17.180  1.00  0.00    -0.035 C 
HETATM   11  C19 UNL     1      -1.870  10.593  18.683  1.00  0.00     0.016 C 
HETATM   12  C20 UNL     1      -1.261  11.909  16.638  1.00  0.00     0.017 C 
HETATM   13  C21 UNL     1      -1.497  13.302  17.193  1.00  0.00     0.080 C 
HETATM   14  C22 UNL     1      -2.928  13.726  16.995  1.00  0.00     0.135 C 
HETATM   15  O4  UNL     1      -3.185  14.821  16.495  1.00  0.00    -0.297 OA
HETATM   16  C23 UNL     1      -4.020  12.792  17.527  1.00  0.00     0.017 C 
HETATM   17  C24 UNL     1      -5.394  13.299  17.015  1.00  0.00     0.023 C 
HETATM   18  C25 UNL     1      -4.072  12.938  19.065  1.00  0.00     0.023 C 
HETATM   19  C26 UNL     1      -3.725  11.303  17.066  1.00  0.00     0.009 C 
HETATM   20  C27 UNL     1      -4.296  11.031  15.652  1.00  0.00     0.007 C 
HETATM   21  C28 UNL     1      -4.179   9.564  15.247  1.00  0.00     0.011 C 
HETATM   22  C29 UNL     1      -2.719   9.087  15.116  1.00  0.00    -0.029 C 
HETATM   23  C30 UNL     1      -2.072   9.836  13.913  1.00  0.00     0.016 C 
HETATM   24  O5  UNL     1      -1.023   5.613  14.679  1.00  0.00    -0.362 OA
ENDROOT
BRANCH   1  25
HETATM   25  C2  UNL     1       0.691   6.448  13.111  1.00  0.00     0.022 C 
HETATM   26  C1  UNL     1       1.619   7.052  14.170  1.00  0.00     0.013 C 
BRANCH  25  27
HETATM   27  C3  UNL     1       0.835   7.137  11.732  1.00  0.00     0.041 C 
BRANCH  27  28
HETATM   28  C4  UNL     1       1.358   6.251  10.582  1.00  0.00     0.150 C 
BRANCH  28  29
HETATM   29  O1  UNL     1       0.355   5.239  10.343  1.00  0.00    -0.393 OA
HETATM   30  H8  UNL     1      -0.439   5.702  10.014  1.00  0.00     0.210 HD
ENDBRANCH  28  29
BRANCH  28  31
HETATM   31  C5  UNL     1       2.677   5.511  10.923  1.00  0.00     0.180 C 
BRANCH  31  32
HETATM   32  O2  UNL     1       2.670   4.244  10.242  1.00  0.00    -0.390 OA
HETATM   33  H10 UNL     1       2.175   4.418   9.414  1.00  0.00     0.210 HD
ENDBRANCH  31  32
BRANCH  31  34
HETATM   34  C6  UNL     1       3.960   6.321  10.566  1.00  0.00     0.079 C 
HETATM   35  C7  UNL     1       4.534   7.112  11.748  1.00  0.00     0.048 C 
HETATM   36  C8  UNL     1       3.660   7.283   9.406  1.00  0.00     0.048 C 
BRANCH  34  37
HETATM   37  O3  UNL     1       4.960   5.395  10.121  1.00  0.00    -0.388 OA
HETATM   38  H17 UNL     1       5.700   5.910   9.757  1.00  0.00     0.210 HD
ENDBRANCH  34  37
ENDBRANCH  31  34
ENDBRANCH  28  31
ENDBRANCH  27  28
ENDBRANCH  25  27
ENDBRANCH   1  25
TORSDOF 8
ENDMDL
MODEL 9
REMARK minimizedAffinity -8.40220833
REMARK  8 active torsions:
REMARK  status: ('A' for Active; 'I' for Inactive)
REMARK    1  A    between atoms: C2_2  and  C3_3 
REMARK    2  A    between atoms: C2_2  and  C9_12 
REMARK    3  A    between atoms: C3_3  and  C4_4 
REMARK    4  A    between atoms: C4_4  and  O1_5 
REMARK    5  A    between atoms: C4_4  and  C5_6 
REMARK    6  A    between atoms: C5_6  and  O2_7 
REMARK    7  A    between atoms: C5_6  and  C6_8 
REMARK    8  A    between atoms: C6_8  and  O3_11 
ROOT
HETATM    1  C9  UNL     1      -1.200   6.711  12.809  1.00  0.00     0.097 A 
HETATM    2  C10 UNL     1      -0.956   7.662  11.675  1.00  0.00     0.042 A 
HETATM    3  C11 UNL     1      -1.659   8.988  12.041  1.00  0.00     0.016 A 
HETATM    4  C12 UNL     1      -2.239   8.873  13.493  1.00  0.00    -0.002 A 
HETATM    5  C13 UNL     1      -3.765   9.104  13.386  1.00  0.00     0.019 C 
HETATM    6  C14 UNL     1      -1.983   7.417  13.888  1.00  0.00     0.101 A 
HETATM    7  C15 UNL     1      -2.121   7.005  15.319  1.00  0.00     0.042 C 
HETATM    8  C16 UNL     1      -1.497   8.002  16.293  1.00  0.00     0.009 C 
HETATM    9  C17 UNL     1      -1.956   9.453  16.011  1.00  0.00     0.003 C 
HETATM   10  C18 UNL     1      -1.679  10.479  17.212  1.00  0.00    -0.035 C 
HETATM   11  C19 UNL     1      -2.702  10.089  18.322  1.00  0.00     0.016 C 
HETATM   12  C20 UNL     1      -0.259  10.321  17.810  1.00  0.00     0.017 C 
HETATM   13  C21 UNL     1       0.097  11.330  18.886  1.00  0.00     0.080 C 
HETATM   14  C22 UNL     1      -0.103  12.739  18.392  1.00  0.00     0.135 C 
HETATM   15  O4  UNL     1       0.791  13.574  18.528  1.00  0.00    -0.297 OA
HETATM   16  C23 UNL     1      -1.477  13.095  17.818  1.00  0.00     0.017 C 
HETATM   17  C24 UNL     1      -1.389  14.500  17.165  1.00  0.00     0.023 C 
HETATM   18  C25 UNL     1      -2.467  13.249  18.995  1.00  0.00     0.023 C 
HETATM   19  C26 UNL     1      -1.932  11.984  16.781  1.00  0.00     0.009 C 
HETATM   20  C27 UNL     1      -1.359  12.268  15.370  1.00  0.00     0.007 C 
HETATM   21  C28 UNL     1      -1.912  11.315  14.313  1.00  0.00     0.011 C 
HETATM   22  C29 UNL     1      -1.507   9.847  14.551  1.00  0.00    -0.029 C 
HETATM   23  C30 UNL     1       0.035   9.734  14.353  1.00  0.00     0.016 C 
HETATM   24  O5  UNL     1      -2.589   6.443  13.007  1.00  0.00    -0.362 OA
ENDROOT
BRANCH   1  25
HETATM   25  C2  UNL     1      -0.305   5.504  13.027  1.00  0.00     0.022 C 
HETATM   26  C1  UNL     1       1.066   5.948  13.550  1.00  0.00     0.013 C 
BRANCH  25  27
HETATM   27  C3  UNL     1      -0.205   4.655  11.737  1.00  0.00     0.041 C 
BRANCH  27  28
HETATM   28  C4  UNL     1      -0.923   3.291  11.765  1.00  0.00     0.150 C 
BRANCH  28  29
HETATM   29  O1  UNL     1       0.048   2.297  11.370  1.00  0.00    -0.393 OA
HETATM   30  H8  UNL     1       0.732   2.279  12.067  1.00  0.00     0.210 HD
ENDBRANCH  28  29
BRANCH  28  31
HETATM   31  C5  UNL     1      -2.105   3.193  10.766  1.00  0.00     0.180 C 
BRANCH  31  32
HETATM   32  O2  UNL     1      -1.737   2.275   9.722  1.00  0.00    -0.390 OA
HETATM   33  H10 UNL     1      -1.161   1.620  10.170  1.00  0.00     0.210 HD
ENDBRANCH  31  32
BRANCH  31  34
HETATM   34  C6  UNL     1      -3.450   2.766  11.426  1.00  0.00     0.079 C 
HETATM   35  C7  UNL     1      -3.751   3.501  12.738  1.00  0.00     0.048 C 
HETATM   36  C8  UNL     1      -3.444   1.251  11.681  1.00  0.00     0.048 C 
BRANCH  34  37
HETATM   37  O3  UNL     1      -4.509   3.051  10.502  1.00  0.00    -0.388 OA
HETATM   38  H17 UNL     1      -5.322   2.646  10.849  1.00  0.00     0.210 HD
ENDBRANCH  34  37
ENDBRANCH  31  34
ENDBRANCH  28  31
ENDBRANCH  27  28
ENDBRANCH  25  27
ENDBRANCH   1  25
TORSDOF 8
ENDMDL
