MODEL 1
REMARK minimizedAffinity -9.36217308
REMARK  8 active torsions:
REMARK  status: ('A' for Active; 'I' for Inactive)
REMARK    1  A    between atoms: C12_14  and  C13_15 
REMARK    2  A    between atoms: C13_15  and  C15_17 
REMARK    3  A    between atoms: C15_17  and  C16_18 
REMARK    4  A    between atoms: C16_18  and  C17_19 
REMARK    5  A    between atoms: C26_28  and  C27_29 
REMARK    6  A    between atoms: C27_29  and  C28_30 
REMARK    7  A    between atoms: C28_30  and  C29_31 
REMARK    8  A    between atoms: C29_31  and  O4_33 
ROOT
HETATM    1  C1  UNL     1      -2.984  51.129 -28.169  1.00  0.00     0.025 C 
HETATM    2  C2  UNL     1      -2.997  50.052 -27.376  1.00  0.00     0.015 C 
HETATM    3  C3  UNL     1      -3.846  48.879 -27.698  1.00  0.00     0.289 C 
HETATM    4  O1  UNL     1      -4.432  48.670 -28.744  1.00  0.00    -0.260 OA
HETATM    5  O2  UNL     1      -3.841  48.056 -26.616  1.00  0.00    -0.311 OA
HETATM    6  C4  UNL     1      -3.202  48.707 -25.502  1.00  0.00     0.142 C 
HETATM    7  C5  UNL     1      -4.286  49.260 -24.584  1.00  0.00     0.039 C 
HETATM    8  C6  UNL     1      -3.793  50.123 -23.413  1.00  0.00     0.006 C 
HETATM    9  C7  UNL     1      -2.667  51.114 -23.800  1.00  0.00    -0.027 A 
HETATM   10  C8  UNL     1      -2.130  51.940 -22.612  1.00  0.00     0.011 C 
HETATM   11  C9  UNL     1      -1.884  51.152 -21.318  1.00  0.00     0.011 C 
HETATM   12  C10 UNL     1      -3.120  50.329 -20.928  1.00  0.00    -0.032 C 
HETATM   13  C11 UNL     1      -4.306  51.300 -20.625  1.00  0.00     0.016 C 
HETATM   14  C12 UNL     1      -2.978  49.346 -19.720  1.00  0.00    -0.002 C 
HETATM   15  C21 UNL     1      -4.067  48.274 -20.038  1.00  0.00     0.006 C 
HETATM   16  C22 UNL     1      -4.485  48.444 -21.511  1.00  0.00     0.011 C 
HETATM   17  C23 UNL     1      -3.390  49.329 -22.126  1.00  0.00    -0.032 C 
HETATM   18  C24 UNL     1      -2.182  48.390 -22.439  1.00  0.00     0.016 C 
HETATM   19  C25 UNL     1      -2.870  52.014 -24.997  1.00  0.00     0.022 A 
HETATM   20  C26 UNL     1      -1.877  50.879 -25.136  1.00  0.00    -0.021 A 
HETATM   21  C31 UNL     1      -2.274  49.751 -26.101  1.00  0.00     0.063 C 
ENDROOT
BRANCH  14  22
HETATM   22  C13 UNL     1      -3.087  49.873 -18.253  1.00  0.00    -0.014 C 
HETATM   23  C14 UNL     1      -2.751  51.363 -18.148  1.00  0.00     0.010 C 
BRANCH  22  24
HETATM   24  C15 UNL     1      -2.152  49.047 -17.323  1.00  0.00     0.008 C 
BRANCH  24  25
HETATM   25  C16 UNL     1      -0.651  49.079 -17.648  1.00  0.00     0.028 C 
BRANCH  25  26
HETATM   26  C17 UNL     1       0.197  49.648 -16.544  1.00  0.00    -0.025 C 
HETATM   27  C18 UNL     1       0.794  50.856 -16.509  1.00  0.00    -0.091 C 
HETATM   28  C19 UNL     1       0.749  51.867 -17.622  1.00  0.00     0.042 C 
HETATM   29  C20 UNL     1       1.599  51.282 -15.308  1.00  0.00     0.042 C 
ENDBRANCH  25  26
ENDBRANCH  24  25
ENDBRANCH  22  24
ENDBRANCH  14  22
BRANCH  20  30
HETATM   30  C27 UNL     1      -0.363  51.121 -25.104  1.00  0.00     0.021 C 
BRANCH  30  31
HETATM   31  C28 UNL     1       0.324  51.089 -26.465  1.00  0.00     0.112 C 
BRANCH  31  32
HETATM   32  C29 UNL     1       1.286  52.234 -26.651  1.00  0.00     0.258 C 
HETATM   33  O3  UNL     1       2.491  52.103 -26.812  1.00  0.00    -0.265 OA
BRANCH  32  34
HETATM   34  O4  UNL     1       0.628  53.427 -26.605  1.00  0.00    -0.326 OA
HETATM   35  C30 UNL     1      -0.227  53.660 -27.724  1.00  0.00     0.213 C 
ENDBRANCH  32  34
ENDBRANCH  31  32
ENDBRANCH  30  31
ENDBRANCH  20  30
TORSDOF 8
ENDMDL
MODEL 2
REMARK minimizedAffinity -9.26327515
REMARK  8 active torsions:
REMARK  status: ('A' for Active; 'I' for Inactive)
REMARK    1  A    between atoms: C12_14  and  C13_15 
REMARK    2  A    between atoms: C13_15  and  C15_17 
REMARK    3  A    between atoms: C15_17  and  C16_18 
REMARK    4  A    between atoms: C16_18  and  C17_19 
REMARK    5  A    between atoms: C26_28  and  C27_29 
REMARK    6  A    between atoms: C27_29  and  C28_30 
REMARK    7  A    between atoms: C28_30  and  C29_31 
REMARK    8  A    between atoms: C29_31  and  O4_33 
ROOT
HETATM    1  C1  UNL     1      -3.656  51.105 -26.096  1.00  0.00     0.025 C 
HETATM    2  C2  UNL     1      -3.311  50.085 -25.303  1.00  0.00     0.015 C 
HETATM    3  C3  UNL     1      -4.158  48.871 -25.211  1.00  0.00     0.289 C 
HETATM    4  O1  UNL     1      -5.088  48.575 -25.938  1.00  0.00    -0.260 OA
HETATM    5  O2  UNL     1      -3.698  48.125 -24.171  1.00  0.00    -0.311 OA
HETATM    6  C4  UNL     1      -2.716  48.867 -23.425  1.00  0.00     0.142 C 
HETATM    7  C5  UNL     1      -3.394  49.454 -22.192  1.00  0.00     0.039 C 
HETATM    8  C6  UNL     1      -2.534  50.408 -21.348  1.00  0.00     0.006 C 
HETATM    9  C7  UNL     1      -1.692  51.398 -22.192  1.00  0.00    -0.027 A 
HETATM   10  C8  UNL     1      -0.785  52.317 -21.347  1.00  0.00     0.011 C 
HETATM   11  C9  UNL     1      -0.024  51.627 -20.207  1.00  0.00     0.011 C 
HETATM   12  C10 UNL     1      -0.974  50.800 -19.328  1.00  0.00    -0.032 C 
HETATM   13  C11 UNL     1      -2.001  51.760 -18.645  1.00  0.00     0.016 C 
HETATM   14  C12 UNL     1      -0.332  49.908 -18.217  1.00  0.00    -0.002 C 
HETATM   15  C21 UNL     1      -1.404  48.788 -18.034  1.00  0.00     0.006 C 
HETATM   16  C22 UNL     1      -2.361  48.846 -19.240  1.00  0.00     0.011 C 
HETATM   17  C23 UNL     1      -1.631  49.714 -20.275  1.00  0.00    -0.032 C 
HETATM   18  C24 UNL     1      -0.589  48.787 -20.978  1.00  0.00     0.016 C 
HETATM   19  C25 UNL     1      -2.383  52.209 -23.264  1.00  0.00     0.022 A 
HETATM   20  C26 UNL     1      -1.463  51.093 -23.714  1.00  0.00    -0.021 A 
HETATM   21  C31 UNL     1      -2.141  49.891 -24.389  1.00  0.00     0.063 C 
ENDROOT
BRANCH  14  22
HETATM   22  C13 UNL     1       0.102  50.531 -16.851  1.00  0.00    -0.014 C 
HETATM   23  C14 UNL     1      -1.078  50.692 -15.889  1.00  0.00     0.010 C 
BRANCH  22  24
HETATM   24  C15 UNL     1       0.789  51.906 -17.091  1.00  0.00     0.008 C 
BRANCH  24  25
HETATM   25  C16 UNL     1       1.434  52.578 -15.870  1.00  0.00     0.028 C 
BRANCH  25  26
HETATM   26  C17 UNL     1       2.289  51.652 -15.049  1.00  0.00    -0.025 C 
HETATM   27  C18 UNL     1       3.627  51.507 -15.104  1.00  0.00    -0.091 C 
HETATM   28  C19 UNL     1       4.530  52.240 -16.058  1.00  0.00     0.042 C 
HETATM   29  C20 UNL     1       4.335  50.541 -14.189  1.00  0.00     0.042 C 
ENDBRANCH  25  26
ENDBRANCH  24  25
ENDBRANCH  22  24
ENDBRANCH  14  22
BRANCH  20  30
HETATM   30  C27 UNL     1      -0.065  51.375 -24.279  1.00  0.00     0.021 C 
BRANCH  30  31
HETATM   31  C28 UNL     1       0.019  51.411 -25.801  1.00  0.00     0.112 C 
BRANCH  31  32
HETATM   32  C29 UNL     1       1.084  52.354 -26.297  1.00  0.00     0.258 C 
HETATM   33  O3  UNL     1       2.278  52.089 -26.331  1.00  0.00    -0.265 OA
BRANCH  32  34
HETATM   34  O4  UNL     1       0.534  53.537 -26.690  1.00  0.00    -0.326 OA
HETATM   35  C30 UNL     1      -0.224  53.450 -27.897  1.00  0.00     0.213 C 
ENDBRANCH  32  34
ENDBRANCH  31  32
ENDBRANCH  30  31
ENDBRANCH  20  30
TORSDOF 8
ENDMDL
MODEL 3
REMARK minimizedAffinity -8.72786522
REMARK  8 active torsions:
REMARK  status: ('A' for Active; 'I' for Inactive)
REMARK    1  A    between atoms: C12_14  and  C13_15 
REMARK    2  A    between atoms: C13_15  and  C15_17 
REMARK    3  A    between atoms: C15_17  and  C16_18 
REMARK    4  A    between atoms: C16_18  and  C17_19 
REMARK    5  A    between atoms: C26_28  and  C27_29 
REMARK    6  A    between atoms: C27_29  and  C28_30 
REMARK    7  A    between atoms: C28_30  and  C29_31 
REMARK    8  A    between atoms: C29_31  and  O4_33 
ROOT
HETATM    1  C1  UNL     1      -3.288  50.341 -27.586  1.00  0.00     0.025 C 
HETATM    2  C2  UNL     1      -3.078  51.185 -26.570  1.00  0.00     0.015 C 
HETATM    3  C3  UNL     1      -2.272  52.416 -26.756  1.00  0.00     0.289 C 
HETATM    4  O1  UNL     1      -1.901  52.891 -27.813  1.00  0.00    -0.260 OA
HETATM    5  O2  UNL     1      -2.031  52.941 -25.525  1.00  0.00    -0.311 OA
HETATM    6  C4  UNL     1      -2.455  52.021 -24.502  1.00  0.00     0.142 C 
HETATM    7  C5  UNL     1      -1.227  51.274 -23.991  1.00  0.00     0.039 C 
HETATM    8  C6  UNL     1      -1.505  50.137 -22.996  1.00  0.00     0.006 C 
HETATM    9  C7  UNL     1      -2.719  49.255 -23.381  1.00  0.00    -0.027 A 
HETATM   10  C8  UNL     1      -3.034  48.149 -22.352  1.00  0.00     0.011 C 
HETATM   11  C9  UNL     1      -2.987  48.583 -20.880  1.00  0.00     0.011 C 
HETATM   12  C10 UNL     1      -1.670  49.304 -20.557  1.00  0.00    -0.032 C 
HETATM   13  C11 UNL     1      -0.482  48.308 -20.753  1.00  0.00     0.016 C 
HETATM   14  C12 UNL     1      -1.533  49.949 -19.140  1.00  0.00    -0.002 C 
HETATM   15  C21 UNL     1      -0.494  51.086 -19.396  1.00  0.00     0.006 C 
HETATM   16  C22 UNL     1      -0.387  51.297 -20.919  1.00  0.00     0.011 C 
HETATM   17  C23 UNL     1      -1.612  50.576 -21.498  1.00  0.00    -0.032 C 
HETATM   18  C24 UNL     1      -2.826  51.543 -21.315  1.00  0.00     0.016 C 
HETATM   19  C25 UNL     1      -2.792  48.687 -24.779  1.00  0.00     0.022 A 
HETATM   20  C26 UNL     1      -3.753  49.803 -24.426  1.00  0.00    -0.021 A 
HETATM   21  C31 UNL     1      -3.519  51.144 -25.140  1.00  0.00     0.063 C 
ENDROOT
BRANCH  14  22
HETATM   22  C13 UNL     1      -1.149  49.074 -17.904  1.00  0.00    -0.014 C 
HETATM   23  C14 UNL     1      -2.256  49.050 -16.847  1.00  0.00     0.010 C 
BRANCH  22  24
HETATM   24  C15 UNL     1       0.178  49.594 -17.278  1.00  0.00     0.008 C 
BRANCH  24  25
HETATM   25  C16 UNL     1       0.077  50.835 -16.379  1.00  0.00     0.028 C 
BRANCH  25  26
HETATM   26  C17 UNL     1       1.294  51.717 -16.423  1.00  0.00    -0.025 C 
HETATM   27  C18 UNL     1       2.349  51.701 -15.585  1.00  0.00    -0.091 C 
HETATM   28  C19 UNL     1       2.482  50.794 -14.392  1.00  0.00     0.042 C 
HETATM   29  C20 UNL     1       3.505  52.647 -15.784  1.00  0.00     0.042 C 
ENDBRANCH  25  26
ENDBRANCH  24  25
ENDBRANCH  22  24
ENDBRANCH  14  22
BRANCH  20  30
HETATM   30  C27 UNL     1      -5.237  49.536 -24.148  1.00  0.00     0.021 C 
BRANCH  30  31
HETATM   31  C28 UNL     1      -5.811  50.278 -22.946  1.00  0.00     0.112 C 
BRANCH  31  32
HETATM   32  C29 UNL     1      -7.152  49.737 -22.523  1.00  0.00     0.258 C 
HETATM   33  O3  UNL     1      -8.093  49.552 -23.282  1.00  0.00    -0.265 OA
BRANCH  32  34
HETATM   34  O4  UNL     1      -7.170  49.492 -21.182  1.00  0.00    -0.326 OA
HETATM   35  C30 UNL     1      -6.110  50.123 -20.464  1.00  0.00     0.213 C 
ENDBRANCH  32  34
ENDBRANCH  31  32
ENDBRANCH  30  31
ENDBRANCH  20  30
TORSDOF 8
ENDMDL
MODEL 4
REMARK minimizedAffinity -8.67975998
REMARK  8 active torsions:
REMARK  status: ('A' for Active; 'I' for Inactive)
REMARK    1  A    between atoms: C12_14  and  C13_15 
REMARK    2  A    between atoms: C13_15  and  C15_17 
REMARK    3  A    between atoms: C15_17  and  C16_18 
REMARK    4  A    between atoms: C16_18  and  C17_19 
REMARK    5  A    between atoms: C26_28  and  C27_29 
REMARK    6  A    between atoms: C27_29  and  C28_30 
REMARK    7  A    between atoms: C28_30  and  C29_31 
REMARK    8  A    between atoms: C29_31  and  O4_33 
ROOT
HETATM    1  C1  UNL     1      -3.435  51.161 -26.255  1.00  0.00     0.025 C 
HETATM    2  C2  UNL     1      -3.120  50.141 -25.448  1.00  0.00     0.015 C 
HETATM    3  C3  UNL     1      -3.968  48.926 -25.391  1.00  0.00     0.289 C 
HETATM    4  O1  UNL     1      -4.867  48.628 -26.155  1.00  0.00    -0.260 OA
HETATM    5  O2  UNL     1      -3.550  48.181 -24.334  1.00  0.00    -0.311 OA
HETATM    6  C4  UNL     1      -2.600  48.924 -23.548  1.00  0.00     0.142 C 
HETATM    7  C5  UNL     1      -3.329  49.509 -22.344  1.00  0.00     0.039 C 
HETATM    8  C6  UNL     1      -2.506  50.464 -21.465  1.00  0.00     0.006 C 
HETATM    9  C7  UNL     1      -1.633  51.457 -22.273  1.00  0.00    -0.027 A 
HETATM   10  C8  UNL     1      -0.762  52.378 -21.392  1.00  0.00     0.011 C 
HETATM   11  C9  UNL     1      -0.047  51.688 -20.222  1.00  0.00     0.011 C 
HETATM   12  C10 UNL     1      -1.031  50.860 -19.383  1.00  0.00    -0.032 C 
HETATM   13  C11 UNL     1      -2.087  51.816 -18.742  1.00  0.00     0.016 C 
HETATM   14  C12 UNL     1      -0.432  49.968 -18.247  1.00  0.00    -0.002 C 
HETATM   15  C21 UNL     1      -1.509  48.846 -18.108  1.00  0.00     0.006 C 
HETATM   16  C22 UNL     1      -2.417  48.902 -19.352  1.00  0.00     0.011 C 
HETATM   17  C23 UNL     1      -1.646  49.772 -20.356  1.00  0.00    -0.032 C 
HETATM   18  C24 UNL     1      -0.574  48.848 -21.016  1.00  0.00     0.016 C 
HETATM   19  C25 UNL     1      -2.281  52.266 -23.373  1.00  0.00     0.022 A 
HETATM   20  C26 UNL     1      -1.341  51.153 -23.785  1.00  0.00    -0.021 A 
HETATM   21  C31 UNL     1      -1.989  49.950 -24.488  1.00  0.00     0.063 C 
ENDROOT
BRANCH  14  22
HETATM   22  C13 UNL     1      -0.056  50.591 -16.864  1.00  0.00    -0.014 C 
HETATM   23  C14 UNL     1       1.115  51.571 -16.973  1.00  0.00     0.010 C 
BRANCH  22  24
HETATM   24  C15 UNL     1       0.283  49.462 -15.849  1.00  0.00     0.008 C 
BRANCH  24  25
HETATM   25  C16 UNL     1       0.297  49.851 -14.363  1.00  0.00     0.028 C 
BRANCH  25  26
HETATM   26  C17 UNL     1      -0.988  50.467 -13.885  1.00  0.00    -0.025 C 
HETATM   27  C18 UNL     1      -1.149  51.655 -13.270  1.00  0.00    -0.091 C 
HETATM   28  C19 UNL     1      -0.028  52.589 -12.904  1.00  0.00     0.042 C 
HETATM   29  C20 UNL     1      -2.520  52.135 -12.870  1.00  0.00     0.042 C 
ENDBRANCH  25  26
ENDBRANCH  24  25
ENDBRANCH  22  24
ENDBRANCH  14  22
BRANCH  20  30
HETATM   30  C27 UNL     1       0.078  51.438 -24.293  1.00  0.00     0.021 C 
BRANCH  30  31
HETATM   31  C28 UNL     1       0.256  51.327 -25.803  1.00  0.00     0.112 C 
BRANCH  31  32
HETATM   32  C29 UNL     1       1.206  52.362 -26.348  1.00  0.00     0.258 C 
HETATM   33  O3  UNL     1       2.393  52.164 -26.563  1.00  0.00    -0.265 OA
BRANCH  32  34
HETATM   34  O4  UNL     1       0.560  53.545 -26.556  1.00  0.00    -0.326 OA
HETATM   35  C30 UNL     1      -0.312  53.537 -27.686  1.00  0.00     0.213 C 
ENDBRANCH  32  34
ENDBRANCH  31  32
ENDBRANCH  30  31
ENDBRANCH  20  30
TORSDOF 8
ENDMDL
MODEL 5
REMARK minimizedAffinity -8.6762228
REMARK  8 active torsions:
REMARK  status: ('A' for Active; 'I' for Inactive)
REMARK    1  A    between atoms: C12_14  and  C13_15 
REMARK    2  A    between atoms: C13_15  and  C15_17 
REMARK    3  A    between atoms: C15_17  and  C16_18 
REMARK    4  A    between atoms: C16_18  and  C17_19 
REMARK    5  A    between atoms: C26_28  and  C27_29 
REMARK    6  A    between atoms: C27_29  and  C28_30 
REMARK    7  A    between atoms: C28_30  and  C29_31 
REMARK    8  A    between atoms: C29_31  and  O4_33 
ROOT
HETATM    1  C1  UNL     1       0.232  53.785 -25.586  1.00  0.00     0.025 C 
HETATM    2  C2  UNL     1      -0.105  52.503 -25.765  1.00  0.00     0.015 C 
HETATM    3  C3  UNL     1      -0.128  51.904 -27.122  1.00  0.00     0.289 C 
HETATM    4  O1  UNL     1       0.320  52.394 -28.142  1.00  0.00    -0.260 OA
HETATM    5  O2  UNL     1      -0.727  50.687 -27.026  1.00  0.00    -0.311 OA
HETATM    6  C4  UNL     1      -1.296  50.518 -25.714  1.00  0.00     0.142 C 
HETATM    7  C5  UNL     1      -2.790  50.809 -25.800  1.00  0.00     0.039 C 
HETATM    8  C6  UNL     1      -3.544  50.825 -24.461  1.00  0.00     0.006 C 
HETATM    9  C7  UNL     1      -2.780  51.549 -23.324  1.00  0.00    -0.027 A 
HETATM   10  C8  UNL     1      -3.510  51.515 -21.965  1.00  0.00     0.011 C 
HETATM   11  C9  UNL     1      -4.120  50.161 -21.577  1.00  0.00     0.011 C 
HETATM   12  C10 UNL     1      -4.996  49.604 -22.709  1.00  0.00    -0.032 C 
HETATM   13  C11 UNL     1      -6.201  50.570 -22.945  1.00  0.00     0.016 C 
HETATM   14  C12 UNL     1      -5.563  48.157 -22.534  1.00  0.00    -0.002 C 
HETATM   15  C21 UNL     1      -5.765  47.702 -24.013  1.00  0.00     0.006 C 
HETATM   16  C22 UNL     1      -4.986  48.674 -24.920  1.00  0.00     0.011 C 
HETATM   17  C23 UNL     1      -4.049  49.429 -23.966  1.00  0.00    -0.032 C 
HETATM   18  C24 UNL     1      -2.830  48.488 -23.702  1.00  0.00     0.016 C 
HETATM   19  C25 UNL     1      -2.241  52.937 -23.579  1.00  0.00     0.022 A 
HETATM   20  C26 UNL     1      -1.240  51.804 -23.489  1.00  0.00    -0.021 A 
HETATM   21  C31 UNL     1      -0.515  51.440 -24.794  1.00  0.00     0.063 C 
ENDROOT
BRANCH  14  22
HETATM   22  C13 UNL     1      -6.837  47.904 -21.665  1.00  0.00    -0.014 C 
HETATM   23  C14 UNL     1      -8.080  48.579 -22.253  1.00  0.00     0.010 C 
BRANCH  22  24
HETATM   24  C15 UNL     1      -6.594  48.403 -20.211  1.00  0.00     0.008 C 
BRANCH  24  25
HETATM   25  C16 UNL     1      -7.589  49.435 -19.660  1.00  0.00     0.028 C 
BRANCH  25  26
HETATM   26  C17 UNL     1      -8.267  49.005 -18.388  1.00  0.00    -0.025 C 
HETATM   27  C18 UNL     1      -9.473  48.417 -18.261  1.00  0.00    -0.091 C 
HETATM   28  C19 UNL     1     -10.403  48.114 -19.403  1.00  0.00     0.042 C 
HETATM   29  C20 UNL     1     -10.000  48.029 -16.903  1.00  0.00     0.042 C 
ENDBRANCH  25  26
ENDBRANCH  24  25
ENDBRANCH  22  24
ENDBRANCH  14  22
BRANCH  20  30
HETATM   30  C27 UNL     1      -0.361  51.598 -22.250  1.00  0.00     0.021 C 
BRANCH  30  31
HETATM   31  C28 UNL     1       0.889  52.468 -22.194  1.00  0.00     0.112 C 
BRANCH  31  32
HETATM   32  C29 UNL     1       0.844  53.470 -21.070  1.00  0.00     0.258 C 
HETATM   33  O3  UNL     1       1.551  54.466 -21.004  1.00  0.00    -0.265 OA
BRANCH  32  34
HETATM   34  O4  UNL     1      -0.083  53.106 -20.139  1.00  0.00    -0.326 OA
HETATM   35  C30 UNL     1       0.472  52.774 -18.867  1.00  0.00     0.213 C 
ENDBRANCH  32  34
ENDBRANCH  31  32
ENDBRANCH  30  31
ENDBRANCH  20  30
TORSDOF 8
ENDMDL
MODEL 6
REMARK minimizedAffinity -8.62309742
REMARK  8 active torsions:
REMARK  status: ('A' for Active; 'I' for Inactive)
REMARK    1  A    between atoms: C12_14  and  C13_15 
REMARK    2  A    between atoms: C13_15  and  C15_17 
REMARK    3  A    between atoms: C15_17  and  C16_18 
REMARK    4  A    between atoms: C16_18  and  C17_19 
REMARK    5  A    between atoms: C26_28  and  C27_29 
REMARK    6  A    between atoms: C27_29  and  C28_30 
REMARK    7  A    between atoms: C28_30  and  C29_31 
REMARK    8  A    between atoms: C29_31  and  O4_33 
ROOT
HETATM    1  C1  UNL     1      -3.432  50.230 -27.457  1.00  0.00     0.025 C 
HETATM    2  C2  UNL     1      -3.251  51.122 -26.477  1.00  0.00     0.015 C 
HETATM    3  C3  UNL     1      -2.510  52.383 -26.722  1.00  0.00     0.289 C 
HETATM    4  O1  UNL     1      -2.178  52.835 -27.802  1.00  0.00    -0.260 OA
HETATM    5  O2  UNL     1      -2.279  52.966 -25.516  1.00  0.00    -0.311 OA
HETATM    6  C4  UNL     1      -2.642  52.066 -24.452  1.00  0.00     0.142 C 
HETATM    7  C5  UNL     1      -1.372  51.402 -23.933  1.00  0.00     0.039 C 
HETATM    8  C6  UNL     1      -1.578  50.291 -22.891  1.00  0.00     0.006 C 
HETATM    9  C7  UNL     1      -2.752  49.336 -23.223  1.00  0.00    -0.027 A 
HETATM   10  C8  UNL     1      -2.997  48.256 -22.148  1.00  0.00     0.011 C 
HETATM   11  C9  UNL     1      -2.952  48.748 -20.695  1.00  0.00     0.011 C 
HETATM   12  C10 UNL     1      -1.668  49.545 -20.420  1.00  0.00    -0.032 C 
HETATM   13  C11 UNL     1      -0.434  48.603 -20.597  1.00  0.00     0.016 C 
HETATM   14  C12 UNL     1      -1.544  50.251 -19.031  1.00  0.00    -0.002 C 
HETATM   15  C21 UNL     1      -0.567  51.427 -19.345  1.00  0.00     0.006 C 
HETATM   16  C22 UNL     1      -0.491  51.585 -20.877  1.00  0.00     0.011 C 
HETATM   17  C23 UNL     1      -1.687  50.782 -21.409  1.00  0.00    -0.032 C 
HETATM   18  C24 UNL     1      -2.945  51.694 -21.244  1.00  0.00     0.016 C 
HETATM   19  C25 UNL     1      -2.815  48.712 -24.598  1.00  0.00     0.022 A 
HETATM   20  C26 UNL     1      -3.826  49.792 -24.273  1.00  0.00    -0.021 A 
HETATM   21  C31 UNL     1      -3.669  51.114 -25.040  1.00  0.00     0.063 C 
ENDROOT
BRANCH  14  22
HETATM   22  C13 UNL     1      -1.100  49.444 -17.769  1.00  0.00    -0.014 C 
HETATM   23  C14 UNL     1      -2.104  49.571 -16.619  1.00  0.00     0.010 C 
BRANCH  22  24
HETATM   24  C15 UNL     1       0.307  49.919 -17.304  1.00  0.00     0.008 C 
BRANCH  24  25
HETATM   25  C16 UNL     1       0.349  51.111 -16.337  1.00  0.00     0.028 C 
BRANCH  25  26
HETATM   26  C17 UNL     1       1.544  52.004 -16.525  1.00  0.00    -0.025 C 
HETATM   27  C18 UNL     1       2.686  52.009 -15.809  1.00  0.00    -0.091 C 
HETATM   28  C19 UNL     1       2.959  51.119 -14.627  1.00  0.00     0.042 C 
HETATM   29  C20 UNL     1       3.802  52.964 -16.145  1.00  0.00     0.042 C 
ENDBRANCH  25  26
ENDBRANCH  24  25
ENDBRANCH  22  24
ENDBRANCH  14  22
BRANCH  20  30
HETATM   30  C27 UNL     1      -5.291  49.461 -23.961  1.00  0.00     0.021 C 
BRANCH  30  31
HETATM   31  C28 UNL     1      -5.743  48.070 -24.390  1.00  0.00     0.112 C 
BRANCH  31  32
HETATM   32  C29 UNL     1      -6.830  48.113 -25.432  1.00  0.00     0.258 C 
HETATM   33  O3  UNL     1      -7.985  48.449 -25.211  1.00  0.00    -0.265 OA
BRANCH  32  34
HETATM   34  O4  UNL     1      -6.349  47.719 -26.645  1.00  0.00    -0.326 OA
HETATM   35  C30 UNL     1      -7.365  47.440 -27.608  1.00  0.00     0.213 C 
ENDBRANCH  32  34
ENDBRANCH  31  32
ENDBRANCH  30  31
ENDBRANCH  20  30
TORSDOF 8
ENDMDL
MODEL 7
REMARK minimizedAffinity -8.58978558
REMARK  8 active torsions:
REMARK  status: ('A' for Active; 'I' for Inactive)
REMARK    1  A    between atoms: C12_14  and  C13_15 
REMARK    2  A    between atoms: C13_15  and  C15_17 
REMARK    3  A    between atoms: C15_17  and  C16_18 
REMARK    4  A    between atoms: C16_18  and  C17_19 
REMARK    5  A    between atoms: C26_28  and  C27_29 
REMARK    6  A    between atoms: C27_29  and  C28_30 
REMARK    7  A    between atoms: C28_30  and  C29_31 
REMARK    8  A    between atoms: C29_31  and  O4_33 
ROOT
HETATM    1  C1  UNL     1      -2.712  51.925 -27.411  1.00  0.00     0.025 C 
HETATM    2  C2  UNL     1      -2.662  50.687 -26.905  1.00  0.00     0.015 C 
HETATM    3  C3  UNL     1      -3.362  49.563 -27.571  1.00  0.00     0.289 C 
HETATM    4  O1  UNL     1      -3.858  49.570 -28.683  1.00  0.00    -0.260 OA
HETATM    5  O2  UNL     1      -3.339  48.501 -26.723  1.00  0.00    -0.311 OA
HETATM    6  C4  UNL     1      -2.841  48.908 -25.434  1.00  0.00     0.142 C 
HETATM    7  C5  UNL     1      -4.032  49.121 -24.507  1.00  0.00     0.039 C 
HETATM    8  C6  UNL     1      -3.704  49.705 -23.124  1.00  0.00     0.006 C 
HETATM    9  C7  UNL     1      -2.665  50.854 -23.164  1.00  0.00    -0.027 A 
HETATM   10  C8  UNL     1      -2.292  51.402 -21.770  1.00  0.00     0.011 C 
HETATM   11  C9  UNL     1      -2.046  50.342 -20.688  1.00  0.00     0.011 C 
HETATM   12  C10 UNL     1      -3.212  49.345 -20.615  1.00  0.00    -0.032 C 
HETATM   13  C11 UNL     1      -4.508  50.106 -20.189  1.00  0.00     0.016 C 
HETATM   14  C12 UNL     1      -3.043  48.110 -19.671  1.00  0.00    -0.002 C 
HETATM   15  C21 UNL     1      -3.992  47.061 -20.330  1.00  0.00     0.006 C 
HETATM   16  C22 UNL     1      -4.334  47.555 -21.749  1.00  0.00     0.011 C 
HETATM   17  C23 UNL     1      -3.302  48.654 -22.037  1.00  0.00    -0.032 C 
HETATM   18  C24 UNL     1      -1.985  47.929 -22.463  1.00  0.00     0.016 C 
HETATM   19  C25 UNL     1      -2.887  52.002 -24.121  1.00  0.00     0.022 A 
HETATM   20  C26 UNL     1      -1.774  51.026 -24.444  1.00  0.00    -0.021 A 
HETATM   21  C31 UNL     1      -1.992  50.143 -25.682  1.00  0.00     0.063 C 
ENDROOT
BRANCH  14  22
HETATM   22  C13 UNL     1      -3.296  48.245 -18.135  1.00  0.00    -0.014 C 
HETATM   23  C14 UNL     1      -4.775  48.480 -17.812  1.00  0.00     0.010 C 
BRANCH  22  24
HETATM   24  C15 UNL     1      -2.431  49.401 -17.555  1.00  0.00     0.008 C 
BRANCH  24  25
HETATM   25  C16 UNL     1      -0.918  49.156 -17.471  1.00  0.00     0.028 C 
BRANCH  25  26
HETATM   26  C17 UNL     1      -0.093  50.408 -17.580  1.00  0.00    -0.025 C 
HETATM   27  C18 UNL     1       0.741  50.924 -16.656  1.00  0.00    -0.091 C 
HETATM   28  C19 UNL     1       0.971  50.340 -15.289  1.00  0.00     0.042 C 
HETATM   29  C20 UNL     1       1.514  52.187 -16.935  1.00  0.00     0.042 C 
ENDBRANCH  25  26
ENDBRANCH  24  25
ENDBRANCH  22  24
ENDBRANCH  14  22
BRANCH  20  30
HETATM   30  C27 UNL     1      -0.298  51.381 -24.225  1.00  0.00     0.021 C 
BRANCH  30  31
HETATM   31  C28 UNL     1       0.154  52.685 -24.873  1.00  0.00     0.112 C 
BRANCH  31  32
HETATM   32  C29 UNL     1       0.765  53.640 -23.879  1.00  0.00     0.258 C 
HETATM   33  O3  UNL     1       1.318  54.688 -24.180  1.00  0.00    -0.265 OA
BRANCH  32  34
HETATM   34  O4  UNL     1       0.621  53.167 -22.609  1.00  0.00    -0.326 OA
HETATM   35  C30 UNL     1       1.336  53.918 -21.627  1.00  0.00     0.213 C 
ENDBRANCH  32  34
ENDBRANCH  31  32
ENDBRANCH  30  31
ENDBRANCH  20  30
TORSDOF 8
ENDMDL
MODEL 8
REMARK minimizedAffinity -8.55260181
REMARK  8 active torsions:
REMARK  status: ('A' for Active; 'I' for Inactive)
REMARK    1  A    between atoms: C12_14  and  C13_15 
REMARK    2  A    between atoms: C13_15  and  C15_17 
REMARK    3  A    between atoms: C15_17  and  C16_18 
REMARK    4  A    between atoms: C16_18  and  C17_19 
REMARK    5  A    between atoms: C26_28  and  C27_29 
REMARK    6  A    between atoms: C27_29  and  C28_30 
REMARK    7  A    between atoms: C28_30  and  C29_31 
REMARK    8  A    between atoms: C29_31  and  O4_33 
ROOT
HETATM    1  C1  UNL     1       0.218  49.768 -16.685  1.00  0.00     0.025 C 
HETATM    2  C2  UNL     1      -0.868  50.441 -17.081  1.00  0.00     0.015 C 
HETATM    3  C3  UNL     1      -1.915  50.838 -16.108  1.00  0.00     0.289 C 
HETATM    4  O1  UNL     1      -1.835  50.793 -14.894  1.00  0.00    -0.260 OA
HETATM    5  O2  UNL     1      -2.987  51.283 -16.814  1.00  0.00    -0.311 OA
HETATM    6  C4  UNL     1      -2.802  51.018 -18.217  1.00  0.00     0.142 C 
HETATM    7  C5  UNL     1      -3.586  49.760 -18.574  1.00  0.00     0.039 C 
HETATM    8  C6  UNL     1      -3.387  49.233 -20.003  1.00  0.00     0.006 C 
HETATM    9  C7  UNL     1      -1.913  49.266 -20.479  1.00  0.00    -0.027 A 
HETATM   10  C8  UNL     1      -1.721  48.792 -21.935  1.00  0.00     0.011 C 
HETATM   11  C9  UNL     1      -2.742  49.330 -22.946  1.00  0.00     0.011 C 
HETATM   12  C10 UNL     1      -4.180  49.099 -22.457  1.00  0.00    -0.032 C 
HETATM   13  C11 UNL     1      -4.443  47.563 -22.352  1.00  0.00     0.016 C 
HETATM   14  C12 UNL     1      -5.335  49.733 -23.298  1.00  0.00    -0.002 C 
HETATM   15  C21 UNL     1      -6.464  49.899 -22.233  1.00  0.00     0.006 C 
HETATM   16  C22 UNL     1      -5.827  49.746 -20.838  1.00  0.00     0.011 C 
HETATM   17  C23 UNL     1      -4.317  49.877 -21.084  1.00  0.00    -0.032 C 
HETATM   18  C24 UNL     1      -4.015  51.405 -21.200  1.00  0.00     0.016 C 
HETATM   19  C25 UNL     1      -0.850  48.654 -19.598  1.00  0.00     0.022 A 
HETATM   20  C26 UNL     1      -0.887  50.165 -19.704  1.00  0.00    -0.021 A 
HETATM   21  C31 UNL     1      -1.301  50.919 -18.431  1.00  0.00     0.063 C 
ENDROOT
BRANCH  14  22
HETATM   22  C13 UNL     1      -5.853  49.026 -24.593  1.00  0.00    -0.014 C 
HETATM   23  C14 UNL     1      -7.047  48.110 -24.312  1.00  0.00     0.010 C 
BRANCH  22  24
HETATM   24  C15 UNL     1      -4.699  48.215 -25.251  1.00  0.00     0.008 C 
BRANCH  24  25
HETATM   25  C16 UNL     1      -4.161  48.741 -26.589  1.00  0.00     0.028 C 
BRANCH  25  26
HETATM   26  C17 UNL     1      -2.722  49.173 -26.538  1.00  0.00    -0.025 C 
HETATM   27  C18 UNL     1      -2.246  50.430 -26.441  1.00  0.00    -0.091 C 
HETATM   28  C19 UNL     1      -3.098  51.669 -26.407  1.00  0.00     0.042 C 
HETATM   29  C20 UNL     1      -0.762  50.689 -26.381  1.00  0.00     0.042 C 
ENDBRANCH  25  26
ENDBRANCH  24  25
ENDBRANCH  22  24
ENDBRANCH  14  22
BRANCH  20  30
HETATM   30  C27 UNL     1       0.135  50.942 -20.543  1.00  0.00     0.021 C 
BRANCH  30  31
HETATM   31  C28 UNL     1      -0.336  52.308 -21.029  1.00  0.00     0.112 C 
BRANCH  31  32
HETATM   32  C29 UNL     1       0.658  52.966 -21.950  1.00  0.00     0.258 C 
HETATM   33  O3  UNL     1       1.441  53.842 -21.609  1.00  0.00    -0.265 OA
BRANCH  32  34
HETATM   34  O4  UNL     1       0.556  52.456 -23.210  1.00  0.00    -0.326 OA
HETATM   35  C30 UNL     1       0.662  53.436 -24.242  1.00  0.00     0.213 C 
ENDBRANCH  32  34
ENDBRANCH  31  32
ENDBRANCH  30  31
ENDBRANCH  20  30
TORSDOF 8
ENDMDL
MODEL 9
REMARK minimizedAffinity -8.46580124
REMARK  8 active torsions:
REMARK  status: ('A' for Active; 'I' for Inactive)
REMARK    1  A    between atoms: C12_14  and  C13_15 
REMARK    2  A    between atoms: C13_15  and  C15_17 
REMARK    3  A    between atoms: C15_17  and  C16_18 
REMARK    4  A    between atoms: C16_18  and  C17_19 
REMARK    5  A    between atoms: C26_28  and  C27_29 
REMARK    6  A    between atoms: C27_29  and  C28_30 
REMARK    7  A    between atoms: C28_30  and  C29_31 
REMARK    8  A    between atoms: C29_31  and  O4_33 
ROOT
HETATM    1  C1  UNL     1       0.212  53.891 -25.730  1.00  0.00     0.025 C 
HETATM    2  C2  UNL     1      -0.122  52.612 -25.934  1.00  0.00     0.015 C 
HETATM    3  C3  UNL     1      -0.150  52.040 -27.302  1.00  0.00     0.289 C 
HETATM    4  O1  UNL     1       0.291  52.553 -28.314  1.00  0.00    -0.260 OA
HETATM    5  O2  UNL     1      -0.744  50.820 -27.227  1.00  0.00    -0.311 OA
HETATM    6  C4  UNL     1      -1.306  50.622 -25.917  1.00  0.00     0.142 C 
HETATM    7  C5  UNL     1      -2.801  50.909 -25.988  1.00  0.00     0.039 C 
HETATM    8  C6  UNL     1      -3.548  50.895 -24.646  1.00  0.00     0.006 C 
HETATM    9  C7  UNL     1      -2.780  51.598 -23.499  1.00  0.00    -0.027 A 
HETATM   10  C8  UNL     1      -3.504  51.534 -22.137  1.00  0.00     0.011 C 
HETATM   11  C9  UNL     1      -4.107  50.170 -21.773  1.00  0.00     0.011 C 
HETATM   12  C10 UNL     1      -4.987  49.633 -22.912  1.00  0.00    -0.032 C 
HETATM   13  C11 UNL     1      -6.196  50.600 -23.122  1.00  0.00     0.016 C 
HETATM   14  C12 UNL     1      -5.547  48.181 -22.763  1.00  0.00    -0.002 C 
HETATM   15  C21 UNL     1      -5.756  47.755 -24.250  1.00  0.00     0.006 C 
HETATM   16  C22 UNL     1      -4.984  48.749 -25.141  1.00  0.00     0.011 C 
HETATM   17  C23 UNL     1      -4.045  49.487 -24.176  1.00  0.00    -0.032 C 
HETATM   18  C24 UNL     1      -2.821  48.546 -23.938  1.00  0.00     0.016 C 
HETATM   19  C25 UNL     1      -2.248  52.993 -23.728  1.00  0.00     0.022 A 
HETATM   20  C26 UNL     1      -1.243  51.862 -23.666  1.00  0.00    -0.021 A 
HETATM   21  C31 UNL     1      -0.523  51.528 -24.982  1.00  0.00     0.063 C 
ENDROOT
BRANCH  14  22
HETATM   22  C13 UNL     1      -6.816  47.906 -21.893  1.00  0.00    -0.014 C 
HETATM   23  C14 UNL     1      -7.220  49.126 -21.060  1.00  0.00     0.010 C 
BRANCH  22  24
HETATM   24  C15 UNL     1      -6.566  46.682 -20.964  1.00  0.00     0.008 C 
BRANCH  24  25
HETATM   25  C16 UNL     1      -5.287  45.872 -21.219  1.00  0.00     0.028 C 
BRANCH  25  26
HETATM   26  C17 UNL     1      -4.020  46.645 -20.974  1.00  0.00    -0.025 C 
HETATM   27  C18 UNL     1      -3.320  46.730 -19.826  1.00  0.00    -0.091 C 
HETATM   28  C19 UNL     1      -3.717  46.078 -18.530  1.00  0.00     0.042 C 
HETATM   29  C20 UNL     1      -2.050  47.539 -19.756  1.00  0.00     0.042 C 
ENDBRANCH  25  26
ENDBRANCH  24  25
ENDBRANCH  22  24
ENDBRANCH  14  22
BRANCH  20  30
HETATM   30  C27 UNL     1      -0.357  51.634 -22.436  1.00  0.00     0.021 C 
BRANCH  30  31
HETATM   31  C28 UNL     1       0.776  52.640 -22.262  1.00  0.00     0.112 C 
BRANCH  31  32
HETATM   32  C29 UNL     1       0.774  53.279 -20.897  1.00  0.00     0.258 C 
HETATM   33  O3  UNL     1       1.329  54.335 -20.629  1.00  0.00    -0.265 OA
BRANCH  32  34
HETATM   34  O4  UNL     1       0.078  52.514 -20.010  1.00  0.00    -0.326 OA
HETATM   35  C30 UNL     1       0.448  52.726 -18.647  1.00  0.00     0.213 C 
ENDBRANCH  32  34
ENDBRANCH  31  32
ENDBRANCH  30  31
ENDBRANCH  20  30
TORSDOF 8
ENDMDL
