MODEL 1
REMARK minimizedAffinity -9.36189938
REMARK CNNscore 0.712890029
REMARK CNNaffinity 7.25049353
REMARK  6 active torsions:
REMARK  status: ('A' for Active; 'I' for Inactive)
REMARK    1  A    between atoms: C12_13  and  C13_14 
REMARK    2  A    between atoms: C13_14  and  C15_16 
REMARK    3  A    between atoms: C15_16  and  C16_17 
REMARK    4  A    between atoms: C16_17  and  C17_18 
REMARK    5  A    between atoms: C18_19  and  C20_21 
REMARK    6  A    between atoms: C20_21  and  O3_23 
ROOT
HETATM    1  C1  UNL     1       0.036   4.442  12.404  1.00  0.00     0.052 C 
HETATM    2  C2  UNL     1      -1.393   3.972  12.357  1.00  0.00    -0.013 C 
HETATM    3  C3  UNL     1      -2.429   4.416  13.110  1.00  0.00    -0.066 C 
HETATM    4  C4  UNL     1      -2.252   5.475  14.180  1.00  0.00     0.036 C 
HETATM    5  C5  UNL     1      -3.293   6.583  14.069  1.00  0.00     0.010 C 
HETATM    6  C6  UNL     1      -4.698   5.992  14.212  1.00  0.00     0.007 C 
HETATM    7  C7  UNL     1      -4.963   4.971  13.071  1.00  0.00     0.068 C 
HETATM    8  C8  UNL     1      -6.383   4.396  13.247  1.00  0.00     0.133 C 
HETATM    9  O1  UNL     1      -6.617   3.187  13.237  1.00  0.00    -0.298 OA
HETATM   10  C9  UNL     1      -7.530   5.392  13.420  1.00  0.00     0.089 C 
HETATM   11  C10 UNL     1      -7.211   6.325  14.596  1.00  0.00    -0.026 C 
HETATM   12  C11 UNL     1      -7.192   5.457  15.896  1.00  0.00     0.016 C 
HETATM   13  C12 UNL     1      -8.148   7.552  14.832  1.00  0.00    -0.002 C 
HETATM   14  C21 UNL     1      -7.218   8.526  15.626  1.00  0.00     0.006 C 
HETATM   15  C22 UNL     1      -5.763   8.053  15.436  1.00  0.00     0.011 C 
HETATM   16  C23 UNL     1      -5.838   7.050  14.278  1.00  0.00    -0.032 C 
HETATM   17  C24 UNL     1      -5.849   7.902  12.965  1.00  0.00     0.016 C 
HETATM   18  C25 UNL     1      -3.864   3.865  12.989  1.00  0.00     0.027 C 
HETATM   19  C26 UNL     1      -4.037   3.074  11.674  1.00  0.00     0.018 C 
HETATM   20  C27 UNL     1      -2.907   2.092  11.457  1.00  0.00     0.084 C 
HETATM   21  C28 UNL     1      -1.605   2.838  11.393  1.00  0.00     0.155 C 
HETATM   22  O4  UNL     1      -0.713   2.496  10.618  1.00  0.00    -0.293 OA
ENDROOT
BRANCH  13  23
HETATM   23  C13 UNL     1      -9.528   7.370  15.537  1.00  0.00    -0.014 C 
HETATM   24  C14 UNL     1     -10.663   7.134  14.535  1.00  0.00     0.010 C 
BRANCH  23  25
HETATM   25  C15 UNL     1      -9.851   8.618  16.408  1.00  0.00     0.008 C 
BRANCH  25  26
HETATM   26  C16 UNL     1     -10.487   9.808  15.674  1.00  0.00     0.028 C 
BRANCH  26  27
HETATM   27  C17 UNL     1     -11.254   9.401  14.448  1.00  0.00    -0.013 C 
HETATM   28  C18 UNL     1     -12.108  10.163  13.734  1.00  0.00     0.008 C 
HETATM   29  C19 UNL     1     -12.496  11.575  14.053  1.00  0.00     0.055 C 
BRANCH  28  30
HETATM   30  C20 UNL     1     -12.730   9.526  12.544  1.00  0.00     0.171 C 
HETATM   31  O2  UNL     1     -13.537   8.614  12.544  1.00  0.00    -0.646 OA
BRANCH  30  32
HETATM   32  O3  UNL     1     -12.304  10.070  11.392  1.00  0.00    -0.773 OA
HETATM   33  H28 UNL     1     -12.783   9.557  10.708  1.00  0.00     0.167 HD
ENDBRANCH  30  32
ENDBRANCH  28  30
ENDBRANCH  26  27
ENDBRANCH  25  26
ENDBRANCH  23  25
ENDBRANCH  13  23
TORSDOF 6
ENDMDL
MODEL 2
REMARK minimizedAffinity -6.52619696
REMARK CNNscore 0.568619251
REMARK CNNaffinity 6.81518936
REMARK  6 active torsions:
REMARK  status: ('A' for Active; 'I' for Inactive)
REMARK    1  A    between atoms: C12_13  and  C13_14 
REMARK    2  A    between atoms: C13_14  and  C15_16 
REMARK    3  A    between atoms: C15_16  and  C16_17 
REMARK    4  A    between atoms: C16_17  and  C17_18 
REMARK    5  A    between atoms: C18_19  and  C20_21 
REMARK    6  A    between atoms: C20_21  and  O3_23 
ROOT
HETATM    1  C1  UNL     1      -5.914   5.705  15.198  1.00  0.00     0.052 C 
HETATM    2  C2  UNL     1      -7.207   5.884  14.449  1.00  0.00    -0.013 C 
HETATM    3  C3  UNL     1      -8.321   6.527  14.876  1.00  0.00    -0.066 C 
HETATM    4  C4  UNL     1      -8.416   7.146  16.256  1.00  0.00     0.036 C 
HETATM    5  C5  UNL     1      -8.944   8.576  16.208  1.00  0.00     0.010 C 
HETATM    6  C6  UNL     1     -10.341   8.594  15.582  1.00  0.00     0.007 C 
HETATM    7  C7  UNL     1     -10.275   8.059  14.124  1.00  0.00     0.068 C 
HETATM    8  C8  UNL     1     -11.696   8.089  13.527  1.00  0.00     0.133 C 
HETATM    9  O1  UNL     1     -12.201   7.118  12.962  1.00  0.00    -0.298 OA
HETATM   10  C9  UNL     1     -12.479   9.398  13.636  1.00  0.00     0.089 C 
HETATM   11  C10 UNL     1     -12.540   9.824  15.109  1.00  0.00    -0.026 C 
HETATM   12  C11 UNL     1     -13.378   8.752  15.878  1.00  0.00     0.016 C 
HETATM   13  C12 UNL     1     -13.117  11.237  15.439  1.00  0.00    -0.002 C 
HETATM   14  C21 UNL     1     -12.471  11.538  16.831  1.00  0.00     0.006 C 
HETATM   15  C22 UNL     1     -11.286  10.570  17.023  1.00  0.00     0.011 C 
HETATM   16  C23 UNL     1     -11.050   9.978  15.628  1.00  0.00    -0.032 C 
HETATM   17  C24 UNL     1     -10.201  11.036  14.846  1.00  0.00     0.016 C 
HETATM   18  C25 UNL     1      -9.605   6.652  14.031  1.00  0.00     0.027 C 
HETATM   19  C26 UNL     1      -9.319   6.324  12.549  1.00  0.00     0.018 C 
HETATM   20  C27 UNL     1      -8.525   5.044  12.401  1.00  0.00     0.084 C 
HETATM   21  C28 UNL     1      -7.212   5.188  13.116  1.00  0.00     0.155 C 
HETATM   22  O4  UNL     1      -6.181   4.699  12.658  1.00  0.00    -0.293 OA
ENDROOT
BRANCH  13  23
HETATM   23  C13 UNL     1     -14.659  11.478  15.456  1.00  0.00    -0.014 C 
HETATM   24  C14 UNL     1     -15.341  10.783  16.639  1.00  0.00     0.010 C 
BRANCH  23  25
HETATM   25  C15 UNL     1     -15.290  10.981  14.123  1.00  0.00     0.008 C 
BRANCH  25  26
HETATM   26  C16 UNL     1     -16.555  10.120  14.255  1.00  0.00     0.028 C 
BRANCH  26  27
HETATM   27  C17 UNL     1     -17.028   9.563  12.941  1.00  0.00    -0.013 C 
HETATM   28  C18 UNL     1     -17.508  10.258  11.890  1.00  0.00     0.008 C 
HETATM   29  C19 UNL     1     -17.705  11.743  11.839  1.00  0.00     0.055 C 
BRANCH  28  30
HETATM   30  C20 UNL     1     -17.895   9.467  10.692  1.00  0.00     0.171 C 
HETATM   31  O2  UNL     1     -17.921   9.857   9.539  1.00  0.00    -0.646 OA
BRANCH  30  32
HETATM   32  O3  UNL     1     -18.239   8.206  11.001  1.00  0.00    -0.773 OA
HETATM   33  H28 UNL     1     -18.472   7.815  10.134  1.00  0.00     0.167 HD
ENDBRANCH  30  32
ENDBRANCH  28  30
ENDBRANCH  26  27
ENDBRANCH  25  26
ENDBRANCH  23  25
ENDBRANCH  13  23
TORSDOF 6
ENDMDL
MODEL 3
REMARK minimizedAffinity -9.95816326
REMARK CNNscore 0.56849587
REMARK CNNaffinity 6.93296242
REMARK  6 active torsions:
REMARK  status: ('A' for Active; 'I' for Inactive)
REMARK    1  A    between atoms: C12_13  and  C13_14 
REMARK    2  A    between atoms: C13_14  and  C15_16 
REMARK    3  A    between atoms: C15_16  and  C16_17 
REMARK    4  A    between atoms: C16_17  and  C17_18 
REMARK    5  A    between atoms: C18_19  and  C20_21 
REMARK    6  A    between atoms: C20_21  and  O3_23 
ROOT
HETATM    1  C1  UNL     1      -7.745   4.303  13.840  1.00  0.00     0.052 C 
HETATM    2  C2  UNL     1      -6.551   3.875  13.031  1.00  0.00    -0.013 C 
HETATM    3  C3  UNL     1      -5.432   4.595  12.774  1.00  0.00    -0.066 C 
HETATM    4  C4  UNL     1      -5.257   6.017  13.269  1.00  0.00     0.036 C 
HETATM    5  C5  UNL     1      -3.908   6.228  13.946  1.00  0.00     0.010 C 
HETATM    6  C6  UNL     1      -2.778   5.926  12.959  1.00  0.00     0.007 C 
HETATM    7  C7  UNL     1      -2.857   4.443  12.499  1.00  0.00     0.068 C 
HETATM    8  C8  UNL     1      -1.708   4.176  11.507  1.00  0.00     0.133 C 
HETATM    9  O1  UNL     1      -1.886   3.642  10.411  1.00  0.00    -0.298 OA
HETATM   10  C9  UNL     1      -0.298   4.582  11.935  1.00  0.00     0.089 C 
HETATM   11  C10 UNL     1      -0.299   6.067  12.320  1.00  0.00    -0.026 C 
HETATM   12  C11 UNL     1      -0.614   6.891  11.029  1.00  0.00     0.016 C 
HETATM   13  C12 UNL     1       0.989   6.653  12.982  1.00  0.00    -0.002 C 
HETATM   14  C21 UNL     1       0.427   7.894  13.750  1.00  0.00     0.006 C 
HETATM   15  C22 UNL     1      -1.102   7.726  13.868  1.00  0.00     0.011 C 
HETATM   16  C23 UNL     1      -1.353   6.262  13.487  1.00  0.00    -0.032 C 
HETATM   17  C24 UNL     1      -1.052   5.422  14.774  1.00  0.00     0.016 C 
HETATM   18  C25 UNL     1      -4.259   4.068  11.924  1.00  0.00     0.027 C 
HETATM   19  C26 UNL     1      -4.347   2.534  11.763  1.00  0.00     0.018 C 
HETATM   20  C27 UNL     1      -5.736   2.091  11.360  1.00  0.00     0.084 C 
HETATM   21  C28 UNL     1      -6.718   2.513  12.415  1.00  0.00     0.155 C 
HETATM   22  O4  UNL     1      -7.668   1.795  12.725  1.00  0.00    -0.293 OA
ENDROOT
BRANCH  13  23
HETATM   23  C13 UNL     1       2.226   7.029  12.108  1.00  0.00    -0.014 C 
HETATM   24  C14 UNL     1       2.134   8.456  11.557  1.00  0.00     0.010 C 
BRANCH  23  25
HETATM   25  C15 UNL     1       2.374   6.022  10.931  1.00  0.00     0.008 C 
BRANCH  25  26
HETATM   26  C16 UNL     1       3.774   5.911  10.309  1.00  0.00     0.028 C 
BRANCH  26  27
HETATM   27  C17 UNL     1       4.541   7.203  10.350  1.00  0.00    -0.013 C 
HETATM   28  C18 UNL     1       5.747   7.414  10.912  1.00  0.00     0.008 C 
HETATM   29  C19 UNL     1       6.556   6.395  11.657  1.00  0.00     0.055 C 
BRANCH  28  30
HETATM   30  C20 UNL     1       6.301   8.788  10.800  1.00  0.00     0.171 C 
HETATM   31  O2  UNL     1       7.363   9.185  11.246  1.00  0.00    -0.646 OA
BRANCH  30  32
HETATM   32  O3  UNL     1       5.485   9.615  10.127  1.00  0.00    -0.773 OA
HETATM   33  H28 UNL     1       5.967  10.468  10.138  1.00  0.00     0.167 HD
ENDBRANCH  30  32
ENDBRANCH  28  30
ENDBRANCH  26  27
ENDBRANCH  25  26
ENDBRANCH  23  25
ENDBRANCH  13  23
TORSDOF 6
ENDMDL
MODEL 4
REMARK minimizedAffinity -9.20257092
REMARK CNNscore 0.522909343
REMARK CNNaffinity 6.94057322
REMARK  6 active torsions:
REMARK  status: ('A' for Active; 'I' for Inactive)
REMARK    1  A    between atoms: C12_13  and  C13_14 
REMARK    2  A    between atoms: C13_14  and  C15_16 
REMARK    3  A    between atoms: C15_16  and  C16_17 
REMARK    4  A    between atoms: C16_17  and  C17_18 
REMARK    5  A    between atoms: C18_19  and  C20_21 
REMARK    6  A    between atoms: C20_21  and  O3_23 
ROOT
HETATM    1  C1  UNL     1      -8.281   5.705  13.715  1.00  0.00     0.052 C 
HETATM    2  C2  UNL     1      -6.991   5.111  13.218  1.00  0.00    -0.013 C 
HETATM    3  C3  UNL     1      -5.810   5.750  13.032  1.00  0.00    -0.066 C 
HETATM    4  C4  UNL     1      -5.649   7.236  13.284  1.00  0.00     0.036 C 
HETATM    5  C5  UNL     1      -4.424   7.546  14.136  1.00  0.00     0.010 C 
HETATM    6  C6  UNL     1      -3.160   7.043  13.432  1.00  0.00     0.007 C 
HETATM    7  C7  UNL     1      -3.236   5.503  13.244  1.00  0.00     0.068 C 
HETATM    8  C8  UNL     1      -1.952   5.032  12.532  1.00  0.00     0.133 C 
HETATM    9  O1  UNL     1      -1.970   4.305  11.538  1.00  0.00    -0.298 OA
HETATM   10  C9  UNL     1      -0.614   5.487  13.118  1.00  0.00     0.089 C 
HETATM   11  C10 UNL     1      -0.606   7.017  13.221  1.00  0.00    -0.026 C 
HETATM   12  C11 UNL     1      -0.657   7.589  11.766  1.00  0.00     0.016 C 
HETATM   13  C12 UNL     1       0.580   7.694  13.979  1.00  0.00    -0.002 C 
HETATM   14  C21 UNL     1      -0.040   9.067  14.399  1.00  0.00     0.006 C 
HETATM   15  C22 UNL     1      -1.572   8.952  14.277  1.00  0.00     0.011 C 
HETATM   16  C23 UNL     1      -1.830   7.447  14.131  1.00  0.00    -0.032 C 
HETATM   17  C24 UNL     1      -1.792   6.858  15.581  1.00  0.00     0.016 C 
HETATM   18  C25 UNL     1      -4.539   5.051  12.511  1.00  0.00     0.027 C 
HETATM   19  C26 UNL     1      -4.675   3.516  12.619  1.00  0.00     0.018 C 
HETATM   20  C27 UNL     1      -5.997   3.030  12.068  1.00  0.00     0.084 C 
HETATM   21  C28 UNL     1      -7.120   3.661  12.840  1.00  0.00     0.155 C 
HETATM   22  O4  UNL     1      -8.143   3.031  13.106  1.00  0.00    -0.293 OA
ENDROOT
BRANCH  13  23
HETATM   23  C13 UNL     1       1.964   7.876  13.281  1.00  0.00    -0.014 C 
HETATM   24  C14 UNL     1       2.071   9.218  12.549  1.00  0.00     0.010 C 
BRANCH  23  25
HETATM   25  C15 UNL     1       2.214   6.712  12.279  1.00  0.00     0.008 C 
BRANCH  25  26
HETATM   26  C16 UNL     1       2.855   7.101  10.939  1.00  0.00     0.028 C 
BRANCH  26  27
HETATM   27  C17 UNL     1       4.239   6.542  10.763  1.00  0.00    -0.013 C 
HETATM   28  C18 UNL     1       5.337   6.851  11.481  1.00  0.00     0.008 C 
HETATM   29  C19 UNL     1       5.404   7.861  12.587  1.00  0.00     0.055 C 
BRANCH  28  30
HETATM   30  C20 UNL     1       6.591   6.141  11.118  1.00  0.00     0.171 C 
HETATM   31  O2  UNL     1       6.682   5.071  10.542  1.00  0.00    -0.646 OA
BRANCH  30  32
HETATM   32  O3  UNL     1       7.689   6.813  11.500  1.00  0.00    -0.773 OA
HETATM   33  H28 UNL     1       8.423   6.235  11.207  1.00  0.00     0.167 HD
ENDBRANCH  30  32
ENDBRANCH  28  30
ENDBRANCH  26  27
ENDBRANCH  25  26
ENDBRANCH  23  25
ENDBRANCH  13  23
TORSDOF 6
ENDMDL
MODEL 5
REMARK minimizedAffinity -6.21124268
REMARK CNNscore 0.441327333
REMARK CNNaffinity 6.28928137
REMARK  6 active torsions:
REMARK  status: ('A' for Active; 'I' for Inactive)
REMARK    1  A    between atoms: C12_13  and  C13_14 
REMARK    2  A    between atoms: C13_14  and  C15_16 
REMARK    3  A    between atoms: C15_16  and  C16_17 
REMARK    4  A    between atoms: C16_17  and  C17_18 
REMARK    5  A    between atoms: C18_19  and  C20_21 
REMARK    6  A    between atoms: C20_21  and  O3_23 
ROOT
HETATM    1  C1  UNL     1     -13.028   4.397  29.953  1.00  0.00     0.052 C 
HETATM    2  C2  UNL     1     -13.208   3.752  28.605  1.00  0.00    -0.013 C 
HETATM    3  C3  UNL     1     -13.888   4.247  27.542  1.00  0.00    -0.066 C 
HETATM    4  C4  UNL     1     -14.623   5.571  27.599  1.00  0.00     0.036 C 
HETATM    5  C5  UNL     1     -14.295   6.462  26.407  1.00  0.00     0.010 C 
HETATM    6  C6  UNL     1     -14.690   5.756  25.107  1.00  0.00     0.007 C 
HETATM    7  C7  UNL     1     -13.883   4.437  24.954  1.00  0.00     0.068 C 
HETATM    8  C8  UNL     1     -14.305   3.753  23.639  1.00  0.00     0.133 C 
HETATM    9  O1  UNL     1     -14.633   2.567  23.581  1.00  0.00    -0.298 OA
HETATM   10  C9  UNL     1     -14.288   4.600  22.367  1.00  0.00     0.089 C 
HETATM   11  C10 UNL     1     -15.148   5.852  22.586  1.00  0.00    -0.026 C 
HETATM   12  C11 UNL     1     -16.628   5.383  22.774  1.00  0.00     0.016 C 
HETATM   13  C12 UNL     1     -15.115   6.965  21.491  1.00  0.00    -0.002 C 
HETATM   14  C21 UNL     1     -15.554   8.231  22.297  1.00  0.00     0.006 C 
HETATM   15  C22 UNL     1     -15.393   7.917  23.798  1.00  0.00     0.011 C 
HETATM   16  C23 UNL     1     -14.553   6.634  23.829  1.00  0.00    -0.032 C 
HETATM   17  C24 UNL     1     -13.064   7.087  23.653  1.00  0.00     0.016 C 
HETATM   18  C25 UNL     1     -14.020   3.503  26.198  1.00  0.00     0.027 C 
HETATM   19  C26 UNL     1     -12.978   2.367  26.097  1.00  0.00     0.018 C 
HETATM   20  C27 UNL     1     -12.950   1.518  27.349  1.00  0.00     0.084 C 
HETATM   21  C28 UNL     1     -12.598   2.380  28.527  1.00  0.00     0.155 C 
HETATM   22  O4  UNL     1     -11.881   1.958  29.433  1.00  0.00    -0.293 OA
ENDROOT
BRANCH  13  23
HETATM   23  C13 UNL     1     -15.939   6.805  20.175  1.00  0.00    -0.014 C 
HETATM   24  C14 UNL     1     -16.545   5.404  20.038  1.00  0.00     0.010 C 
BRANCH  23  25
HETATM   25  C15 UNL     1     -15.040   7.109  18.942  1.00  0.00     0.008 C 
BRANCH  25  26
HETATM   26  C16 UNL     1     -15.763   7.625  17.690  1.00  0.00     0.028 C 
BRANCH  26  27
HETATM   27  C17 UNL     1     -14.863   7.730  16.491  1.00  0.00    -0.013 C 
HETATM   28  C18 UNL     1     -14.760   6.851  15.474  1.00  0.00     0.008 C 
HETATM   29  C19 UNL     1     -15.504   5.555  15.358  1.00  0.00     0.055 C 
BRANCH  28  30
HETATM   30  C20 UNL     1     -13.802   7.197  14.392  1.00  0.00     0.171 C 
HETATM   31  O2  UNL     1     -13.402   6.459  13.509  1.00  0.00    -0.646 OA
BRANCH  30  32
HETATM   32  O3  UNL     1     -13.380   8.470  14.469  1.00  0.00    -0.773 OA
HETATM   33  H28 UNL     1     -12.762   8.551  13.713  1.00  0.00     0.167 HD
ENDBRANCH  30  32
ENDBRANCH  28  30
ENDBRANCH  26  27
ENDBRANCH  25  26
ENDBRANCH  23  25
ENDBRANCH  13  23
TORSDOF 6
ENDMDL
MODEL 6
REMARK minimizedAffinity -9.11920738
REMARK CNNscore 0.39024812
REMARK CNNaffinity 6.62601852
REMARK  6 active torsions:
REMARK  status: ('A' for Active; 'I' for Inactive)
REMARK    1  A    between atoms: C12_13  and  C13_14 
REMARK    2  A    between atoms: C13_14  and  C15_16 
REMARK    3  A    between atoms: C15_16  and  C16_17 
REMARK    4  A    between atoms: C16_17  and  C17_18 
REMARK    5  A    between atoms: C18_19  and  C20_21 
REMARK    6  A    between atoms: C20_21  and  O3_23 
ROOT
HETATM    1  C1  UNL     1      -7.615   4.522  13.951  1.00  0.00     0.052 C 
HETATM    2  C2  UNL     1      -6.470   4.041  13.100  1.00  0.00    -0.013 C 
HETATM    3  C3  UNL     1      -5.339   4.719  12.787  1.00  0.00    -0.066 C 
HETATM    4  C4  UNL     1      -5.094   6.140  13.253  1.00  0.00     0.036 C 
HETATM    5  C5  UNL     1      -3.712   6.312  13.872  1.00  0.00     0.010 C 
HETATM    6  C6  UNL     1      -2.634   5.957  12.844  1.00  0.00     0.007 C 
HETATM    7  C7  UNL     1      -2.783   4.472  12.410  1.00  0.00     0.068 C 
HETATM    8  C8  UNL     1      -1.687   4.151  11.376  1.00  0.00     0.133 C 
HETATM    9  O1  UNL     1      -1.928   3.609  10.296  1.00  0.00    -0.298 OA
HETATM   10  C9  UNL     1      -0.247   4.513  11.740  1.00  0.00     0.089 C 
HETATM   11  C10 UNL     1      -0.180   6.003  12.103  1.00  0.00    -0.026 C 
HETATM   12  C11 UNL     1      -0.519   6.819  10.813  1.00  0.00     0.016 C 
HETATM   13  C12 UNL     1       1.153   6.552  12.702  1.00  0.00    -0.002 C 
HETATM   14  C21 UNL     1       0.666   7.821  13.475  1.00  0.00     0.006 C 
HETATM   15  C22 UNL     1      -0.861   7.710  13.657  1.00  0.00     0.011 C 
HETATM   16  C23 UNL     1      -1.178   6.250  13.309  1.00  0.00    -0.032 C 
HETATM   17  C24 UNL     1      -0.854   5.418  14.594  1.00  0.00     0.016 C 
HETATM   18  C25 UNL     1      -4.221   4.139  11.898  1.00  0.00     0.027 C 
HETATM   19  C26 UNL     1      -4.368   2.607  11.764  1.00  0.00     0.018 C 
HETATM   20  C27 UNL     1      -5.787   2.208  11.424  1.00  0.00     0.084 C 
HETATM   21  C28 UNL     1      -6.710   2.679  12.512  1.00  0.00     0.155 C 
HETATM   22  O4  UNL     1      -7.670   1.998  12.871  1.00  0.00    -0.293 OA
ENDROOT
BRANCH  13  23
HETATM   23  C13 UNL     1       2.366   6.872  11.774  1.00  0.00    -0.014 C 
HETATM   24  C14 UNL     1       2.810   5.651  10.961  1.00  0.00     0.010 C 
BRANCH  23  25
HETATM   25  C15 UNL     1       3.560   7.401  12.620  1.00  0.00     0.008 C 
BRANCH  25  26
HETATM   26  C16 UNL     1       4.573   8.285  11.878  1.00  0.00     0.028 C 
BRANCH  26  27
HETATM   27  C17 UNL     1       5.984   8.097  12.360  1.00  0.00    -0.013 C 
HETATM   28  C18 UNL     1       6.445   8.279  13.614  1.00  0.00     0.008 C 
HETATM   29  C19 UNL     1       5.636   8.754  14.783  1.00  0.00     0.055 C 
BRANCH  28  30
HETATM   30  C20 UNL     1       7.889   8.007  13.837  1.00  0.00     0.171 C 
HETATM   31  O2  UNL     1       8.388   7.474  14.812  1.00  0.00    -0.646 OA
BRANCH  30  32
HETATM   32  O3  UNL     1       8.652   8.425  12.814  1.00  0.00    -0.773 OA
HETATM   33  H28 UNL     1       9.560   8.191  13.097  1.00  0.00     0.167 HD
ENDBRANCH  30  32
ENDBRANCH  28  30
ENDBRANCH  26  27
ENDBRANCH  25  26
ENDBRANCH  23  25
ENDBRANCH  13  23
TORSDOF 6
ENDMDL
MODEL 7
REMARK minimizedAffinity -7.18572664
REMARK CNNscore 0.387269229
REMARK CNNaffinity 5.67223549
REMARK  6 active torsions:
REMARK  status: ('A' for Active; 'I' for Inactive)
REMARK    1  A    between atoms: C12_13  and  C13_14 
REMARK    2  A    between atoms: C13_14  and  C15_16 
REMARK    3  A    between atoms: C15_16  and  C16_17 
REMARK    4  A    between atoms: C16_17  and  C17_18 
REMARK    5  A    between atoms: C18_19  and  C20_21 
REMARK    6  A    between atoms: C20_21  and  O3_23 
ROOT
HETATM    1  C1  UNL     1       2.277   7.808   7.647  1.00  0.00     0.052 C 
HETATM    2  C2  UNL     1       1.991   8.018   9.109  1.00  0.00    -0.013 C 
HETATM    3  C3  UNL     1       2.890   8.082  10.121  1.00  0.00    -0.066 C 
HETATM    4  C4  UNL     1       4.378   7.900   9.892  1.00  0.00     0.036 C 
HETATM    5  C5  UNL     1       5.200   8.995  10.561  1.00  0.00     0.010 C 
HETATM    6  C6  UNL     1       4.948   8.986  12.070  1.00  0.00     0.007 C 
HETATM    7  C7  UNL     1       3.448   9.271  12.359  1.00  0.00     0.068 C 
HETATM    8  C8  UNL     1       3.231   9.252  13.885  1.00  0.00     0.133 C 
HETATM    9  O1  UNL     1       2.337   8.596  14.422  1.00  0.00    -0.298 OA
HETATM   10  C9  UNL     1       4.165  10.108  14.741  1.00  0.00     0.089 C 
HETATM   11  C10 UNL     1       5.618   9.727  14.431  1.00  0.00    -0.026 C 
HETATM   12  C11 UNL     1       5.831   8.251  14.902  1.00  0.00     0.016 C 
HETATM   13  C12 UNL     1       6.753  10.611  15.040  1.00  0.00    -0.002 C 
HETATM   14  C21 UNL     1       7.944  10.332  14.066  1.00  0.00     0.006 C 
HETATM   15  C22 UNL     1       7.368   9.709  12.779  1.00  0.00     0.011 C 
HETATM   16  C23 UNL     1       5.857   9.955  12.881  1.00  0.00    -0.032 C 
HETATM   17  C24 UNL     1       5.624  11.427  12.403  1.00  0.00     0.016 C 
HETATM   18  C25 UNL     1       2.495   8.297  11.596  1.00  0.00     0.027 C 
HETATM   19  C26 UNL     1       1.046   8.819  11.703  1.00  0.00     0.018 C 
HETATM   20  C27 UNL     1       0.093   8.008  10.852  1.00  0.00     0.084 C 
HETATM   21  C28 UNL     1       0.520   8.089   9.414  1.00  0.00     0.155 C 
HETATM   22  O4  UNL     1      -0.308   8.150   8.506  1.00  0.00    -0.293 OA
ENDROOT
BRANCH  13  23
HETATM   23  C13 UNL     1       7.176  10.438  16.532  1.00  0.00    -0.014 C 
HETATM   24  C14 UNL     1       6.240  11.183  17.489  1.00  0.00     0.010 C 
BRANCH  23  25
HETATM   25  C15 UNL     1       8.636  10.937  16.734  1.00  0.00     0.008 C 
BRANCH  25  26
HETATM   26  C16 UNL     1       9.413  10.301  17.896  1.00  0.00     0.028 C 
BRANCH  26  27
HETATM   27  C17 UNL     1       9.276  11.065  19.184  1.00  0.00    -0.013 C 
HETATM   28  C18 UNL     1      10.272  11.574  19.936  1.00  0.00     0.008 C 
HETATM   29  C19 UNL     1      11.738  11.440  19.654  1.00  0.00     0.055 C 
BRANCH  28  30
HETATM   30  C20 UNL     1       9.868  12.307  21.164  1.00  0.00     0.171 C 
HETATM   31  O2  UNL     1       9.306  11.841  22.139  1.00  0.00    -0.646 OA
BRANCH  30  32
HETATM   32  O3  UNL     1      10.191  13.609  21.112  1.00  0.00    -0.773 OA
HETATM   33  H28 UNL     1       9.866  13.959  21.967  1.00  0.00     0.167 HD
ENDBRANCH  30  32
ENDBRANCH  28  30
ENDBRANCH  26  27
ENDBRANCH  25  26
ENDBRANCH  23  25
ENDBRANCH  13  23
TORSDOF 6
ENDMDL
MODEL 8
REMARK minimizedAffinity -7.13831186
REMARK CNNscore 0.338619083
REMARK CNNaffinity 5.91523123
REMARK  6 active torsions:
REMARK  status: ('A' for Active; 'I' for Inactive)
REMARK    1  A    between atoms: C12_13  and  C13_14 
REMARK    2  A    between atoms: C13_14  and  C15_16 
REMARK    3  A    between atoms: C15_16  and  C16_17 
REMARK    4  A    between atoms: C16_17  and  C17_18 
REMARK    5  A    between atoms: C18_19  and  C20_21 
REMARK    6  A    between atoms: C20_21  and  O3_23 
ROOT
HETATM    1  C1  UNL     1       0.332   5.571  13.310  1.00  0.00     0.052 C 
HETATM    2  C2  UNL     1       1.240   6.209  12.293  1.00  0.00    -0.013 C 
HETATM    3  C3  UNL     1       2.184   7.156  12.515  1.00  0.00    -0.066 C 
HETATM    4  C4  UNL     1       2.424   7.749  13.889  1.00  0.00     0.036 C 
HETATM    5  C5  UNL     1       3.903   7.759  14.260  1.00  0.00     0.010 C 
HETATM    6  C6  UNL     1       4.689   8.588  13.240  1.00  0.00     0.007 C 
HETATM    7  C7  UNL     1       4.554   7.957  11.827  1.00  0.00     0.068 C 
HETATM    8  C8  UNL     1       5.353   8.816  10.828  1.00  0.00     0.133 C 
HETATM    9  O1  UNL     1       4.876   9.221   9.767  1.00  0.00    -0.298 OA
HETATM   10  C9  UNL     1       6.803   9.148  11.185  1.00  0.00     0.089 C 
HETATM   11  C10 UNL     1       6.838   9.812  12.568  1.00  0.00    -0.026 C 
HETATM   12  C11 UNL     1       6.096  11.184  12.453  1.00  0.00     0.016 C 
HETATM   13  C12 UNL     1       8.233  10.056  13.228  1.00  0.00    -0.002 C 
HETATM   14  C21 UNL     1       7.867  10.136  14.746  1.00  0.00     0.006 C 
HETATM   15  C22 UNL     1       6.461   9.530  14.928  1.00  0.00     0.011 C 
HETATM   16  C23 UNL     1       6.186   8.806  13.604  1.00  0.00    -0.032 C 
HETATM   17  C24 UNL     1       6.915   7.424  13.706  1.00  0.00     0.016 C 
HETATM   18  C25 UNL     1       3.065   7.754  11.400  1.00  0.00     0.027 C 
HETATM   19  C26 UNL     1       3.017   6.872  10.133  1.00  0.00     0.018 C 
HETATM   20  C27 UNL     1       1.598   6.504   9.759  1.00  0.00     0.084 C 
HETATM   21  C28 UNL     1       0.967   5.743  10.890  1.00  0.00     0.155 C 
HETATM   22  O4  UNL     1       0.200   4.805  10.677  1.00  0.00    -0.293 OA
ENDROOT
BRANCH  13  23
HETATM   23  C13 UNL     1       9.118  11.262  12.784  1.00  0.00    -0.014 C 
HETATM   24  C14 UNL     1       9.019  12.442  13.756  1.00  0.00     0.010 C 
BRANCH  23  25
HETATM   25  C15 UNL     1       8.711  11.726  11.355  1.00  0.00     0.008 C 
BRANCH  25  26
HETATM   26  C16 UNL     1       9.865  12.092  10.410  1.00  0.00     0.028 C 
BRANCH  26  27
HETATM   27  C17 UNL     1       9.813  11.354   9.102  1.00  0.00    -0.013 C 
HETATM   28  C18 UNL     1      10.859  10.966   8.346  1.00  0.00     0.008 C 
HETATM   29  C19 UNL     1      12.303  11.236   8.645  1.00  0.00     0.055 C 
BRANCH  28  30
HETATM   30  C20 UNL     1      10.538  10.230   7.095  1.00  0.00     0.171 C 
HETATM   31  O2  UNL     1      10.620  10.656   5.957  1.00  0.00    -0.646 OA
BRANCH  30  32
HETATM   32  O3  UNL     1      10.120   8.976   7.333  1.00  0.00    -0.773 OA
HETATM   33  H28 UNL     1       9.943   8.622   6.437  1.00  0.00     0.167 HD
ENDBRANCH  30  32
ENDBRANCH  28  30
ENDBRANCH  26  27
ENDBRANCH  25  26
ENDBRANCH  23  25
ENDBRANCH  13  23
TORSDOF 6
ENDMDL
MODEL 9
REMARK minimizedAffinity -10.393877
REMARK CNNscore 0.334346354
REMARK CNNaffinity 6.37189341
REMARK  6 active torsions:
REMARK  status: ('A' for Active; 'I' for Inactive)
REMARK    1  A    between atoms: C12_13  and  C13_14 
REMARK    2  A    between atoms: C13_14  and  C15_16 
REMARK    3  A    between atoms: C15_16  and  C16_17 
REMARK    4  A    between atoms: C16_17  and  C17_18 
REMARK    5  A    between atoms: C18_19  and  C20_21 
REMARK    6  A    between atoms: C20_21  and  O3_23 
ROOT
HETATM    1  C1  UNL     1      -7.676   4.353  13.634  1.00  0.00     0.052 C 
HETATM    2  C2  UNL     1      -6.445   3.867  12.919  1.00  0.00    -0.013 C 
HETATM    3  C3  UNL     1      -5.312   4.567  12.665  1.00  0.00    -0.066 C 
HETATM    4  C4  UNL     1      -5.157   6.022  13.063  1.00  0.00     0.036 C 
HETATM    5  C5  UNL     1      -3.842   6.282  13.790  1.00  0.00     0.010 C 
HETATM    6  C6  UNL     1      -2.666   5.909  12.885  1.00  0.00     0.007 C 
HETATM    7  C7  UNL     1      -2.727   4.396  12.532  1.00  0.00     0.068 C 
HETATM    8  C8  UNL     1      -1.531   4.057  11.621  1.00  0.00     0.133 C 
HETATM    9  O1  UNL     1      -1.656   3.444  10.560  1.00  0.00    -0.298 OA
HETATM   10  C9  UNL     1      -0.142   4.494  12.088  1.00  0.00     0.089 C 
HETATM   11  C10 UNL     1      -0.157   6.003  12.363  1.00  0.00    -0.026 C 
HETATM   12  C11 UNL     1      -0.405   6.730  11.000  1.00  0.00     0.016 C 
HETATM   13  C12 UNL     1       1.097   6.637  13.042  1.00  0.00    -0.002 C 
HETATM   14  C21 UNL     1       0.502   7.930  13.689  1.00  0.00     0.006 C 
HETATM   15  C22 UNL     1      -1.031   7.771  13.742  1.00  0.00     0.011 C 
HETATM   16  C23 UNL     1      -1.268   6.283  13.458  1.00  0.00    -0.032 C 
HETATM   17  C24 UNL     1      -1.034   5.540  14.816  1.00  0.00     0.016 C 
HETATM   18  C25 UNL     1      -4.100   3.979  11.917  1.00  0.00     0.027 C 
HETATM   19  C26 UNL     1      -4.184   2.438  11.865  1.00  0.00     0.018 C 
HETATM   20  C27 UNL     1      -5.554   1.966  11.426  1.00  0.00     0.084 C 
HETATM   21  C28 UNL     1      -6.586   2.464  12.397  1.00  0.00     0.155 C 
HETATM   22  O4  UNL     1      -7.552   1.770  12.711  1.00  0.00    -0.293 OA
ENDROOT
BRANCH  13  23
HETATM   23  C13 UNL     1       2.378   6.948  12.207  1.00  0.00    -0.014 C 
HETATM   24  C14 UNL     1       3.526   7.468  13.079  1.00  0.00     0.010 C 
BRANCH  23  25
HETATM   25  C15 UNL     1       2.052   7.987  11.096  1.00  0.00     0.008 C 
BRANCH  25  26
HETATM   26  C16 UNL     1       2.723   7.754   9.735  1.00  0.00     0.028 C 
BRANCH  26  27
HETATM   27  C17 UNL     1       3.207   6.343   9.550  1.00  0.00    -0.013 C 
HETATM   28  C18 UNL     1       3.124   5.596   8.431  1.00  0.00     0.008 C 
HETATM   29  C19 UNL     1       2.486   6.018   7.143  1.00  0.00     0.055 C 
BRANCH  28  30
HETATM   30  C20 UNL     1       3.697   4.227   8.503  1.00  0.00     0.171 C 
HETATM   31  O2  UNL     1       4.460   3.713   7.705  1.00  0.00    -0.646 OA
BRANCH  30  32
HETATM   32  O3  UNL     1       3.278   3.553   9.587  1.00  0.00    -0.773 OA
HETATM   33  H28 UNL     1       3.722   2.684   9.500  1.00  0.00     0.167 HD
ENDBRANCH  30  32
ENDBRANCH  28  30
ENDBRANCH  26  27
ENDBRANCH  25  26
ENDBRANCH  23  25
ENDBRANCH  13  23
TORSDOF 6
ENDMDL
