MODEL 1
REMARK minimizedAffinity -10.1651287
REMARK  5 active torsions:
REMARK  status: ('A' for Active; 'I' for Inactive)
REMARK    1  A    between atoms: C3_3  and  C4_4 
REMARK    2  A    between atoms: C4_4  and  C5_5 
REMARK    3  A    between atoms: C5_5  and  C6_6 
REMARK       I    between atoms: C6_6  and  N1_8 
REMARK    4  A    between atoms: N1_8  and  C7_9 
REMARK    5  A    between atoms: C7_9  and  C8_10 
ROOT
HETATM    1  C1  UNL     1      -3.676  49.117 -23.951  1.00  0.00     0.050 C 
HETATM    2  C2  UNL     1      -3.302  49.438 -25.377  1.00  0.00    -0.037 A 
HETATM    3  C3  UNL     1      -2.222  50.174 -25.722  1.00  0.00     0.025 A 
HETATM    4  C13 UNL     1      -1.929  50.511 -27.147  1.00  0.00     0.295 A 
HETATM    5  O2  UNL     1      -0.984  51.228 -27.455  1.00  0.00    -0.259 OA
HETATM    6  O3  UNL     1      -2.780  50.005 -28.111  1.00  0.00    -0.274 OA
HETATM    7  C14 UNL     1      -3.890  49.222 -27.768  1.00  0.00     0.093 A 
HETATM    8  C15 UNL     1      -4.676  48.774 -28.830  1.00  0.00     0.075 A 
HETATM    9  C16 UNL     1      -5.798  47.996 -28.572  1.00  0.00     0.079 A 
HETATM   10  C17 UNL     1      -6.116  47.645 -27.259  1.00  0.00    -0.024 A 
HETATM   11  C18 UNL     1      -5.312  48.117 -26.203  1.00  0.00     0.024 A 
HETATM   12  C19 UNL     1      -4.184  48.919 -26.443  1.00  0.00     0.005 A 
HETATM   13  C20 UNL     1      -7.316  46.796 -26.961  1.00  0.00     0.044 C 
HETATM   14  C21 UNL     1      -7.792  46.085 -28.220  1.00  0.00     0.043 C 
HETATM   15  C22 UNL     1      -7.823  47.035 -29.430  1.00  0.00     0.068 C 
HETATM   16  C23 UNL     1      -8.167  46.203 -30.695  1.00  0.00     0.038 C 
HETATM   17  C24 UNL     1      -8.857  46.997 -31.812  1.00  0.00     0.003 C 
HETATM   18  C25 UNL     1      -8.488  48.471 -31.800  1.00  0.00     0.000 C 
HETATM   19  C26 UNL     1      -8.857  49.135 -30.474  1.00  0.00     0.003 C 
HETATM   20  C27 UNL     1      -8.850  48.175 -29.277  1.00  0.00     0.038 C 
HETATM   21  O4  UNL     1      -6.516  47.600 -29.664  1.00  0.00    -0.340 OA
ENDROOT
BRANCH   3  22
HETATM   22  C4  UNL     1      -1.193  50.714 -24.748  1.00  0.00     0.055 C 
BRANCH  22  23
HETATM   23  C5  UNL     1      -0.038  51.413 -25.464  1.00  0.00     0.107 C 
BRANCH  23  24
HETATM   24  C6  UNL     1       0.538  52.540 -24.630  1.00  0.00     0.218 C 
HETATM   25  O1  UNL     1       1.001  53.569 -25.109  1.00  0.00    -0.274 OA
HETATM   26  N1  UNL     1       0.535  52.265 -23.281  1.00  0.00    -0.357 N 
HETATM   27  H8  UNL     1      -0.029  51.494 -22.947  1.00  0.00     0.162 HD
BRANCH  26  28
HETATM   28  C7  UNL     1       0.960  53.250 -22.311  1.00  0.00     0.162 C 
BRANCH  28  29
HETATM   29  C8  UNL     1       0.670  52.796 -20.912  1.00  0.00    -0.025 A 
HETATM   30  C9  UNL     1       0.033  51.578 -20.649  1.00  0.00     0.011 A 
HETATM   31  C10 UNL     1      -0.230  51.207 -19.333  1.00  0.00     0.018 A 
HETATM   32  C11 UNL     1       0.149  52.072 -18.318  1.00  0.00     0.087 A 
HETATM   33  N2  UNL     1       0.758  53.257 -18.532  1.00  0.00    -0.375 N 
HETATM   34  C12 UNL     1       0.997  53.597 -19.820  1.00  0.00     0.096 A 
ATOM     35  H2  UNL     1       1.025  53.867 -17.759  1.00  0.00     0.164 HD
ENDBRANCH  28  29
ENDBRANCH  26  28
ENDBRANCH  23  24
ENDBRANCH  22  23
ENDBRANCH   3  22
TORSDOF 5
ENDMDL
MODEL 2
REMARK minimizedAffinity -9.94056034
REMARK  5 active torsions:
REMARK  status: ('A' for Active; 'I' for Inactive)
REMARK    1  A    between atoms: C3_3  and  C4_4 
REMARK    2  A    between atoms: C4_4  and  C5_5 
REMARK    3  A    between atoms: C5_5  and  C6_6 
REMARK       I    between atoms: C6_6  and  N1_8 
REMARK    4  A    between atoms: N1_8  and  C7_9 
REMARK    5  A    between atoms: C7_9  and  C8_10 
ROOT
HETATM    1  C1  UNL     1      -1.837  49.692 -26.174  1.00  0.00     0.050 C 
HETATM    2  C2  UNL     1      -3.030  49.228 -25.375  1.00  0.00    -0.037 A 
HETATM    3  C3  UNL     1      -3.096  49.277 -24.026  1.00  0.00     0.025 A 
HETATM    4  C13 UNL     1      -4.278  48.751 -23.282  1.00  0.00     0.295 A 
HETATM    5  O2  UNL     1      -4.312  48.740 -22.056  1.00  0.00    -0.259 OA
HETATM    6  O3  UNL     1      -5.328  48.248 -24.025  1.00  0.00    -0.274 OA
HETATM    7  C14 UNL     1      -5.282  48.211 -25.425  1.00  0.00     0.093 A 
HETATM    8  C15 UNL     1      -6.403  47.676 -26.062  1.00  0.00     0.075 A 
HETATM    9  C16 UNL     1      -6.431  47.601 -27.449  1.00  0.00     0.079 A 
HETATM   10  C17 UNL     1      -5.356  48.085 -28.196  1.00  0.00    -0.024 A 
HETATM   11  C18 UNL     1      -4.232  48.611 -27.529  1.00  0.00     0.024 A 
HETATM   12  C19 UNL     1      -4.177  48.680 -26.127  1.00  0.00     0.005 A 
HETATM   13  C20 UNL     1      -5.374  48.023 -29.694  1.00  0.00     0.044 C 
HETATM   14  C21 UNL     1      -6.791  47.802 -30.202  1.00  0.00     0.043 C 
HETATM   15  C22 UNL     1      -7.519  46.713 -29.395  1.00  0.00     0.068 C 
HETATM   16  C23 UNL     1      -8.997  46.657 -29.871  1.00  0.00     0.038 C 
HETATM   17  C24 UNL     1      -9.675  45.294 -29.687  1.00  0.00     0.003 C 
HETATM   18  C25 UNL     1      -9.090  44.497 -28.532  1.00  0.00     0.000 C 
HETATM   19  C26 UNL     1      -7.596  44.241 -28.723  1.00  0.00     0.003 C 
HETATM   20  C27 UNL     1      -6.883  45.317 -29.552  1.00  0.00     0.038 C 
HETATM   21  O4  UNL     1      -7.561  47.063 -27.995  1.00  0.00    -0.340 OA
ENDROOT
BRANCH   3  22
HETATM   22  C4  UNL     1      -2.029  49.872 -23.126  1.00  0.00     0.055 C 
BRANCH  22  23
HETATM   23  C5  UNL     1      -2.373  51.298 -22.696  1.00  0.00     0.107 C 
BRANCH  23  24
HETATM   24  C6  UNL     1      -1.872  52.320 -23.696  1.00  0.00     0.218 C 
HETATM   25  O1  UNL     1      -2.612  52.986 -24.413  1.00  0.00    -0.274 OA
HETATM   26  N1  UNL     1      -0.498  52.387 -23.754  1.00  0.00    -0.357 N 
HETATM   27  H8  UNL     1       0.038  51.957 -23.011  1.00  0.00     0.162 HD
BRANCH  26  28
HETATM   28  C7  UNL     1       0.174  53.365 -24.581  1.00  0.00     0.162 C 
BRANCH  28  29
HETATM   29  C8  UNL     1       0.490  52.805 -25.936  1.00  0.00    -0.025 A 
HETATM   30  C9  UNL     1       1.559  51.926 -26.139  1.00  0.00     0.011 A 
HETATM   31  C10 UNL     1       1.823  51.446 -27.420  1.00  0.00     0.018 A 
HETATM   32  C11 UNL     1       1.010  51.867 -28.460  1.00  0.00     0.087 A 
HETATM   33  N2  UNL     1      -0.024  52.719 -28.305  1.00  0.00    -0.375 N 
HETATM   34  C12 UNL     1      -0.257  53.176 -27.053  1.00  0.00     0.096 A 
ATOM     35  H2  UNL     1      -0.604  53.005 -29.095  1.00  0.00     0.164 HD
ENDBRANCH  28  29
ENDBRANCH  26  28
ENDBRANCH  23  24
ENDBRANCH  22  23
ENDBRANCH   3  22
TORSDOF 5
ENDMDL
MODEL 3
REMARK minimizedAffinity -9.91224194
REMARK  5 active torsions:
REMARK  status: ('A' for Active; 'I' for Inactive)
REMARK    1  A    between atoms: C3_3  and  C4_4 
REMARK    2  A    between atoms: C4_4  and  C5_5 
REMARK    3  A    between atoms: C5_5  and  C6_6 
REMARK       I    between atoms: C6_6  and  N1_8 
REMARK    4  A    between atoms: N1_8  and  C7_9 
REMARK    5  A    between atoms: C7_9  and  C8_10 
ROOT
HETATM    1  C1  UNL     1      -5.111  48.480 -23.412  1.00  0.00     0.050 C 
HETATM    2  C2  UNL     1      -4.399  48.661 -24.730  1.00  0.00    -0.037 A 
HETATM    3  C3  UNL     1      -3.151  49.167 -24.846  1.00  0.00     0.025 A 
HETATM    4  C13 UNL     1      -2.515  49.379 -26.180  1.00  0.00     0.295 A 
HETATM    5  O2  UNL     1      -1.406  49.893 -26.288  1.00  0.00    -0.259 OA
HETATM    6  O3  UNL     1      -3.231  48.997 -27.297  1.00  0.00    -0.274 OA
HETATM    7  C14 UNL     1      -4.517  48.451 -27.190  1.00  0.00     0.093 A 
HETATM    8  C15 UNL     1      -5.141  48.110 -28.391  1.00  0.00     0.075 A 
HETATM    9  C16 UNL     1      -6.420  47.567 -28.368  1.00  0.00     0.079 A 
HETATM   10  C17 UNL     1      -7.060  47.341 -27.149  1.00  0.00    -0.024 A 
HETATM   11  C18 UNL     1      -6.413  47.703 -25.951  1.00  0.00     0.024 A 
HETATM   12  C19 UNL     1      -5.128  48.269 -25.954  1.00  0.00     0.005 A 
HETATM   13  C20 UNL     1      -8.436  46.745 -27.104  1.00  0.00     0.044 C 
HETATM   14  C21 UNL     1      -8.772  46.079 -28.431  1.00  0.00     0.043 C 
HETATM   15  C22 UNL     1      -8.373  46.963 -29.626  1.00  0.00     0.068 C 
HETATM   16  C23 UNL     1      -8.605  46.154 -30.931  1.00  0.00     0.038 C 
HETATM   17  C24 UNL     1      -8.887  47.012 -32.171  1.00  0.00     0.003 C 
HETATM   18  C25 UNL     1      -8.252  48.391 -32.090  1.00  0.00     0.000 C 
HETATM   19  C26 UNL     1      -8.750  49.170 -30.873  1.00  0.00     0.003 C 
HETATM   20  C27 UNL     1      -9.172  48.281 -29.696  1.00  0.00     0.038 C 
HETATM   21  O4  UNL     1      -6.962  47.264 -29.584  1.00  0.00    -0.340 OA
ENDROOT
BRANCH   3  22
HETATM   22  C4  UNL     1      -2.258  49.549 -23.681  1.00  0.00     0.055 C 
BRANCH  22  23
HETATM   23  C5  UNL     1      -2.637  50.907 -23.092  1.00  0.00     0.107 C 
BRANCH  23  24
HETATM   24  C6  UNL     1      -1.974  52.046 -23.840  1.00  0.00     0.218 C 
HETATM   25  O1  UNL     1      -2.595  52.958 -24.375  1.00  0.00    -0.274 OA
HETATM   26  N1  UNL     1      -0.604  51.923 -23.902  1.00  0.00    -0.357 N 
HETATM   27  H8  UNL     1      -0.150  51.262 -23.284  1.00  0.00     0.162 HD
BRANCH  26  28
HETATM   28  C7  UNL     1       0.218  52.954 -24.496  1.00  0.00     0.162 C 
BRANCH  28  29
HETATM   29  C8  UNL     1       0.561  52.625 -25.918  1.00  0.00    -0.025 A 
HETATM   30  C9  UNL     1       1.676  51.847 -26.246  1.00  0.00     0.011 A 
HETATM   31  C10 UNL     1       1.962  51.583 -27.584  1.00  0.00     0.018 A 
HETATM   32  C11 UNL     1       1.125  52.112 -28.552  1.00  0.00     0.087 A 
HETATM   33  N2  UNL     1       0.045  52.872 -28.276  1.00  0.00    -0.375 N 
HETATM   34  C12 UNL     1      -0.208  53.120 -26.969  1.00  0.00     0.096 A 
ATOM     35  H2  UNL     1      -0.551  53.243 -29.015  1.00  0.00     0.164 HD
ENDBRANCH  28  29
ENDBRANCH  26  28
ENDBRANCH  23  24
ENDBRANCH  22  23
ENDBRANCH   3  22
TORSDOF 5
ENDMDL
MODEL 4
REMARK minimizedAffinity -9.90630913
REMARK  5 active torsions:
REMARK  status: ('A' for Active; 'I' for Inactive)
REMARK    1  A    between atoms: C3_3  and  C4_4 
REMARK    2  A    between atoms: C4_4  and  C5_5 
REMARK    3  A    between atoms: C5_5  and  C6_6 
REMARK       I    between atoms: C6_6  and  N1_8 
REMARK    4  A    between atoms: N1_8  and  C7_9 
REMARK    5  A    between atoms: C7_9  and  C8_10 
ROOT
HETATM    1  C1  UNL     1       1.037  54.046 -21.095  1.00  0.00     0.050 C 
HETATM    2  C2  UNL     1       0.315  52.740 -20.873  1.00  0.00    -0.037 A 
HETATM    3  C3  UNL     1      -0.414  52.114 -21.822  1.00  0.00     0.025 A 
HETATM    4  C13 UNL     1      -1.157  50.852 -21.532  1.00  0.00     0.295 A 
HETATM    5  O2  UNL     1      -1.867  50.316 -22.376  1.00  0.00    -0.259 OA
HETATM    6  O3  UNL     1      -1.036  50.317 -20.264  1.00  0.00    -0.274 OA
HETATM    7  C14 UNL     1      -0.265  50.944 -19.276  1.00  0.00     0.093 A 
HETATM    8  C15 UNL     1      -0.226  50.310 -18.034  1.00  0.00     0.075 A 
HETATM    9  C16 UNL     1       0.514  50.873 -17.000  1.00  0.00     0.079 A 
HETATM   10  C17 UNL     1       1.233  52.049 -17.218  1.00  0.00    -0.024 A 
HETATM   11  C18 UNL     1       1.169  52.675 -18.478  1.00  0.00     0.024 A 
HETATM   12  C19 UNL     1       0.413  52.131 -19.530  1.00  0.00     0.005 A 
HETATM   13  C20 UNL     1       2.046  52.665 -16.119  1.00  0.00     0.044 C 
HETATM   14  C21 UNL     1       2.295  51.653 -15.009  1.00  0.00     0.043 C 
HETATM   15  C22 UNL     1       1.016  50.875 -14.654  1.00  0.00     0.068 C 
HETATM   16  C23 UNL     1       1.386  49.767 -13.631  1.00  0.00     0.038 C 
HETATM   17  C24 UNL     1       0.239  49.342 -12.707  1.00  0.00     0.003 C 
HETATM   18  C25 UNL     1      -1.130  49.535 -13.341  1.00  0.00     0.000 C 
HETATM   19  C26 UNL     1      -1.372  50.993 -13.729  1.00  0.00     0.003 C 
HETATM   20  C27 UNL     1      -0.089  51.769 -14.055  1.00  0.00     0.038 C 
HETATM   21  O4  UNL     1       0.499  50.194 -15.816  1.00  0.00    -0.340 OA
ENDROOT
BRANCH   3  22
HETATM   22  C4  UNL     1      -0.551  52.581 -23.259  1.00  0.00     0.055 C 
BRANCH  22  23
HETATM   23  C5  UNL     1       0.780  52.526 -24.008  1.00  0.00     0.107 C 
BRANCH  23  24
HETATM   24  C6  UNL     1       0.582  52.237 -25.482  1.00  0.00     0.218 C 
HETATM   25  O1  UNL     1       1.388  52.556 -26.350  1.00  0.00    -0.274 OA
HETATM   26  N1  UNL     1      -0.622  51.626 -25.753  1.00  0.00    -0.357 N 
HETATM   27  H8  UNL     1      -1.143  51.225 -24.984  1.00  0.00     0.162 HD
BRANCH  26  28
HETATM   28  C7  UNL     1      -0.960  51.188 -27.089  1.00  0.00     0.162 C 
BRANCH  28  29
HETATM   29  C8  UNL     1      -2.141  50.263 -27.075  1.00  0.00    -0.025 A 
HETATM   30  C9  UNL     1      -2.274  49.253 -26.117  1.00  0.00     0.011 A 
HETATM   31  C10 UNL     1      -3.380  48.407 -26.156  1.00  0.00     0.018 A 
HETATM   32  C11 UNL     1      -4.317  48.597 -27.159  1.00  0.00     0.087 A 
HETATM   33  N2  UNL     1      -4.220  49.555 -28.104  1.00  0.00    -0.375 N 
HETATM   34  C12 UNL     1      -3.133  50.359 -28.048  1.00  0.00     0.096 A 
ATOM     35  H2  UNL     1      -4.932  49.667 -28.826  1.00  0.00     0.164 HD
ENDBRANCH  28  29
ENDBRANCH  26  28
ENDBRANCH  23  24
ENDBRANCH  22  23
ENDBRANCH   3  22
TORSDOF 5
ENDMDL
MODEL 5
REMARK minimizedAffinity -9.84114742
REMARK  5 active torsions:
REMARK  status: ('A' for Active; 'I' for Inactive)
REMARK    1  A    between atoms: C3_3  and  C4_4 
REMARK    2  A    between atoms: C4_4  and  C5_5 
REMARK    3  A    between atoms: C5_5  and  C6_6 
REMARK       I    between atoms: C6_6  and  N1_8 
REMARK    4  A    between atoms: N1_8  and  C7_9 
REMARK    5  A    between atoms: C7_9  and  C8_10 
ROOT
HETATM    1  C1  UNL     1      -5.369  48.340 -23.225  1.00  0.00     0.050 C 
HETATM    2  C2  UNL     1      -4.612  48.539 -24.515  1.00  0.00    -0.037 A 
HETATM    3  C3  UNL     1      -3.355  49.032 -24.580  1.00  0.00     0.025 A 
HETATM    4  C13 UNL     1      -2.673  49.262 -25.888  1.00  0.00     0.295 A 
HETATM    5  O2  UNL     1      -1.555  49.765 -25.949  1.00  0.00    -0.259 OA
HETATM    6  O3  UNL     1      -3.357  48.912 -27.035  1.00  0.00    -0.274 OA
HETATM    7  C14 UNL     1      -4.652  48.381 -26.982  1.00  0.00     0.093 A 
HETATM    8  C15 UNL     1      -5.240  48.071 -28.209  1.00  0.00     0.075 A 
HETATM    9  C16 UNL     1      -6.526  47.544 -28.239  1.00  0.00     0.079 A 
HETATM   10  C17 UNL     1      -7.208  47.301 -27.045  1.00  0.00    -0.024 A 
HETATM   11  C18 UNL     1      -6.596  47.631 -25.820  1.00  0.00     0.024 A 
HETATM   12  C19 UNL     1      -5.305  48.181 -25.770  1.00  0.00     0.005 A 
HETATM   13  C20 UNL     1      -8.591  46.721 -27.058  1.00  0.00     0.044 C 
HETATM   14  C21 UNL     1      -8.891  46.086 -28.408  1.00  0.00     0.043 C 
HETATM   15  C22 UNL     1      -8.443  46.990 -29.571  1.00  0.00     0.068 C 
HETATM   16  C23 UNL     1      -8.642  46.210 -30.899  1.00  0.00     0.038 C 
HETATM   17  C24 UNL     1      -8.873  47.095 -32.130  1.00  0.00     0.003 C 
HETATM   18  C25 UNL     1      -8.225  48.464 -32.000  1.00  0.00     0.000 C 
HETATM   19  C26 UNL     1      -8.753  49.225 -30.785  1.00  0.00     0.003 C 
HETATM   20  C27 UNL     1      -9.224  48.318 -29.641  1.00  0.00     0.038 C 
HETATM   21  O4  UNL     1      -7.031  47.271 -29.478  1.00  0.00    -0.340 OA
ENDROOT
BRANCH   3  22
HETATM   22  C4  UNL     1      -2.496  49.379 -23.379  1.00  0.00     0.055 C 
BRANCH  22  23
HETATM   23  C5  UNL     1      -2.403  48.219 -22.387  1.00  0.00     0.107 C 
BRANCH  23  24
HETATM   24  C6  UNL     1      -1.376  48.488 -21.306  1.00  0.00     0.218 C 
HETATM   25  O1  UNL     1      -0.576  47.649 -20.907  1.00  0.00    -0.274 OA
HETATM   26  N1  UNL     1      -1.468  49.758 -20.782  1.00  0.00    -0.357 N 
HETATM   27  H8  UNL     1      -2.012  50.449 -21.283  1.00  0.00     0.162 HD
BRANCH  26  28
HETATM   28  C7  UNL     1      -0.518  50.239 -19.803  1.00  0.00     0.162 C 
BRANCH  28  29
HETATM   29  C8  UNL     1      -0.000  51.598 -20.169  1.00  0.00    -0.025 A 
HETATM   30  C9  UNL     1       0.508  51.874 -21.443  1.00  0.00     0.011 A 
HETATM   31  C10 UNL     1       0.993  53.148 -21.730  1.00  0.00     0.018 A 
HETATM   32  C11 UNL     1       0.960  54.105 -20.729  1.00  0.00     0.087 A 
HETATM   33  N2  UNL     1       0.485  53.875 -19.488  1.00  0.00    -0.375 N 
HETATM   34  C12 UNL     1       0.025  52.628 -19.231  1.00  0.00     0.096 A 
ATOM     35  H2  UNL     1       0.473  54.606 -18.776  1.00  0.00     0.164 HD
ENDBRANCH  28  29
ENDBRANCH  26  28
ENDBRANCH  23  24
ENDBRANCH  22  23
ENDBRANCH   3  22
TORSDOF 5
ENDMDL
MODEL 6
REMARK minimizedAffinity -9.82867622
REMARK  5 active torsions:
REMARK  status: ('A' for Active; 'I' for Inactive)
REMARK    1  A    between atoms: C3_3  and  C4_4 
REMARK    2  A    between atoms: C4_4  and  C5_5 
REMARK    3  A    between atoms: C5_5  and  C6_6 
REMARK       I    between atoms: C6_6  and  N1_8 
REMARK    4  A    between atoms: N1_8  and  C7_9 
REMARK    5  A    between atoms: C7_9  and  C8_10 
ROOT
HETATM    1  C1  UNL     1      -0.857  51.024 -22.607  1.00  0.00     0.050 C 
HETATM    2  C2  UNL     1      -0.119  51.945 -21.667  1.00  0.00    -0.037 A 
HETATM    3  C3  UNL     1       0.602  53.013 -22.074  1.00  0.00     0.025 A 
HETATM    4  C13 UNL     1       1.360  53.859 -21.105  1.00  0.00     0.295 A 
HETATM    5  O2  UNL     1       2.063  54.792 -21.481  1.00  0.00    -0.259 OA
HETATM    6  O3  UNL     1       1.265  53.537 -19.765  1.00  0.00    -0.274 OA
HETATM    7  C14 UNL     1       0.504  52.445 -19.328  1.00  0.00     0.093 A 
HETATM    8  C15 UNL     1       0.491  52.219 -17.951  1.00  0.00     0.075 A 
HETATM    9  C16 UNL     1      -0.238  51.152 -17.439  1.00  0.00     0.079 A 
HETATM   10  C17 UNL     1      -0.972  50.333 -18.298  1.00  0.00    -0.024 A 
HETATM   11  C18 UNL     1      -0.934  50.576 -19.685  1.00  0.00     0.024 A 
HETATM   12  C19 UNL     1      -0.190  51.639 -20.223  1.00  0.00     0.005 A 
HETATM   13  C20 UNL     1      -1.774  49.184 -17.763  1.00  0.00     0.044 C 
HETATM   14  C21 UNL     1      -1.995  49.340 -16.265  1.00  0.00     0.043 C 
HETATM   15  C22 UNL     1      -0.703  49.758 -15.542  1.00  0.00     0.068 C 
HETATM   16  C23 UNL     1      -1.046  50.044 -14.054  1.00  0.00     0.038 C 
HETATM   17  C24 UNL     1       0.120  49.840 -13.080  1.00  0.00     0.003 C 
HETATM   18  C25 UNL     1       1.476  50.062 -13.730  1.00  0.00     0.000 C 
HETATM   19  C26 UNL     1       1.698  49.119 -14.911  1.00  0.00     0.003 C 
HETATM   20  C27 UNL     1       0.403  48.685 -15.610  1.00  0.00     0.038 C 
HETATM   21  O4  UNL     1      -0.198  50.997 -16.083  1.00  0.00    -0.340 OA
ENDROOT
BRANCH   3  22
HETATM   22  C4  UNL     1       0.711  53.490 -23.510  1.00  0.00     0.055 C 
BRANCH  22  23
HETATM   23  C5  UNL     1       0.771  52.324 -24.496  1.00  0.00     0.107 C 
BRANCH  23  24
HETATM   24  C6  UNL     1      -0.291  52.444 -25.571  1.00  0.00     0.218 C 
HETATM   25  O1  UNL     1      -0.917  53.475 -25.793  1.00  0.00    -0.274 OA
HETATM   26  N1  UNL     1      -0.517  51.261 -26.238  1.00  0.00    -0.357 N 
HETATM   27  H8  UNL     1       0.159  50.514 -26.138  1.00  0.00     0.162 HD
BRANCH  26  28
HETATM   28  C7  UNL     1      -1.428  51.191 -27.359  1.00  0.00     0.162 C 
BRANCH  28  29
HETATM   29  C8  UNL     1      -2.514  50.186 -27.115  1.00  0.00    -0.025 A 
HETATM   30  C9  UNL     1      -2.576  49.441 -25.933  1.00  0.00     0.011 A 
HETATM   31  C10 UNL     1      -3.595  48.506 -25.759  1.00  0.00     0.018 A 
HETATM   32  C11 UNL     1      -4.517  48.343 -26.780  1.00  0.00     0.087 A 
HETATM   33  N2  UNL     1      -4.486  49.037 -27.937  1.00  0.00    -0.375 N 
HETATM   34  C12 UNL     1      -3.483  49.934 -28.083  1.00  0.00     0.096 A 
ATOM     35  H2  UNL     1      -5.185  48.892 -28.666  1.00  0.00     0.164 HD
ENDBRANCH  28  29
ENDBRANCH  26  28
ENDBRANCH  23  24
ENDBRANCH  22  23
ENDBRANCH   3  22
TORSDOF 5
ENDMDL
MODEL 7
REMARK minimizedAffinity -9.65407562
REMARK  5 active torsions:
REMARK  status: ('A' for Active; 'I' for Inactive)
REMARK    1  A    between atoms: C3_3  and  C4_4 
REMARK    2  A    between atoms: C4_4  and  C5_5 
REMARK    3  A    between atoms: C5_5  and  C6_6 
REMARK       I    between atoms: C6_6  and  N1_8 
REMARK    4  A    between atoms: N1_8  and  C7_9 
REMARK    5  A    between atoms: C7_9  and  C8_10 
ROOT
HETATM    1  C1  UNL     1      -2.176  49.150 -26.061  1.00  0.00     0.050 C 
HETATM    2  C2  UNL     1      -3.508  48.768 -25.464  1.00  0.00    -0.037 A 
HETATM    3  C3  UNL     1      -3.769  48.783 -24.139  1.00  0.00     0.025 A 
HETATM    4  C13 UNL     1      -5.087  48.340 -23.596  1.00  0.00     0.295 A 
HETATM    5  O2  UNL     1      -5.303  48.297 -22.389  1.00  0.00    -0.259 OA
HETATM    6  O3  UNL     1      -6.054  47.954 -24.504  1.00  0.00    -0.274 OA
HETATM    7  C14 UNL     1      -5.804  47.954 -25.883  1.00  0.00     0.093 A 
HETATM    8  C15 UNL     1      -6.858  47.537 -26.698  1.00  0.00     0.075 A 
HETATM    9  C16 UNL     1      -6.687  47.505 -28.076  1.00  0.00     0.079 A 
HETATM   10  C17 UNL     1      -5.476  47.915 -28.638  1.00  0.00    -0.024 A 
HETATM   11  C18 UNL     1      -4.425  48.322 -27.794  1.00  0.00     0.024 A 
HETATM   12  C19 UNL     1      -4.573  48.345 -26.398  1.00  0.00     0.005 A 
HETATM   13  C20 UNL     1      -5.277  47.899 -30.124  1.00  0.00     0.044 C 
HETATM   14  C21 UNL     1      -6.617  47.818 -30.841  1.00  0.00     0.043 C 
HETATM   15  C22 UNL     1      -7.544  46.772 -30.195  1.00  0.00     0.068 C 
HETATM   16  C23 UNL     1      -8.934  46.860 -30.882  1.00  0.00     0.038 C 
HETATM   17  C24 UNL     1      -9.741  45.556 -30.855  1.00  0.00     0.003 C 
HETATM   18  C25 UNL     1      -9.401  44.677 -29.662  1.00  0.00     0.000 C 
HETATM   19  C26 UNL     1      -7.921  44.298 -29.645  1.00  0.00     0.003 C 
HETATM   20  C27 UNL     1      -7.007  45.332 -30.316  1.00  0.00     0.038 C 
HETATM   21  O4  UNL     1      -7.763  47.084 -28.802  1.00  0.00    -0.340 OA
ENDROOT
BRANCH   3  22
HETATM   22  C4  UNL     1      -2.802  49.256 -23.070  1.00  0.00     0.055 C 
BRANCH  22  23
HETATM   23  C5  UNL     1      -2.157  48.088 -22.324  1.00  0.00     0.107 C 
BRANCH  23  24
HETATM   24  C6  UNL     1      -1.331  48.564 -21.146  1.00  0.00     0.218 C 
HETATM   25  O1  UNL     1      -0.504  47.864 -20.571  1.00  0.00    -0.274 OA
HETATM   26  N1  UNL     1      -1.641  49.848 -20.755  1.00  0.00    -0.357 N 
HETATM   27  H8  UNL     1      -2.184  50.425 -21.384  1.00  0.00     0.162 HD
BRANCH  26  28
HETATM   28  C7  UNL     1      -0.900  50.515 -19.708  1.00  0.00     0.162 C 
BRANCH  28  29
HETATM   29  C8  UNL     1      -0.195  51.731 -20.231  1.00  0.00    -0.025 A 
HETATM   30  C9  UNL     1       0.184  51.842 -21.572  1.00  0.00     0.011 A 
HETATM   31  C10 UNL     1       0.853  52.984 -22.008  1.00  0.00     0.018 A 
HETATM   32  C11 UNL     1       1.126  53.979 -21.082  1.00  0.00     0.087 A 
HETATM   33  N2  UNL     1       0.783  53.904 -19.779  1.00  0.00    -0.375 N 
HETATM   34  C12 UNL     1       0.140  52.782 -19.380  1.00  0.00     0.096 A 
ATOM     35  H2  UNL     1       0.998  54.658 -19.126  1.00  0.00     0.164 HD
ENDBRANCH  28  29
ENDBRANCH  26  28
ENDBRANCH  23  24
ENDBRANCH  22  23
ENDBRANCH   3  22
TORSDOF 5
ENDMDL
MODEL 8
REMARK minimizedAffinity -9.62408352
REMARK  5 active torsions:
REMARK  status: ('A' for Active; 'I' for Inactive)
REMARK    1  A    between atoms: C3_3  and  C4_4 
REMARK    2  A    between atoms: C4_4  and  C5_5 
REMARK    3  A    between atoms: C5_5  and  C6_6 
REMARK       I    between atoms: C6_6  and  N1_8 
REMARK    4  A    between atoms: N1_8  and  C7_9 
REMARK    5  A    between atoms: C7_9  and  C8_10 
ROOT
HETATM    1  C1  UNL     1       0.772  52.288 -18.188  1.00  0.00     0.050 C 
HETATM    2  C2  UNL     1      -0.131  51.394 -19.002  1.00  0.00    -0.037 A 
HETATM    3  C3  UNL     1      -0.851  50.377 -18.479  1.00  0.00     0.025 A 
HETATM    4  C13 UNL     1      -1.685  49.486 -19.339  1.00  0.00     0.295 A 
HETATM    5  O2  UNL     1      -2.291  48.527 -18.873  1.00  0.00    -0.259 OA
HETATM    6  O3  UNL     1      -1.731  49.765 -20.691  1.00  0.00    -0.274 OA
HETATM    7  C14 UNL     1      -1.006  50.830 -21.244  1.00  0.00     0.093 A 
HETATM    8  C15 UNL     1      -1.130  51.006 -22.623  1.00  0.00     0.075 A 
HETATM    9  C16 UNL     1      -0.439  52.038 -23.246  1.00  0.00     0.079 A 
HETATM   10  C17 UNL     1       0.350  52.905 -22.489  1.00  0.00    -0.024 A 
HETATM   11  C18 UNL     1       0.467  52.701 -21.101  1.00  0.00     0.024 A 
HETATM   12  C19 UNL     1      -0.210  51.653 -20.455  1.00  0.00     0.005 A 
HETATM   13  C20 UNL     1       1.094  54.032 -23.143  1.00  0.00     0.044 C 
HETATM   14  C21 UNL     1       0.530  54.311 -24.528  1.00  0.00     0.043 C 
HETATM   15  C22 UNL     1       0.291  53.010 -25.315  1.00  0.00     0.068 C 
HETATM   16  C23 UNL     1      -0.423  53.368 -26.647  1.00  0.00     0.038 C 
HETATM   17  C24 UNL     1      -0.172  52.379 -27.792  1.00  0.00     0.003 C 
HETATM   18  C25 UNL     1       0.120  50.971 -27.299  1.00  0.00     0.000 C 
HETATM   19  C26 UNL     1       1.346  50.934 -26.387  1.00  0.00     0.003 C 
HETATM   20  C27 UNL     1       1.593  52.244 -25.627  1.00  0.00     0.038 C 
HETATM   21  O4  UNL     1      -0.611  52.142 -24.596  1.00  0.00    -0.340 OA
ENDROOT
BRANCH   3  22
HETATM   22  C4  UNL     1      -0.923  50.035 -17.003  1.00  0.00     0.055 C 
BRANCH  22  23
HETATM   23  C5  UNL     1      -2.145  50.660 -16.329  1.00  0.00     0.107 C 
BRANCH  23  24
HETATM   24  C6  UNL     1      -2.303  50.179 -14.901  1.00  0.00     0.218 C 
HETATM   25  O1  UNL     1      -1.744  49.183 -14.455  1.00  0.00    -0.274 OA
HETATM   26  N1  UNL     1      -3.182  50.947 -14.170  1.00  0.00    -0.357 N 
HETATM   27  H8  UNL     1      -3.453  51.850 -14.537  1.00  0.00     0.162 HD
BRANCH  26  28
HETATM   28  C7  UNL     1      -3.401  50.705 -12.761  1.00  0.00     0.162 C 
BRANCH  28  29
HETATM   29  C8  UNL     1      -3.128  51.936 -11.950  1.00  0.00    -0.025 A 
HETATM   30  C9  UNL     1      -4.137  52.580 -11.226  1.00  0.00     0.011 A 
HETATM   31  C10 UNL     1      -3.839  53.731 -10.500  1.00  0.00     0.018 A 
HETATM   32  C11 UNL     1      -2.537  54.205 -10.527  1.00  0.00     0.087 A 
HETATM   33  N2  UNL     1      -1.539  53.617 -11.218  1.00  0.00    -0.375 N 
HETATM   34  C12 UNL     1      -1.856  52.504 -11.920  1.00  0.00     0.096 A 
ATOM     35  H2  UNL     1      -0.591  53.993 -11.213  1.00  0.00     0.164 HD
ENDBRANCH  28  29
ENDBRANCH  26  28
ENDBRANCH  23  24
ENDBRANCH  22  23
ENDBRANCH   3  22
TORSDOF 5
ENDMDL
MODEL 9
REMARK minimizedAffinity -9.54568958
REMARK  5 active torsions:
REMARK  status: ('A' for Active; 'I' for Inactive)
REMARK    1  A    between atoms: C3_3  and  C4_4 
REMARK    2  A    between atoms: C4_4  and  C5_5 
REMARK    3  A    between atoms: C5_5  and  C6_6 
REMARK       I    between atoms: C6_6  and  N1_8 
REMARK    4  A    between atoms: N1_8  and  C7_9 
REMARK    5  A    between atoms: C7_9  and  C8_10 
ROOT
HETATM    1  C1  UNL     1      -0.745  49.760 -20.649  1.00  0.00     0.050 C 
HETATM    2  C2  UNL     1      -0.167  50.993 -19.998  1.00  0.00    -0.037 A 
HETATM    3  C3  UNL     1       0.116  52.132 -20.667  1.00  0.00     0.025 A 
HETATM    4  C13 UNL     1       0.740  53.304 -19.985  1.00  0.00     0.295 A 
HETATM    5  O2  UNL     1       1.052  54.316 -20.605  1.00  0.00    -0.259 OA
HETATM    6  O3  UNL     1       0.980  53.200 -18.629  1.00  0.00    -0.274 OA
HETATM    7  C14 UNL     1       0.672  52.032 -17.919  1.00  0.00     0.093 A 
HETATM    8  C15 UNL     1       0.966  52.048 -16.555  1.00  0.00     0.075 A 
HETATM    9  C16 UNL     1       0.693  50.925 -15.782  1.00  0.00     0.079 A 
HETATM   10  C17 UNL     1       0.103  49.804 -16.367  1.00  0.00    -0.024 A 
HETATM   11  C18 UNL     1      -0.176  49.809 -17.747  1.00  0.00     0.024 A 
HETATM   12  C19 UNL     1       0.109  50.928 -18.548  1.00  0.00     0.005 A 
HETATM   13  C20 UNL     1      -0.210  48.588 -15.547  1.00  0.00     0.044 C 
HETATM   14  C21 UNL     1      -0.206  48.929 -14.064  1.00  0.00     0.043 C 
HETATM   15  C22 UNL     1       1.006  49.800 -13.686  1.00  0.00     0.068 C 
HETATM   16  C23 UNL     1       0.855  50.229 -12.201  1.00  0.00     0.038 C 
HETATM   17  C24 UNL     1       2.180  50.519 -11.484  1.00  0.00     0.003 C 
HETATM   18  C25 UNL     1       3.271  50.990 -12.431  1.00  0.00     0.000 C 
HETATM   19  C26 UNL     1       3.559  49.957 -13.520  1.00  0.00     0.003 C 
HETATM   20  C27 UNL     1       2.354  49.074 -13.870  1.00  0.00     0.038 C 
HETATM   21  O4  UNL     1       1.012  51.019 -14.458  1.00  0.00    -0.340 OA
ENDROOT
BRANCH   3  22
HETATM   22  C4  UNL     1      -0.174  52.370 -22.137  1.00  0.00     0.055 C 
BRANCH  22  23
HETATM   23  C5  UNL     1      -1.657  52.191 -22.464  1.00  0.00     0.107 C 
BRANCH  23  24
HETATM   24  C6  UNL     1      -1.891  52.078 -23.957  1.00  0.00     0.218 C 
HETATM   25  O1  UNL     1      -2.532  52.896 -24.607  1.00  0.00    -0.274 OA
HETATM   26  N1  UNL     1      -1.352  50.932 -24.500  1.00  0.00    -0.357 N 
HETATM   27  H8  UNL     1      -0.681  50.408 -23.952  1.00  0.00     0.162 HD
BRANCH  26  28
HETATM   28  C7  UNL     1      -1.390  50.684 -25.924  1.00  0.00     0.162 C 
BRANCH  28  29
HETATM   29  C8  UNL     1      -0.109  51.102 -26.583  1.00  0.00    -0.025 A 
HETATM   30  C9  UNL     1      -0.078  51.571 -27.900  1.00  0.00     0.011 A 
HETATM   31  C10 UNL     1       1.139  51.932 -28.475  1.00  0.00     0.018 A 
HETATM   32  C11 UNL     1       2.289  51.806 -27.712  1.00  0.00     0.087 A 
HETATM   33  N2  UNL     1       2.300  51.351 -26.442  1.00  0.00    -0.375 N 
HETATM   34  C12 UNL     1       1.106  51.001 -25.909  1.00  0.00     0.096 A 
ATOM     35  H2  UNL     1       3.166  51.273 -25.909  1.00  0.00     0.164 HD
ENDBRANCH  28  29
ENDBRANCH  26  28
ENDBRANCH  23  24
ENDBRANCH  22  23
ENDBRANCH   3  22
TORSDOF 5
ENDMDL
