MODEL 1
REMARK minimizedAffinity -10.0090418
REMARK CNNscore 0.848238707
REMARK CNNaffinity 7.78209829
REMARK  11 active torsions:
REMARK  status: ('A' for Active; 'I' for Inactive)
REMARK    1  A    between atoms: C5_7  and  C6_8 
REMARK    2  A    between atoms: C6_8  and  C7_9 
REMARK    3  A    between atoms: C7_9  and  O3_10 
REMARK    4  A    between atoms: C7_9  and  C15_19 
REMARK    5  A    between atoms: O3_10  and  C8_11 
REMARK    6  A    between atoms: C8_11  and  C9_13 
REMARK    7  A    between atoms: C15_19  and  O5_21 
REMARK    8  A    between atoms: C15_19  and  C17_22 
REMARK    9  A    between atoms: C20_25  and  O6_26 
REMARK   10  A    between atoms: C26_33  and  O8_34 
REMARK   11  A    between atoms: C27_35  and  O9_36 
ROOT
HETATM    1  C17 UNL     1      -6.645   6.932  14.476  1.00  0.00     0.034 C 
HETATM    2  C18 UNL     1      -6.783   8.414  14.851  1.00  0.00     0.012 C 
HETATM    3  C19 UNL     1      -5.476   9.006  14.347  1.00  0.00     0.044 C 
HETATM    4  C20 UNL     1      -4.411   8.021  14.851  1.00  0.00     0.089 C 
HETATM    5  C21 UNL     1      -3.104   7.972  14.072  1.00  0.00    -0.037 C 
HETATM    6  C22 UNL     1      -2.758   8.850  13.117  1.00  0.00     0.057 C 
HETATM    7  C23 UNL     1      -1.529   8.695  12.310  1.00  0.00     0.154 C 
HETATM    8  O7  UNL     1      -1.319   9.510  11.412  1.00  0.00    -0.293 OA
HETATM    9  C24 UNL     1      -0.598   7.521  12.566  1.00  0.00     0.071 C 
HETATM   10  C25 UNL     1      -0.747   6.510  11.422  1.00  0.00     0.047 C 
HETATM   11  C26 UNL     1      -0.016   5.186  11.655  1.00  0.00     0.147 C 
HETATM   12  C27 UNL     1       0.854   5.172  12.917  1.00  0.00     0.147 C 
HETATM   13  C28 UNL     1       0.050   5.578  14.150  1.00  0.00     0.044 C 
HETATM   14  C29 UNL     1      -0.735   6.923  13.996  1.00  0.00    -0.023 C 
HETATM   15  C30 UNL     1      -0.068   7.940  14.978  1.00  0.00     0.016 C 
HETATM   16  C31 UNL     1      -2.242   6.776  14.429  1.00  0.00     0.027 C 
HETATM   17  C32 UNL     1      -2.984   5.501  13.968  1.00  0.00     0.011 C 
HETATM   18  C33 UNL     1      -4.509   5.661  13.842  1.00  0.00     0.014 C 
HETATM   19  C34 UNL     1      -5.146   6.607  14.900  1.00  0.00    -0.002 C 
HETATM   20  C35 UNL     1      -5.018   5.967  16.299  1.00  0.00     0.019 C 
ENDROOT
BRANCH   1  21
HETATM   21  C15 UNL     1      -7.846   6.052  14.961  1.00  0.00     0.085 C 
HETATM   22  C16 UNL     1      -7.362   4.878  15.829  1.00  0.00     0.049 C 
BRANCH  21  23
HETATM   23  C7  UNL     1      -8.714   5.501  13.757  1.00  0.00     0.167 C 
BRANCH  23  24
HETATM   24  C6  UNL     1      -9.622   6.557  13.084  1.00  0.00     0.043 C 
BRANCH  24  25
HETATM   25  C5  UNL     1     -10.646   7.190  14.062  1.00  0.00     0.026 C 
HETATM   26  C2  UNL     1     -10.889   8.663  13.726  1.00  0.00     0.087 C 
HETATM   27  C1  UNL     1     -11.293   9.492  14.939  1.00  0.00     0.021 C 
HETATM   28  C3  UNL     1     -12.039   8.586  12.757  1.00  0.00     0.263 C 
HETATM   29  O1  UNL     1     -12.393   9.480  12.006  1.00  0.00    -0.265 OA
HETATM   30  O2  UNL     1     -12.656   7.374  12.853  1.00  0.00    -0.321 OA
HETATM   31  C4  UNL     1     -12.043   6.611  13.893  1.00  0.00     0.184 C 
ENDBRANCH  24  25
ENDBRANCH  23  24
BRANCH  23  32
HETATM   32  O3  UNL     1      -7.848   4.948  12.735  1.00  0.00    -0.309 OA
BRANCH  32  33
HETATM   33  C8  UNL     1      -7.946   3.609  12.528  1.00  0.00     0.293 C 
HETATM   34  O4  UNL     1      -8.955   2.941  12.701  1.00  0.00    -0.259 OA
BRANCH  33  35
HETATM   35  C9  UNL     1      -6.660   3.059  12.026  1.00  0.00     0.039 A 
HETATM   36  C10 UNL     1      -6.418   1.682  11.936  1.00  0.00     0.017 A 
HETATM   37  C11 UNL     1      -5.189   1.216  11.464  1.00  0.00     0.001 A 
HETATM   38  C12 UNL     1      -4.200   2.121  11.079  1.00  0.00     0.000 A 
HETATM   39  C13 UNL     1      -4.437   3.493  11.159  1.00  0.00     0.001 A 
HETATM   40  C14 UNL     1      -5.665   3.963  11.629  1.00  0.00     0.017 A 
ENDBRANCH  33  35
ENDBRANCH  32  33
ENDBRANCH  23  32
ENDBRANCH  21  23
BRANCH  21  41
HETATM   41  O5  UNL     1      -8.694   6.839  15.808  1.00  0.00    -0.387 OA
HETATM   42  H19 UNL     1      -9.364   7.299  15.262  1.00  0.00     0.210 HD
ENDBRANCH  21  41
ENDBRANCH   1  21
BRANCH   4  43
HETATM   43  O6  UNL     1      -4.064   8.449  16.172  1.00  0.00    -0.384 OA
HETATM   44  H25 UNL     1      -3.555   9.274  16.091  1.00  0.00     0.211 HD
ENDBRANCH   4  43
BRANCH  12  45
HETATM   45  O9  UNL     1       1.971   6.050  12.761  1.00  0.00    -0.393 OA
HETATM   46  H33 UNL     1       2.210   6.017  11.812  1.00  0.00     0.210 HD
ENDBRANCH  12  45
BRANCH  11  47
HETATM   47  O8  UNL     1       0.822   4.923  10.523  1.00  0.00    -0.393 OA
HETATM   48  H31 UNL     1       1.117   3.996  10.583  1.00  0.00     0.210 HD
ENDBRANCH  11  47
TORSDOF 11
ENDMDL
MODEL 2
REMARK minimizedAffinity -10.1419382
REMARK CNNscore 0.703746557
REMARK CNNaffinity 7.47456121
REMARK  11 active torsions:
REMARK  status: ('A' for Active; 'I' for Inactive)
REMARK    1  A    between atoms: C5_7  and  C6_8 
REMARK    2  A    between atoms: C6_8  and  C7_9 
REMARK    3  A    between atoms: C7_9  and  O3_10 
REMARK    4  A    between atoms: C7_9  and  C15_19 
REMARK    5  A    between atoms: O3_10  and  C8_11 
REMARK    6  A    between atoms: C8_11  and  C9_13 
REMARK    7  A    between atoms: C15_19  and  O5_21 
REMARK    8  A    between atoms: C15_19  and  C17_22 
REMARK    9  A    between atoms: C20_25  and  O6_26 
REMARK   10  A    between atoms: C26_33  and  O8_34 
REMARK   11  A    between atoms: C27_35  and  O9_36 
ROOT
HETATM    1  C17 UNL     1      -1.819   7.008  12.784  1.00  0.00     0.034 C 
HETATM    2  C18 UNL     1      -1.208   5.670  13.224  1.00  0.00     0.012 C 
HETATM    3  C19 UNL     1      -2.430   4.771  13.334  1.00  0.00     0.044 C 
HETATM    4  C20 UNL     1      -3.444   5.624  14.111  1.00  0.00     0.089 C 
HETATM    5  C21 UNL     1      -4.915   5.293  13.904  1.00  0.00    -0.037 C 
HETATM    6  C22 UNL     1      -5.362   4.206  13.255  1.00  0.00     0.057 C 
HETATM    7  C23 UNL     1      -6.798   3.986  12.981  1.00  0.00     0.154 C 
HETATM    8  O7  UNL     1      -7.118   2.995  12.324  1.00  0.00    -0.293 OA
HETATM    9  C24 UNL     1      -7.825   5.001  13.458  1.00  0.00     0.071 C 
HETATM   10  C25 UNL     1      -8.341   5.793  12.250  1.00  0.00     0.047 C 
HETATM   11  C26 UNL     1      -9.230   6.984  12.614  1.00  0.00     0.147 C 
HETATM   12  C27 UNL     1      -9.565   7.074  14.107  1.00  0.00     0.147 C 
HETATM   13  C28 UNL     1      -8.301   7.054  14.962  1.00  0.00     0.044 C 
HETATM   14  C29 UNL     1      -7.329   5.867  14.652  1.00  0.00    -0.023 C 
HETATM   15  C30 UNL     1      -7.339   4.946  15.915  1.00  0.00     0.016 C 
HETATM   16  C31 UNL     1      -5.848   6.360  14.445  1.00  0.00     0.027 C 
HETATM   17  C32 UNL     1      -5.645   7.640  13.603  1.00  0.00     0.011 C 
HETATM   18  C33 UNL     1      -4.275   7.736  12.908  1.00  0.00     0.014 C 
HETATM   19  C34 UNL     1      -3.097   7.131  13.724  1.00  0.00    -0.002 C 
HETATM   20  C35 UNL     1      -2.862   7.985  14.988  1.00  0.00     0.019 C 
ENDROOT
BRANCH   1  21
HETATM   21  C15 UNL     1      -0.768   8.163  12.668  1.00  0.00     0.085 C 
HETATM   22  C16 UNL     1      -1.426   9.469  12.187  1.00  0.00     0.049 C 
BRANCH  21  23
HETATM   23  C7  UNL     1       0.436   7.790  11.709  1.00  0.00     0.167 C 
BRANCH  23  24
HETATM   24  C6  UNL     1       0.284   8.307  10.259  1.00  0.00     0.043 C 
BRANCH  24  25
HETATM   25  C5  UNL     1       0.862   7.328   9.203  1.00  0.00     0.026 C 
HETATM   26  C2  UNL     1       1.328   8.080   7.954  1.00  0.00     0.087 C 
HETATM   27  C1  UNL     1       1.260   7.234   6.688  1.00  0.00     0.021 C 
HETATM   28  C3  UNL     1       2.765   8.389   8.282  1.00  0.00     0.263 C 
HETATM   29  O1  UNL     1       3.460   9.215   7.714  1.00  0.00    -0.265 OA
HETATM   30  O2  UNL     1       3.198   7.590   9.299  1.00  0.00    -0.321 OA
HETATM   31  C4  UNL     1       2.158   6.679   9.662  1.00  0.00     0.184 C 
ENDBRANCH  24  25
ENDBRANCH  23  24
BRANCH  23  32
HETATM   32  O3  UNL     1       1.674   8.323  12.240  1.00  0.00    -0.309 OA
BRANCH  32  33
HETATM   33  C8  UNL     1       2.421   7.469  12.988  1.00  0.00     0.293 C 
HETATM   34  O4  UNL     1       2.000   6.464  13.542  1.00  0.00    -0.259 OA
BRANCH  33  35
HETATM   35  C9  UNL     1       3.841   7.903  13.020  1.00  0.00     0.039 A 
HETATM   36  C10 UNL     1       4.274   8.998  13.781  1.00  0.00     0.017 A 
HETATM   37  C11 UNL     1       5.620   9.369  13.771  1.00  0.00     0.001 A 
HETATM   38  C12 UNL     1       6.539   8.650  13.006  1.00  0.00     0.000 A 
HETATM   39  C13 UNL     1       6.116   7.556  12.252  1.00  0.00     0.001 A 
HETATM   40  C14 UNL     1       4.771   7.180  12.260  1.00  0.00     0.017 A 
ENDBRANCH  33  35
ENDBRANCH  32  33
ENDBRANCH  23  32
ENDBRANCH  21  23
BRANCH  21  41
HETATM   41  O5  UNL     1      -0.239   8.451  13.969  1.00  0.00    -0.387 OA
HETATM   42  H19 UNL     1       0.538   7.879  14.139  1.00  0.00     0.210 HD
ENDBRANCH  21  41
ENDBRANCH   1  21
BRANCH   4  43
HETATM   43  O6  UNL     1      -3.181   5.392  15.499  1.00  0.00    -0.384 OA
HETATM   44  H25 UNL     1      -3.475   4.489  15.708  1.00  0.00     0.211 HD
ENDBRANCH   4  43
BRANCH  12  45
HETATM   45  O9  UNL     1     -10.422   5.997  14.490  1.00  0.00    -0.393 OA
HETATM   46  H33 UNL     1     -10.987   5.811  13.712  1.00  0.00     0.210 HD
ENDBRANCH  12  45
BRANCH  11  47
HETATM   47  O8  UNL     1     -10.455   6.879  11.879  1.00  0.00    -0.393 OA
HETATM   48  H31 UNL     1     -10.919   7.732  11.955  1.00  0.00     0.210 HD
ENDBRANCH  11  47
TORSDOF 11
ENDMDL
MODEL 3
REMARK minimizedAffinity -10.7458572
REMARK CNNscore 0.684725404
REMARK CNNaffinity 7.26244974
REMARK  11 active torsions:
REMARK  status: ('A' for Active; 'I' for Inactive)
REMARK    1  A    between atoms: C5_7  and  C6_8 
REMARK    2  A    between atoms: C6_8  and  C7_9 
REMARK    3  A    between atoms: C7_9  and  O3_10 
REMARK    4  A    between atoms: C7_9  and  C15_19 
REMARK    5  A    between atoms: O3_10  and  C8_11 
REMARK    6  A    between atoms: C8_11  and  C9_13 
REMARK    7  A    between atoms: C15_19  and  O5_21 
REMARK    8  A    between atoms: C15_19  and  C17_22 
REMARK    9  A    between atoms: C20_25  and  O6_26 
REMARK   10  A    between atoms: C26_33  and  O8_34 
REMARK   11  A    between atoms: C27_35  and  O9_36 
ROOT
HETATM    1  C17 UNL     1      -1.798   7.450  12.326  1.00  0.00     0.034 C 
HETATM    2  C18 UNL     1      -1.079   6.130  12.639  1.00  0.00     0.012 C 
HETATM    3  C19 UNL     1      -2.231   5.201  12.987  1.00  0.00     0.044 C 
HETATM    4  C20 UNL     1      -3.094   6.033  13.947  1.00  0.00     0.089 C 
HETATM    5  C21 UNL     1      -4.568   5.663  14.034  1.00  0.00    -0.037 C 
HETATM    6  C22 UNL     1      -5.106   4.562  13.486  1.00  0.00     0.057 C 
HETATM    7  C23 UNL     1      -6.562   4.304  13.499  1.00  0.00     0.154 C 
HETATM    8  O7  UNL     1      -6.978   3.302  12.919  1.00  0.00    -0.293 OA
HETATM    9  C24 UNL     1      -7.501   5.296  14.169  1.00  0.00     0.071 C 
HETATM   10  C25 UNL     1      -8.264   6.068  13.085  1.00  0.00     0.047 C 
HETATM   11  C26 UNL     1      -9.095   7.238  13.616  1.00  0.00     0.147 C 
HETATM   12  C27 UNL     1      -9.132   7.328  15.146  1.00  0.00     0.147 C 
HETATM   13  C28 UNL     1      -7.724   7.345  15.736  1.00  0.00     0.044 C 
HETATM   14  C29 UNL     1      -6.802   6.180  15.241  1.00  0.00    -0.023 C 
HETATM   15  C30 UNL     1      -6.540   5.267  16.483  1.00  0.00     0.016 C 
HETATM   16  C31 UNL     1      -5.404   6.709  14.747  1.00  0.00     0.027 C 
HETATM   17  C32 UNL     1      -5.403   7.989  13.881  1.00  0.00     0.011 C 
HETATM   18  C33 UNL     1      -4.200   8.116  12.930  1.00  0.00     0.014 C 
HETATM   19  C34 UNL     1      -2.869   7.546  13.499  1.00  0.00    -0.002 C 
HETATM   20  C35 UNL     1      -2.412   8.413  14.692  1.00  0.00     0.019 C 
ENDROOT
BRANCH   1  21
HETATM   21  C15 UNL     1      -0.821   8.631  12.005  1.00  0.00     0.085 C 
HETATM   22  C16 UNL     1      -0.885   9.019  10.518  1.00  0.00     0.049 C 
BRANCH  21  23
HETATM   23  C7  UNL     1       0.676   8.301  12.404  1.00  0.00     0.167 C 
BRANCH  23  24
HETATM   24  C6  UNL     1       0.901   8.069  13.917  1.00  0.00     0.043 C 
BRANCH  24  25
HETATM   25  C5  UNL     1       2.041   8.943  14.503  1.00  0.00     0.026 C 
HETATM   26  C2  UNL     1       1.476  10.094  15.338  1.00  0.00     0.087 C 
HETATM   27  C1  UNL     1       2.389  11.313  15.369  1.00  0.00     0.021 C 
HETATM   28  C3  UNL     1       1.396   9.485  16.712  1.00  0.00     0.263 C 
HETATM   29  O1  UNL     1       0.747   9.925  17.647  1.00  0.00    -0.265 OA
HETATM   30  O2  UNL     1       2.179   8.370  16.780  1.00  0.00    -0.321 OA
HETATM   31  C4  UNL     1       2.867   8.199  15.540  1.00  0.00     0.184 C 
ENDBRANCH  24  25
ENDBRANCH  23  24
BRANCH  23  32
HETATM   32  O3  UNL     1       1.124   7.113  11.704  1.00  0.00    -0.309 OA
BRANCH  32  33
HETATM   33  C8  UNL     1       2.367   7.172  11.161  1.00  0.00     0.293 C 
HETATM   34  O4  UNL     1       3.404   7.329  11.788  1.00  0.00    -0.259 OA
BRANCH  33  35
HETATM   35  C9  UNL     1       2.306   6.988   9.688  1.00  0.00     0.039 A 
HETATM   36  C10 UNL     1       2.866   5.875   9.047  1.00  0.00     0.017 A 
HETATM   37  C11 UNL     1       2.787   5.753   7.658  1.00  0.00     0.001 A 
HETATM   38  C12 UNL     1       2.147   6.737   6.905  1.00  0.00     0.000 A 
HETATM   39  C13 UNL     1       1.581   7.844   7.537  1.00  0.00     0.001 A 
HETATM   40  C14 UNL     1       1.656   7.970   8.925  1.00  0.00     0.017 A 
ENDBRANCH  33  35
ENDBRANCH  32  33
ENDBRANCH  23  32
ENDBRANCH  21  23
BRANCH  21  41
HETATM   41  O5  UNL     1      -1.236   9.795  12.730  1.00  0.00    -0.387 OA
HETATM   42  H19 UNL     1      -0.812   9.799  13.612  1.00  0.00     0.210 HD
ENDBRANCH  21  41
ENDBRANCH   1  21
BRANCH   4  43
HETATM   43  O6  UNL     1      -2.559   5.816  15.257  1.00  0.00    -0.384 OA
HETATM   44  H25 UNL     1      -2.782   4.906  15.520  1.00  0.00     0.211 HD
ENDBRANCH   4  43
BRANCH  12  45
HETATM   45  O9  UNL     1      -9.869   6.232  15.690  1.00  0.00    -0.393 OA
HETATM   46  H33 UNL     1     -10.571   6.027  15.039  1.00  0.00     0.210 HD
ENDBRANCH  12  45
BRANCH  11  47
HETATM   47  O8  UNL     1     -10.437   7.098  13.136  1.00  0.00    -0.393 OA
HETATM   48  H31 UNL     1     -10.899   7.940  13.301  1.00  0.00     0.210 HD
ENDBRANCH  11  47
TORSDOF 11
ENDMDL
MODEL 4
REMARK minimizedAffinity -10.5563574
REMARK CNNscore 0.674988031
REMARK CNNaffinity 7.2833271
REMARK  11 active torsions:
REMARK  status: ('A' for Active; 'I' for Inactive)
REMARK    1  A    between atoms: C5_7  and  C6_8 
REMARK    2  A    between atoms: C6_8  and  C7_9 
REMARK    3  A    between atoms: C7_9  and  O3_10 
REMARK    4  A    between atoms: C7_9  and  C15_19 
REMARK    5  A    between atoms: O3_10  and  C8_11 
REMARK    6  A    between atoms: C8_11  and  C9_13 
REMARK    7  A    between atoms: C15_19  and  O5_21 
REMARK    8  A    between atoms: C15_19  and  C17_22 
REMARK    9  A    between atoms: C20_25  and  O6_26 
REMARK   10  A    between atoms: C26_33  and  O8_34 
REMARK   11  A    between atoms: C27_35  and  O9_36 
ROOT
HETATM    1  C17 UNL     1      -3.179   7.409  13.687  1.00  0.00     0.034 C 
HETATM    2  C18 UNL     1      -3.604   8.850  13.371  1.00  0.00     0.012 C 
HETATM    3  C19 UNL     1      -2.625   9.251  12.280  1.00  0.00     0.044 C 
HETATM    4  C20 UNL     1      -1.264   8.786  12.820  1.00  0.00     0.089 C 
HETATM    5  C21 UNL     1      -0.181   8.501  11.789  1.00  0.00    -0.037 C 
HETATM    6  C22 UNL     1      -0.277   8.808  10.486  1.00  0.00     0.057 C 
HETATM    7  C23 UNL     1       0.753   8.408   9.503  1.00  0.00     0.154 C 
HETATM    8  O7  UNL     1       0.557   8.675   8.318  1.00  0.00    -0.293 OA
HETATM    9  C24 UNL     1       1.982   7.641   9.963  1.00  0.00     0.071 C 
HETATM   10  C25 UNL     1       1.855   6.181   9.511  1.00  0.00     0.047 C 
HETATM   11  C26 UNL     1       2.928   5.250  10.081  1.00  0.00     0.147 C 
HETATM   12  C27 UNL     1       4.019   5.977  10.876  1.00  0.00     0.147 C 
HETATM   13  C28 UNL     1       3.417   6.855  11.970  1.00  0.00     0.044 C 
HETATM   14  C29 UNL     1       2.304   7.837  11.473  1.00  0.00    -0.023 C 
HETATM   15  C30 UNL     1       2.886   9.280  11.628  1.00  0.00     0.016 C 
HETATM   16  C31 UNL     1       1.009   7.757  12.365  1.00  0.00     0.027 C 
HETATM   17  C32 UNL     1       0.532   6.349  12.786  1.00  0.00     0.011 C 
HETATM   18  C33 UNL     1      -0.976   6.246  13.076  1.00  0.00     0.014 C 
HETATM   19  C34 UNL     1      -1.592   7.518  13.728  1.00  0.00    -0.002 C 
HETATM   20  C35 UNL     1      -1.015   7.692  15.150  1.00  0.00     0.019 C 
ENDROOT
BRANCH   1  21
HETATM   21  C15 UNL     1      -3.991   6.764  14.861  1.00  0.00     0.085 C 
HETATM   22  C16 UNL     1      -3.286   5.508  15.401  1.00  0.00     0.049 C 
BRANCH  21  23
HETATM   23  C7  UNL     1      -5.474   6.402  14.442  1.00  0.00     0.167 C 
BRANCH  23  24
HETATM   24  C6  UNL     1      -6.415   7.622  14.297  1.00  0.00     0.043 C 
BRANCH  24  25
HETATM   25  C5  UNL     1      -7.226   7.919  15.585  1.00  0.00     0.026 C 
HETATM   26  C2  UNL     1      -8.675   8.281  15.251  1.00  0.00     0.087 C 
HETATM   27  C1  UNL     1      -9.315   9.198  16.285  1.00  0.00     0.021 C 
HETATM   28  C3  UNL     1      -9.355   6.938  15.273  1.00  0.00     0.263 C 
HETATM   29  O1  UNL     1     -10.449   6.689  14.792  1.00  0.00    -0.265 OA
HETATM   30  O2  UNL     1      -8.584   6.030  15.936  1.00  0.00    -0.321 OA
HETATM   31  C4  UNL     1      -7.419   6.681  16.447  1.00  0.00     0.184 C 
ENDBRANCH  24  25
ENDBRANCH  23  24
BRANCH  23  32
HETATM   32  O3  UNL     1      -5.472   5.693  13.178  1.00  0.00    -0.309 OA
BRANCH  32  33
HETATM   33  C8  UNL     1      -6.653   5.138  12.801  1.00  0.00     0.293 C 
HETATM   34  O4  UNL     1      -7.732   5.712  12.797  1.00  0.00    -0.259 OA
BRANCH  33  35
HETATM   35  C9  UNL     1      -6.456   3.733  12.360  1.00  0.00     0.039 A 
HETATM   36  C10 UNL     1      -5.388   3.348  11.538  1.00  0.00     0.017 A 
HETATM   37  C11 UNL     1      -5.251   2.014  11.147  1.00  0.00     0.001 A 
HETATM   38  C12 UNL     1      -6.176   1.061  11.574  1.00  0.00     0.000 A 
HETATM   39  C13 UNL     1      -7.237   1.437  12.398  1.00  0.00     0.001 A 
HETATM   40  C14 UNL     1      -7.376   2.768  12.794  1.00  0.00     0.017 A 
ENDBRANCH  33  35
ENDBRANCH  32  33
ENDBRANCH  23  32
ENDBRANCH  21  23
BRANCH  21  41
HETATM   41  O5  UNL     1      -4.041   7.684  15.959  1.00  0.00    -0.387 OA
HETATM   42  H19 UNL     1      -4.820   8.269  15.859  1.00  0.00     0.210 HD
ENDBRANCH  21  41
ENDBRANCH   1  21
BRANCH   4  43
HETATM   43  O6  UNL     1      -0.765   9.860  13.625  1.00  0.00    -0.384 OA
HETATM   44  H25 UNL     1      -0.509  10.582  13.026  1.00  0.00     0.211 HD
ENDBRANCH   4  43
BRANCH  12  45
HETATM   45  O9  UNL     1       4.820   6.777  10.004  1.00  0.00    -0.393 OA
HETATM   46  H33 UNL     1       4.854   6.296   9.152  1.00  0.00     0.210 HD
ENDBRANCH  12  45
BRANCH  11  47
HETATM   47  O8  UNL     1       3.547   4.549   8.996  1.00  0.00    -0.393 OA
HETATM   48  H31 UNL     1       4.071   3.822   9.376  1.00  0.00     0.210 HD
ENDBRANCH  11  47
TORSDOF 11
ENDMDL
MODEL 5
REMARK minimizedAffinity -10.0856819
REMARK CNNscore 0.674505413
REMARK CNNaffinity 7.68221712
REMARK  11 active torsions:
REMARK  status: ('A' for Active; 'I' for Inactive)
REMARK    1  A    between atoms: C5_7  and  C6_8 
REMARK    2  A    between atoms: C6_8  and  C7_9 
REMARK    3  A    between atoms: C7_9  and  O3_10 
REMARK    4  A    between atoms: C7_9  and  C15_19 
REMARK    5  A    between atoms: O3_10  and  C8_11 
REMARK    6  A    between atoms: C8_11  and  C9_13 
REMARK    7  A    between atoms: C15_19  and  O5_21 
REMARK    8  A    between atoms: C15_19  and  C17_22 
REMARK    9  A    between atoms: C20_25  and  O6_26 
REMARK   10  A    between atoms: C26_33  and  O8_34 
REMARK   11  A    between atoms: C27_35  and  O9_36 
ROOT
HETATM    1  C17 UNL     1      -1.927   7.447  13.707  1.00  0.00     0.034 C 
HETATM    2  C18 UNL     1      -1.337   6.214  14.405  1.00  0.00     0.012 C 
HETATM    3  C19 UNL     1      -2.499   5.233  14.378  1.00  0.00     0.044 C 
HETATM    4  C20 UNL     1      -3.698   6.073  14.843  1.00  0.00     0.089 C 
HETATM    5  C21 UNL     1      -5.075   5.604  14.395  1.00  0.00    -0.037 C 
HETATM    6  C22 UNL     1      -5.316   4.425  13.799  1.00  0.00     0.057 C 
HETATM    7  C23 UNL     1      -6.652   4.062  13.279  1.00  0.00     0.154 C 
HETATM    8  O7  UNL     1      -6.772   2.989  12.690  1.00  0.00    -0.293 OA
HETATM    9  C24 UNL     1      -7.813   5.032  13.432  1.00  0.00     0.071 C 
HETATM   10  C25 UNL     1      -8.123   5.656  12.066  1.00  0.00     0.047 C 
HETATM   11  C26 UNL     1      -9.138   6.800  12.114  1.00  0.00     0.147 C 
HETATM   12  C27 UNL     1      -9.771   7.010  13.495  1.00  0.00     0.147 C 
HETATM   13  C28 UNL     1      -8.704   7.178  14.574  1.00  0.00     0.044 C 
HETATM   14  C29 UNL     1      -7.620   6.049  14.594  1.00  0.00    -0.023 C 
HETATM   15  C30 UNL     1      -7.827   5.260  15.927  1.00  0.00     0.016 C 
HETATM   16  C31 UNL     1      -6.160   6.639  14.622  1.00  0.00     0.027 C 
HETATM   17  C32 UNL     1      -5.871   7.841  13.696  1.00  0.00     0.011 C 
HETATM   18  C33 UNL     1      -4.398   7.980  13.271  1.00  0.00     0.014 C 
HETATM   19  C34 UNL     1      -3.373   7.557  14.363  1.00  0.00    -0.002 C 
HETATM   20  C35 UNL     1      -3.448   8.549  15.544  1.00  0.00     0.019 C 
ENDROOT
BRANCH   1  21
HETATM   21  C15 UNL     1      -0.946   8.668  13.666  1.00  0.00     0.085 C 
HETATM   22  C16 UNL     1      -1.705   9.985  13.429  1.00  0.00     0.049 C 
BRANCH  21  23
HETATM   23  C7  UNL     1       0.182   8.499  12.568  1.00  0.00     0.167 C 
BRANCH  23  24
HETATM   24  C6  UNL     1       1.585   8.174  13.134  1.00  0.00     0.043 C 
BRANCH  24  25
HETATM   25  C5  UNL     1       2.605   9.323  12.923  1.00  0.00     0.026 C 
HETATM   26  C2  UNL     1       3.111   9.862  14.264  1.00  0.00     0.087 C 
HETATM   27  C1  UNL     1       3.532  11.325  14.198  1.00  0.00     0.021 C 
HETATM   28  C3  UNL     1       4.315   8.997  14.524  1.00  0.00     0.263 C 
HETATM   29  O1  UNL     1       4.874   8.866  15.601  1.00  0.00    -0.265 OA
HETATM   30  O2  UNL     1       4.718   8.391  13.371  1.00  0.00    -0.321 OA
HETATM   31  C4  UNL     1       3.900   8.839  12.289  1.00  0.00     0.184 C 
ENDBRANCH  24  25
ENDBRANCH  23  24
BRANCH  23  32
HETATM   32  O3  UNL     1      -0.179   7.439  11.648  1.00  0.00    -0.309 OA
BRANCH  32  33
HETATM   33  C8  UNL     1       0.823   6.598  11.281  1.00  0.00     0.293 C 
HETATM   34  O4  UNL     1       1.311   5.731  11.991  1.00  0.00    -0.259 OA
BRANCH  33  35
HETATM   35  C9  UNL     1       1.234   6.852   9.876  1.00  0.00     0.039 A 
HETATM   36  C10 UNL     1       0.664   7.870   9.100  1.00  0.00     0.017 A 
HETATM   37  C11 UNL     1       1.081   8.063   7.781  1.00  0.00     0.001 A 
HETATM   38  C12 UNL     1       2.068   7.244   7.233  1.00  0.00     0.000 A 
HETATM   39  C13 UNL     1       2.645   6.233   8.002  1.00  0.00     0.001 A 
HETATM   40  C14 UNL     1       2.232   6.038   9.321  1.00  0.00     0.017 A 
ENDBRANCH  33  35
ENDBRANCH  32  33
ENDBRANCH  23  32
ENDBRANCH  21  23
BRANCH  21  41
HETATM   41  O5  UNL     1      -0.316   8.808  14.946  1.00  0.00    -0.387 OA
HETATM   42  H19 UNL     1       0.499   8.265  14.969  1.00  0.00     0.210 HD
ENDBRANCH  21  41
ENDBRANCH   1  21
BRANCH   4  43
HETATM   43  O6  UNL     1      -3.706   6.002  16.273  1.00  0.00    -0.384 OA
HETATM   44  H25 UNL     1      -3.980   5.102  16.522  1.00  0.00     0.211 HD
ENDBRANCH   4  43
BRANCH  12  45
HETATM   45  O9  UNL     1     -10.620   5.909  13.824  1.00  0.00    -0.393 OA
HETATM   46  H33 UNL     1     -11.005   5.601  12.978  1.00  0.00     0.210 HD
ENDBRANCH  12  45
BRANCH  11  47
HETATM   47  O8  UNL     1     -10.182   6.523  11.173  1.00  0.00    -0.393 OA
HETATM   48  H31 UNL     1     -10.702   7.339  11.061  1.00  0.00     0.210 HD
ENDBRANCH  11  47
TORSDOF 11
ENDMDL
MODEL 6
REMARK minimizedAffinity -9.74631596
REMARK CNNscore 0.65687269
REMARK CNNaffinity 7.26306725
REMARK  11 active torsions:
REMARK  status: ('A' for Active; 'I' for Inactive)
REMARK    1  A    between atoms: C5_7  and  C6_8 
REMARK    2  A    between atoms: C6_8  and  C7_9 
REMARK    3  A    between atoms: C7_9  and  O3_10 
REMARK    4  A    between atoms: C7_9  and  C15_19 
REMARK    5  A    between atoms: O3_10  and  C8_11 
REMARK    6  A    between atoms: C8_11  and  C9_13 
REMARK    7  A    between atoms: C15_19  and  O5_21 
REMARK    8  A    between atoms: C15_19  and  C17_22 
REMARK    9  A    between atoms: C20_25  and  O6_26 
REMARK   10  A    between atoms: C26_33  and  O8_34 
REMARK   11  A    between atoms: C27_35  and  O9_36 
ROOT
HETATM    1  C17 UNL     1      -9.737   7.640  15.468  1.00  0.00     0.034 C 
HETATM    2  C18 UNL     1      -9.371   9.131  15.460  1.00  0.00     0.012 C 
HETATM    3  C19 UNL     1     -10.727   9.803  15.320  1.00  0.00     0.044 C 
HETATM    4  C20 UNL     1     -11.413   9.014  14.194  1.00  0.00     0.089 C 
HETATM    5  C21 UNL     1     -12.934   9.021  14.183  1.00  0.00    -0.037 C 
HETATM    6  C22 UNL     1     -13.693   9.813  14.959  1.00  0.00     0.057 C 
HETATM    7  C23 UNL     1     -15.167   9.703  14.995  1.00  0.00     0.154 C 
HETATM    8  O7  UNL     1     -15.782  10.423  15.780  1.00  0.00    -0.293 OA
HETATM    9  C24 UNL     1     -15.873   8.682  14.117  1.00  0.00     0.071 C 
HETATM   10  C25 UNL     1     -16.375   7.531  14.998  1.00  0.00     0.047 C 
HETATM   11  C26 UNL     1     -16.927   6.337  14.216  1.00  0.00     0.147 C 
HETATM   12  C27 UNL     1     -17.016   6.574  12.704  1.00  0.00     0.147 C 
HETATM   13  C28 UNL     1     -15.676   7.030  12.133  1.00  0.00     0.044 C 
HETATM   14  C29 UNL     1     -15.036   8.248  12.879  1.00  0.00    -0.023 C 
HETATM   15  C30 UNL     1     -15.061   9.444  11.872  1.00  0.00     0.016 C 
HETATM   16  C31 UNL     1     -13.529   7.983  13.252  1.00  0.00     0.027 C 
HETATM   17  C32 UNL     1     -13.180   6.586  13.812  1.00  0.00     0.011 C 
HETATM   18  C33 UNL     1     -11.936   6.554  14.718  1.00  0.00     0.014 C 
HETATM   19  C34 UNL     1     -10.810   7.541  14.297  1.00  0.00    -0.002 C 
HETATM   20  C35 UNL     1     -10.218   7.091  12.944  1.00  0.00     0.019 C 
ENDROOT
BRANCH   1  21
HETATM   21  C15 UNL     1      -8.491   6.693  15.524  1.00  0.00     0.085 C 
HETATM   22  C16 UNL     1      -7.522   7.112  16.643  1.00  0.00     0.049 C 
BRANCH  21  23
HETATM   23  C7  UNL     1      -7.716   6.633  14.145  1.00  0.00     0.167 C 
BRANCH  23  24
HETATM   24  C6  UNL     1      -6.690   7.772  13.935  1.00  0.00     0.043 C 
BRANCH  24  25
HETATM   25  C5  UNL     1      -5.335   7.508  14.644  1.00  0.00     0.026 C 
HETATM   26  C2  UNL     1      -4.229   7.225  13.626  1.00  0.00     0.087 C 
HETATM   27  C1  UNL     1      -3.123   6.334  14.178  1.00  0.00     0.021 C 
HETATM   28  C3  UNL     1      -3.684   8.602  13.352  1.00  0.00     0.263 C 
HETATM   29  O1  UNL     1      -2.984   8.912  12.402  1.00  0.00    -0.265 OA
HETATM   30  O2  UNL     1      -4.063   9.463  14.340  1.00  0.00    -0.321 OA
HETATM   31  C4  UNL     1      -4.793   8.747  15.338  1.00  0.00     0.184 C 
ENDBRANCH  24  25
ENDBRANCH  23  24
BRANCH  23  32
HETATM   32  O3  UNL     1      -7.007   5.375  14.029  1.00  0.00    -0.309 OA
BRANCH  32  33
HETATM   33  C8  UNL     1      -7.539   4.465  13.172  1.00  0.00     0.293 C 
HETATM   34  O4  UNL     1      -8.724   4.372  12.889  1.00  0.00    -0.259 OA
BRANCH  33  35
HETATM   35  C9  UNL     1      -6.475   3.606  12.592  1.00  0.00     0.039 A 
HETATM   36  C10 UNL     1      -6.750   2.361  12.010  1.00  0.00     0.017 A 
HETATM   37  C11 UNL     1      -5.712   1.589  11.484  1.00  0.00     0.001 A 
HETATM   38  C12 UNL     1      -4.398   2.055  11.534  1.00  0.00     0.000 A 
HETATM   39  C13 UNL     1      -4.119   3.296  12.104  1.00  0.00     0.001 A 
HETATM   40  C14 UNL     1      -5.153   4.073  12.630  1.00  0.00     0.017 A 
ENDBRANCH  33  35
ENDBRANCH  32  33
ENDBRANCH  23  32
ENDBRANCH  21  23
BRANCH  21  41
HETATM   41  O5  UNL     1      -8.922   5.368  15.860  1.00  0.00    -0.387 OA
HETATM   42  H19 UNL     1      -9.146   4.880  15.040  1.00  0.00     0.210 HD
ENDBRANCH  21  41
ENDBRANCH   1  21
BRANCH   4  43
HETATM   43  O6  UNL     1     -11.009   9.633  12.969  1.00  0.00    -0.384 OA
HETATM   44  H25 UNL     1     -11.456  10.495  12.912  1.00  0.00     0.211 HD
ENDBRANCH   4  43
BRANCH  12  45
HETATM   45  O9  UNL     1     -18.020   7.548  12.412  1.00  0.00    -0.393 OA
HETATM   46  H33 UNL     1     -18.717   7.429  13.089  1.00  0.00     0.210 HD
ENDBRANCH  12  45
BRANCH  11  47
HETATM   47  O8  UNL     1     -18.238   6.037  14.708  1.00  0.00    -0.393 OA
HETATM   48  H31 UNL     1     -18.493   5.165  14.358  1.00  0.00     0.210 HD
ENDBRANCH  11  47
TORSDOF 11
ENDMDL
MODEL 7
REMARK minimizedAffinity -10.9145803
REMARK CNNscore 0.563432753
REMARK CNNaffinity 7.2585907
REMARK  11 active torsions:
REMARK  status: ('A' for Active; 'I' for Inactive)
REMARK    1  A    between atoms: C5_7  and  C6_8 
REMARK    2  A    between atoms: C6_8  and  C7_9 
REMARK    3  A    between atoms: C7_9  and  O3_10 
REMARK    4  A    between atoms: C7_9  and  C15_19 
REMARK    5  A    between atoms: O3_10  and  C8_11 
REMARK    6  A    between atoms: C8_11  and  C9_13 
REMARK    7  A    between atoms: C15_19  and  O5_21 
REMARK    8  A    between atoms: C15_19  and  C17_22 
REMARK    9  A    between atoms: C20_25  and  O6_26 
REMARK   10  A    between atoms: C26_33  and  O8_34 
REMARK   11  A    between atoms: C27_35  and  O9_36 
ROOT
HETATM    1  C17 UNL     1      -3.308   6.932  13.275  1.00  0.00     0.034 C 
HETATM    2  C18 UNL     1      -3.736   8.398  13.114  1.00  0.00     0.012 C 
HETATM    3  C19 UNL     1      -2.705   8.937  12.135  1.00  0.00     0.044 C 
HETATM    4  C20 UNL     1      -1.369   8.421  12.691  1.00  0.00     0.089 C 
HETATM    5  C21 UNL     1      -0.227   8.273  11.695  1.00  0.00    -0.037 C 
HETATM    6  C22 UNL     1      -0.256   8.737  10.436  1.00  0.00     0.057 C 
HETATM    7  C23 UNL     1       0.832   8.469   9.471  1.00  0.00     0.154 C 
HETATM    8  O7  UNL     1       0.697   8.877   8.318  1.00  0.00    -0.293 OA
HETATM    9  C24 UNL     1       2.045   7.661   9.902  1.00  0.00     0.071 C 
HETATM   10  C25 UNL     1       1.966   6.267   9.269  1.00  0.00     0.047 C 
HETATM   11  C26 UNL     1       3.020   5.283   9.782  1.00  0.00     0.147 C 
HETATM   12  C27 UNL     1       4.054   5.916  10.719  1.00  0.00     0.147 C 
HETATM   13  C28 UNL     1       3.380   6.649  11.876  1.00  0.00     0.044 C 
HETATM   14  C29 UNL     1       2.281   7.675  11.440  1.00  0.00    -0.023 C 
HETATM   15  C30 UNL     1       2.832   9.092  11.803  1.00  0.00     0.016 C 
HETATM   16  C31 UNL     1       0.941   7.475  12.242  1.00  0.00     0.027 C 
HETATM   17  C32 UNL     1       0.463   6.022  12.461  1.00  0.00     0.011 C 
HETATM   18  C33 UNL     1      -1.056   5.872  12.652  1.00  0.00     0.014 C 
HETATM   19  C34 UNL     1      -1.727   7.049  13.418  1.00  0.00    -0.002 C 
HETATM   20  C35 UNL     1      -1.231   7.053  14.880  1.00  0.00     0.019 C 
ENDROOT
BRANCH   1  21
HETATM   21  C15 UNL     1      -4.172   6.142  14.314  1.00  0.00     0.085 C 
HETATM   22  C16 UNL     1      -3.337   5.064  15.028  1.00  0.00     0.049 C 
BRANCH  21  23
HETATM   23  C7  UNL     1      -5.448   5.476  13.655  1.00  0.00     0.167 C 
BRANCH  23  24
HETATM   24  C6  UNL     1      -5.264   3.993  13.255  1.00  0.00     0.043 C 
BRANCH  24  25
HETATM   25  C5  UNL     1      -4.898   3.809  11.758  1.00  0.00     0.026 C 
HETATM   26  C2  UNL     1      -3.511   3.180  11.606  1.00  0.00     0.087 C 
HETATM   27  C1  UNL     1      -2.818   3.573  10.307  1.00  0.00     0.021 C 
HETATM   28  C3  UNL     1      -3.824   1.708  11.590  1.00  0.00     0.263 C 
HETATM   29  O1  UNL     1      -3.019   0.809  11.768  1.00  0.00    -0.265 OA
HETATM   30  O2  UNL     1      -5.146   1.511  11.318  1.00  0.00    -0.321 OA
HETATM   31  C4  UNL     1      -5.772   2.771  11.072  1.00  0.00     0.184 C 
ENDBRANCH  24  25
ENDBRANCH  23  24
BRANCH  23  32
HETATM   32  O3  UNL     1      -6.572   5.550  14.567  1.00  0.00    -0.309 OA
BRANCH  32  33
HETATM   33  C8  UNL     1      -7.806   5.518  14.000  1.00  0.00     0.293 C 
HETATM   34  O4  UNL     1      -8.248   4.598  13.328  1.00  0.00    -0.259 OA
BRANCH  33  35
HETATM   35  C9  UNL     1      -8.570   6.748  14.334  1.00  0.00     0.039 A 
HETATM   36  C10 UNL     1      -9.922   6.904  14.001  1.00  0.00     0.017 A 
HETATM   37  C11 UNL     1     -10.593   8.083  14.332  1.00  0.00     0.001 A 
HETATM   38  C12 UNL     1      -9.920   9.108  14.997  1.00  0.00     0.000 A 
HETATM   39  C13 UNL     1      -8.576   8.956  15.337  1.00  0.00     0.001 A 
HETATM   40  C14 UNL     1      -7.901   7.779  15.010  1.00  0.00     0.017 A 
ENDBRANCH  33  35
ENDBRANCH  32  33
ENDBRANCH  23  32
ENDBRANCH  21  23
BRANCH  21  41
HETATM   41  O5  UNL     1      -4.609   7.039  15.343  1.00  0.00    -0.387 OA
HETATM   42  H19 UNL     1      -5.458   7.449  15.079  1.00  0.00     0.210 HD
ENDBRANCH  21  41
ENDBRANCH   1  21
BRANCH   4  43
HETATM   43  O6  UNL     1      -0.931   9.393  13.647  1.00  0.00    -0.384 OA
HETATM   44  H25 UNL     1      -0.654  10.185  13.156  1.00  0.00     0.211 HD
ENDBRANCH   4  43
BRANCH  12  45
HETATM   45  O9  UNL     1       4.889   6.823   9.997  1.00  0.00    -0.393 OA
HETATM   46  H33 UNL     1       4.978   6.451   9.096  1.00  0.00     0.210 HD
ENDBRANCH  12  45
BRANCH  11  47
HETATM   47  O8  UNL     1       3.708   4.725   8.656  1.00  0.00    -0.393 OA
HETATM   48  H31 UNL     1       4.222   3.961   8.973  1.00  0.00     0.210 HD
ENDBRANCH  11  47
TORSDOF 11
ENDMDL
MODEL 8
REMARK minimizedAffinity -9.84825611
REMARK CNNscore 0.54184401
REMARK CNNaffinity 7.43583488
REMARK  11 active torsions:
REMARK  status: ('A' for Active; 'I' for Inactive)
REMARK    1  A    between atoms: C5_7  and  C6_8 
REMARK    2  A    between atoms: C6_8  and  C7_9 
REMARK    3  A    between atoms: C7_9  and  O3_10 
REMARK    4  A    between atoms: C7_9  and  C15_19 
REMARK    5  A    between atoms: O3_10  and  C8_11 
REMARK    6  A    between atoms: C8_11  and  C9_13 
REMARK    7  A    between atoms: C15_19  and  O5_21 
REMARK    8  A    between atoms: C15_19  and  C17_22 
REMARK    9  A    between atoms: C20_25  and  O6_26 
REMARK   10  A    between atoms: C26_33  and  O8_34 
REMARK   11  A    between atoms: C27_35  and  O9_36 
ROOT
HETATM    1  C17 UNL     1      -2.177   5.252  11.791  1.00  0.00     0.034 C 
HETATM    2  C18 UNL     1      -2.511   3.940  11.068  1.00  0.00     0.012 C 
HETATM    3  C19 UNL     1      -4.021   3.852  11.224  1.00  0.00     0.044 C 
HETATM    4  C20 UNL     1      -4.255   4.174  12.708  1.00  0.00     0.089 C 
HETATM    5  C21 UNL     1      -5.621   4.734  13.078  1.00  0.00    -0.037 C 
HETATM    6  C22 UNL     1      -6.672   4.778  12.243  1.00  0.00     0.057 C 
HETATM    7  C23 UNL     1      -7.945   5.435  12.611  1.00  0.00     0.154 C 
HETATM    8  O7  UNL     1      -8.836   5.487  11.764  1.00  0.00    -0.293 OA
HETATM    9  C24 UNL     1      -8.100   6.070  13.984  1.00  0.00     0.071 C 
HETATM   10  C25 UNL     1      -8.062   7.596  13.834  1.00  0.00     0.047 C 
HETATM   11  C26 UNL     1      -8.005   8.356  15.161  1.00  0.00     0.147 C 
HETATM   12  C27 UNL     1      -8.151   7.459  16.396  1.00  0.00     0.147 C 
HETATM   13  C28 UNL     1      -7.138   6.317  16.375  1.00  0.00     0.044 C 
HETATM   14  C29 UNL     1      -7.126   5.487  15.048  1.00  0.00    -0.023 C 
HETATM   15  C30 UNL     1      -7.653   4.061  15.414  1.00  0.00     0.016 C 
HETATM   16  C31 UNL     1      -5.668   5.314  14.478  1.00  0.00     0.027 C 
HETATM   17  C32 UNL     1      -4.750   6.556  14.509  1.00  0.00     0.011 C 
HETATM   18  C33 UNL     1      -3.646   6.561  13.438  1.00  0.00     0.014 C 
HETATM   19  C34 UNL     1      -3.064   5.156  13.109  1.00  0.00    -0.002 C 
HETATM   20  C35 UNL     1      -2.299   4.621  14.338  1.00  0.00     0.019 C 
ENDROOT
BRANCH   1  21
HETATM   21  C15 UNL     1      -0.642   5.556  11.852  1.00  0.00     0.085 C 
HETATM   22  C16 UNL     1       0.022   4.832  13.036  1.00  0.00     0.049 C 
BRANCH  21  23
HETATM   23  C7  UNL     1      -0.338   7.107  11.939  1.00  0.00     0.167 C 
BRANCH  23  24
HETATM   24  C6  UNL     1      -0.092   7.634  13.373  1.00  0.00     0.043 C 
BRANCH  24  25
HETATM   25  C5  UNL     1       1.304   8.288  13.549  1.00  0.00     0.026 C 
HETATM   26  C2  UNL     1       1.255   9.416  14.583  1.00  0.00     0.087 C 
HETATM   27  C1  UNL     1       2.303  10.494  14.338  1.00  0.00     0.021 C 
HETATM   28  C3  UNL     1       1.563   8.690  15.865  1.00  0.00     0.263 C 
HETATM   29  O1  UNL     1       1.358   9.119  16.989  1.00  0.00    -0.265 OA
HETATM   30  O2  UNL     1       2.133   7.481  15.597  1.00  0.00    -0.321 OA
HETATM   31  C4  UNL     1       2.310   7.342  14.186  1.00  0.00     0.184 C 
ENDBRANCH  24  25
ENDBRANCH  23  24
BRANCH  23  32
HETATM   32  O3  UNL     1       0.831   7.427  11.145  1.00  0.00    -0.309 OA
BRANCH  32  33
HETATM   33  C8  UNL     1       0.604   8.112   9.995  1.00  0.00     0.293 C 
HETATM   34  O4  UNL     1      -0.041   9.146   9.906  1.00  0.00    -0.259 OA
BRANCH  33  35
HETATM   35  C9  UNL     1       1.277   7.449   8.847  1.00  0.00     0.039 A 
HETATM   36  C10 UNL     1       1.010   7.800   7.517  1.00  0.00     0.017 A 
HETATM   37  C11 UNL     1       1.664   7.141   6.474  1.00  0.00     0.001 A 
HETATM   38  C12 UNL     1       2.588   6.134   6.754  1.00  0.00     0.000 A 
HETATM   39  C13 UNL     1       2.864   5.786   8.075  1.00  0.00     0.001 A 
HETATM   40  C14 UNL     1       2.213   6.442   9.121  1.00  0.00     0.017 A 
ENDBRANCH  33  35
ENDBRANCH  32  33
ENDBRANCH  23  32
ENDBRANCH  21  23
BRANCH  21  41
HETATM   41  O5  UNL     1      -0.012   5.036  10.675  1.00  0.00    -0.387 OA
HETATM   42  H19 UNL     1      -0.029   5.714   9.969  1.00  0.00     0.210 HD
ENDBRANCH  21  41
ENDBRANCH   1  21
BRANCH   4  43
HETATM   43  O6  UNL     1      -4.136   2.933  13.410  1.00  0.00    -0.384 OA
HETATM   44  H25 UNL     1      -4.918   2.396  13.194  1.00  0.00     0.211 HD
ENDBRANCH   4  43
BRANCH  12  45
HETATM   45  O9  UNL     1      -9.475   6.926  16.469  1.00  0.00    -0.393 OA
HETATM   46  H33 UNL     1     -10.065   7.615  16.099  1.00  0.00     0.210 HD
ENDBRANCH  12  45
BRANCH  11  47
HETATM   47  O8  UNL     1      -9.060   9.325  15.176  1.00  0.00    -0.393 OA
HETATM   48  H31 UNL     1      -8.891   9.933  15.918  1.00  0.00     0.210 HD
ENDBRANCH  11  47
TORSDOF 11
ENDMDL
MODEL 9
REMARK minimizedAffinity -8.41083622
REMARK CNNscore 0.515362442
REMARK CNNaffinity 6.58356142
REMARK  11 active torsions:
REMARK  status: ('A' for Active; 'I' for Inactive)
REMARK    1  A    between atoms: C5_7  and  C6_8 
REMARK    2  A    between atoms: C6_8  and  C7_9 
REMARK    3  A    between atoms: C7_9  and  O3_10 
REMARK    4  A    between atoms: C7_9  and  C15_19 
REMARK    5  A    between atoms: O3_10  and  C8_11 
REMARK    6  A    between atoms: C8_11  and  C9_13 
REMARK    7  A    between atoms: C15_19  and  O5_21 
REMARK    8  A    between atoms: C15_19  and  C17_22 
REMARK    9  A    between atoms: C20_25  and  O6_26 
REMARK   10  A    between atoms: C26_33  and  O8_34 
REMARK   11  A    between atoms: C27_35  and  O9_36 
ROOT
HETATM    1  C17 UNL     1      -3.223   9.215  16.296  1.00  0.00     0.034 C 
HETATM    2  C18 UNL     1      -2.206   8.949  17.415  1.00  0.00     0.012 C 
HETATM    3  C19 UNL     1      -2.562  10.011  18.443  1.00  0.00     0.044 C 
HETATM    4  C20 UNL     1      -2.704  11.294  17.610  1.00  0.00     0.089 C 
HETATM    5  C21 UNL     1      -3.589  12.389  18.188  1.00  0.00    -0.037 C 
HETATM    6  C22 UNL     1      -4.084  12.382  19.436  1.00  0.00     0.057 C 
HETATM    7  C23 UNL     1      -5.032  13.411  19.914  1.00  0.00     0.154 C 
HETATM    8  O7  UNL     1      -5.487  13.296  21.052  1.00  0.00    -0.293 OA
HETATM    9  C24 UNL     1      -5.460  14.537  18.986  1.00  0.00     0.071 C 
HETATM   10  C25 UNL     1      -6.905  14.288  18.535  1.00  0.00     0.047 C 
HETATM   11  C26 UNL     1      -7.393  15.237  17.439  1.00  0.00     0.147 C 
HETATM   12  C27 UNL     1      -6.402  16.358  17.103  1.00  0.00     0.147 C 
HETATM   13  C28 UNL     1      -5.023  15.796  16.767  1.00  0.00     0.044 C 
HETATM   14  C29 UNL     1      -4.448  14.808  17.837  1.00  0.00    -0.023 C 
HETATM   15  C30 UNL     1      -3.213  15.522  18.478  1.00  0.00     0.016 C 
HETATM   16  C31 UNL     1      -3.928  13.473  17.183  1.00  0.00     0.027 C 
HETATM   17  C32 UNL     1      -4.809  12.842  16.081  1.00  0.00     0.011 C 
HETATM   18  C33 UNL     1      -4.643  11.320  15.926  1.00  0.00     0.014 C 
HETATM   19  C34 UNL     1      -3.197  10.802  16.176  1.00  0.00    -0.002 C 
HETATM   20  C35 UNL     1      -2.267  11.329  15.062  1.00  0.00     0.019 C 
ENDROOT
BRANCH   1  21
HETATM   21  C15 UNL     1      -3.029   8.293  15.046  1.00  0.00     0.085 C 
HETATM   22  C16 UNL     1      -3.269   9.068  13.738  1.00  0.00     0.049 C 
BRANCH  21  23
HETATM   23  C7  UNL     1      -3.965   7.017  15.086  1.00  0.00     0.167 C 
BRANCH  23  24
HETATM   24  C6  UNL     1      -5.329   7.198  14.378  1.00  0.00     0.043 C 
BRANCH  24  25
HETATM   25  C5  UNL     1      -6.485   7.520  15.360  1.00  0.00     0.026 C 
HETATM   26  C2  UNL     1      -7.768   7.871  14.603  1.00  0.00     0.087 C 
HETATM   27  C1  UNL     1      -8.683   8.808  15.381  1.00  0.00     0.021 C 
HETATM   28  C3  UNL     1      -8.428   6.527  14.449  1.00  0.00     0.263 C 
HETATM   29  O1  UNL     1      -9.330   6.265  13.669  1.00  0.00    -0.265 OA
HETATM   30  O2  UNL     1      -7.892   5.635  15.330  1.00  0.00    -0.321 OA
HETATM   31  C4  UNL     1      -6.930   6.300  16.151  1.00  0.00     0.184 C 
ENDBRANCH  24  25
ENDBRANCH  23  24
BRANCH  23  32
HETATM   32  O3  UNL     1      -3.293   5.891  14.470  1.00  0.00    -0.309 OA
BRANCH  32  33
HETATM   33  C8  UNL     1      -3.288   5.867  13.112  1.00  0.00     0.293 C 
HETATM   34  O4  UNL     1      -2.667   6.639  12.396  1.00  0.00    -0.259 OA
BRANCH  33  35
HETATM   35  C9  UNL     1      -4.122   4.747  12.603  1.00  0.00     0.039 A 
HETATM   36  C10 UNL     1      -3.685   3.890  11.584  1.00  0.00     0.017 A 
HETATM   37  C11 UNL     1      -4.510   2.856  11.136  1.00  0.00     0.001 A 
HETATM   38  C12 UNL     1      -5.771   2.672  11.704  1.00  0.00     0.000 A 
HETATM   39  C13 UNL     1      -6.209   3.517  12.723  1.00  0.00     0.001 A 
HETATM   40  C14 UNL     1      -5.387   4.551  13.175  1.00  0.00     0.017 A 
ENDBRANCH  33  35
ENDBRANCH  32  33
ENDBRANCH  23  32
ENDBRANCH  21  23
BRANCH  21  41
HETATM   41  O5  UNL     1      -1.665   7.854  14.992  1.00  0.00    -0.387 OA
HETATM   42  H19 UNL     1      -1.569   7.027  15.508  1.00  0.00     0.210 HD
ENDBRANCH  21  41
ENDBRANCH   1  21
BRANCH   4  43
HETATM   43  O6  UNL     1      -1.392  11.859  17.519  1.00  0.00    -0.384 OA
HETATM   44  H25 UNL     1      -1.161  12.211  18.396  1.00  0.00     0.211 HD
ENDBRANCH   4  43
BRANCH  12  45
HETATM   45  O9  UNL     1      -6.296  17.271  18.196  1.00  0.00    -0.393 OA
HETATM   46  H33 UNL     1      -7.181  17.297  18.614  1.00  0.00     0.210 HD
ENDBRANCH  12  45
BRANCH  11  47
HETATM   47  O8  UNL     1      -8.624  15.833  17.867  1.00  0.00    -0.393 OA
HETATM   48  H31 UNL     1      -9.027  16.266  17.093  1.00  0.00     0.210 HD
ENDBRANCH  11  47
TORSDOF 11
ENDMDL
