MODEL 1
REMARK minimizedAffinity -7.61865425
REMARK  5 active torsions:
REMARK  status: ('A' for Active; 'I' for Inactive)
REMARK    1  A    between atoms: C2_2  and  C4_4 
REMARK    2  A    between atoms: C7_7  and  C8_8 
REMARK    3  A    between atoms: C8_8  and  O2_10 
REMARK    4  A    between atoms: C11_13  and  C12_14 
REMARK    5  A    between atoms: C12_14  and  O4_16 
ROOT
HETATM    1  C4  UNL     1       0.360   9.472  15.722  1.00  0.00     0.019 C 
HETATM    2  C5  UNL     1      -0.270   8.108  16.045  1.00  0.00     0.011 C 
HETATM    3  C6  UNL     1      -0.954   7.742  14.739  1.00  0.00     0.021 C 
HETATM    4  C7  UNL     1       0.104   8.079  13.664  1.00  0.00     0.050 C 
HETATM    5  C9  UNL     1       1.039   6.860  13.514  1.00  0.00     0.022 C 
HETATM    6  C10 UNL     1       2.407   7.173  12.910  1.00  0.00     0.023 C 
HETATM    7  C11 UNL     1       3.194   8.313  13.636  1.00  0.00     0.057 C 
HETATM    8  C13 UNL     1       2.252   9.563  13.671  1.00  0.00     0.011 C 
HETATM    9  C14 UNL     1       2.945  10.855  14.114  1.00  0.00     0.007 C 
HETATM   10  C15 UNL     1       4.224  11.150  13.327  1.00  0.00     0.006 C 
HETATM   11  C16 UNL     1       5.228   9.982  13.395  1.00  0.00     0.003 C 
HETATM   12  C17 UNL     1       6.702  10.362  12.939  1.00  0.00    -0.035 C 
HETATM   13  C18 UNL     1       6.743  11.017  11.529  1.00  0.00     0.016 C 
HETATM   14  C19 UNL     1       7.243  11.458  13.919  1.00  0.00     0.017 C 
HETATM   15  C20 UNL     1       8.758  11.501  13.989  1.00  0.00     0.080 C 
HETATM   16  C21 UNL     1       9.271  10.223  14.593  1.00  0.00     0.135 C 
HETATM   17  O5  UNL     1      10.247  10.253  15.348  1.00  0.00    -0.297 OA
HETATM   18  C22 UNL     1       8.557   8.909  14.225  1.00  0.00     0.017 C 
HETATM   19  C23 UNL     1       9.682   7.878  13.951  1.00  0.00     0.023 C 
HETATM   20  C24 UNL     1       7.793   8.444  15.470  1.00  0.00     0.023 C 
HETATM   21  C25 UNL     1       7.678   9.117  12.930  1.00  0.00     0.009 C 
HETATM   22  C26 UNL     1       6.992   7.840  12.394  1.00  0.00     0.007 C 
HETATM   23  C27 UNL     1       5.622   7.521  12.990  1.00  0.00     0.011 C 
HETATM   24  C28 UNL     1       4.582   8.662  12.829  1.00  0.00    -0.022 C 
HETATM   25  C29 UNL     1       4.275   8.788  11.306  1.00  0.00     0.017 C 
HETATM   26  C30 UNL     1       0.800   9.374  14.215  1.00  0.00     0.018 C 
ENDROOT
BRANCH   4  27
HETATM   27  C8  UNL     1      -0.529   8.363  12.302  1.00  0.00     0.149 C 
HETATM   28  O1  UNL     1      -0.531   7.607  11.341  1.00  0.00    -0.649 OA
BRANCH  27  29
HETATM   29  O2  UNL     1      -1.157   9.549  12.202  1.00  0.00    -0.776 OA
HETATM   30  H11 UNL     1      -1.561   9.523  11.312  1.00  0.00     0.167 HD
ENDBRANCH  27  29
ENDBRANCH   4  27
BRANCH   1  31
HETATM   31  C2  UNL     1       1.208  10.074  16.821  1.00  0.00    -0.088 C 
HETATM   32  C1  UNL     1       0.724  10.546  17.983  1.00  0.00     0.014 C 
HETATM   33  C3  UNL     1       2.662  10.304  16.482  1.00  0.00     0.043 C 
ENDBRANCH   1  31
BRANCH   7  34
HETATM   34  C12 UNL     1       3.520   7.785  15.050  1.00  0.00     0.149 C 
HETATM   35  O3  UNL     1       4.297   8.279  15.853  1.00  0.00    -0.649 OA
BRANCH  34  36
HETATM   36  O4  UNL     1       2.819   6.710  15.434  1.00  0.00    -0.776 OA
HETATM   37  H16 UNL     1       3.158   6.516  16.333  1.00  0.00     0.167 HD
ENDBRANCH  34  36
ENDBRANCH   7  34
TORSDOF 5
ENDMDL
MODEL 2
REMARK minimizedAffinity -7.58567381
REMARK  5 active torsions:
REMARK  status: ('A' for Active; 'I' for Inactive)
REMARK    1  A    between atoms: C2_2  and  C4_4 
REMARK    2  A    between atoms: C7_7  and  C8_8 
REMARK    3  A    between atoms: C8_8  and  O2_10 
REMARK    4  A    between atoms: C11_13  and  C12_14 
REMARK    5  A    between atoms: C12_14  and  O4_16 
ROOT
HETATM    1  C4  UNL     1      -2.683   5.650  12.254  1.00  0.00     0.019 C 
HETATM    2  C5  UNL     1      -2.168   4.243  12.592  1.00  0.00     0.011 C 
HETATM    3  C6  UNL     1      -0.910   4.140  11.748  1.00  0.00     0.021 C 
HETATM    4  C7  UNL     1      -0.205   5.496  11.971  1.00  0.00     0.050 C 
HETATM    5  C9  UNL     1       0.648   5.388  13.253  1.00  0.00     0.022 C 
HETATM    6  C10 UNL     1       0.990   6.724  13.909  1.00  0.00     0.023 C 
HETATM    7  C11 UNL     1      -0.243   7.636  14.213  1.00  0.00     0.057 C 
HETATM    8  C13 UNL     1      -1.021   7.810  12.866  1.00  0.00     0.011 C 
HETATM    9  C14 UNL     1      -2.116   8.880  12.910  1.00  0.00     0.007 C 
HETATM   10  C15 UNL     1      -1.616  10.227  13.436  1.00  0.00     0.006 C 
HETATM   11  C16 UNL     1      -0.968  10.100  14.829  1.00  0.00     0.003 C 
HETATM   12  C17 UNL     1      -0.782  11.483  15.590  1.00  0.00    -0.035 C 
HETATM   13  C18 UNL     1      -0.016  12.536  14.740  1.00  0.00     0.016 C 
HETATM   14  C19 UNL     1      -2.203  12.100  15.825  1.00  0.00     0.017 C 
HETATM   15  C20 UNL     1      -2.249  13.067  16.994  1.00  0.00     0.080 C 
HETATM   16  C21 UNL     1      -1.985  12.323  18.274  1.00  0.00     0.135 C 
HETATM   17  O5  UNL     1      -2.592  12.639  19.301  1.00  0.00    -0.297 OA
HETATM   18  C22 UNL     1      -0.938  11.193  18.254  1.00  0.00     0.017 C 
HETATM   19  C23 UNL     1      -0.089  11.378  19.537  1.00  0.00     0.023 C 
HETATM   20  C24 UNL     1      -1.700   9.869  18.388  1.00  0.00     0.023 C 
HETATM   21  C25 UNL     1      -0.028  11.324  16.971  1.00  0.00     0.009 C 
HETATM   22  C26 UNL     1       1.134  10.307  16.889  1.00  0.00     0.007 C 
HETATM   23  C27 UNL     1       0.801   8.969  16.230  1.00  0.00     0.011 C 
HETATM   24  C28 UNL     1       0.243   9.096  14.788  1.00  0.00    -0.022 C 
HETATM   25  C29 UNL     1       1.401   9.640  13.897  1.00  0.00     0.017 C 
HETATM   26  C30 UNL     1      -1.389   6.524  12.059  1.00  0.00     0.018 C 
ENDROOT
BRANCH   4  27
HETATM   27  C8  UNL     1       0.722   5.862  10.812  1.00  0.00     0.149 C 
HETATM   28  O1  UNL     1       1.754   5.281  10.509  1.00  0.00    -0.649 OA
BRANCH  27  29
HETATM   29  O2  UNL     1       0.315   6.905  10.065  1.00  0.00    -0.776 OA
HETATM   30  H11 UNL     1       0.972   6.940   9.340  1.00  0.00     0.167 HD
ENDBRANCH  27  29
ENDBRANCH   4  27
BRANCH   1  31
HETATM   31  C2  UNL     1      -3.906   6.099  13.024  1.00  0.00    -0.088 C 
HETATM   32  C1  UNL     1      -4.494   7.300  12.886  1.00  0.00     0.014 C 
HETATM   33  C3  UNL     1      -4.361   5.180  14.134  1.00  0.00     0.043 C 
ENDBRANCH   1  31
BRANCH   7  34
HETATM   34  C12 UNL     1      -1.079   6.897  15.280  1.00  0.00     0.149 C 
HETATM   35  O3  UNL     1      -2.157   7.248  15.737  1.00  0.00    -0.649 OA
BRANCH  34  36
HETATM   36  O4  UNL     1      -0.577   5.723  15.686  1.00  0.00    -0.776 OA
HETATM   37  H16 UNL     1      -1.222   5.409  16.355  1.00  0.00     0.167 HD
ENDBRANCH  34  36
ENDBRANCH   7  34
TORSDOF 5
ENDMDL
MODEL 3
REMARK minimizedAffinity -7.50495625
REMARK  5 active torsions:
REMARK  status: ('A' for Active; 'I' for Inactive)
REMARK    1  A    between atoms: C2_2  and  C4_4 
REMARK    2  A    between atoms: C7_7  and  C8_8 
REMARK    3  A    between atoms: C8_8  and  O2_10 
REMARK    4  A    between atoms: C11_13  and  C12_14 
REMARK    5  A    between atoms: C12_14  and  O4_16 
ROOT
HETATM    1  C4  UNL     1       2.768   7.668  10.850  1.00  0.00     0.019 C 
HETATM    2  C5  UNL     1       3.914   6.808  11.404  1.00  0.00     0.011 C 
HETATM    3  C6  UNL     1       4.682   7.797  12.265  1.00  0.00     0.021 C 
HETATM    4  C7  UNL     1       3.576   8.539  13.047  1.00  0.00     0.050 C 
HETATM    5  C9  UNL     1       3.238   7.709  14.304  1.00  0.00     0.022 C 
HETATM    6  C10 UNL     1       1.863   7.988  14.906  1.00  0.00     0.023 C 
HETATM    7  C11 UNL     1       0.674   7.864  13.899  1.00  0.00     0.057 C 
HETATM    8  C13 UNL     1       1.003   8.803  12.691  1.00  0.00     0.011 C 
HETATM    9  C14 UNL     1      -0.166   9.011  11.724  1.00  0.00     0.007 C 
HETATM   10  C15 UNL     1      -1.455   9.446  12.426  1.00  0.00     0.006 C 
HETATM   11  C16 UNL     1      -1.874   8.457  13.531  1.00  0.00     0.003 C 
HETATM   12  C17 UNL     1      -3.374   8.632  14.027  1.00  0.00    -0.035 C 
HETATM   13  C18 UNL     1      -3.694  10.088  14.467  1.00  0.00     0.016 C 
HETATM   14  C19 UNL     1      -4.321   8.352  12.811  1.00  0.00     0.017 C 
HETATM   15  C20 UNL     1      -5.713   7.915  13.226  1.00  0.00     0.080 C 
HETATM   16  C21 UNL     1      -5.638   6.578  13.913  1.00  0.00     0.135 C 
HETATM   17  O5  UNL     1      -6.532   5.748  13.731  1.00  0.00    -0.297 OA
HETATM   18  C22 UNL     1      -4.440   6.306  14.842  1.00  0.00     0.017 C 
HETATM   19  C23 UNL     1      -5.029   5.628  16.105  1.00  0.00     0.023 C 
HETATM   20  C24 UNL     1      -3.546   5.280  14.137  1.00  0.00     0.023 C 
HETATM   21  C25 UNL     1      -3.737   7.666  15.227  1.00  0.00     0.009 C 
HETATM   22  C26 UNL     1      -2.580   7.537  16.244  1.00  0.00     0.007 C 
HETATM   23  C27 UNL     1      -1.200   7.261  15.650  1.00  0.00     0.011 C 
HETATM   24  C28 UNL     1      -0.737   8.316  14.611  1.00  0.00    -0.022 C 
HETATM   25  C29 UNL     1      -0.519   9.653  15.383  1.00  0.00     0.017 C 
HETATM   26  C30 UNL     1       2.402   8.663  12.012  1.00  0.00     0.018 C 
ENDROOT
BRANCH   4  27
HETATM   27  C8  UNL     1       4.024   9.928  13.501  1.00  0.00     0.149 C 
HETATM   28  O1  UNL     1       3.705  10.988  12.983  1.00  0.00    -0.649 OA
BRANCH  27  29
HETATM   29  O2  UNL     1       4.815   9.944  14.590  1.00  0.00    -0.776 OA
HETATM   30  H11 UNL     1       4.930  10.897  14.778  1.00  0.00     0.167 HD
ENDBRANCH  27  29
ENDBRANCH   4  27
BRANCH   1  31
HETATM   31  C2  UNL     1       1.751   6.931  10.005  1.00  0.00    -0.088 C 
HETATM   32  C1  UNL     1       0.458   6.773  10.338  1.00  0.00     0.014 C 
HETATM   33  C3  UNL     1       2.299   6.190   8.809  1.00  0.00     0.043 C 
ENDBRANCH   1  31
BRANCH   7  34
HETATM   34  C12 UNL     1       0.607   6.378  13.485  1.00  0.00     0.149 C 
HETATM   35  O3  UNL     1      -0.166   5.877  12.683  1.00  0.00    -0.649 OA
BRANCH  34  36
HETATM   36  O4  UNL     1       1.543   5.591  14.030  1.00  0.00    -0.776 OA
HETATM   37  H16 UNL     1       1.345   4.701  13.668  1.00  0.00     0.167 HD
ENDBRANCH  34  36
ENDBRANCH   7  34
TORSDOF 5
ENDMDL
MODEL 4
REMARK minimizedAffinity -7.45098352
REMARK  5 active torsions:
REMARK  status: ('A' for Active; 'I' for Inactive)
REMARK    1  A    between atoms: C2_2  and  C4_4 
REMARK    2  A    between atoms: C7_7  and  C8_8 
REMARK    3  A    between atoms: C8_8  and  O2_10 
REMARK    4  A    between atoms: C11_13  and  C12_14 
REMARK    5  A    between atoms: C12_14  and  O4_16 
ROOT
HETATM    1  C4  UNL     1       1.970   8.181   9.223  1.00  0.00     0.019 C 
HETATM    2  C5  UNL     1       2.981   7.059   8.940  1.00  0.00     0.011 C 
HETATM    3  C6  UNL     1       4.064   7.321   9.973  1.00  0.00     0.021 C 
HETATM    4  C7  UNL     1       3.273   7.595  11.272  1.00  0.00     0.050 C 
HETATM    5  C9  UNL     1       2.966   6.238  11.941  1.00  0.00     0.022 C 
HETATM    6  C10 UNL     1       1.791   6.256  12.916  1.00  0.00     0.023 C 
HETATM    7  C11 UNL     1       0.461   6.825  12.323  1.00  0.00     0.057 C 
HETATM    8  C13 UNL     1       0.790   8.245  11.753  1.00  0.00     0.011 C 
HETATM    9  C14 UNL     1      -0.444   9.063  11.361  1.00  0.00     0.007 C 
HETATM   10  C15 UNL     1      -1.487   9.145  12.478  1.00  0.00     0.006 C 
HETATM   11  C16 UNL     1      -1.930   7.750  12.961  1.00  0.00     0.003 C 
HETATM   12  C17 UNL     1      -3.263   7.752  13.825  1.00  0.00    -0.035 C 
HETATM   13  C18 UNL     1      -3.196   8.735  15.028  1.00  0.00     0.016 C 
HETATM   14  C19 UNL     1      -4.424   8.288  12.919  1.00  0.00     0.017 C 
HETATM   15  C20 UNL     1      -5.796   7.822  13.369  1.00  0.00     0.080 C 
HETATM   16  C21 UNL     1      -5.900   6.330  13.206  1.00  0.00     0.135 C 
HETATM   17  O5  UNL     1      -6.967   5.828  12.841  1.00  0.00    -0.297 OA
HETATM   18  C22 UNL     1      -4.658   5.477  13.526  1.00  0.00     0.017 C 
HETATM   19  C23 UNL     1      -5.174   4.265  14.342  1.00  0.00     0.023 C 
HETATM   20  C24 UNL     1      -4.120   4.945  12.192  1.00  0.00     0.023 C 
HETATM   21  C25 UNL     1      -3.632   6.318  14.382  1.00  0.00     0.009 C 
HETATM   22  C26 UNL     1      -2.386   5.538  14.858  1.00  0.00     0.007 C 
HETATM   23  C27 UNL     1      -1.204   5.518  13.891  1.00  0.00     0.011 C 
HETATM   24  C28 UNL     1      -0.695   6.927  13.486  1.00  0.00    -0.022 C 
HETATM   25  C29 UNL     1      -0.083   7.576  14.764  1.00  0.00     0.017 C 
HETATM   26  C30 UNL     1       2.007   8.383  10.783  1.00  0.00     0.018 C 
ENDROOT
BRANCH   4  27
HETATM   27  C8  UNL     1       4.069   8.444  12.263  1.00  0.00     0.149 C 
HETATM   28  O1  UNL     1       4.996   8.055  12.958  1.00  0.00    -0.649 OA
BRANCH  27  29
HETATM   29  O2  UNL     1       3.705   9.738  12.324  1.00  0.00    -0.776 OA
HETATM   30  H11 UNL     1       4.360  10.135  12.932  1.00  0.00     0.167 HD
ENDBRANCH  27  29
ENDBRANCH   4  27
BRANCH   1  31
HETATM   31  C2  UNL     1       0.702   8.138   8.397  1.00  0.00    -0.088 C 
HETATM   32  C1  UNL     1       0.603   7.568   7.184  1.00  0.00     0.014 C 
HETATM   33  C3  UNL     1      -0.456   8.952   8.924  1.00  0.00     0.043 C 
ENDBRANCH   1  31
BRANCH   7  34
HETATM   34  C12 UNL     1       0.019   5.839  11.220  1.00  0.00     0.149 C 
HETATM   35  O3  UNL     1       0.670   4.909  10.767  1.00  0.00    -0.649 OA
BRANCH  34  36
HETATM   36  O4  UNL     1      -1.233   6.004  10.775  1.00  0.00    -0.776 OA
HETATM   37  H16 UNL     1      -1.334   5.311  10.089  1.00  0.00     0.167 HD
ENDBRANCH  34  36
ENDBRANCH   7  34
TORSDOF 5
ENDMDL
MODEL 5
REMARK minimizedAffinity -7.36057472
REMARK  5 active torsions:
REMARK  status: ('A' for Active; 'I' for Inactive)
REMARK    1  A    between atoms: C2_2  and  C4_4 
REMARK    2  A    between atoms: C7_7  and  C8_8 
REMARK    3  A    between atoms: C8_8  and  O2_10 
REMARK    4  A    between atoms: C11_13  and  C12_14 
REMARK    5  A    between atoms: C12_14  and  O4_16 
ROOT
HETATM    1  C4  UNL     1       2.643  11.318  19.029  1.00  0.00     0.019 C 
HETATM    2  C5  UNL     1       1.307  11.648  19.711  1.00  0.00     0.011 C 
HETATM    3  C6  UNL     1       1.196  10.560  20.765  1.00  0.00     0.021 C 
HETATM    4  C7  UNL     1       2.606  10.512  21.393  1.00  0.00     0.050 C 
HETATM    5  C9  UNL     1       2.672  11.580  22.506  1.00  0.00     0.022 C 
HETATM    6  C10 UNL     1       4.083  12.034  22.876  1.00  0.00     0.023 C 
HETATM    7  C11 UNL     1       4.946  12.525  21.668  1.00  0.00     0.057 C 
HETATM    8  C13 UNL     1       4.944  11.372  20.610  1.00  0.00     0.011 C 
HETATM    9  C14 UNL     1       5.948  11.567  19.471  1.00  0.00     0.007 C 
HETATM   10  C15 UNL     1       7.367  11.859  19.965  1.00  0.00     0.006 C 
HETATM   11  C16 UNL     1       7.413  13.082  20.903  1.00  0.00     0.003 C 
HETATM   12  C17 UNL     1       8.871  13.668  21.139  1.00  0.00    -0.035 C 
HETATM   13  C18 UNL     1       9.880  12.588  21.623  1.00  0.00     0.016 C 
HETATM   14  C19 UNL     1       9.424  14.159  19.757  1.00  0.00     0.017 C 
HETATM   15  C20 UNL     1      10.495  15.226  19.887  1.00  0.00     0.080 C 
HETATM   16  C21 UNL     1       9.894  16.474  20.475  1.00  0.00     0.135 C 
HETATM   17  O5  UNL     1      10.272  17.579  20.077  1.00  0.00    -0.297 OA
HETATM   18  C22 UNL     1       8.830  16.317  21.577  1.00  0.00     0.017 C 
HETATM   19  C23 UNL     1       9.187  17.363  22.663  1.00  0.00     0.023 C 
HETATM   20  C24 UNL     1       7.483  16.722  20.967  1.00  0.00     0.023 C 
HETATM   21  C25 UNL     1       8.889  14.859  22.181  1.00  0.00     0.009 C 
HETATM   22  C26 UNL     1       7.938  14.607  23.373  1.00  0.00     0.007 C 
HETATM   23  C27 UNL     1       6.526  14.149  23.012  1.00  0.00     0.011 C 
HETATM   24  C28 UNL     1       6.481  12.858  22.152  1.00  0.00    -0.022 C 
HETATM   25  C29 UNL     1       7.003  11.694  23.048  1.00  0.00     0.017 C 
HETATM   26  C30 UNL     1       3.568  10.773  20.179  1.00  0.00     0.018 C 
ENDROOT
BRANCH   4  27
HETATM   27  C8  UNL     1       2.912   9.152  22.021  1.00  0.00     0.149 C 
HETATM   28  O1  UNL     1       3.926   8.859  22.637  1.00  0.00    -0.649 OA
BRANCH  27  29
HETATM   29  O2  UNL     1       1.939   8.232  21.887  1.00  0.00    -0.776 OA
HETATM   30  H11 UNL     1       2.267   7.471  22.409  1.00  0.00     0.167 HD
ENDBRANCH  27  29
ENDBRANCH   4  27
BRANCH   1  31
HETATM   31  C2  UNL     1       3.092  12.298  17.967  1.00  0.00    -0.088 C 
HETATM   32  C1  UNL     1       2.673  13.572  17.882  1.00  0.00     0.014 C 
HETATM   33  C3  UNL     1       3.926  11.722  16.847  1.00  0.00     0.043 C 
ENDBRANCH   1  31
BRANCH   7  34
HETATM   34  C12 UNL     1       4.266  13.807  21.140  1.00  0.00     0.149 C 
HETATM   35  O3  UNL     1       4.648  14.508  20.215  1.00  0.00    -0.649 OA
BRANCH  34  36
HETATM   36  O4  UNL     1       3.109  14.125  21.733  1.00  0.00    -0.776 OA
HETATM   37  H16 UNL     1       2.833  14.952  21.284  1.00  0.00     0.167 HD
ENDBRANCH  34  36
ENDBRANCH   7  34
TORSDOF 5
ENDMDL
MODEL 6
REMARK minimizedAffinity -7.32753611
REMARK  5 active torsions:
REMARK  status: ('A' for Active; 'I' for Inactive)
REMARK    1  A    between atoms: C2_2  and  C4_4 
REMARK    2  A    between atoms: C7_7  and  C8_8 
REMARK    3  A    between atoms: C8_8  and  O2_10 
REMARK    4  A    between atoms: C11_13  and  C12_14 
REMARK    5  A    between atoms: C12_14  and  O4_16 
ROOT
HETATM    1  C4  UNL     1      -2.781   6.993  13.280  1.00  0.00     0.019 C 
HETATM    2  C5  UNL     1      -2.382   5.535  13.552  1.00  0.00     0.011 C 
HETATM    3  C6  UNL     1      -1.281   5.298  12.533  1.00  0.00     0.021 C 
HETATM    4  C7  UNL     1      -0.405   6.567  12.637  1.00  0.00     0.050 C 
HETATM    5  C9  UNL     1       0.610   6.356  13.781  1.00  0.00     0.022 C 
HETATM    6  C10 UNL     1       1.191   7.641  14.366  1.00  0.00     0.023 C 
HETATM    7  C11 UNL     1       0.125   8.682  14.839  1.00  0.00     0.057 C 
HETATM    8  C13 UNL     1      -0.819   8.951  13.620  1.00  0.00     0.011 C 
HETATM    9  C14 UNL     1      -1.770  10.135  13.814  1.00  0.00     0.007 C 
HETATM   10  C15 UNL     1      -1.051  11.415  14.248  1.00  0.00     0.006 C 
HETATM   11  C16 UNL     1      -0.224  11.208  15.532  1.00  0.00     0.003 C 
HETATM   12  C17 UNL     1       0.224  12.556  16.243  1.00  0.00    -0.035 C 
HETATM   13  C18 UNL     1       0.969  13.523  15.280  1.00  0.00     0.016 C 
HETATM   14  C19 UNL     1      -1.070  13.325  16.679  1.00  0.00     0.017 C 
HETATM   15  C20 UNL     1      -0.835  14.283  17.832  1.00  0.00     0.080 C 
HETATM   16  C21 UNL     1      -0.469  13.505  19.068  1.00  0.00     0.135 C 
HETATM   17  O5  UNL     1      -0.880  13.880  20.169  1.00  0.00    -0.297 OA
HETATM   18  C22 UNL     1       0.431  12.266  18.904  1.00  0.00     0.017 C 
HETATM   19  C23 UNL     1       1.475  12.348  20.047  1.00  0.00     0.023 C 
HETATM   20  C24 UNL     1      -0.445  11.034  19.162  1.00  0.00     0.023 C 
HETATM   21  C25 UNL     1       1.152  12.304  17.500  1.00  0.00     0.009 C 
HETATM   22  C26 UNL     1       2.168  11.165  17.258  1.00  0.00     0.007 C 
HETATM   23  C27 UNL     1       1.596   9.877  16.668  1.00  0.00     0.011 C 
HETATM   24  C28 UNL     1       0.850  10.075  15.322  1.00  0.00    -0.022 C 
HETATM   25  C29 UNL     1       1.917  10.493  14.266  1.00  0.00     0.017 C 
HETATM   26  C30 UNL     1      -1.442   7.719  12.888  1.00  0.00     0.018 C 
ENDROOT
BRANCH   4  27
HETATM   27  C8  UNL     1       0.376   6.835  11.351  1.00  0.00     0.149 C 
HETATM   28  O1  UNL     1       0.133   7.712  10.535  1.00  0.00    -0.649 OA
BRANCH  27  29
HETATM   29  O2  UNL     1       1.437   6.032  11.151  1.00  0.00    -0.776 OA
HETATM   30  H11 UNL     1       1.853   6.395  10.344  1.00  0.00     0.167 HD
ENDBRANCH  27  29
ENDBRANCH   4  27
BRANCH   1  31
HETATM   31  C2  UNL     1      -3.821   7.569  14.217  1.00  0.00    -0.088 C 
HETATM   32  C1  UNL     1      -3.994   7.181  15.493  1.00  0.00     0.014 C 
HETATM   33  C3  UNL     1      -4.823   8.511  13.592  1.00  0.00     0.043 C 
ENDBRANCH   1  31
BRANCH   7  34
HETATM   34  C12 UNL     1      -0.621   8.033  16.025  1.00  0.00     0.149 C 
HETATM   35  O3  UNL     1      -1.585   8.490  16.620  1.00  0.00    -0.649 OA
BRANCH  34  36
HETATM   36  O4  UNL     1      -0.184   6.817  16.378  1.00  0.00    -0.776 OA
HETATM   37  H16 UNL     1      -0.757   6.570  17.135  1.00  0.00     0.167 HD
ENDBRANCH  34  36
ENDBRANCH   7  34
TORSDOF 5
ENDMDL
MODEL 7
REMARK minimizedAffinity -7.29240131
REMARK  5 active torsions:
REMARK  status: ('A' for Active; 'I' for Inactive)
REMARK    1  A    between atoms: C2_2  and  C4_4 
REMARK    2  A    between atoms: C7_7  and  C8_8 
REMARK    3  A    between atoms: C8_8  and  O2_10 
REMARK    4  A    between atoms: C11_13  and  C12_14 
REMARK    5  A    between atoms: C12_14  and  O4_16 
ROOT
HETATM    1  C4  UNL     1       7.256  12.458  14.074  1.00  0.00     0.019 C 
HETATM    2  C5  UNL     1       8.723  12.523  13.622  1.00  0.00     0.011 C 
HETATM    3  C6  UNL     1       9.415  11.597  14.608  1.00  0.00     0.021 C 
HETATM    4  C7  UNL     1       8.485  10.365  14.668  1.00  0.00     0.050 C 
HETATM    5  C9  UNL     1       8.868   9.418  13.512  1.00  0.00     0.022 C 
HETATM    6  C10 UNL     1       7.772   8.439  13.096  1.00  0.00     0.023 C 
HETATM    7  C11 UNL     1       6.399   9.104  12.754  1.00  0.00     0.057 C 
HETATM    8  C13 UNL     1       5.993   9.969  13.994  1.00  0.00     0.011 C 
HETATM    9  C14 UNL     1       4.555  10.492  13.947  1.00  0.00     0.007 C 
HETATM   10  C15 UNL     1       3.525   9.391  13.682  1.00  0.00     0.006 C 
HETATM   11  C16 UNL     1       3.829   8.615  12.386  1.00  0.00     0.003 C 
HETATM   12  C17 UNL     1       2.617   7.737  11.852  1.00  0.00    -0.035 C 
HETATM   13  C18 UNL     1       2.056   6.769  12.933  1.00  0.00     0.016 C 
HETATM   14  C19 UNL     1       1.433   8.704  11.512  1.00  0.00     0.017 C 
HETATM   15  C20 UNL     1       0.468   8.132  10.490  1.00  0.00     0.080 C 
HETATM   16  C21 UNL     1       1.169   7.973   9.168  1.00  0.00     0.135 C 
HETATM   17  O5  UNL     1       0.555   8.198   8.122  1.00  0.00    -0.297 OA
HETATM   18  C22 UNL     1       2.639   7.514   9.177  1.00  0.00     0.017 C 
HETATM   19  C23 UNL     1       2.756   6.448   8.058  1.00  0.00     0.023 C 
HETATM   20  C24 UNL     1       3.491   8.719   8.762  1.00  0.00     0.023 C 
HETATM   21  C25 UNL     1       2.997   6.880  10.578  1.00  0.00     0.009 C 
HETATM   22  C26 UNL     1       4.419   6.282  10.678  1.00  0.00     0.007 C 
HETATM   23  C27 UNL     1       5.521   7.254  11.098  1.00  0.00     0.011 C 
HETATM   24  C28 UNL     1       5.259   7.959  12.454  1.00  0.00    -0.022 C 
HETATM   25  C29 UNL     1       5.328   6.863  13.560  1.00  0.00     0.017 C 
HETATM   26  C30 UNL     1       7.042  10.977  14.561  1.00  0.00     0.018 C 
ENDROOT
BRANCH   4  27
HETATM   27  C8  UNL     1       8.631   9.597  15.981  1.00  0.00     0.149 C 
HETATM   28  O1  UNL     1       7.796   9.533  16.871  1.00  0.00    -0.649 OA
BRANCH  27  29
HETATM   29  O2  UNL     1       9.786   8.918  16.118  1.00  0.00    -0.776 OA
HETATM   30  H11 UNL     1       9.671   8.433  16.960  1.00  0.00     0.167 HD
ENDBRANCH  27  29
ENDBRANCH   4  27
BRANCH   1  31
HETATM   31  C2  UNL     1       6.274  13.223  13.213  1.00  0.00    -0.088 C 
HETATM   32  C1  UNL     1       6.507  13.597  11.943  1.00  0.00     0.014 C 
HETATM   33  C3  UNL     1       5.039  13.734  13.917  1.00  0.00     0.043 C 
ENDBRANCH   1  31
BRANCH   7  34
HETATM   34  C12 UNL     1       6.634   9.963  11.492  1.00  0.00     0.149 C 
HETATM   35  O3  UNL     1       7.674  10.063  10.859  1.00  0.00    -0.649 OA
BRANCH  34  36
HETATM   36  O4  UNL     1       5.553  10.605  11.030  1.00  0.00    -0.776 OA
HETATM   37  H16 UNL     1       5.886  11.095  10.248  1.00  0.00     0.167 HD
ENDBRANCH  34  36
ENDBRANCH   7  34
TORSDOF 5
ENDMDL
MODEL 8
REMARK minimizedAffinity -7.28830719
REMARK  5 active torsions:
REMARK  status: ('A' for Active; 'I' for Inactive)
REMARK    1  A    between atoms: C2_2  and  C4_4 
REMARK    2  A    between atoms: C7_7  and  C8_8 
REMARK    3  A    between atoms: C8_8  and  O2_10 
REMARK    4  A    between atoms: C11_13  and  C12_14 
REMARK    5  A    between atoms: C12_14  and  O4_16 
ROOT
HETATM    1  C4  UNL     1      -1.106   6.545  13.777  1.00  0.00     0.019 C 
HETATM    2  C5  UNL     1      -1.947   6.349  12.507  1.00  0.00     0.011 C 
HETATM    3  C6  UNL     1      -3.295   5.926  13.065  1.00  0.00     0.021 C 
HETATM    4  C7  UNL     1      -3.535   6.911  14.230  1.00  0.00     0.050 C 
HETATM    5  C9  UNL     1      -4.177   8.190  13.653  1.00  0.00     0.022 C 
HETATM    6  C10 UNL     1      -4.015   9.436  14.521  1.00  0.00     0.023 C 
HETATM    7  C11 UNL     1      -2.540   9.763  14.922  1.00  0.00     0.057 C 
HETATM    8  C13 UNL     1      -1.959   8.478  15.602  1.00  0.00     0.011 C 
HETATM    9  C14 UNL     1      -0.609   8.691  16.292  1.00  0.00     0.007 C 
HETATM   10  C15 UNL     1      -0.613   9.875  17.262  1.00  0.00     0.006 C 
HETATM   11  C16 UNL     1      -1.049  11.185  16.576  1.00  0.00     0.003 C 
HETATM   12  C17 UNL     1      -0.710  12.498  17.404  1.00  0.00    -0.035 C 
HETATM   13  C18 UNL     1      -1.260  12.450  18.858  1.00  0.00     0.016 C 
HETATM   14  C19 UNL     1       0.847  12.585  17.556  1.00  0.00     0.017 C 
HETATM   15  C20 UNL     1       1.347  13.999  17.786  1.00  0.00     0.080 C 
HETATM   16  C21 UNL     1       1.078  14.834  16.564  1.00  0.00     0.135 C 
HETATM   17  O5  UNL     1       1.900  15.684  16.212  1.00  0.00    -0.297 OA
HETATM   18  C22 UNL     1      -0.241  14.601  15.802  1.00  0.00     0.017 C 
HETATM   19  C23 UNL     1      -0.794  16.011  15.472  1.00  0.00     0.023 C 
HETATM   20  C24 UNL     1       0.117  13.920  14.476  1.00  0.00     0.023 C 
HETATM   21  C25 UNL     1      -1.259  13.813  16.716  1.00  0.00     0.009 C 
HETATM   22  C26 UNL     1      -2.663  13.608  16.102  1.00  0.00     0.007 C 
HETATM   23  C27 UNL     1      -2.835  12.362  15.235  1.00  0.00     0.011 C 
HETATM   24  C28 UNL     1      -2.491  11.035  15.962  1.00  0.00    -0.022 C 
HETATM   25  C29 UNL     1      -3.564  10.832  17.074  1.00  0.00     0.017 C 
HETATM   26  C30 UNL     1      -2.106   7.118  14.847  1.00  0.00     0.018 C 
ENDROOT
BRANCH   4  27
HETATM   27  C8  UNL     1      -4.482   6.337  15.284  1.00  0.00     0.149 C 
HETATM   28  O1  UNL     1      -5.656   6.046  15.109  1.00  0.00    -0.649 OA
BRANCH  27  29
HETATM   29  O2  UNL     1      -3.928   6.120  16.491  1.00  0.00    -0.776 OA
HETATM   30  H11 UNL     1      -4.641   5.686  16.999  1.00  0.00     0.167 HD
ENDBRANCH  27  29
ENDBRANCH   4  27
BRANCH   1  31
HETATM   31  C2  UNL     1       0.298   7.067  13.555  1.00  0.00    -0.088 C 
HETATM   32  C1  UNL     1       1.365   6.292  13.294  1.00  0.00     0.014 C 
HETATM   33  C3  UNL     1       0.505   8.538  13.826  1.00  0.00     0.043 C 
ENDBRANCH   1  31
BRANCH   7  34
HETATM   34  C12 UNL     1      -1.801  10.118  13.614  1.00  0.00     0.149 C 
HETATM   35  O3  UNL     1      -2.020   9.659  12.503  1.00  0.00    -0.649 OA
BRANCH  34  36
HETATM   36  O4  UNL     1      -0.871  11.075  13.726  1.00  0.00    -0.776 OA
HETATM   37  H16 UNL     1      -0.509  11.161  12.818  1.00  0.00     0.167 HD
ENDBRANCH  34  36
ENDBRANCH   7  34
TORSDOF 5
ENDMDL
MODEL 9
REMARK minimizedAffinity -7.18334579
REMARK  5 active torsions:
REMARK  status: ('A' for Active; 'I' for Inactive)
REMARK    1  A    between atoms: C2_2  and  C4_4 
REMARK    2  A    between atoms: C7_7  and  C8_8 
REMARK    3  A    between atoms: C8_8  and  O2_10 
REMARK    4  A    between atoms: C11_13  and  C12_14 
REMARK    5  A    between atoms: C12_14  and  O4_16 
ROOT
HETATM    1  C4  UNL     1       1.421   6.810  11.476  1.00  0.00     0.019 C 
HETATM    2  C5  UNL     1       1.884   5.641  10.594  1.00  0.00     0.011 C 
HETATM    3  C6  UNL     1       2.007   6.289   9.225  1.00  0.00     0.021 C 
HETATM    4  C7  UNL     1       2.736   7.620   9.513  1.00  0.00     0.050 C 
HETATM    5  C9  UNL     1       4.255   7.344   9.516  1.00  0.00     0.022 C 
HETATM    6  C10 UNL     1       5.092   8.375  10.270  1.00  0.00     0.023 C 
HETATM    7  C11 UNL     1       4.635   8.635  11.742  1.00  0.00     0.057 C 
HETATM    8  C13 UNL     1       3.118   9.018  11.685  1.00  0.00     0.011 C 
HETATM    9  C14 UNL     1       2.559   9.558  13.005  1.00  0.00     0.007 C 
HETATM   10  C15 UNL     1       3.395  10.700  13.587  1.00  0.00     0.006 C 
HETATM   11  C16 UNL     1       4.870  10.297  13.783  1.00  0.00     0.003 C 
HETATM   12  C17 UNL     1       5.694  11.277  14.723  1.00  0.00    -0.035 C 
HETATM   13  C18 UNL     1       5.604  12.761  14.268  1.00  0.00     0.016 C 
HETATM   14  C19 UNL     1       5.041  11.243  16.147  1.00  0.00     0.017 C 
HETATM   15  C20 UNL     1       6.002  11.635  17.254  1.00  0.00     0.080 C 
HETATM   16  C21 UNL     1       7.097  10.609  17.358  1.00  0.00     0.135 C 
HETATM   17  O5  UNL     1       7.541  10.300  18.467  1.00  0.00    -0.297 OA
HETATM   18  C22 UNL     1       7.639   9.992  16.055  1.00  0.00     0.017 C 
HETATM   19  C23 UNL     1       9.182   9.968  16.206  1.00  0.00     0.023 C 
HETATM   20  C24 UNL     1       7.154   8.539  16.006  1.00  0.00     0.023 C 
HETATM   21  C25 UNL     1       7.224  10.886  14.821  1.00  0.00     0.009 C 
HETATM   22  C26 UNL     1       7.799  10.430  13.461  1.00  0.00     0.007 C 
HETATM   23  C27 UNL     1       6.966   9.401  12.699  1.00  0.00     0.011 C 
HETATM   24  C28 UNL     1       5.510   9.853  12.414  1.00  0.00    -0.022 C 
HETATM   25  C29 UNL     1       5.588  11.044  11.412  1.00  0.00     0.017 C 
HETATM   26  C30 UNL     1       2.152   8.077  10.897  1.00  0.00     0.018 C 
ENDROOT
BRANCH   4  27
HETATM   27  C8  UNL     1       2.448   8.677   8.447  1.00  0.00     0.149 C 
HETATM   28  O1  UNL     1       3.260   9.140   7.659  1.00  0.00    -0.649 OA
BRANCH  27  29
HETATM   29  O2  UNL     1       1.168   9.087   8.383  1.00  0.00    -0.776 OA
HETATM   30  H11 UNL     1       1.155   9.686   7.610  1.00  0.00     0.167 HD
ENDBRANCH  27  29
ENDBRANCH   4  27
BRANCH   1  31
HETATM   31  C2  UNL     1       1.292   6.501  12.952  1.00  0.00    -0.088 C 
HETATM   32  C1  UNL     1       1.853   7.228  13.934  1.00  0.00     0.014 C 
HETATM   33  C3  UNL     1       0.632   5.186  13.295  1.00  0.00     0.043 C 
ENDBRANCH   1  31
BRANCH   7  34
HETATM   34  C12 UNL     1       4.878   7.319  12.513  1.00  0.00     0.149 C 
HETATM   35  O3  UNL     1       5.300   6.269  12.051  1.00  0.00    -0.649 OA
BRANCH  34  36
HETATM   36  O4  UNL     1       4.653   7.380  13.832  1.00  0.00    -0.776 OA
HETATM   37  H16 UNL     1       4.847   6.471  14.147  1.00  0.00     0.167 HD
ENDBRANCH  34  36
ENDBRANCH   7  34
TORSDOF 5
ENDMDL
