MODEL 1
REMARK minimizedAffinity -6.87255192
REMARK CNNscore 0.731923521
REMARK CNNaffinity 6.44092131
REMARK  7 active torsions:
REMARK  status: ('A' for Active; 'I' for Inactive)
REMARK    1  A    between atoms: C2_2  and  C4_4 
REMARK    2  A    between atoms: C7_7  and  C8_8 
REMARK    3  A    between atoms: C8_8  and  O2_10 
REMARK    4  A    between atoms: C15_17  and  O3_18 
REMARK    5  A    between atoms: C21_24  and  O4_25 
REMARK    6  A    between atoms: C22_26  and  C24_28 
REMARK    7  A    between atoms: C24_28  and  O5_29 
ROOT
HETATM    1  C4  UNL     1     -17.145   1.812  13.606  1.00  0.00     0.019 C 
HETATM    2  C5  UNL     1     -18.406   2.656  13.274  1.00  0.00     0.011 C 
HETATM    3  C6  UNL     1     -19.595   1.680  13.238  1.00  0.00     0.021 C 
HETATM    4  C7  UNL     1     -18.947   0.320  12.964  1.00  0.00     0.050 C 
HETATM    5  C9  UNL     1     -19.779  -0.900  13.368  1.00  0.00     0.022 C 
HETATM    6  C10 UNL     1     -18.932  -2.179  13.229  1.00  0.00     0.011 C 
HETATM    7  C11 UNL     1     -17.578  -2.186  14.038  1.00  0.00    -0.032 C 
HETATM    8  C12 UNL     1     -18.021  -2.266  15.536  1.00  0.00     0.016 C 
HETATM    9  C13 UNL     1     -16.802  -0.844  13.779  1.00  0.00     0.003 C 
HETATM   10  C14 UNL     1     -15.582  -0.738  14.702  1.00  0.00     0.038 C 
HETATM   11  C15 UNL     1     -14.736  -2.013  14.793  1.00  0.00     0.124 C 
HETATM   12  C16 UNL     1     -15.035  -3.067  13.698  1.00  0.00     0.032 C 
HETATM   13  C17 UNL     1     -14.003  -4.324  13.698  1.00  0.00    -0.033 C 
HETATM   14  C18 UNL     1     -13.836  -4.808  12.224  1.00  0.00     0.016 C 
HETATM   15  C19 UNL     1     -12.576  -3.888  14.161  1.00  0.00     0.012 C 
HETATM   16  C20 UNL     1     -11.582  -5.037  14.351  1.00  0.00     0.033 C 
HETATM   17  C21 UNL     1     -12.113  -6.110  15.299  1.00  0.00     0.128 C 
HETATM   18  C22 UNL     1     -13.515  -6.672  14.907  1.00  0.00     0.007 C 
HETATM   19  C23 UNL     1     -13.367  -7.597  13.680  1.00  0.00     0.020 C 
HETATM   20  C25 UNL     1     -14.512  -5.462  14.661  1.00  0.00     0.007 C 
HETATM   21  C26 UNL     1     -15.952  -5.872  14.310  1.00  0.00     0.007 C 
HETATM   22  C27 UNL     1     -16.903  -4.691  14.487  1.00  0.00     0.011 C 
HETATM   23  C28 UNL     1     -16.594  -3.445  13.618  1.00  0.00    -0.030 C 
HETATM   24  C29 UNL     1     -16.897  -3.843  12.141  1.00  0.00     0.016 C 
HETATM   25  C30 UNL     1     -17.719   0.402  13.896  1.00  0.00     0.017 C 
ENDROOT
BRANCH   4  26
HETATM   26  C8  UNL     1     -18.631   0.254  11.461  1.00  0.00     0.149 C 
HETATM   27  O1  UNL     1     -19.402   0.398  10.528  1.00  0.00    -0.649 OA
BRANCH  26  28
HETATM   28  O2  UNL     1     -17.332  -0.015  11.209  1.00  0.00    -0.776 OA
HETATM   29  H11 UNL     1     -17.279  -0.031  10.231  1.00  0.00     0.167 HD
ENDBRANCH  26  28
ENDBRANCH   4  26
BRANCH   1  30
HETATM   30  C2  UNL     1     -16.308   2.507  14.668  1.00  0.00    -0.088 C 
HETATM   31  C1  UNL     1     -16.791   3.361  15.588  1.00  0.00     0.014 C 
HETATM   32  C3  UNL     1     -14.833   2.200  14.617  1.00  0.00     0.043 C 
ENDBRANCH   1  30
BRANCH  11  33
HETATM   33  O3  UNL     1     -14.827  -2.591  16.091  1.00  0.00    -0.395 OA
HETATM   34  H23 UNL     1     -14.640  -1.890  16.739  1.00  0.00     0.210 HD
ENDBRANCH  11  33
BRANCH  18  35
HETATM   35  C24 UNL     1     -13.997  -7.548  16.112  1.00  0.00     0.176 C 
BRANCH  35  36
HETATM   36  O5  UNL     1     -14.407  -6.786  17.243  1.00  0.00    -0.400 OA
HETATM   37  H39 UNL     1     -15.298  -6.444  17.060  1.00  0.00     0.209 HD
ENDBRANCH  35  36
ENDBRANCH  18  35
BRANCH  17  38
HETATM   38  O4  UNL     1     -12.119  -5.576  16.627  1.00  0.00    -0.395 OA
HETATM   39  H33 UNL     1     -12.760  -4.843  16.668  1.00  0.00     0.210 HD
ENDBRANCH  17  38
TORSDOF 7
ENDMDL
MODEL 2
REMARK minimizedAffinity -5.9437747
REMARK CNNscore 0.477841556
REMARK CNNaffinity 6.14762163
REMARK  7 active torsions:
REMARK  status: ('A' for Active; 'I' for Inactive)
REMARK    1  A    between atoms: C2_2  and  C4_4 
REMARK    2  A    between atoms: C7_7  and  C8_8 
REMARK    3  A    between atoms: C8_8  and  O2_10 
REMARK    4  A    between atoms: C15_17  and  O3_18 
REMARK    5  A    between atoms: C21_24  and  O4_25 
REMARK    6  A    between atoms: C22_26  and  C24_28 
REMARK    7  A    between atoms: C24_28  and  O5_29 
ROOT
HETATM    1  C4  UNL     1      -0.771  17.756   6.749  1.00  0.00     0.019 C 
HETATM    2  C5  UNL     1      -2.146  17.433   7.395  1.00  0.00     0.011 C 
HETATM    3  C6  UNL     1      -2.613  16.096   6.795  1.00  0.00     0.021 C 
HETATM    4  C7  UNL     1      -1.850  15.999   5.471  1.00  0.00     0.050 C 
HETATM    5  C9  UNL     1      -1.705  14.588   4.896  1.00  0.00     0.022 C 
HETATM    6  C10 UNL     1      -0.751  14.612   3.687  1.00  0.00     0.011 C 
HETATM    7  C11 UNL     1       0.684  15.204   3.969  1.00  0.00    -0.032 C 
HETATM    8  C12 UNL     1       1.370  14.140   4.888  1.00  0.00     0.016 C 
HETATM    9  C13 UNL     1       0.549  16.568   4.737  1.00  0.00     0.003 C 
HETATM   10  C14 UNL     1       1.924  17.068   5.196  1.00  0.00     0.038 C 
HETATM   11  C15 UNL     1       3.024  16.986   4.131  1.00  0.00     0.124 C 
HETATM   12  C16 UNL     1       2.511  16.747   2.689  1.00  0.00     0.032 C 
HETATM   13  C17 UNL     1       3.671  16.851   1.554  1.00  0.00    -0.033 C 
HETATM   14  C18 UNL     1       3.021  17.416   0.253  1.00  0.00     0.016 C 
HETATM   15  C19 UNL     1       4.771  17.885   1.958  1.00  0.00     0.012 C 
HETATM   16  C20 UNL     1       5.988  17.926   1.029  1.00  0.00     0.033 C 
HETATM   17  C21 UNL     1       6.628  16.551   0.853  1.00  0.00     0.128 C 
HETATM   18  C22 UNL     1       5.637  15.438   0.391  1.00  0.00     0.007 C 
HETATM   19  C23 UNL     1       5.294  15.649  -1.099  1.00  0.00     0.020 C 
HETATM   20  C25 UNL     1       4.361  15.452   1.334  1.00  0.00     0.007 C 
HETATM   21  C26 UNL     1       3.314  14.369   1.021  1.00  0.00     0.007 C 
HETATM   22  C27 UNL     1       2.349  14.203   2.192  1.00  0.00     0.011 C 
HETATM   23  C28 UNL     1       1.545  15.469   2.583  1.00  0.00    -0.030 C 
HETATM   24  C29 UNL     1       0.543  15.741   1.419  1.00  0.00     0.016 C 
HETATM   25  C30 UNL     1      -0.455  16.488   5.916  1.00  0.00     0.017 C 
ENDROOT
BRANCH   4  26
HETATM   26  C8  UNL     1      -2.571  16.899   4.455  1.00  0.00     0.149 C 
HETATM   27  O1  UNL     1      -3.747  16.871   4.135  1.00  0.00    -0.649 OA
BRANCH  26  28
HETATM   28  O2  UNL     1      -1.747  17.794   3.870  1.00  0.00    -0.776 OA
HETATM   29  H11 UNL     1      -2.330  18.286   3.256  1.00  0.00     0.167 HD
ENDBRANCH  26  28
ENDBRANCH   4  26
BRANCH   1  30
HETATM   30  C2  UNL     1       0.218  18.215   7.810  1.00  0.00    -0.088 C 
HETATM   31  C1  UNL     1       0.684  19.471   7.930  1.00  0.00     0.014 C 
HETATM   32  C3  UNL     1       0.694  17.134   8.744  1.00  0.00     0.043 C 
ENDBRANCH   1  30
BRANCH  11  33
HETATM   33  O3  UNL     1       4.003  16.016   4.487  1.00  0.00    -0.395 OA
HETATM   34  H23 UNL     1       4.286  16.204   5.399  1.00  0.00     0.210 HD
ENDBRANCH  11  33
BRANCH  18  35
HETATM   35  C24 UNL     1       6.402  14.078   0.518  1.00  0.00     0.176 C 
BRANCH  35  36
HETATM   36  O5  UNL     1       6.043  13.125  -0.477  1.00  0.00    -0.400 OA
HETATM   37  H39 UNL     1       6.499  13.372  -1.299  1.00  0.00     0.209 HD
ENDBRANCH  35  36
ENDBRANCH  18  35
BRANCH  17  38
HETATM   38  O4  UNL     1       7.275  16.194   2.080  1.00  0.00    -0.395 OA
HETATM   39  H33 UNL     1       6.598  16.087   2.772  1.00  0.00     0.210 HD
ENDBRANCH  17  38
TORSDOF 7
ENDMDL
MODEL 3
REMARK minimizedAffinity -7.1092658
REMARK CNNscore 0.47458455
REMARK CNNaffinity 6.04058266
REMARK  7 active torsions:
REMARK  status: ('A' for Active; 'I' for Inactive)
REMARK    1  A    between atoms: C2_2  and  C4_4 
REMARK    2  A    between atoms: C7_7  and  C8_8 
REMARK    3  A    between atoms: C8_8  and  O2_10 
REMARK    4  A    between atoms: C15_17  and  O3_18 
REMARK    5  A    between atoms: C21_24  and  O4_25 
REMARK    6  A    between atoms: C22_26  and  C24_28 
REMARK    7  A    between atoms: C24_28  and  O5_29 
ROOT
HETATM    1  C4  UNL     1       5.908  12.684  22.009  1.00  0.00     0.019 C 
HETATM    2  C5  UNL     1       6.143  13.582  23.254  1.00  0.00     0.011 C 
HETATM    3  C6  UNL     1       7.403  14.417  22.966  1.00  0.00     0.021 C 
HETATM    4  C7  UNL     1       8.152  13.601  21.908  1.00  0.00     0.050 C 
HETATM    5  C9  UNL     1       9.157  14.385  21.060  1.00  0.00     0.022 C 
HETATM    6  C10 UNL     1       9.678  13.498  19.915  1.00  0.00     0.011 C 
HETATM    7  C11 UNL     1       8.571  12.890  18.971  1.00  0.00    -0.032 C 
HETATM    8  C12 UNL     1       8.012  14.120  18.184  1.00  0.00     0.016 C 
HETATM    9  C13 UNL     1       7.431  12.248  19.842  1.00  0.00     0.003 C 
HETATM   10  C14 UNL     1       6.250  11.825  18.961  1.00  0.00     0.038 C 
HETATM   11  C15 UNL     1       6.642  11.074  17.683  1.00  0.00     0.124 C 
HETATM   12  C16 UNL     1       8.104  10.564  17.655  1.00  0.00     0.032 C 
HETATM   13  C17 UNL     1       8.443   9.611  16.381  1.00  0.00    -0.033 C 
HETATM   14  C18 UNL     1       9.503   8.561  16.835  1.00  0.00     0.016 C 
HETATM   15  C19 UNL     1       7.192   8.784  15.941  1.00  0.00     0.012 C 
HETATM   16  C20 UNL     1       7.373   7.986  14.646  1.00  0.00     0.033 C 
HETATM   17  C21 UNL     1       7.830   8.864  13.484  1.00  0.00     0.128 C 
HETATM   18  C22 UNL     1       9.113   9.701  13.782  1.00  0.00     0.007 C 
HETATM   19  C23 UNL     1      10.342   8.767  13.774  1.00  0.00     0.020 C 
HETATM   20  C25 UNL     1       8.924  10.475  15.154  1.00  0.00     0.007 C 
HETATM   21  C26 UNL     1      10.101  11.382  15.552  1.00  0.00     0.007 C 
HETATM   22  C27 UNL     1       9.676  12.365  16.640  1.00  0.00     0.011 C 
HETATM   23  C28 UNL     1       9.168  11.728  17.958  1.00  0.00    -0.030 C 
HETATM   24  C29 UNL     1      10.402  11.060  18.638  1.00  0.00     0.016 C 
HETATM   25  C30 UNL     1       6.978  13.175  21.001  1.00  0.00     0.017 C 
ENDROOT
BRANCH   4  26
HETATM   26  C8  UNL     1       8.874  12.455  22.635  1.00  0.00     0.149 C 
HETATM   27  O1  UNL     1       8.972  11.292  22.283  1.00  0.00    -0.649 OA
BRANCH  26  28
HETATM   28  O2  UNL     1       9.428  12.841  23.803  1.00  0.00    -0.776 OA
HETATM   29  H11 UNL     1       9.841  12.024  24.151  1.00  0.00     0.167 HD
ENDBRANCH  26  28
ENDBRANCH   4  26
BRANCH   1  30
HETATM   30  C2  UNL     1       4.442  12.708  21.608  1.00  0.00    -0.088 C 
HETATM   31  C1  UNL     1       3.820  13.756  21.041  1.00  0.00     0.014 C 
HETATM   32  C3  UNL     1       3.677  11.448  21.922  1.00  0.00     0.043 C 
ENDBRANCH   1  30
BRANCH  11  33
HETATM   33  O3  UNL     1       6.356  11.856  16.527  1.00  0.00    -0.395 OA
HETATM   34  H23 UNL     1       5.434  12.157  16.596  1.00  0.00     0.210 HD
ENDBRANCH  11  33
BRANCH  18  35
HETATM   35  C24 UNL     1       9.271  10.711  12.596  1.00  0.00     0.176 C 
BRANCH  35  36
HETATM   36  O5  UNL     1      10.522  10.611  11.923  1.00  0.00    -0.400 OA
HETATM   37  H39 UNL     1      10.478   9.838  11.335  1.00  0.00     0.209 HD
ENDBRANCH  35  36
ENDBRANCH  18  35
BRANCH  17  38
HETATM   38  O4  UNL     1       6.738   9.706  13.097  1.00  0.00    -0.395 OA
HETATM   39  H33 UNL     1       6.537  10.316  13.830  1.00  0.00     0.210 HD
ENDBRANCH  17  38
TORSDOF 7
ENDMDL
MODEL 4
REMARK minimizedAffinity -5.81381512
REMARK CNNscore 0.459771693
REMARK CNNaffinity 5.76891327
REMARK  7 active torsions:
REMARK  status: ('A' for Active; 'I' for Inactive)
REMARK    1  A    between atoms: C2_2  and  C4_4 
REMARK    2  A    between atoms: C7_7  and  C8_8 
REMARK    3  A    between atoms: C8_8  and  O2_10 
REMARK    4  A    between atoms: C15_17  and  O3_18 
REMARK    5  A    between atoms: C21_24  and  O4_25 
REMARK    6  A    between atoms: C22_26  and  C24_28 
REMARK    7  A    between atoms: C24_28  and  O5_29 
ROOT
HETATM    1  C4  UNL     1      18.629  13.018  20.050  1.00  0.00     0.019 C 
HETATM    2  C5  UNL     1      17.887  11.738  19.576  1.00  0.00     0.011 C 
HETATM    3  C6  UNL     1      16.539  12.198  18.996  1.00  0.00     0.021 C 
HETATM    4  C7  UNL     1      16.297  13.558  19.658  1.00  0.00     0.050 C 
HETATM    5  C9  UNL     1      15.323  14.484  18.924  1.00  0.00     0.022 C 
HETATM    6  C10 UNL     1      15.332  15.877  19.581  1.00  0.00     0.011 C 
HETATM    7  C11 UNL     1      16.744  16.575  19.666  1.00  0.00    -0.032 C 
HETATM    8  C12 UNL     1      17.094  16.927  18.182  1.00  0.00     0.016 C 
HETATM    9  C13 UNL     1      17.799  15.563  20.241  1.00  0.00     0.003 C 
HETATM   10  C14 UNL     1      19.214  16.147  20.151  1.00  0.00     0.038 C 
HETATM   11  C15 UNL     1      19.336  17.603  20.617  1.00  0.00     0.124 C 
HETATM   12  C16 UNL     1      18.117  18.132  21.413  1.00  0.00     0.032 C 
HETATM   13  C17 UNL     1      18.343  19.608  22.057  1.00  0.00    -0.033 C 
HETATM   14  C18 UNL     1      17.546  19.676  23.396  1.00  0.00     0.016 C 
HETATM   15  C19 UNL     1      19.840  19.835  22.446  1.00  0.00     0.012 C 
HETATM   16  C20 UNL     1      20.176  21.257  22.904  1.00  0.00     0.033 C 
HETATM   17  C21 UNL     1      19.756  22.310  21.881  1.00  0.00     0.128 C 
HETATM   18  C22 UNL     1      18.258  22.224  21.454  1.00  0.00     0.007 C 
HETATM   19  C23 UNL     1      17.370  22.750  22.602  1.00  0.00     0.020 C 
HETATM   20  C25 UNL     1      17.919  20.731  21.036  1.00  0.00     0.007 C 
HETATM   21  C26 UNL     1      16.478  20.508  20.545  1.00  0.00     0.007 C 
HETATM   22  C27 UNL     1      16.365  19.177  19.805  1.00  0.00     0.011 C 
HETATM   23  C28 UNL     1      16.731  17.918  20.631  1.00  0.00    -0.030 C 
HETATM   24  C29 UNL     1      15.615  17.747  21.706  1.00  0.00     0.016 C 
HETATM   25  C30 UNL     1      17.711  14.169  19.566  1.00  0.00     0.017 C 
ENDROOT
BRANCH   4  26
HETATM   26  C8  UNL     1      15.784  13.293  21.082  1.00  0.00     0.149 C 
HETATM   27  O1  UNL     1      16.147  13.823  22.118  1.00  0.00    -0.649 OA
BRANCH  26  28
HETATM   28  O2  UNL     1      14.832  12.337  21.127  1.00  0.00    -0.776 OA
HETATM   29  H11 UNL     1      14.606  12.272  22.079  1.00  0.00     0.167 HD
ENDBRANCH  26  28
ENDBRANCH   4  26
BRANCH   1  30
HETATM   30  C2  UNL     1      20.081  12.985  19.600  1.00  0.00    -0.088 C 
HETATM   31  C1  UNL     1      21.139  12.926  20.429  1.00  0.00     0.014 C 
HETATM   32  C3  UNL     1      20.286  13.056  18.109  1.00  0.00     0.043 C 
ENDBRANCH   1  30
BRANCH  11  33
HETATM   33  O3  UNL     1      19.636  18.462  19.521  1.00  0.00    -0.395 OA
HETATM   34  H23 UNL     1      20.399  18.084  19.051  1.00  0.00     0.210 HD
ENDBRANCH  11  33
BRANCH  18  35
HETATM   35  C24 UNL     1      18.086  23.190  20.234  1.00  0.00     0.176 C 
BRANCH  35  36
HETATM   36  O5  UNL     1      18.596  22.664  19.012  1.00  0.00    -0.400 OA
HETATM   37  H39 UNL     1      17.947  22.026  18.673  1.00  0.00     0.209 HD
ENDBRANCH  35  36
ENDBRANCH  18  35
BRANCH  17  38
HETATM   38  O4  UNL     1      20.626  22.211  20.748  1.00  0.00    -0.395 OA
HETATM   39  H33 UNL     1      20.485  21.348  20.318  1.00  0.00     0.210 HD
ENDBRANCH  17  38
TORSDOF 7
ENDMDL
MODEL 5
REMARK minimizedAffinity -5.94574213
REMARK CNNscore 0.437462747
REMARK CNNaffinity 6.12102079
REMARK  7 active torsions:
REMARK  status: ('A' for Active; 'I' for Inactive)
REMARK    1  A    between atoms: C2_2  and  C4_4 
REMARK    2  A    between atoms: C7_7  and  C8_8 
REMARK    3  A    between atoms: C8_8  and  O2_10 
REMARK    4  A    between atoms: C15_17  and  O3_18 
REMARK    5  A    between atoms: C21_24  and  O4_25 
REMARK    6  A    between atoms: C22_26  and  C24_28 
REMARK    7  A    between atoms: C24_28  and  O5_29 
ROOT
HETATM    1  C4  UNL     1     -12.845  12.320  -2.671  1.00  0.00     0.019 C 
HETATM    2  C5  UNL     1     -14.148  11.620  -3.145  1.00  0.00     0.011 C 
HETATM    3  C6  UNL     1     -15.266  12.076  -2.192  1.00  0.00     0.021 C 
HETATM    4  C7  UNL     1     -14.520  12.506  -0.926  1.00  0.00     0.050 C 
HETATM    5  C9  UNL     1     -15.280  13.464  -0.005  1.00  0.00     0.022 C 
HETATM    6  C10 UNL     1     -14.345  13.970   1.109  1.00  0.00     0.011 C 
HETATM    7  C11 UNL     1     -13.022  14.671   0.615  1.00  0.00    -0.032 C 
HETATM    8  C12 UNL     1     -13.507  16.015  -0.020  1.00  0.00     0.016 C 
HETATM    9  C13 UNL     1     -12.330  13.780  -0.479  1.00  0.00     0.003 C 
HETATM   10  C14 UNL     1     -11.151  14.524  -1.116  1.00  0.00     0.038 C 
HETATM   11  C15 UNL     1     -10.223  15.229  -0.118  1.00  0.00     0.124 C 
HETATM   12  C16 UNL     1     -10.415  14.799   1.357  1.00  0.00     0.032 C 
HETATM   13  C17 UNL     1      -9.301  15.414   2.370  1.00  0.00    -0.033 C 
HETATM   14  C18 UNL     1      -9.054  14.371   3.504  1.00  0.00     0.016 C 
HETATM   15  C19 UNL     1      -7.922  15.594   1.657  1.00  0.00     0.012 C 
HETATM   16  C20 UNL     1      -6.860  16.323   2.486  1.00  0.00     0.033 C 
HETATM   17  C21 UNL     1      -7.349  17.679   2.989  1.00  0.00     0.128 C 
HETATM   18  C22 UNL     1      -8.696  17.622   3.774  1.00  0.00     0.007 C 
HETATM   19  C23 UNL     1      -8.447  17.011   5.169  1.00  0.00     0.020 C 
HETATM   20  C25 UNL     1      -9.764  16.816   2.920  1.00  0.00     0.007 C 
HETATM   21  C26 UNL     1     -11.161  16.720   3.556  1.00  0.00     0.007 C 
HETATM   22  C27 UNL     1     -12.194  16.295   2.516  1.00  0.00     0.011 C 
HETATM   23  C28 UNL     1     -11.941  14.923   1.841  1.00  0.00    -0.030 C 
HETATM   24  C29 UNL     1     -12.169  13.836   2.936  1.00  0.00     0.016 C 
HETATM   25  C30 UNL     1     -13.331  13.271  -1.548  1.00  0.00     0.017 C 
ENDROOT
BRANCH   4  26
HETATM   26  C8  UNL     1     -14.151  11.230  -0.152  1.00  0.00     0.149 C 
HETATM   27  O1  UNL     1     -14.896  10.489   0.465  1.00  0.00    -0.649 OA
BRANCH  26  28
HETATM   28  O2  UNL     1     -12.828  10.962  -0.182  1.00  0.00    -0.776 OA
HETATM   29  H11 UNL     1     -12.741  10.141   0.344  1.00  0.00     0.167 HD
ENDBRANCH  26  28
ENDBRANCH   4  26
BRANCH   1  30
HETATM   30  C2  UNL     1     -12.091  12.896  -3.859  1.00  0.00    -0.088 C 
HETATM   31  C1  UNL     1     -10.944  12.398  -4.354  1.00  0.00     0.014 C 
HETATM   32  C3  UNL     1     -12.707  14.131  -4.464  1.00  0.00     0.043 C 
ENDBRANCH   1  30
BRANCH  11  33
HETATM   33  O3  UNL     1     -10.318  16.643  -0.250  1.00  0.00    -0.395 OA
HETATM   34  H23 UNL     1     -10.200  16.860  -1.191  1.00  0.00     0.210 HD
ENDBRANCH  11  33
BRANCH  18  35
HETATM   35  C24 UNL     1      -9.157  19.105   3.975  1.00  0.00     0.176 C 
BRANCH  35  36
HETATM   36  O5  UNL     1      -9.457  19.431   5.329  1.00  0.00    -0.400 OA
HETATM   37  H39 UNL     1      -8.613  19.569   5.792  1.00  0.00     0.209 HD
ENDBRANCH  35  36
ENDBRANCH  18  35
BRANCH  17  38
HETATM   38  O4  UNL     1      -7.434  18.571   1.872  1.00  0.00    -0.395 OA
HETATM   39  H33 UNL     1      -8.124  18.247   1.264  1.00  0.00     0.210 HD
ENDBRANCH  17  38
TORSDOF 7
ENDMDL
MODEL 6
REMARK minimizedAffinity -6.08415508
REMARK CNNscore 0.360019833
REMARK CNNaffinity 6.00220633
REMARK  7 active torsions:
REMARK  status: ('A' for Active; 'I' for Inactive)
REMARK    1  A    between atoms: C2_2  and  C4_4 
REMARK    2  A    between atoms: C7_7  and  C8_8 
REMARK    3  A    between atoms: C8_8  and  O2_10 
REMARK    4  A    between atoms: C15_17  and  O3_18 
REMARK    5  A    between atoms: C21_24  and  O4_25 
REMARK    6  A    between atoms: C22_26  and  C24_28 
REMARK    7  A    between atoms: C24_28  and  O5_29 
ROOT
HETATM    1  C4  UNL     1       1.305   8.525  12.033  1.00  0.00     0.019 C 
HETATM    2  C5  UNL     1       2.549   7.609  11.874  1.00  0.00     0.011 C 
HETATM    3  C6  UNL     1       3.092   7.351  13.290  1.00  0.00     0.021 C 
HETATM    4  C7  UNL     1       2.559   8.530  14.110  1.00  0.00     0.050 C 
HETATM    5  C9  UNL     1       2.493   8.304  15.622  1.00  0.00     0.022 C 
HETATM    6  C10 UNL     1       1.754   9.477  16.293  1.00  0.00     0.011 C 
HETATM    7  C11 UNL     1       0.301   9.760  15.751  1.00  0.00    -0.032 C 
HETATM    8  C12 UNL     1      -0.543   8.537  16.241  1.00  0.00     0.016 C 
HETATM    9  C13 UNL     1       0.323   9.801  14.180  1.00  0.00     0.003 C 
HETATM   10  C14 UNL     1      -1.102   9.878  13.620  1.00  0.00     0.038 C 
HETATM   11  C15 UNL     1      -2.010  10.897  14.320  1.00  0.00     0.124 C 
HETATM   12  C16 UNL     1      -1.268  11.911  15.225  1.00  0.00     0.032 C 
HETATM   13  C17 UNL     1      -2.221  13.093  15.806  1.00  0.00    -0.033 C 
HETATM   14  C18 UNL     1      -1.356  14.385  15.941  1.00  0.00     0.016 C 
HETATM   15  C19 UNL     1      -3.359  13.453  14.798  1.00  0.00     0.012 C 
HETATM   16  C20 UNL     1      -4.403  14.438  15.331  1.00  0.00     0.033 C 
HETATM   17  C21 UNL     1      -5.024  13.969  16.645  1.00  0.00     0.128 C 
HETATM   18  C22 UNL     1      -3.984  13.634  17.759  1.00  0.00     0.007 C 
HETATM   19  C23 UNL     1      -3.395  14.947  18.317  1.00  0.00     0.020 C 
HETATM   20  C25 UNL     1      -2.883  12.656  17.167  1.00  0.00     0.007 C 
HETATM   21  C26 UNL     1      -1.813  12.202  18.175  1.00  0.00     0.007 C 
HETATM   22  C27 UNL     1      -1.058  10.986  17.644  1.00  0.00     0.011 C 
HETATM   23  C28 UNL     1      -0.314  11.193  16.300  1.00  0.00    -0.030 C 
HETATM   24  C29 UNL     1       0.871  12.165  16.589  1.00  0.00     0.016 C 
HETATM   25  C30 UNL     1       1.115   8.616  13.568  1.00  0.00     0.017 C 
ENDROOT
BRANCH   4  26
HETATM   26  C8  UNL     1       3.451   9.744  13.807  1.00  0.00     0.149 C 
HETATM   27  O1  UNL     1       4.653   9.848  13.976  1.00  0.00    -0.649 OA
BRANCH  26  28
HETATM   28  O2  UNL     1       2.759  10.793  13.313  1.00  0.00    -0.776 OA
HETATM   29  H11 UNL     1       3.441  11.482  13.174  1.00  0.00     0.167 HD
ENDBRANCH  26  28
ENDBRANCH   4  26
BRANCH   1  30
HETATM   30  C2  UNL     1       0.160   8.017  11.170  1.00  0.00    -0.088 C 
HETATM   31  C1  UNL     1      -0.243   8.586  10.020  1.00  0.00     0.014 C 
HETATM   32  C3  UNL     1      -0.554   6.805  11.711  1.00  0.00     0.043 C 
ENDBRANCH   1  30
BRANCH  11  33
HETATM   33  O3  UNL     1      -3.048  10.240  15.040  1.00  0.00    -0.395 OA
HETATM   34  H23 UNL     1      -3.476   9.611  14.433  1.00  0.00     0.210 HD
ENDBRANCH  11  33
BRANCH  18  35
HETATM   35  C24 UNL     1      -4.778  12.935  18.914  1.00  0.00     0.176 C 
BRANCH  35  36
HETATM   36  O5  UNL     1      -4.648  13.590  20.172  1.00  0.00    -0.400 OA
HETATM   37  H39 UNL     1      -5.232  14.366  20.161  1.00  0.00     0.209 HD
ENDBRANCH  35  36
ENDBRANCH  18  35
BRANCH  17  38
HETATM   38  O4  UNL     1      -5.871  12.848  16.369  1.00  0.00    -0.395 OA
HETATM   39  H33 UNL     1      -5.320  12.108  16.054  1.00  0.00     0.210 HD
ENDBRANCH  17  38
TORSDOF 7
ENDMDL
MODEL 7
REMARK minimizedAffinity -5.8865366
REMARK CNNscore 0.344819099
REMARK CNNaffinity 5.86390924
REMARK  7 active torsions:
REMARK  status: ('A' for Active; 'I' for Inactive)
REMARK    1  A    between atoms: C2_2  and  C4_4 
REMARK    2  A    between atoms: C7_7  and  C8_8 
REMARK    3  A    between atoms: C8_8  and  O2_10 
REMARK    4  A    between atoms: C15_17  and  O3_18 
REMARK    5  A    between atoms: C21_24  and  O4_25 
REMARK    6  A    between atoms: C22_26  and  C24_28 
REMARK    7  A    between atoms: C24_28  and  O5_29 
ROOT
HETATM    1  C4  UNL     1       5.757  18.289  -1.867  1.00  0.00     0.019 C 
HETATM    2  C5  UNL     1       7.266  18.340  -2.232  1.00  0.00     0.011 C 
HETATM    3  C6  UNL     1       7.929  17.135  -1.542  1.00  0.00     0.021 C 
HETATM    4  C7  UNL     1       6.977  16.800  -0.390  1.00  0.00     0.050 C 
HETATM    5  C9  UNL     1       7.082  15.374   0.157  1.00  0.00     0.022 C 
HETATM    6  C10 UNL     1       5.940  15.114   1.158  1.00  0.00     0.011 C 
HETATM    7  C11 UNL     1       4.484  15.347   0.599  1.00  0.00    -0.032 C 
HETATM    8  C12 UNL     1       4.271  14.185  -0.426  1.00  0.00     0.016 C 
HETATM    9  C13 UNL     1       4.418  16.732  -0.139  1.00  0.00     0.003 C 
HETATM   10  C14 UNL     1       3.075  16.898  -0.859  1.00  0.00     0.038 C 
HETATM   11  C15 UNL     1       1.849  16.505  -0.026  1.00  0.00     0.124 C 
HETATM   12  C16 UNL     1       2.122  16.341   1.490  1.00  0.00     0.032 C 
HETATM   13  C17 UNL     1       0.779  16.111   2.378  1.00  0.00    -0.033 C 
HETATM   14  C18 UNL     1       1.010  16.765   3.775  1.00  0.00     0.016 C 
HETATM   15  C19 UNL     1      -0.446  16.859   1.760  1.00  0.00     0.012 C 
HETATM   16  C20 UNL     1      -1.788  16.562   2.436  1.00  0.00     0.033 C 
HETATM   17  C21 UNL     1      -2.087  15.066   2.496  1.00  0.00     0.128 C 
HETATM   18  C22 UNL     1      -0.957  14.213   3.150  1.00  0.00     0.007 C 
HETATM   19  C23 UNL     1      -0.966  14.441   4.677  1.00  0.00     0.020 C 
HETATM   20  C25 UNL     1       0.431  14.577   2.471  1.00  0.00     0.007 C 
HETATM   21  C26 UNL     1       1.635  13.773   2.990  1.00  0.00     0.007 C 
HETATM   22  C27 UNL     1       2.815  13.897   2.029  1.00  0.00     0.011 C 
HETATM   23  C28 UNL     1       3.338  15.336   1.790  1.00  0.00    -0.030 C 
HETATM   24  C29 UNL     1       4.001  15.798   3.124  1.00  0.00     0.016 C 
HETATM   25  C30 UNL     1       5.615  16.949  -1.101  1.00  0.00     0.017 C 
ENDROOT
BRANCH   4  26
HETATM   26  C8  UNL     1       7.246  17.807   0.739  1.00  0.00     0.149 C 
HETATM   27  O1  UNL     1       6.472  18.619   1.215  1.00  0.00    -0.649 OA
BRANCH  26  28
HETATM   28  O2  UNL     1       8.512  17.749   1.203  1.00  0.00    -0.776 OA
HETATM   29  H11 UNL     1       8.540  18.436   1.901  1.00  0.00     0.167 HD
ENDBRANCH  26  28
ENDBRANCH   4  26
BRANCH   1  30
HETATM   30  C2  UNL     1       4.905  18.534  -3.102  1.00  0.00    -0.088 C 
HETATM   31  C1  UNL     1       4.821  17.698  -4.153  1.00  0.00     0.014 C 
HETATM   32  C3  UNL     1       4.147  19.836  -3.103  1.00  0.00     0.043 C 
ENDBRANCH   1  30
BRANCH  11  33
HETATM   33  O3  UNL     1       1.227  15.339  -0.558  1.00  0.00    -0.395 OA
HETATM   34  H23 UNL     1       1.085  15.489  -1.508  1.00  0.00     0.210 HD
ENDBRANCH  11  33
BRANCH  18  35
HETATM   35  C24 UNL     1      -1.322  12.713   2.888  1.00  0.00     0.176 C 
BRANCH  35  36
HETATM   36  O5  UNL     1      -0.262  11.961   2.305  1.00  0.00    -0.400 OA
HETATM   37  H39 UNL     1       0.369  11.745   3.012  1.00  0.00     0.209 HD
ENDBRANCH  35  36
ENDBRANCH  18  35
BRANCH  17  38
HETATM   38  O4  UNL     1      -2.381  14.612   1.170  1.00  0.00    -0.395 OA
HETATM   39  H33 UNL     1      -1.580  14.702   0.622  1.00  0.00     0.210 HD
ENDBRANCH  17  38
TORSDOF 7
ENDMDL
MODEL 8
REMARK minimizedAffinity -9.00394058
REMARK CNNscore 0.30677256
REMARK CNNaffinity 6.62259912
REMARK  7 active torsions:
REMARK  status: ('A' for Active; 'I' for Inactive)
REMARK    1  A    between atoms: C2_2  and  C4_4 
REMARK    2  A    between atoms: C7_7  and  C8_8 
REMARK    3  A    between atoms: C8_8  and  O2_10 
REMARK    4  A    between atoms: C15_17  and  O3_18 
REMARK    5  A    between atoms: C21_24  and  O4_25 
REMARK    6  A    between atoms: C22_26  and  C24_28 
REMARK    7  A    between atoms: C24_28  and  O5_29 
ROOT
HETATM    1  C4  UNL     1      -6.569   4.058  12.154  1.00  0.00     0.019 C 
HETATM    2  C5  UNL     1      -7.121   2.721  11.586  1.00  0.00     0.011 C 
HETATM    3  C6  UNL     1      -5.921   1.768  11.454  1.00  0.00     0.021 C 
HETATM    4  C7  UNL     1      -4.712   2.704  11.374  1.00  0.00     0.050 C 
HETATM    5  C9  UNL     1      -3.366   2.077  11.746  1.00  0.00     0.022 C 
HETATM    6  C10 UNL     1      -2.284   3.170  11.822  1.00  0.00     0.011 C 
HETATM    7  C11 UNL     1      -2.590   4.358  12.812  1.00  0.00    -0.032 C 
HETATM    8  C12 UNL     1      -2.485   3.715  14.235  1.00  0.00     0.016 C 
HETATM    9  C13 UNL     1      -4.050   4.885  12.568  1.00  0.00     0.003 C 
HETATM   10  C14 UNL     1      -4.444   5.904  13.643  1.00  0.00     0.038 C 
HETATM   11  C15 UNL     1      -3.375   6.961  13.946  1.00  0.00     0.124 C 
HETATM   12  C16 UNL     1      -2.235   7.046  12.901  1.00  0.00     0.032 C 
HETATM   13  C17 UNL     1      -1.218   8.293  13.138  1.00  0.00    -0.033 C 
HETATM   14  C18 UNL     1      -0.714   8.775  11.743  1.00  0.00     0.016 C 
HETATM   15  C19 UNL     1      -1.958   9.518  13.765  1.00  0.00     0.012 C 
HETATM   16  C20 UNL     1      -1.046  10.677  14.178  1.00  0.00     0.033 C 
HETATM   17  C21 UNL     1       0.071  10.229  15.117  1.00  0.00     0.128 C 
HETATM   18  C22 UNL     1       0.925   9.042  14.573  1.00  0.00     0.007 C 
HETATM   19  C23 UNL     1       1.853   9.554  13.451  1.00  0.00     0.020 C 
HETATM   20  C25 UNL     1      -0.043   7.876  14.101  1.00  0.00     0.007 C 
HETATM   21  C26 UNL     1       0.669   6.615  13.582  1.00  0.00     0.007 C 
HETATM   22  C27 UNL     1      -0.298   5.435  13.535  1.00  0.00     0.011 C 
HETATM   23  C28 UNL     1      -1.542   5.623  12.629  1.00  0.00    -0.030 C 
HETATM   24  C29 UNL     1      -1.027   5.634  11.157  1.00  0.00     0.016 C 
HETATM   25  C30 UNL     1      -5.085   3.735  12.462  1.00  0.00     0.017 C 
ENDROOT
BRANCH   4  26
HETATM   26  C8  UNL     1      -4.647   3.254   9.940  1.00  0.00     0.149 C 
HETATM   27  O1  UNL     1      -5.576   3.477   9.183  1.00  0.00    -0.649 OA
BRANCH  26  28
HETATM   28  O2  UNL     1      -3.384   3.478   9.521  1.00  0.00    -0.776 OA
HETATM   29  H11 UNL     1      -3.494   3.815   8.608  1.00  0.00     0.167 HD
ENDBRANCH  26  28
ENDBRANCH   4  26
BRANCH   1  30
HETATM   30  C2  UNL     1      -7.466   4.569  13.269  1.00  0.00    -0.088 C 
HETATM   31  C1  UNL     1      -7.506   4.062  14.514  1.00  0.00     0.014 C 
HETATM   32  C3  UNL     1      -8.374   5.709  12.882  1.00  0.00     0.043 C 
ENDBRANCH   1  30
BRANCH  11  33
HETATM   33  O3  UNL     1      -2.847   6.787  15.257  1.00  0.00    -0.395 OA
HETATM   34  H23 UNL     1      -3.599   6.732  15.872  1.00  0.00     0.210 HD
ENDBRANCH  11  33
BRANCH  18  35
HETATM   35  C24 UNL     1       1.828   8.562  15.759  1.00  0.00     0.176 C 
BRANCH  35  36
HETATM   36  O5  UNL     1       1.254   7.506  16.523  1.00  0.00    -0.400 OA
HETATM   37  H39 UNL     1       1.374   6.682  16.022  1.00  0.00     0.209 HD
ENDBRANCH  35  36
ENDBRANCH  18  35
BRANCH  17  38
HETATM   38  O4  UNL     1      -0.507   9.914  16.388  1.00  0.00    -0.395 OA
HETATM   39  H33 UNL     1      -1.094   9.144  16.284  1.00  0.00     0.210 HD
ENDBRANCH  17  38
TORSDOF 7
ENDMDL
MODEL 9
REMARK minimizedAffinity -5.70083809
REMARK CNNscore 0.283784658
REMARK CNNaffinity 5.62187433
REMARK  7 active torsions:
REMARK  status: ('A' for Active; 'I' for Inactive)
REMARK    1  A    between atoms: C2_2  and  C4_4 
REMARK    2  A    between atoms: C7_7  and  C8_8 
REMARK    3  A    between atoms: C8_8  and  O2_10 
REMARK    4  A    between atoms: C15_17  and  O3_18 
REMARK    5  A    between atoms: C21_24  and  O4_25 
REMARK    6  A    between atoms: C22_26  and  C24_28 
REMARK    7  A    between atoms: C24_28  and  O5_29 
ROOT
HETATM    1  C4  UNL     1      -6.374  15.005  23.575  1.00  0.00     0.019 C 
HETATM    2  C5  UNL     1      -6.628  16.106  24.640  1.00  0.00     0.011 C 
HETATM    3  C6  UNL     1      -5.911  17.374  24.145  1.00  0.00     0.021 C 
HETATM    4  C7  UNL     1      -4.837  16.843  23.192  1.00  0.00     0.050 C 
HETATM    5  C9  UNL     1      -4.307  17.850  22.169  1.00  0.00     0.022 C 
HETATM    6  C10 UNL     1      -3.396  17.134  21.154  1.00  0.00     0.011 C 
HETATM    7  C11 UNL     1      -4.055  15.922  20.391  1.00  0.00    -0.032 C 
HETATM    8  C12 UNL     1      -5.112  16.585  19.448  1.00  0.00     0.016 C 
HETATM    9  C13 UNL     1      -4.773  14.978  21.421  1.00  0.00     0.003 C 
HETATM   10  C14 UNL     1      -5.586  13.901  20.692  1.00  0.00     0.038 C 
HETATM   11  C15 UNL     1      -4.850  13.218  19.533  1.00  0.00     0.124 C 
HETATM   12  C16 UNL     1      -3.322  13.466  19.501  1.00  0.00     0.032 C 
HETATM   13  C17 UNL     1      -2.537  12.586  18.381  1.00  0.00    -0.033 C 
HETATM   14  C18 UNL     1      -1.116  12.259  18.936  1.00  0.00     0.016 C 
HETATM   15  C19 UNL     1      -3.230  11.203  18.158  1.00  0.00     0.012 C 
HETATM   16  C20 UNL     1      -2.657  10.377  17.002  1.00  0.00     0.033 C 
HETATM   17  C21 UNL     1      -2.644  11.152  15.687  1.00  0.00     0.128 C 
HETATM   18  C22 UNL     1      -1.924  12.534  15.767  1.00  0.00     0.007 C 
HETATM   19  C23 UNL     1      -0.399  12.309  15.838  1.00  0.00     0.020 C 
HETATM   20  C25 UNL     1      -2.495  13.349  17.004  1.00  0.00     0.007 C 
HETATM   21  C26 UNL     1      -1.903  14.758  17.178  1.00  0.00     0.007 C 
HETATM   22  C27 UNL     1      -2.774  15.592  18.114  1.00  0.00     0.011 C 
HETATM   23  C28 UNL     1      -2.950  15.028  19.546  1.00  0.00    -0.030 C 
HETATM   24  C29 UNL     1      -1.565  15.153  20.251  1.00  0.00     0.016 C 
HETATM   25  C30 UNL     1      -5.642  15.762  22.438  1.00  0.00     0.017 C 
ENDROOT
BRANCH   4  26
HETATM   26  C8  UNL     1      -3.675  16.319  24.051  1.00  0.00     0.149 C 
HETATM   27  O1  UNL     1      -3.079  15.262  23.938  1.00  0.00    -0.649 OA
BRANCH  26  28
HETATM   28  O2  UNL     1      -3.333  17.169  25.043  1.00  0.00    -0.776 OA
HETATM   29  H11 UNL     1      -2.598  16.712  25.502  1.00  0.00     0.167 HD
ENDBRANCH  26  28
ENDBRANCH   4  26
BRANCH   1  30
HETATM   30  C2  UNL     1      -7.663  14.261  23.264  1.00  0.00    -0.088 C 
HETATM   31  C1  UNL     1      -7.788  12.923  23.232  1.00  0.00     0.014 C 
HETATM   32  C3  UNL     1      -8.844  15.143  22.948  1.00  0.00     0.043 C 
ENDBRANCH   1  30
BRANCH  11  33
HETATM   33  O3  UNL     1      -5.445  13.560  18.285  1.00  0.00    -0.395 OA
HETATM   34  H23 UNL     1      -6.401  13.395  18.359  1.00  0.00     0.210 HD
ENDBRANCH  11  33
BRANCH  18  35
HETATM   35  C24 UNL     1      -2.237  13.278  14.426  1.00  0.00     0.176 C 
BRANCH  35  36
HETATM   36  O5  UNL     1      -1.214  13.140  13.444  1.00  0.00    -0.400 OA
HETATM   37  H39 UNL     1      -1.306  12.259  13.045  1.00  0.00     0.209 HD
ENDBRANCH  35  36
ENDBRANCH  18  35
BRANCH  17  38
HETATM   38  O4  UNL     1      -3.995  11.295  15.234  1.00  0.00    -0.395 OA
HETATM   39  H33 UNL     1      -4.482  11.852  15.868  1.00  0.00     0.210 HD
ENDBRANCH  17  38
TORSDOF 7
ENDMDL
