MODEL 1
REMARK minimizedAffinity -9.01004505
REMARK  8 active torsions:
REMARK  status: ('A' for Active; 'I' for Inactive)
REMARK    1  A    between atoms: C4_4  and  C5_5 
REMARK    2  A    between atoms: C5_5  and  C6_6 
REMARK    3  A    between atoms: C6_6  and  C7_7 
REMARK    4  A    between atoms: C9_9  and  C10_10 
REMARK    5  A    between atoms: C11_11  and  C12_12 
REMARK    6  A    between atoms: C14_14  and  C15_15 
REMARK    7  A    between atoms: C24_25  and  C26_27 
REMARK    8  A    between atoms: C29_31  and  O3_33 
ROOT
HETATM    1  C15 UNL     1      -5.844  48.076 -29.436  1.00  0.00     0.149 C 
HETATM    2  C16 UNL     1      -6.070  46.577 -29.603  1.00  0.00     0.054 C 
HETATM    3  C17 UNL     1      -6.887  46.430 -30.909  1.00  0.00     0.050 C 
HETATM    4  C18 UNL     1      -6.610  47.807 -31.584  1.00  0.00     0.272 C 
HETATM    5  O1  UNL     1      -6.202  47.727 -32.939  1.00  0.00    -0.360 OA
HETATM    6  C19 UNL     1      -4.806  47.595 -33.142  1.00  0.00     0.171 C 
HETATM    7  C20 UNL     1      -4.196  46.412 -32.412  1.00  0.00     0.027 C 
HETATM    8  C21 UNL     1      -5.071  45.168 -32.471  1.00  0.00     0.012 C 
HETATM    9  C22 UNL     1      -6.437  45.156 -31.722  1.00  0.00     0.032 C 
HETATM   10  C23 UNL     1      -7.534  44.572 -32.657  1.00  0.00    -0.066 C 
HETATM   11  C24 UNL     1      -7.560  43.260 -33.016  1.00  0.00    -0.021 C 
HETATM   12  C25 UNL     1      -6.590  42.201 -32.549  1.00  0.00     0.052 C 
HETATM   13  C27 UNL     1      -8.551  45.607 -33.086  1.00  0.00     0.038 C 
HETATM   14  C28 UNL     1      -9.251  46.279 -31.900  1.00  0.00     0.042 C 
HETATM   15  C29 UNL     1      -8.427  46.291 -30.592  1.00  0.00     0.067 C 
HETATM   16  C30 UNL     1      -8.796  45.051 -29.743  1.00  0.00     0.047 C 
HETATM   17  O4  UNL     1      -5.694  48.547 -30.771  1.00  0.00    -0.351 OA
ENDROOT
BRANCH   1  18
HETATM   18  C14 UNL     1      -4.636  48.370 -28.584  1.00  0.00     0.011 C 
HETATM   19  C12 UNL     1      -4.506  48.393 -27.239  1.00  0.00    -0.063 C 
HETATM   20  C13 UNL     1      -5.607  48.003 -26.285  1.00  0.00     0.048 C 
BRANCH  19  21
HETATM   21  C11 UNL     1      -3.212  48.784 -26.673  1.00  0.00     0.006 C 
HETATM   22  C10 UNL     1      -2.563  49.943 -26.878  1.00  0.00     0.001 C 
BRANCH  22  23
HETATM   23  C9  UNL     1      -1.277  50.230 -26.275  1.00  0.00     0.002 C 
HETATM   24  C7  UNL     1      -0.318  51.053 -26.747  1.00  0.00    -0.084 C 
HETATM   25  C8  UNL     1      -0.388  51.846 -28.027  1.00  0.00     0.043 C 
BRANCH  24  26
HETATM   26  C6  UNL     1       0.984  51.206 -25.975  1.00  0.00     0.037 C 
BRANCH  26  27
HETATM   27  C5  UNL     1       0.926  52.324 -24.928  1.00  0.00     0.031 C 
BRANCH  27  28
HETATM   28  C4  UNL     1      -0.251  52.154 -24.004  1.00  0.00    -0.024 C 
HETATM   29  C2  UNL     1      -0.237  52.116 -22.656  1.00  0.00    -0.091 C 
HETATM   30  C1  UNL     1       0.987  52.302 -21.802  1.00  0.00     0.042 C 
HETATM   31  C3  UNL     1      -1.508  51.885 -21.880  1.00  0.00     0.042 C 
ENDBRANCH  27  28
ENDBRANCH  26  27
ENDBRANCH  24  26
ENDBRANCH  22  23
ENDBRANCH  19  21
ENDBRANCH   1  18
BRANCH  15  32
HETATM   32  O3  UNL     1      -8.858  47.419 -29.815  1.00  0.00    -0.389 OA
HETATM   33  H44 UNL     1      -9.810  47.322 -29.633  1.00  0.00     0.210 HD
ENDBRANCH  15  32
BRANCH  11  34
HETATM   34  C26 UNL     1      -8.587  42.697 -33.957  1.00  0.00     0.265 C 
HETATM   35  O2  UNL     1      -8.447  42.709 -35.176  1.00  0.00    -0.302 OA
ENDBRANCH  11  34
TORSDOF 8
ENDMDL
MODEL 2
REMARK minimizedAffinity -8.99318409
REMARK  8 active torsions:
REMARK  status: ('A' for Active; 'I' for Inactive)
REMARK    1  A    between atoms: C4_4  and  C5_5 
REMARK    2  A    between atoms: C5_5  and  C6_6 
REMARK    3  A    between atoms: C6_6  and  C7_7 
REMARK    4  A    between atoms: C9_9  and  C10_10 
REMARK    5  A    between atoms: C11_11  and  C12_12 
REMARK    6  A    between atoms: C14_14  and  C15_15 
REMARK    7  A    between atoms: C24_25  and  C26_27 
REMARK    8  A    between atoms: C29_31  and  O3_33 
ROOT
HETATM    1  C15 UNL     1      -6.126  47.955 -29.439  1.00  0.00     0.149 C 
HETATM    2  C16 UNL     1      -6.383  46.467 -29.650  1.00  0.00     0.054 C 
HETATM    3  C17 UNL     1      -6.996  46.355 -31.066  1.00  0.00     0.050 C 
HETATM    4  C18 UNL     1      -6.566  47.721 -31.679  1.00  0.00     0.272 C 
HETATM    5  O1  UNL     1      -5.960  47.628 -32.958  1.00  0.00    -0.360 OA
HETATM    6  C19 UNL     1      -4.555  47.440 -32.947  1.00  0.00     0.171 C 
HETATM    7  C20 UNL     1      -4.110  46.233 -32.141  1.00  0.00     0.027 C 
HETATM    8  C21 UNL     1      -5.014  45.025 -32.343  1.00  0.00     0.012 C 
HETATM    9  C22 UNL     1      -6.477  45.066 -31.810  1.00  0.00     0.032 C 
HETATM   10  C23 UNL     1      -7.441  44.527 -32.906  1.00  0.00    -0.066 C 
HETATM   11  C24 UNL     1      -7.463  43.218 -33.275  1.00  0.00    -0.021 C 
HETATM   12  C25 UNL     1      -6.617  42.121 -32.675  1.00  0.00     0.052 C 
HETATM   13  C27 UNL     1      -8.339  45.603 -33.477  1.00  0.00     0.038 C 
HETATM   14  C28 UNL     1      -9.185  46.299 -32.406  1.00  0.00     0.042 C 
HETATM   15  C29 UNL     1      -8.571  46.276 -30.988  1.00  0.00     0.067 C 
HETATM   16  C30 UNL     1      -9.113  45.051 -30.215  1.00  0.00     0.047 C 
HETATM   17  O4  UNL     1      -5.756  48.422 -30.731  1.00  0.00    -0.351 OA
ENDROOT
BRANCH   1  18
HETATM   18  C14 UNL     1      -5.052  48.200 -28.410  1.00  0.00     0.011 C 
HETATM   19  C12 UNL     1      -5.117  48.167 -27.061  1.00  0.00    -0.063 C 
HETATM   20  C13 UNL     1      -6.346  47.752 -26.292  1.00  0.00     0.048 C 
BRANCH  19  21
HETATM   21  C11 UNL     1      -3.916  48.519 -26.299  1.00  0.00     0.006 C 
HETATM   22  C10 UNL     1      -3.574  49.742 -25.858  1.00  0.00     0.001 C 
BRANCH  22  23
HETATM   23  C9  UNL     1      -2.353  49.987 -25.117  1.00  0.00     0.002 C 
HETATM   24  C7  UNL     1      -2.038  51.086 -24.399  1.00  0.00    -0.084 C 
HETATM   25  C8  UNL     1      -2.905  52.306 -24.231  1.00  0.00     0.043 C 
BRANCH  24  26
HETATM   26  C6  UNL     1      -0.687  51.165 -23.706  1.00  0.00     0.037 C 
BRANCH  26  27
HETATM   27  C5  UNL     1       0.280  52.134 -24.395  1.00  0.00     0.031 C 
BRANCH  27  28
HETATM   28  C4  UNL     1       0.158  52.062 -25.894  1.00  0.00    -0.024 C 
HETATM   29  C2  UNL     1       1.124  51.749 -26.781  1.00  0.00    -0.091 C 
HETATM   30  C1  UNL     1       2.526  51.346 -26.420  1.00  0.00     0.042 C 
HETATM   31  C3  UNL     1       0.844  51.773 -28.262  1.00  0.00     0.042 C 
ENDBRANCH  27  28
ENDBRANCH  26  27
ENDBRANCH  24  26
ENDBRANCH  22  23
ENDBRANCH  19  21
ENDBRANCH   1  18
BRANCH  15  32
HETATM   32  O3  UNL     1      -9.071  47.419 -30.277  1.00  0.00    -0.389 OA
HETATM   33  H44 UNL     1     -10.043  47.360 -30.242  1.00  0.00     0.210 HD
ENDBRANCH  15  32
BRANCH  11  34
HETATM   34  C26 UNL     1      -8.356  42.697 -34.366  1.00  0.00     0.265 C 
HETATM   35  O2  UNL     1      -7.925  42.095 -35.345  1.00  0.00    -0.302 OA
ENDBRANCH  11  34
TORSDOF 8
ENDMDL
MODEL 3
REMARK minimizedAffinity -8.98441982
REMARK  8 active torsions:
REMARK  status: ('A' for Active; 'I' for Inactive)
REMARK    1  A    between atoms: C4_4  and  C5_5 
REMARK    2  A    between atoms: C5_5  and  C6_6 
REMARK    3  A    between atoms: C6_6  and  C7_7 
REMARK    4  A    between atoms: C9_9  and  C10_10 
REMARK    5  A    between atoms: C11_11  and  C12_12 
REMARK    6  A    between atoms: C14_14  and  C15_15 
REMARK    7  A    between atoms: C24_25  and  C26_27 
REMARK    8  A    between atoms: C29_31  and  O3_33 
ROOT
HETATM    1  C15 UNL     1      -2.620  50.779 -27.379  1.00  0.00     0.149 C 
HETATM    2  C16 UNL     1      -1.740  50.223 -26.266  1.00  0.00     0.054 C 
HETATM    3  C17 UNL     1      -1.418  51.432 -25.356  1.00  0.00     0.050 C 
HETATM    4  C18 UNL     1      -2.544  52.423 -25.779  1.00  0.00     0.272 C 
HETATM    5  O1  UNL     1      -3.259  52.998 -24.698  1.00  0.00    -0.360 OA
HETATM    6  C19 UNL     1      -4.382  52.256 -24.256  1.00  0.00     0.171 C 
HETATM    7  C20 UNL     1      -4.052  50.824 -23.875  1.00  0.00     0.027 C 
HETATM    8  C21 UNL     1      -2.742  50.706 -23.109  1.00  0.00     0.012 C 
HETATM    9  C22 UNL     1      -1.399  51.011 -23.836  1.00  0.00     0.032 C 
HETATM   10  C23 UNL     1      -0.517  51.918 -22.932  1.00  0.00    -0.066 C 
HETATM   11  C24 UNL     1       0.048  51.466 -21.780  1.00  0.00    -0.021 C 
HETATM   12  C25 UNL     1      -0.057  50.059 -21.242  1.00  0.00     0.052 C 
HETATM   13  C27 UNL     1      -0.350  53.316 -23.487  1.00  0.00     0.038 C 
HETATM   14  C28 UNL     1       0.252  53.327 -24.896  1.00  0.00     0.042 C 
HETATM   15  C29 UNL     1      -0.007  52.041 -25.714  1.00  0.00     0.067 C 
HETATM   16  C30 UNL     1       1.179  51.065 -25.523  1.00  0.00     0.047 C 
HETATM   17  O4  UNL     1      -3.397  51.779 -26.730  1.00  0.00    -0.351 OA
ENDROOT
BRANCH   1  18
HETATM   18  C14 UNL     1      -3.473  49.708 -28.009  1.00  0.00     0.011 C 
HETATM   19  C12 UNL     1      -4.148  48.686 -27.437  1.00  0.00    -0.063 C 
HETATM   20  C13 UNL     1      -4.251  48.482 -25.947  1.00  0.00     0.048 C 
BRANCH  19  21
HETATM   21  C11 UNL     1      -4.849  47.742 -28.311  1.00  0.00     0.006 C 
HETATM   22  C10 UNL     1      -6.150  47.409 -28.254  1.00  0.00     0.001 C 
BRANCH  22  23
HETATM   23  C9  UNL     1      -6.748  46.452 -29.163  1.00  0.00     0.002 C 
HETATM   24  C7  UNL     1      -7.506  45.382 -28.844  1.00  0.00    -0.084 C 
HETATM   25  C8  UNL     1      -7.881  44.953 -27.449  1.00  0.00     0.043 C 
BRANCH  24  26
HETATM   26  C6  UNL     1      -8.026  44.476 -29.950  1.00  0.00     0.037 C 
BRANCH  26  27
HETATM   27  C5  UNL     1      -6.910  43.931 -30.846  1.00  0.00     0.031 C 
BRANCH  27  28
HETATM   28  C4  UNL     1      -6.131  45.044 -31.497  1.00  0.00    -0.024 C 
HETATM   29  C2  UNL     1      -5.014  44.936 -32.244  1.00  0.00    -0.091 C 
HETATM   30  C1  UNL     1      -4.356  43.639 -32.626  1.00  0.00     0.042 C 
HETATM   31  C3  UNL     1      -4.327  46.165 -32.781  1.00  0.00     0.042 C 
ENDBRANCH  27  28
ENDBRANCH  26  27
ENDBRANCH  24  26
ENDBRANCH  22  23
ENDBRANCH  19  21
ENDBRANCH   1  18
BRANCH  15  32
HETATM   32  O3  UNL     1       0.021  52.396 -27.105  1.00  0.00    -0.389 OA
HETATM   33  H44 UNL     1       0.894  52.775 -27.309  1.00  0.00     0.210 HD
ENDBRANCH  15  32
BRANCH  11  34
HETATM   34  C26 UNL     1       0.863  52.346 -20.875  1.00  0.00     0.265 C 
HETATM   35  O2  UNL     1       1.654  53.182 -21.299  1.00  0.00    -0.302 OA
ENDBRANCH  11  34
TORSDOF 8
ENDMDL
MODEL 4
REMARK minimizedAffinity -8.83747768
REMARK  8 active torsions:
REMARK  status: ('A' for Active; 'I' for Inactive)
REMARK    1  A    between atoms: C4_4  and  C5_5 
REMARK    2  A    between atoms: C5_5  and  C6_6 
REMARK    3  A    between atoms: C6_6  and  C7_7 
REMARK    4  A    between atoms: C9_9  and  C10_10 
REMARK    5  A    between atoms: C11_11  and  C12_12 
REMARK    6  A    between atoms: C14_14  and  C15_15 
REMARK    7  A    between atoms: C24_25  and  C26_27 
REMARK    8  A    between atoms: C29_31  and  O3_33 
ROOT
HETATM    1  C15 UNL     1      -0.212  51.767 -18.175  1.00  0.00     0.149 C 
HETATM    2  C16 UNL     1       0.904  50.908 -17.589  1.00  0.00     0.054 C 
HETATM    3  C17 UNL     1       0.640  50.879 -16.064  1.00  0.00     0.050 C 
HETATM    4  C18 UNL     1      -0.857  51.311 -16.019  1.00  0.00     0.272 C 
HETATM    5  O1  UNL     1      -1.687  50.477 -15.228  1.00  0.00    -0.360 OA
HETATM    6  C19 UNL     1      -2.254  49.372 -15.909  1.00  0.00     0.171 C 
HETATM    7  C20 UNL     1      -1.227  48.483 -16.586  1.00  0.00     0.027 C 
HETATM    8  C21 UNL     1       0.016  48.265 -15.736  1.00  0.00     0.012 C 
HETATM    9  C22 UNL     1       0.972  49.463 -15.456  1.00  0.00     0.032 C 
HETATM   10  C23 UNL     1       1.343  49.486 -13.946  1.00  0.00    -0.066 C 
HETATM   11  C24 UNL     1       2.137  48.538 -13.378  1.00  0.00    -0.021 C 
HETATM   12  C25 UNL     1       2.787  47.385 -14.104  1.00  0.00     0.052 C 
HETATM   13  C27 UNL     1       0.750  50.669 -13.213  1.00  0.00     0.038 C 
HETATM   14  C28 UNL     1       1.165  52.013 -13.821  1.00  0.00     0.042 C 
HETATM   15  C29 UNL     1       1.529  51.953 -15.323  1.00  0.00     0.067 C 
HETATM   16  C30 UNL     1       3.053  51.735 -15.473  1.00  0.00     0.047 C 
HETATM   17  O4  UNL     1      -1.337  51.464 -17.358  1.00  0.00    -0.351 OA
ENDROOT
BRANCH   1  18
HETATM   18  C14 UNL     1      -0.456  51.454 -19.629  1.00  0.00     0.011 C 
HETATM   19  C12 UNL     1      -0.009  52.081 -20.739  1.00  0.00    -0.063 C 
HETATM   20  C13 UNL     1       0.966  53.231 -20.716  1.00  0.00     0.048 C 
BRANCH  19  21
HETATM   21  C11 UNL     1      -0.468  51.595 -22.044  1.00  0.00     0.006 C 
HETATM   22  C10 UNL     1      -0.288  52.195 -23.233  1.00  0.00     0.001 C 
BRANCH  22  23
HETATM   23  C9  UNL     1      -0.792  51.633 -24.470  1.00  0.00     0.002 C 
HETATM   24  C7  UNL     1      -0.107  51.428 -25.614  1.00  0.00    -0.084 C 
HETATM   25  C8  UNL     1       1.345  51.759 -25.844  1.00  0.00     0.043 C 
BRANCH  24  26
HETATM   26  C6  UNL     1      -0.825  50.844 -26.822  1.00  0.00     0.037 C 
BRANCH  26  27
HETATM   27  C5  UNL     1      -2.280  51.313 -26.933  1.00  0.00     0.031 C 
BRANCH  27  28
HETATM   28  C4  UNL     1      -3.135  50.294 -27.639  1.00  0.00    -0.024 C 
HETATM   29  C2  UNL     1      -3.578  49.117 -27.154  1.00  0.00    -0.091 C 
HETATM   30  C1  UNL     1      -3.341  48.618 -25.755  1.00  0.00     0.042 C 
HETATM   31  C3  UNL     1      -4.388  48.185 -28.018  1.00  0.00     0.042 C 
ENDBRANCH  27  28
ENDBRANCH  26  27
ENDBRANCH  24  26
ENDBRANCH  22  23
ENDBRANCH  19  21
ENDBRANCH   1  18
BRANCH  15  32
HETATM   32  O3  UNL     1       1.278  53.250 -15.885  1.00  0.00    -0.389 OA
HETATM   33  H44 UNL     1       1.828  53.901 -15.414  1.00  0.00     0.210 HD
ENDBRANCH  15  32
BRANCH  11  34
HETATM   34  C26 UNL     1       2.462  48.524 -11.911  1.00  0.00     0.265 C 
HETATM   35  O2  UNL     1       3.611  48.591 -11.486  1.00  0.00    -0.302 OA
ENDBRANCH  11  34
TORSDOF 8
ENDMDL
MODEL 5
REMARK minimizedAffinity -8.8203373
REMARK  8 active torsions:
REMARK  status: ('A' for Active; 'I' for Inactive)
REMARK    1  A    between atoms: C4_4  and  C5_5 
REMARK    2  A    between atoms: C5_5  and  C6_6 
REMARK    3  A    between atoms: C6_6  and  C7_7 
REMARK    4  A    between atoms: C9_9  and  C10_10 
REMARK    5  A    between atoms: C11_11  and  C12_12 
REMARK    6  A    between atoms: C14_14  and  C15_15 
REMARK    7  A    between atoms: C24_25  and  C26_27 
REMARK    8  A    between atoms: C29_31  and  O3_33 
ROOT
HETATM    1  C15 UNL     1      -6.236  47.854 -29.359  1.00  0.00     0.149 C 
HETATM    2  C16 UNL     1      -6.479  46.371 -29.618  1.00  0.00     0.054 C 
HETATM    3  C17 UNL     1      -7.034  46.293 -31.060  1.00  0.00     0.050 C 
HETATM    4  C18 UNL     1      -6.584  47.675 -31.621  1.00  0.00     0.272 C 
HETATM    5  O1  UNL     1      -5.926  47.615 -32.876  1.00  0.00    -0.360 OA
HETATM    6  C19 UNL     1      -4.522  47.431 -32.812  1.00  0.00     0.171 C 
HETATM    7  C20 UNL     1      -4.107  46.205 -32.020  1.00  0.00     0.027 C 
HETATM    8  C21 UNL     1      -4.997  45.000 -32.288  1.00  0.00     0.012 C 
HETATM    9  C22 UNL     1      -6.481  45.024 -31.815  1.00  0.00     0.032 C 
HETATM   10  C23 UNL     1      -7.397  44.511 -32.962  1.00  0.00    -0.066 C 
HETATM   11  C24 UNL     1      -7.400  43.212 -33.365  1.00  0.00    -0.021 C 
HETATM   12  C25 UNL     1      -6.576  42.102 -32.758  1.00  0.00     0.052 C 
HETATM   13  C27 UNL     1      -8.276  45.598 -33.542  1.00  0.00     0.038 C 
HETATM   14  C28 UNL     1      -9.167  46.266 -32.490  1.00  0.00     0.042 C 
HETATM   15  C29 UNL     1      -8.610  46.209 -31.049  1.00  0.00     0.067 C 
HETATM   16  C30 UNL     1      -9.179  44.963 -30.329  1.00  0.00     0.047 C 
HETATM   17  O4  UNL     1      -5.816  48.354 -30.623  1.00  0.00    -0.351 OA
ENDROOT
BRANCH   1  18
HETATM   18  C14 UNL     1      -5.205  48.075 -28.282  1.00  0.00     0.011 C 
HETATM   19  C12 UNL     1      -5.333  48.040 -26.937  1.00  0.00    -0.063 C 
HETATM   20  C13 UNL     1      -6.604  47.647 -26.227  1.00  0.00     0.048 C 
BRANCH  19  21
HETATM   21  C11 UNL     1      -4.161  48.367 -26.120  1.00  0.00     0.006 C 
HETATM   22  C10 UNL     1      -4.163  48.769 -24.837  1.00  0.00     0.001 C 
BRANCH  22  23
HETATM   23  C9  UNL     1      -2.944  49.078 -24.118  1.00  0.00     0.002 C 
HETATM   24  C7  UNL     1      -2.595  50.259 -23.568  1.00  0.00    -0.084 C 
HETATM   25  C8  UNL     1      -3.416  51.523 -23.601  1.00  0.00     0.043 C 
BRANCH  24  26
HETATM   26  C6  UNL     1      -1.251  50.392 -22.868  1.00  0.00     0.037 C 
BRANCH  26  27
HETATM   27  C5  UNL     1      -0.840  51.851 -22.643  1.00  0.00     0.031 C 
BRANCH  27  28
HETATM   28  C4  UNL     1      -0.577  52.132 -21.187  1.00  0.00    -0.024 C 
HETATM   29  C2  UNL     1       0.359  52.950 -20.665  1.00  0.00    -0.091 C 
HETATM   30  C1  UNL     1       1.301  53.803 -21.468  1.00  0.00     0.042 C 
HETATM   31  C3  UNL     1       0.523  53.077 -19.172  1.00  0.00     0.042 C 
ENDBRANCH  27  28
ENDBRANCH  26  27
ENDBRANCH  24  26
ENDBRANCH  22  23
ENDBRANCH  19  21
ENDBRANCH   1  18
BRANCH  15  32
HETATM   32  O3  UNL     1      -9.143  47.332 -30.330  1.00  0.00    -0.389 OA
HETATM   33  H44 UNL     1     -10.115  47.270 -30.337  1.00  0.00     0.210 HD
ENDBRANCH  15  32
BRANCH  11  34
HETATM   34  C26 UNL     1      -8.246  42.716 -34.503  1.00  0.00     0.265 C 
HETATM   35  O2  UNL     1      -9.045  43.434 -35.097  1.00  0.00    -0.302 OA
ENDBRANCH  11  34
TORSDOF 8
ENDMDL
MODEL 6
REMARK minimizedAffinity -8.76030159
REMARK  8 active torsions:
REMARK  status: ('A' for Active; 'I' for Inactive)
REMARK    1  A    between atoms: C4_4  and  C5_5 
REMARK    2  A    between atoms: C5_5  and  C6_6 
REMARK    3  A    between atoms: C6_6  and  C7_7 
REMARK    4  A    between atoms: C9_9  and  C10_10 
REMARK    5  A    between atoms: C11_11  and  C12_12 
REMARK    6  A    between atoms: C14_14  and  C15_15 
REMARK    7  A    between atoms: C24_25  and  C26_27 
REMARK    8  A    between atoms: C29_31  and  O3_33 
ROOT
HETATM    1  C15 UNL     1      -2.598  50.752 -27.490  1.00  0.00     0.149 C 
HETATM    2  C16 UNL     1      -1.735  50.189 -26.367  1.00  0.00     0.054 C 
HETATM    3  C17 UNL     1      -1.450  51.387 -25.430  1.00  0.00     0.050 C 
HETATM    4  C18 UNL     1      -2.579  52.370 -25.862  1.00  0.00     0.272 C 
HETATM    5  O1  UNL     1      -3.326  52.918 -24.788  1.00  0.00    -0.360 OA
HETATM    6  C19 UNL     1      -4.449  52.154 -24.384  1.00  0.00     0.171 C 
HETATM    7  C20 UNL     1      -4.108  50.720 -24.019  1.00  0.00     0.027 C 
HETATM    8  C21 UNL     1      -2.814  50.606 -23.225  1.00  0.00     0.012 C 
HETATM    9  C22 UNL     1      -1.459  50.941 -23.917  1.00  0.00     0.032 C 
HETATM   10  C23 UNL     1      -0.610  51.844 -22.979  1.00  0.00    -0.066 C 
HETATM   11  C24 UNL     1      -0.064  51.380 -21.822  1.00  0.00    -0.021 C 
HETATM   12  C25 UNL     1      -0.163  49.963 -21.310  1.00  0.00     0.052 C 
HETATM   13  C27 UNL     1      -0.449  53.253 -23.506  1.00  0.00     0.038 C 
HETATM   14  C28 UNL     1       0.184  53.296 -24.901  1.00  0.00     0.042 C 
HETATM   15  C29 UNL     1      -0.039  52.020 -25.746  1.00  0.00     0.067 C 
HETATM   16  C30 UNL     1       1.155  51.057 -25.544  1.00  0.00     0.047 C 
HETATM   17  O4  UNL     1      -3.402  51.731 -26.842  1.00  0.00    -0.351 OA
ENDROOT
BRANCH   1  18
HETATM   18  C14 UNL     1      -3.422  49.681 -28.157  1.00  0.00     0.011 C 
HETATM   19  C12 UNL     1      -4.102  48.646 -27.616  1.00  0.00    -0.063 C 
HETATM   20  C13 UNL     1      -4.246  48.423 -26.132  1.00  0.00     0.048 C 
BRANCH  19  21
HETATM   21  C11 UNL     1      -4.770  47.705 -28.521  1.00  0.00     0.006 C 
HETATM   22  C10 UNL     1      -5.483  48.014 -29.617  1.00  0.00     0.001 C 
BRANCH  22  23
HETATM   23  C9  UNL     1      -6.113  47.004 -30.443  1.00  0.00     0.002 C 
HETATM   24  C7  UNL     1      -5.624  46.446 -31.571  1.00  0.00    -0.084 C 
HETATM   25  C8  UNL     1      -4.303  46.777 -32.216  1.00  0.00     0.043 C 
BRANCH  24  26
HETATM   26  C6  UNL     1      -6.454  45.411 -32.314  1.00  0.00     0.037 C 
BRANCH  26  27
HETATM   27  C5  UNL     1      -6.148  43.975 -31.872  1.00  0.00     0.031 C 
BRANCH  27  28
HETATM   28  C4  UNL     1      -4.891  43.455 -32.517  1.00  0.00    -0.024 C 
HETATM   29  C2  UNL     1      -4.657  42.207 -32.970  1.00  0.00    -0.091 C 
HETATM   30  C1  UNL     1      -5.661  41.088 -32.966  1.00  0.00     0.042 C 
HETATM   31  C3  UNL     1      -3.315  41.838 -33.547  1.00  0.00     0.042 C 
ENDBRANCH  27  28
ENDBRANCH  26  27
ENDBRANCH  24  26
ENDBRANCH  22  23
ENDBRANCH  19  21
ENDBRANCH   1  18
BRANCH  15  32
HETATM   32  O3  UNL     1       0.015  52.398 -27.130  1.00  0.00    -0.389 OA
HETATM   33  H44 UNL     1       0.887  52.793 -27.309  1.00  0.00     0.210 HD
ENDBRANCH  15  32
BRANCH  11  34
HETATM   34  C26 UNL     1       0.718  52.257 -20.884  1.00  0.00     0.265 C 
HETATM   35  O2  UNL     1       0.209  53.185 -20.264  1.00  0.00    -0.302 OA
ENDBRANCH  11  34
TORSDOF 8
ENDMDL
MODEL 7
REMARK minimizedAffinity -8.62582588
REMARK  8 active torsions:
REMARK  status: ('A' for Active; 'I' for Inactive)
REMARK    1  A    between atoms: C4_4  and  C5_5 
REMARK    2  A    between atoms: C5_5  and  C6_6 
REMARK    3  A    between atoms: C6_6  and  C7_7 
REMARK    4  A    between atoms: C9_9  and  C10_10 
REMARK    5  A    between atoms: C11_11  and  C12_12 
REMARK    6  A    between atoms: C14_14  and  C15_15 
REMARK    7  A    between atoms: C24_25  and  C26_27 
REMARK    8  A    between atoms: C29_31  and  O3_33 
ROOT
HETATM    1  C15 UNL     1      -2.534  50.786 -27.394  1.00  0.00     0.149 C 
HETATM    2  C16 UNL     1      -1.653  50.236 -26.277  1.00  0.00     0.054 C 
HETATM    3  C17 UNL     1      -1.285  51.461 -25.406  1.00  0.00     0.050 C 
HETATM    4  C18 UNL     1      -2.388  52.471 -25.842  1.00  0.00     0.272 C 
HETATM    5  O1  UNL     1      -3.071  53.096 -24.768  1.00  0.00    -0.360 OA
HETATM    6  C19 UNL     1      -4.209  52.399 -24.290  1.00  0.00     0.171 C 
HETATM    7  C20 UNL     1      -3.913  50.970 -23.872  1.00  0.00     0.027 C 
HETATM    8  C21 UNL     1      -2.596  50.835 -23.121  1.00  0.00     0.012 C 
HETATM    9  C22 UNL     1      -1.256  51.082 -23.875  1.00  0.00     0.032 C 
HETATM   10  C23 UNL     1      -0.335  51.988 -23.009  1.00  0.00    -0.066 C 
HETATM   11  C24 UNL     1       0.233  51.552 -21.852  1.00  0.00    -0.021 C 
HETATM   12  C25 UNL     1       0.096  50.164 -21.274  1.00  0.00     0.052 C 
HETATM   13  C27 UNL     1      -0.137  53.365 -23.605  1.00  0.00     0.038 C 
HETATM   14  C28 UNL     1       0.444  53.319 -25.022  1.00  0.00     0.042 C 
HETATM   15  C29 UNL     1       0.138  52.019 -25.800  1.00  0.00     0.067 C 
HETATM   16  C30 UNL     1       1.298  51.016 -25.598  1.00  0.00     0.047 C 
HETATM   17  O4  UNL     1      -3.272  51.825 -26.762  1.00  0.00    -0.351 OA
ENDROOT
BRANCH   1  18
HETATM   18  C14 UNL     1      -3.426  49.723 -27.981  1.00  0.00     0.011 C 
HETATM   19  C12 UNL     1      -4.033  48.672 -27.387  1.00  0.00    -0.063 C 
HETATM   20  C13 UNL     1      -4.000  48.418 -25.901  1.00  0.00     0.048 C 
BRANCH  19  21
HETATM   21  C11 UNL     1      -4.797  47.745 -28.227  1.00  0.00     0.006 C 
HETATM   22  C10 UNL     1      -6.135  47.636 -28.290  1.00  0.00     0.001 C 
BRANCH  22  23
HETATM   23  C9  UNL     1      -6.796  46.676 -29.150  1.00  0.00     0.002 C 
HETATM   24  C7  UNL     1      -7.631  45.682 -28.780  1.00  0.00    -0.084 C 
HETATM   25  C8  UNL     1      -8.042  45.359 -27.367  1.00  0.00     0.043 C 
BRANCH  24  26
HETATM   26  C6  UNL     1      -8.210  44.757 -29.839  1.00  0.00     0.037 C 
BRANCH  26  27
HETATM   27  C5  UNL     1      -9.013  45.506 -30.908  1.00  0.00     0.031 C 
BRANCH  27  28
HETATM   28  C4  UNL     1     -10.268  46.109 -30.335  1.00  0.00    -0.024 C 
HETATM   29  C2  UNL     1     -10.533  47.415 -30.136  1.00  0.00    -0.091 C 
HETATM   30  C1  UNL     1      -9.620  48.547 -30.517  1.00  0.00     0.042 C 
HETATM   31  C3  UNL     1     -11.829  47.848 -29.499  1.00  0.00     0.042 C 
ENDBRANCH  27  28
ENDBRANCH  26  27
ENDBRANCH  24  26
ENDBRANCH  22  23
ENDBRANCH  19  21
ENDBRANCH   1  18
BRANCH  15  32
HETATM   32  O3  UNL     1       0.155  52.334 -27.201  1.00  0.00    -0.389 OA
HETATM   33  H44 UNL     1       1.036  52.683 -27.428  1.00  0.00     0.210 HD
ENDBRANCH  15  32
BRANCH  11  34
HETATM   34  C26 UNL     1       1.085  52.434 -20.984  1.00  0.00     0.265 C 
HETATM   35  O2  UNL     1       0.613  53.184 -20.135  1.00  0.00    -0.302 OA
ENDBRANCH  11  34
TORSDOF 8
ENDMDL
MODEL 8
REMARK minimizedAffinity -8.6084528
REMARK  8 active torsions:
REMARK  status: ('A' for Active; 'I' for Inactive)
REMARK    1  A    between atoms: C4_4  and  C5_5 
REMARK    2  A    between atoms: C5_5  and  C6_6 
REMARK    3  A    between atoms: C6_6  and  C7_7 
REMARK    4  A    between atoms: C9_9  and  C10_10 
REMARK    5  A    between atoms: C11_11  and  C12_12 
REMARK    6  A    between atoms: C14_14  and  C15_15 
REMARK    7  A    between atoms: C24_25  and  C26_27 
REMARK    8  A    between atoms: C29_31  and  O3_33 
ROOT
HETATM    1  C15 UNL     1      -7.344  46.566 -28.538  1.00  0.00     0.149 C 
HETATM    2  C16 UNL     1      -7.157  46.229 -30.014  1.00  0.00     0.054 C 
HETATM    3  C17 UNL     1      -8.587  46.157 -30.601  1.00  0.00     0.050 C 
HETATM    4  C18 UNL     1      -9.388  46.936 -29.516  1.00  0.00     0.272 C 
HETATM    5  O1  UNL     1     -10.243  47.946 -30.027  1.00  0.00    -0.360 OA
HETATM    6  C19 UNL     1      -9.643  49.220 -30.184  1.00  0.00     0.171 C 
HETATM    7  C20 UNL     1      -8.394  49.201 -31.047  1.00  0.00     0.027 C 
HETATM    8  C21 UNL     1      -8.530  48.295 -32.262  1.00  0.00     0.012 C 
HETATM    9  C22 UNL     1      -8.633  46.753 -32.060  1.00  0.00     0.032 C 
HETATM   10  C23 UNL     1      -9.782  46.192 -32.945  1.00  0.00    -0.066 C 
HETATM   11  C24 UNL     1      -9.700  46.150 -34.303  1.00  0.00    -0.021 C 
HETATM   12  C25 UNL     1      -8.512  46.588 -35.126  1.00  0.00     0.052 C 
HETATM   13  C27 UNL     1     -10.957  45.692 -32.134  1.00  0.00     0.038 C 
HETATM   14  C28 UNL     1     -10.563  44.606 -31.127  1.00  0.00     0.042 C 
HETATM   15  C29 UNL     1      -9.089  44.662 -30.666  1.00  0.00     0.067 C 
HETATM   16  C30 UNL     1      -8.235  43.738 -31.566  1.00  0.00     0.047 C 
HETATM   17  O4  UNL     1      -8.476  47.428 -28.529  1.00  0.00    -0.351 OA
ENDROOT
BRANCH   1  18
HETATM   18  C14 UNL     1      -6.119  47.220 -27.952  1.00  0.00     0.011 C 
HETATM   19  C12 UNL     1      -5.174  47.983 -28.543  1.00  0.00    -0.063 C 
HETATM   20  C13 UNL     1      -5.238  48.428 -29.983  1.00  0.00     0.048 C 
BRANCH  19  21
HETATM   21  C11 UNL     1      -4.039  48.435 -27.733  1.00  0.00     0.006 C 
HETATM   22  C10 UNL     1      -4.014  48.583 -26.398  1.00  0.00     0.001 C 
BRANCH  22  23
HETATM   23  C9  UNL     1      -2.839  49.048 -25.690  1.00  0.00     0.002 C 
HETATM   24  C7  UNL     1      -2.531  50.320 -25.362  1.00  0.00    -0.084 C 
HETATM   25  C8  UNL     1      -3.359  51.538 -25.682  1.00  0.00     0.043 C 
BRANCH  24  26
HETATM   26  C6  UNL     1      -1.228  50.611 -24.632  1.00  0.00     0.037 C 
BRANCH  26  27
HETATM   27  C5  UNL     1      -0.660  51.997 -24.958  1.00  0.00     0.031 C 
BRANCH  27  28
HETATM   28  C4  UNL     1       0.764  51.910 -25.440  1.00  0.00    -0.024 C 
HETATM   29  C2  UNL     1       1.192  51.712 -26.703  1.00  0.00    -0.091 C 
HETATM   30  C1  UNL     1       0.299  51.596 -27.907  1.00  0.00     0.042 C 
HETATM   31  C3  UNL     1       2.664  51.599 -27.006  1.00  0.00     0.042 C 
ENDBRANCH  27  28
ENDBRANCH  26  27
ENDBRANCH  24  26
ENDBRANCH  22  23
ENDBRANCH  19  21
ENDBRANCH   1  18
BRANCH  15  32
HETATM   32  O3  UNL     1      -9.018  44.078 -29.357  1.00  0.00    -0.389 OA
HETATM   33  H44 UNL     1      -9.337  43.159 -29.411  1.00  0.00     0.210 HD
ENDBRANCH  15  32
BRANCH  11  34
HETATM   34  C26 UNL     1     -10.823  45.654 -35.169  1.00  0.00     0.265 C 
HETATM   35  O2  UNL     1     -11.823  45.110 -34.711  1.00  0.00    -0.302 OA
ENDBRANCH  11  34
TORSDOF 8
ENDMDL
MODEL 9
REMARK minimizedAffinity -8.47780228
REMARK  8 active torsions:
REMARK  status: ('A' for Active; 'I' for Inactive)
REMARK    1  A    between atoms: C4_4  and  C5_5 
REMARK    2  A    between atoms: C5_5  and  C6_6 
REMARK    3  A    between atoms: C6_6  and  C7_7 
REMARK    4  A    between atoms: C9_9  and  C10_10 
REMARK    5  A    between atoms: C11_11  and  C12_12 
REMARK    6  A    between atoms: C14_14  and  C15_15 
REMARK    7  A    between atoms: C24_25  and  C26_27 
REMARK    8  A    between atoms: C29_31  and  O3_33 
ROOT
HETATM    1  C15 UNL     1      -7.875  47.172 -27.678  1.00  0.00     0.149 C 
HETATM    2  C16 UNL     1      -7.665  46.190 -28.826  1.00  0.00     0.054 C 
HETATM    3  C17 UNL     1      -8.979  46.229 -29.642  1.00  0.00     0.050 C 
HETATM    4  C18 UNL     1      -9.587  47.578 -29.152  1.00  0.00     0.272 C 
HETATM    5  O1  UNL     1     -10.018  48.441 -30.191  1.00  0.00    -0.360 OA
HETATM    6  C19 UNL     1      -9.028  49.323 -30.691  1.00  0.00     0.171 C 
HETATM    7  C20 UNL     1      -7.775  48.617 -31.176  1.00  0.00     0.027 C 
HETATM    8  C21 UNL     1      -8.079  47.337 -31.943  1.00  0.00     0.012 C 
HETATM    9  C22 UNL     1      -8.691  46.119 -31.189  1.00  0.00     0.032 C 
HETATM   10  C23 UNL     1      -9.869  45.536 -32.020  1.00  0.00    -0.066 C 
HETATM   11  C24 UNL     1      -9.675  44.887 -33.200  1.00  0.00    -0.021 C 
HETATM   12  C25 UNL     1      -8.336  44.608 -33.840  1.00  0.00     0.052 C 
HETATM   13  C27 UNL     1     -11.215  45.753 -31.362  1.00  0.00     0.038 C 
HETATM   14  C28 UNL     1     -11.290  45.155 -29.954  1.00  0.00     0.042 C 
HETATM   15  C29 UNL     1      -9.927  45.035 -29.234  1.00  0.00     0.067 C 
HETATM   16  C30 UNL     1      -9.334  43.630 -29.491  1.00  0.00     0.047 C 
HETATM   17  O4  UNL     1      -8.665  48.204 -28.256  1.00  0.00    -0.351 OA
ENDROOT
BRANCH   1  18
HETATM   18  C14 UNL     1      -6.567  47.686 -27.133  1.00  0.00     0.011 C 
HETATM   19  C12 UNL     1      -5.406  47.955 -27.770  1.00  0.00    -0.063 C 
HETATM   20  C13 UNL     1      -5.234  47.875 -29.266  1.00  0.00     0.048 C 
BRANCH  19  21
HETATM   21  C11 UNL     1      -4.257  48.385 -26.967  1.00  0.00     0.006 C 
HETATM   22  C10 UNL     1      -3.298  49.251 -27.337  1.00  0.00     0.001 C 
BRANCH  22  23
HETATM   23  C9  UNL     1      -2.193  49.603 -26.468  1.00  0.00     0.002 C 
HETATM   24  C7  UNL     1      -1.695  50.836 -26.237  1.00  0.00    -0.084 C 
HETATM   25  C8  UNL     1      -2.191  52.117 -26.856  1.00  0.00     0.043 C 
BRANCH  24  26
HETATM   26  C6  UNL     1      -0.507  51.000 -25.301  1.00  0.00     0.037 C 
BRANCH  26  27
HETATM   27  C5  UNL     1      -0.923  51.362 -23.871  1.00  0.00     0.031 C 
BRANCH  27  28
HETATM   28  C4  UNL     1      -0.054  52.454 -23.304  1.00  0.00    -0.024 C 
HETATM   29  C2  UNL     1       0.451  52.536 -22.056  1.00  0.00    -0.091 C 
HETATM   30  C1  UNL     1       0.282  51.490 -20.989  1.00  0.00     0.042 C 
HETATM   31  C3  UNL     1       1.266  53.731 -21.634  1.00  0.00     0.042 C 
ENDBRANCH  27  28
ENDBRANCH  26  27
ENDBRANCH  24  26
ENDBRANCH  22  23
ENDBRANCH  19  21
ENDBRANCH   1  18
BRANCH  15  32
HETATM   32  O3  UNL     1     -10.174  45.084 -27.821  1.00  0.00    -0.389 OA
HETATM   33  H44 UNL     1     -10.764  44.347 -27.584  1.00  0.00     0.210 HD
ENDBRANCH  15  32
BRANCH  11  34
HETATM   34  C26 UNL     1     -10.810  44.362 -34.033  1.00  0.00     0.265 C 
HETATM   35  O2  UNL     1     -11.911  44.097 -33.562  1.00  0.00    -0.302 OA
ENDBRANCH  11  34
TORSDOF 8
ENDMDL
