MODEL 1
REMARK minimizedAffinity -9.25888252
REMARK CNNscore 0.684528112
REMARK CNNaffinity 7.52390671
REMARK  14 active torsions:
REMARK  status: ('A' for Active; 'I' for Inactive)
REMARK    1  A    between atoms: O1_2  and  C2_3 
REMARK    2  A    between atoms: C6_8  and  C7_9 
REMARK    3  A    between atoms: C7_9  and  O3_11 
REMARK    4  A    between atoms: C8_12  and  C9_13 
REMARK    5  A    between atoms: C9_13  and  C10_14 
REMARK    6  A    between atoms: C10_14  and  N2_15 
REMARK       I    between atoms: N2_15  and  C11_16 
REMARK    7  A    between atoms: C11_16  and  C12_18 
REMARK    8  A    between atoms: C12_18  and  C13_19 
REMARK    9  A    between atoms: C13_19  and  C14_20 
REMARK   10  A    between atoms: C14_20  and  O6_22 
REMARK   11  A    between atoms: O6_22  and  C15_23 
REMARK   12  A    between atoms: C15_23  and  C16_24 
REMARK   13  A    between atoms: C16_24  and  C17_26 
REMARK   14  A    between atoms: C17_26  and  O8_27 
ROOT
HETATM    1  C14 UNL     1      -0.474  51.748 -19.231  1.00  0.00     0.259 C 
HETATM    2  O5  UNL     1      -0.498  50.908 -20.124  1.00  0.00    -0.265 OA
ENDROOT
BRANCH   1   3
HETATM    3  C13 UNL     1      -0.082  53.194 -19.413  1.00  0.00     0.120 C 
BRANCH   3   4
HETATM    4  C12 UNL     1       1.311  53.306 -20.021  1.00  0.00     0.112 C 
BRANCH   4   5
HETATM    5  C11 UNL     1       1.253  53.786 -21.459  1.00  0.00     0.218 C 
HETATM    6  N2  UNL     1       0.590  52.913 -22.293  1.00  0.00    -0.361 N 
HETATM    7  H12 UNL     1       0.112  52.118 -21.892  1.00  0.00     0.162 HD
HETATM    8  O4  UNL     1       1.763  54.836 -21.834  1.00  0.00    -0.274 OA
BRANCH   6   9
HETATM    9  C10 UNL     1       0.312  53.247 -23.679  1.00  0.00     0.127 C 
BRANCH   9  10
HETATM   10  C9  UNL     1       0.885  52.231 -24.670  1.00  0.00     0.061 C 
BRANCH  10  11
HETATM   11  C8  UNL     1      -0.198  51.532 -25.446  1.00  0.00    -0.011 A 
HETATM   12  C6  UNL     1      -0.407  51.542 -26.824  1.00  0.00     0.114 A 
HETATM   13  N1  UNL     1      -1.522  50.770 -27.066  1.00  0.00    -0.350 N 
HETATM   14  C5  UNL     1      -2.053  50.281 -25.900  1.00  0.00     0.043 A 
HETATM   15  H6  UNL     1      -1.902  50.607 -27.989  1.00  0.00     0.166 HD
HETATM   16  C4  UNL     1      -3.182  49.485 -25.692  1.00  0.00     0.033 A 
HETATM   17  C36 UNL     1      -1.241  50.728 -24.864  1.00  0.00     0.002 A 
HETATM   18  C3  UNL     1      -3.482  49.128 -24.374  1.00  0.00     0.039 A 
HETATM   19  C2  UNL     1      -2.690  49.546 -23.305  1.00  0.00     0.069 A 
HETATM   20  C37 UNL     1      -1.568  50.350 -23.540  1.00  0.00     0.051 A 
BRANCH  12  21
HETATM   21  C7  UNL     1       0.287  52.170 -27.918  1.00  0.00     0.194 C 
HETATM   22  O2  UNL     1       1.365  51.832 -28.382  1.00  0.00    -0.645 OA
BRANCH  21  23
HETATM   23  O3  UNL     1      -0.395  53.209 -28.426  1.00  0.00    -0.772 OA
HETATM   24  H7  UNL     1       0.161  53.553 -29.150  1.00  0.00     0.167 HD
ENDBRANCH  21  23
ENDBRANCH  12  21
BRANCH  19  25
HETATM   25  O1  UNL     1      -3.117  49.108 -22.079  1.00  0.00    -0.356 OA
HETATM   26  C1  UNL     1      -4.129  48.107 -22.071  1.00  0.00     0.210 C 
ENDBRANCH  19  25
ENDBRANCH  10  11
ENDBRANCH   9  10
ENDBRANCH   6   9
ENDBRANCH   4   5
ENDBRANCH   3   4
ENDBRANCH   1   3
BRANCH   1  27
HETATM   27  O6  UNL     1      -0.756  51.495 -17.926  1.00  0.00    -0.314 OA
BRANCH  27  28
HETATM   28  C15 UNL     1       0.213  50.718 -17.233  1.00  0.00     0.260 C 
BRANCH  28  29
HETATM   29  C16 UNL     1       0.811  51.357 -15.979  1.00  0.00     0.185 C 
HETATM   30  O7  UNL     1       1.276  52.501 -16.051  1.00  0.00    -0.292 OA
BRANCH  29  31
HETATM   31  C17 UNL     1       0.753  50.581 -14.623  1.00  0.00     0.128 C 
HETATM   32  C18 UNL     1       2.069  50.855 -13.858  1.00  0.00     0.047 C 
HETATM   33  C19 UNL     1       1.792  52.027 -12.907  1.00  0.00     0.009 C 
HETATM   34  C20 UNL     1       0.311  52.398 -13.091  1.00  0.00     0.002 C 
HETATM   35  C21 UNL     1      -0.391  52.993 -11.853  1.00  0.00    -0.004 C 
HETATM   36  C34 UNL     1      -0.338  51.104 -13.628  1.00  0.00    -0.002 C 
HETATM   37  C22 UNL     1       0.358  54.226 -11.331  1.00  0.00     0.010 C 
HETATM   38  C31 UNL     1      -0.608  51.966 -10.712  1.00  0.00     0.002 C 
HETATM   39  C23 UNL     1      -0.412  54.895 -10.202  1.00  0.00     0.035 C 
HETATM   40  C24 UNL     1      -0.698  53.933  -9.074  1.00  0.00    -0.068 C 
HETATM   41  C25 UNL     1      -0.438  54.301  -7.807  1.00  0.00     0.053 C 
HETATM   42  C29 UNL     1      -1.333  52.589  -9.452  1.00  0.00    -0.016 C 
HETATM   43  C26 UNL     1      -0.828  53.464  -6.649  1.00  0.00     0.149 C 
HETATM   44  O9  UNL     1      -0.611  53.870  -5.510  1.00  0.00    -0.293 OA
HETATM   45  C27 UNL     1      -1.570  52.179  -6.915  1.00  0.00     0.084 C 
HETATM   46  C28 UNL     1      -1.181  51.592  -8.264  1.00  0.00     0.022 C 
HETATM   47  C30 UNL     1      -2.835  52.839  -9.713  1.00  0.00     0.020 C 
HETATM   48  C32 UNL     1      -1.308  50.707 -11.262  1.00  0.00     0.007 C 
HETATM   49  C33 UNL     1      -0.575  50.101 -12.462  1.00  0.00     0.013 C 
HETATM   50  C35 UNL     1      -1.688  51.396 -14.305  1.00  0.00     0.019 C 
BRANCH  31  51
HETATM   51  O8  UNL     1       0.673  49.175 -14.799  1.00  0.00    -0.381 OA
HETATM   52  H19 UNL     1      -0.230  48.942 -15.097  1.00  0.00     0.211 HD
ENDBRANCH  31  51
ENDBRANCH  29  31
ENDBRANCH  28  29
ENDBRANCH  27  28
ENDBRANCH   1  27
TORSDOF 14
ENDMDL
MODEL 2
REMARK minimizedAffinity -9.19239426
REMARK CNNscore 0.488781035
REMARK CNNaffinity 7.06255722
REMARK  14 active torsions:
REMARK  status: ('A' for Active; 'I' for Inactive)
REMARK    1  A    between atoms: O1_2  and  C2_3 
REMARK    2  A    between atoms: C6_8  and  C7_9 
REMARK    3  A    between atoms: C7_9  and  O3_11 
REMARK    4  A    between atoms: C8_12  and  C9_13 
REMARK    5  A    between atoms: C9_13  and  C10_14 
REMARK    6  A    between atoms: C10_14  and  N2_15 
REMARK       I    between atoms: N2_15  and  C11_16 
REMARK    7  A    between atoms: C11_16  and  C12_18 
REMARK    8  A    between atoms: C12_18  and  C13_19 
REMARK    9  A    between atoms: C13_19  and  C14_20 
REMARK   10  A    between atoms: C14_20  and  O6_22 
REMARK   11  A    between atoms: O6_22  and  C15_23 
REMARK   12  A    between atoms: C15_23  and  C16_24 
REMARK   13  A    between atoms: C16_24  and  C17_26 
REMARK   14  A    between atoms: C17_26  and  O8_27 
ROOT
HETATM    1  C14 UNL     1      -4.244  49.771 -24.649  1.00  0.00     0.259 C 
HETATM    2  O5  UNL     1      -4.148  50.915 -25.081  1.00  0.00    -0.265 OA
ENDROOT
BRANCH   1   3
HETATM    3  C13 UNL     1      -3.958  48.519 -25.441  1.00  0.00     0.120 C 
BRANCH   3   4
HETATM    4  C12 UNL     1      -3.579  48.861 -26.878  1.00  0.00     0.112 C 
BRANCH   4   5
HETATM    5  C11 UNL     1      -4.572  48.282 -27.867  1.00  0.00     0.218 C 
HETATM    6  N2  UNL     1      -5.876  48.351 -27.428  1.00  0.00    -0.361 N 
HETATM    7  H12 UNL     1      -6.082  48.863 -26.581  1.00  0.00     0.162 HD
HETATM    8  O4  UNL     1      -4.237  47.786 -28.938  1.00  0.00    -0.274 OA
BRANCH   6   9
HETATM    9  C10 UNL     1      -6.989  47.969 -28.280  1.00  0.00     0.127 C 
BRANCH   9  10
HETATM   10  C9  UNL     1      -8.266  47.655 -27.498  1.00  0.00     0.061 C 
BRANCH  10  11
HETATM   11  C8  UNL     1      -9.470  47.584 -28.397  1.00  0.00    -0.011 A 
HETATM   12  C6  UNL     1     -10.802  47.831 -28.065  1.00  0.00     0.114 A 
HETATM   13  N1  UNL     1     -11.543  47.631 -29.209  1.00  0.00    -0.350 N 
HETATM   14  C5  UNL     1     -10.749  47.245 -30.258  1.00  0.00     0.043 A 
HETATM   15  H6  UNL     1     -12.548  47.740 -29.253  1.00  0.00     0.166 HD
HETATM   16  C4  UNL     1     -11.091  46.921 -31.573  1.00  0.00     0.033 A 
HETATM   17  C36 UNL     1      -9.440  47.217 -29.788  1.00  0.00     0.002 A 
HETATM   18  C3  UNL     1     -10.053  46.564 -32.438  1.00  0.00     0.039 A 
HETATM   19  C2  UNL     1      -8.725  46.532 -32.012  1.00  0.00     0.069 A 
HETATM   20  C37 UNL     1      -8.409  46.855 -30.687  1.00  0.00     0.051 A 
BRANCH  12  21
HETATM   21  C7  UNL     1     -11.453  48.218 -26.842  1.00  0.00     0.194 C 
HETATM   22  O2  UNL     1     -12.405  47.659 -26.319  1.00  0.00    -0.645 OA
BRANCH  21  23
HETATM   23  O3  UNL     1     -10.885  49.297 -26.279  1.00  0.00    -0.772 OA
HETATM   24  H7  UNL     1     -11.401  49.466 -25.468  1.00  0.00     0.167 HD
ENDBRANCH  21  23
ENDBRANCH  12  21
BRANCH  19  25
HETATM   25  O1  UNL     1      -7.829  46.167 -32.983  1.00  0.00    -0.356 OA
HETATM   26  C1  UNL     1      -6.969  47.186 -33.480  1.00  0.00     0.210 C 
ENDBRANCH  19  25
ENDBRANCH  10  11
ENDBRANCH   9  10
ENDBRANCH   6   9
ENDBRANCH   4   5
ENDBRANCH   3   4
ENDBRANCH   1   3
BRANCH   1  27
HETATM   27  O6  UNL     1      -4.665  49.453 -23.397  1.00  0.00    -0.314 OA
BRANCH  27  28
HETATM   28  C15 UNL     1      -4.458  50.456 -22.410  1.00  0.00     0.260 C 
BRANCH  28  29
HETATM   29  C16 UNL     1      -3.020  50.628 -21.921  1.00  0.00     0.185 C 
HETATM   30  O7  UNL     1      -2.413  51.671 -22.192  1.00  0.00    -0.292 OA
BRANCH  29  31
HETATM   31  C17 UNL     1      -2.377  49.514 -21.030  1.00  0.00     0.128 C 
HETATM   32  C18 UNL     1      -0.890  49.376 -21.435  1.00  0.00     0.047 C 
HETATM   33  C19 UNL     1      -0.086  50.257 -20.471  1.00  0.00     0.009 C 
HETATM   34  C20 UNL     1      -1.098  50.866 -19.487  1.00  0.00     0.002 C 
HETATM   35  C21 UNL     1      -0.559  51.177 -18.075  1.00  0.00    -0.004 C 
HETATM   36  C34 UNL     1      -2.286  49.880 -19.510  1.00  0.00    -0.002 C 
HETATM   37  C22 UNL     1       0.668  52.096 -18.142  1.00  0.00     0.010 C 
HETATM   38  C31 UNL     1      -0.244  49.910 -17.241  1.00  0.00     0.002 C 
HETATM   39  C23 UNL     1       1.110  52.517 -16.748  1.00  0.00     0.035 C 
HETATM   40  C24 UNL     1       1.389  51.325 -15.865  1.00  0.00    -0.068 C 
HETATM   41  C25 UNL     1       2.529  51.279 -15.153  1.00  0.00     0.053 C 
HETATM   42  C29 UNL     1       0.303  50.244 -15.795  1.00  0.00    -0.016 C 
HETATM   43  C26 UNL     1       2.795  50.210 -14.163  1.00  0.00     0.149 C 
HETATM   44  O9  UNL     1       3.832  50.243 -13.504  1.00  0.00    -0.293 OA
HETATM   45  C27 UNL     1       1.731  49.169 -13.933  1.00  0.00     0.084 C 
HETATM   46  C28 UNL     1       0.908  48.940 -15.192  1.00  0.00     0.022 C 
HETATM   47  C30 UNL     1      -0.813  50.763 -14.860  1.00  0.00     0.020 C 
HETATM   48  C32 UNL     1      -1.464  48.967 -17.232  1.00  0.00     0.007 C 
HETATM   49  C33 UNL     1      -1.960  48.631 -18.641  1.00  0.00     0.013 C 
HETATM   50  C35 UNL     1      -3.566  50.536 -18.965  1.00  0.00     0.019 C 
BRANCH  31  51
HETATM   51  O8  UNL     1      -2.970  48.241 -21.230  1.00  0.00    -0.381 OA
HETATM   52  H19 UNL     1      -3.851  48.229 -20.801  1.00  0.00     0.211 HD
ENDBRANCH  31  51
ENDBRANCH  29  31
ENDBRANCH  28  29
ENDBRANCH  27  28
ENDBRANCH   1  27
TORSDOF 14
ENDMDL
MODEL 3
REMARK minimizedAffinity -8.84543133
REMARK CNNscore 0.467635065
REMARK CNNaffinity 7.17325068
REMARK  14 active torsions:
REMARK  status: ('A' for Active; 'I' for Inactive)
REMARK    1  A    between atoms: O1_2  and  C2_3 
REMARK    2  A    between atoms: C6_8  and  C7_9 
REMARK    3  A    between atoms: C7_9  and  O3_11 
REMARK    4  A    between atoms: C8_12  and  C9_13 
REMARK    5  A    between atoms: C9_13  and  C10_14 
REMARK    6  A    between atoms: C10_14  and  N2_15 
REMARK       I    between atoms: N2_15  and  C11_16 
REMARK    7  A    between atoms: C11_16  and  C12_18 
REMARK    8  A    between atoms: C12_18  and  C13_19 
REMARK    9  A    between atoms: C13_19  and  C14_20 
REMARK   10  A    between atoms: C14_20  and  O6_22 
REMARK   11  A    between atoms: O6_22  and  C15_23 
REMARK   12  A    between atoms: C15_23  and  C16_24 
REMARK   13  A    between atoms: C16_24  and  C17_26 
REMARK   14  A    between atoms: C17_26  and  O8_27 
ROOT
HETATM    1  C14 UNL     1      -0.896  50.057 -15.403  1.00  0.00     0.259 C 
HETATM    2  O5  UNL     1      -0.908  48.844 -15.585  1.00  0.00    -0.265 OA
ENDROOT
BRANCH   1   3
HETATM    3  C13 UNL     1      -0.268  51.067 -16.331  1.00  0.00     0.120 C 
BRANCH   3   4
HETATM    4  C12 UNL     1      -0.031  50.461 -17.711  1.00  0.00     0.112 C 
BRANCH   4   5
HETATM    5  C11 UNL     1       0.004  51.528 -18.787  1.00  0.00     0.218 C 
HETATM    6  N2  UNL     1      -0.650  51.154 -19.941  1.00  0.00    -0.361 N 
HETATM    7  H12 UNL     1      -1.179  50.292 -19.947  1.00  0.00     0.162 HD
HETATM    8  O4  UNL     1       0.575  52.604 -18.644  1.00  0.00    -0.274 OA
BRANCH   6   9
HETATM    9  C10 UNL     1      -0.842  52.080 -21.043  1.00  0.00     0.127 C 
BRANCH   9  10
HETATM   10  C9  UNL     1       0.121  51.840 -22.208  1.00  0.00     0.061 C 
BRANCH  10  11
HETATM   11  C8  UNL     1      -0.605  51.451 -23.465  1.00  0.00    -0.011 A 
HETATM   12  C6  UNL     1      -0.489  52.020 -24.733  1.00  0.00     0.114 A 
HETATM   13  N1  UNL     1      -1.356  51.339 -25.559  1.00  0.00    -0.350 N 
HETATM   14  C5  UNL     1      -2.041  50.369 -24.873  1.00  0.00     0.043 A 
HETATM   15  H6  UNL     1      -1.476  51.549 -26.541  1.00  0.00     0.166 HD
HETATM   16  C4  UNL     1      -3.020  49.477 -25.317  1.00  0.00     0.033 A 
HETATM   17  C36 UNL     1      -1.587  50.402 -23.560  1.00  0.00     0.002 A 
HETATM   18  C3  UNL     1      -3.544  48.581 -24.380  1.00  0.00     0.039 A 
HETATM   19  C2  UNL     1      -3.111  48.572 -23.055  1.00  0.00     0.069 A 
HETATM   20  C37 UNL     1      -2.133  49.482 -22.634  1.00  0.00     0.051 A 
BRANCH  12  21
HETATM   21  C7  UNL     1       0.309  53.098 -25.255  1.00  0.00     0.194 C 
HETATM   22  O2  UNL     1       1.419  53.001 -25.757  1.00  0.00    -0.645 OA
BRANCH  21  23
HETATM   23  O3  UNL     1      -0.308  54.286 -25.156  1.00  0.00    -0.772 OA
HETATM   24  H7  UNL     1       0.316  54.933 -25.535  1.00  0.00     0.167 HD
ENDBRANCH  21  23
ENDBRANCH  12  21
BRANCH  19  25
HETATM   25  O1  UNL     1      -3.720  47.631 -22.267  1.00  0.00    -0.356 OA
HETATM   26  C1  UNL     1      -4.393  48.102 -21.106  1.00  0.00     0.210 C 
ENDBRANCH  19  25
ENDBRANCH  10  11
ENDBRANCH   9  10
ENDBRANCH   6   9
ENDBRANCH   4   5
ENDBRANCH   3   4
ENDBRANCH   1   3
BRANCH   1  27
HETATM   27  O6  UNL     1      -1.413  50.677 -14.309  1.00  0.00    -0.314 OA
BRANCH  27  28
HETATM   28  C15 UNL     1      -1.442  49.895 -13.122  1.00  0.00     0.260 C 
BRANCH  28  29
HETATM   29  C16 UNL     1      -0.361  50.207 -12.087  1.00  0.00     0.185 C 
HETATM   30  O7  UNL     1       0.703  49.576 -12.120  1.00  0.00    -0.292 OA
BRANCH  29  31
HETATM   31  C17 UNL     1      -0.595  51.365 -11.062  1.00  0.00     0.128 C 
HETATM   32  C18 UNL     1      -0.136  50.871  -9.669  1.00  0.00     0.047 C 
HETATM   33  C19 UNL     1       1.312  51.343  -9.487  1.00  0.00     0.009 C 
HETATM   34  C20 UNL     1       1.673  52.145 -10.750  1.00  0.00     0.002 C 
HETATM   35  C21 UNL     1       2.709  53.270 -10.558  1.00  0.00    -0.004 C 
HETATM   36  C34 UNL     1       0.310  52.623 -11.294  1.00  0.00    -0.002 C 
HETATM   37  C22 UNL     1       4.005  52.729  -9.938  1.00  0.00     0.010 C 
HETATM   38  C31 UNL     1       2.173  54.470  -9.736  1.00  0.00     0.002 C 
HETATM   39  C23 UNL     1       5.075  53.810  -9.882  1.00  0.00     0.035 C 
HETATM   40  C24 UNL     1       4.599  55.031  -9.133  1.00  0.00    -0.068 C 
HETATM   41  C25 UNL     1       5.383  55.573  -8.183  1.00  0.00     0.053 C 
HETATM   42  C29 UNL     1       3.245  55.619  -9.551  1.00  0.00    -0.016 C 
HETATM   43  C26 UNL     1       5.038  56.850  -7.515  1.00  0.00     0.149 C 
HETATM   44  O9  UNL     1       5.814  57.326  -6.689  1.00  0.00    -0.293 OA
HETATM   45  C27 UNL     1       3.786  57.568  -7.948  1.00  0.00     0.084 C 
HETATM   46  C28 UNL     1       2.734  56.585  -8.440  1.00  0.00     0.022 C 
HETATM   47  C30 UNL     1       3.466  56.419 -10.854  1.00  0.00     0.020 C 
HETATM   48  C32 UNL     1       0.841  54.966 -10.333  1.00  0.00     0.007 C 
HETATM   49  C33 UNL     1      -0.194  53.847 -10.476  1.00  0.00     0.013 C 
HETATM   50  C35 UNL     1       0.412  53.032 -12.773  1.00  0.00     0.019 C 
BRANCH  31  51
HETATM   51  O8  UNL     1      -1.963  51.717 -10.935  1.00  0.00    -0.381 OA
HETATM   52  H19 UNL     1      -2.238  52.218 -11.731  1.00  0.00     0.211 HD
ENDBRANCH  31  51
ENDBRANCH  29  31
ENDBRANCH  28  29
ENDBRANCH  27  28
ENDBRANCH   1  27
TORSDOF 14
ENDMDL
MODEL 4
REMARK minimizedAffinity -9.55276394
REMARK CNNscore 0.447985142
REMARK CNNaffinity 7.46266413
REMARK  14 active torsions:
REMARK  status: ('A' for Active; 'I' for Inactive)
REMARK    1  A    between atoms: O1_2  and  C2_3 
REMARK    2  A    between atoms: C6_8  and  C7_9 
REMARK    3  A    between atoms: C7_9  and  O3_11 
REMARK    4  A    between atoms: C8_12  and  C9_13 
REMARK    5  A    between atoms: C9_13  and  C10_14 
REMARK    6  A    between atoms: C10_14  and  N2_15 
REMARK       I    between atoms: N2_15  and  C11_16 
REMARK    7  A    between atoms: C11_16  and  C12_18 
REMARK    8  A    between atoms: C12_18  and  C13_19 
REMARK    9  A    between atoms: C13_19  and  C14_20 
REMARK   10  A    between atoms: C14_20  and  O6_22 
REMARK   11  A    between atoms: O6_22  and  C15_23 
REMARK   12  A    between atoms: C15_23  and  C16_24 
REMARK   13  A    between atoms: C16_24  and  C17_26 
REMARK   14  A    between atoms: C17_26  and  O8_27 
ROOT
HETATM    1  C14 UNL     1      -4.589  48.077 -27.721  1.00  0.00     0.259 C 
HETATM    2  O5  UNL     1      -5.392  48.214 -26.805  1.00  0.00    -0.265 OA
ENDROOT
BRANCH   1   3
HETATM    3  C13 UNL     1      -4.929  47.578 -29.104  1.00  0.00     0.120 C 
BRANCH   3   4
HETATM    4  C12 UNL     1      -6.014  48.440 -29.741  1.00  0.00     0.112 C 
BRANCH   4   5
HETATM    5  C11 UNL     1      -7.399  47.902 -29.437  1.00  0.00     0.218 C 
HETATM    6  N2  UNL     1      -7.933  48.410 -28.273  1.00  0.00    -0.361 N 
HETATM    7  H12 UNL     1      -7.444  49.154 -27.793  1.00  0.00     0.162 HD
HETATM    8  O4  UNL     1      -7.969  47.084 -30.151  1.00  0.00    -0.274 OA
BRANCH   6   9
HETATM    9  C10 UNL     1      -9.299  48.123 -27.872  1.00  0.00     0.127 C 
BRANCH   9  10
HETATM   10  C9  UNL     1     -10.178  47.642 -29.029  1.00  0.00     0.061 C 
BRANCH  10  11
HETATM   11  C8  UNL     1     -11.116  46.546 -28.602  1.00  0.00    -0.011 A 
HETATM   12  C6  UNL     1     -12.109  46.601 -27.625  1.00  0.00     0.114 A 
HETATM   13  N1  UNL     1     -12.697  45.356 -27.582  1.00  0.00    -0.350 N 
HETATM   14  C5  UNL     1     -12.112  44.496 -28.475  1.00  0.00     0.043 A 
HETATM   15  H6  UNL     1     -13.453  45.114 -26.954  1.00  0.00     0.166 HD
HETATM   16  C4  UNL     1     -12.383  43.150 -28.736  1.00  0.00     0.033 A 
HETATM   17  C36 UNL     1     -11.124  45.211 -29.141  1.00  0.00     0.002 A 
HETATM   18  C3  UNL     1     -11.618  42.521 -29.722  1.00  0.00     0.039 A 
HETATM   19  C2  UNL     1     -10.624  43.203 -30.423  1.00  0.00     0.069 A 
HETATM   20  C37 UNL     1     -10.367  44.549 -30.137  1.00  0.00     0.051 A 
BRANCH  12  21
HETATM   21  C7  UNL     1     -12.563  47.645 -26.744  1.00  0.00     0.194 C 
HETATM   22  O2  UNL     1     -12.723  47.555 -25.536  1.00  0.00    -0.645 OA
BRANCH  21  23
HETATM   23  O3  UNL     1     -12.793  48.797 -27.393  1.00  0.00    -0.772 OA
HETATM   24  H7  UNL     1     -13.091  49.424 -26.707  1.00  0.00     0.167 HD
ENDBRANCH  21  23
ENDBRANCH  12  21
BRANCH  19  25
HETATM   25  O1  UNL     1      -9.970  42.444 -31.358  1.00  0.00    -0.356 OA
HETATM   26  C1  UNL     1     -10.518  41.163 -31.644  1.00  0.00     0.210 C 
ENDBRANCH  19  25
ENDBRANCH  10  11
ENDBRANCH   9  10
ENDBRANCH   6   9
ENDBRANCH   4   5
ENDBRANCH   3   4
ENDBRANCH   1   3
BRANCH   1  27
HETATM   27  O6  UNL     1      -3.255  48.315 -27.619  1.00  0.00    -0.314 OA
BRANCH  27  28
HETATM   28  C15 UNL     1      -2.893  49.401 -26.774  1.00  0.00     0.260 C 
BRANCH  28  29
HETATM   29  C16 UNL     1      -2.776  50.766 -27.451  1.00  0.00     0.185 C 
HETATM   30  O7  UNL     1      -3.018  50.860 -28.660  1.00  0.00    -0.292 OA
BRANCH  29  31
HETATM   31  C17 UNL     1      -2.427  52.022 -26.586  1.00  0.00     0.128 C 
HETATM   32  C18 UNL     1      -3.591  52.260 -25.595  1.00  0.00     0.047 C 
HETATM   33  C19 UNL     1      -3.205  51.564 -24.284  1.00  0.00     0.009 C 
HETATM   34  C20 UNL     1      -1.805  50.965 -24.502  1.00  0.00     0.002 C 
HETATM   35  C21 UNL     1      -0.919  50.854 -23.245  1.00  0.00    -0.004 C 
HETATM   36  C34 UNL     1      -1.200  51.825 -25.632  1.00  0.00    -0.002 C 
HETATM   37  C22 UNL     1      -1.623  50.055 -22.140  1.00  0.00     0.010 C 
HETATM   38  C31 UNL     1      -0.441  52.225 -22.703  1.00  0.00     0.002 C 
HETATM   39  C23 UNL     1      -0.694  49.825 -20.957  1.00  0.00     0.035 C 
HETATM   40  C24 UNL     1      -0.152  51.122 -20.409  1.00  0.00    -0.068 C 
HETATM   41  C25 UNL     1      -0.192  51.351 -19.084  1.00  0.00     0.053 C 
HETATM   42  C29 UNL     1       0.472  52.096 -21.417  1.00  0.00    -0.016 C 
HETATM   43  C26 UNL     1       0.450  52.536 -18.471  1.00  0.00     0.149 C 
HETATM   44  O9  UNL     1       0.426  52.671 -17.250  1.00  0.00    -0.293 OA
HETATM   45  C27 UNL     1       1.196  53.488 -19.369  1.00  0.00     0.084 C 
HETATM   46  C28 UNL     1       0.596  53.507 -20.767  1.00  0.00     0.022 C 
HETATM   47  C30 UNL     1       1.884  51.571 -21.760  1.00  0.00     0.020 C 
HETATM   48  C32 UNL     1       0.212  53.042 -23.837  1.00  0.00     0.007 C 
HETATM   49  C33 UNL     1      -0.697  53.182 -25.061  1.00  0.00     0.013 C 
HETATM   50  C35 UNL     1      -0.017  51.108 -26.305  1.00  0.00     0.019 C 
BRANCH  31  51
HETATM   51  O8  UNL     1      -2.306  53.204 -27.360  1.00  0.00    -0.381 OA
HETATM   52  H19 UNL     1      -1.463  53.176 -27.857  1.00  0.00     0.211 HD
ENDBRANCH  31  51
ENDBRANCH  29  31
ENDBRANCH  28  29
ENDBRANCH  27  28
ENDBRANCH   1  27
TORSDOF 14
ENDMDL
MODEL 5
REMARK minimizedAffinity -8.91751957
REMARK CNNscore 0.443107069
REMARK CNNaffinity 7.06051397
REMARK  14 active torsions:
REMARK  status: ('A' for Active; 'I' for Inactive)
REMARK    1  A    between atoms: O1_2  and  C2_3 
REMARK    2  A    between atoms: C6_8  and  C7_9 
REMARK    3  A    between atoms: C7_9  and  O3_11 
REMARK    4  A    between atoms: C8_12  and  C9_13 
REMARK    5  A    between atoms: C9_13  and  C10_14 
REMARK    6  A    between atoms: C10_14  and  N2_15 
REMARK       I    between atoms: N2_15  and  C11_16 
REMARK    7  A    between atoms: C11_16  and  C12_18 
REMARK    8  A    between atoms: C12_18  and  C13_19 
REMARK    9  A    between atoms: C13_19  and  C14_20 
REMARK   10  A    between atoms: C14_20  and  O6_22 
REMARK   11  A    between atoms: O6_22  and  C15_23 
REMARK   12  A    between atoms: C15_23  and  C16_24 
REMARK   13  A    between atoms: C16_24  and  C17_26 
REMARK   14  A    between atoms: C17_26  and  O8_27 
ROOT
HETATM    1  C14 UNL     1       0.520  48.898 -15.270  1.00  0.00     0.259 C 
HETATM    2  O5  UNL     1       0.232  47.706 -15.294  1.00  0.00    -0.265 OA
ENDROOT
BRANCH   1   3
HETATM    3  C13 UNL     1       0.431  49.834 -16.451  1.00  0.00     0.120 C 
BRANCH   3   4
HETATM    4  C12 UNL     1      -1.018  50.014 -16.892  1.00  0.00     0.112 C 
BRANCH   4   5
HETATM    5  C11 UNL     1      -1.105  50.614 -18.282  1.00  0.00     0.218 C 
HETATM    6  N2  UNL     1      -0.546  49.812 -19.253  1.00  0.00    -0.361 N 
HETATM    7  H12 UNL     1      -0.243  48.880 -19.004  1.00  0.00     0.162 HD
HETATM    8  O4  UNL     1      -1.606  51.711 -18.505  1.00  0.00    -0.274 OA
BRANCH   6   9
HETATM    9  C10 UNL     1      -0.642  50.145 -20.663  1.00  0.00     0.127 C 
BRANCH   9  10
HETATM   10  C9  UNL     1      -0.935  51.625 -20.915  1.00  0.00     0.061 C 
BRANCH  10  11
HETATM   11  C8  UNL     1      -0.293  52.116 -22.184  1.00  0.00    -0.011 A 
HETATM   12  C6  UNL     1       0.684  53.102 -22.323  1.00  0.00     0.114 A 
HETATM   13  N1  UNL     1       0.951  53.212 -23.670  1.00  0.00    -0.350 N 
HETATM   14  C5  UNL     1       0.174  52.355 -24.405  1.00  0.00     0.043 A 
HETATM   15  H6  UNL     1       1.625  53.861 -24.057  1.00  0.00     0.166 HD
HETATM   16  C4  UNL     1       0.109  52.163 -25.788  1.00  0.00     0.033 A 
HETATM   17  C36 UNL     1      -0.610  51.643 -23.505  1.00  0.00     0.002 A 
HETATM   18  C3  UNL     1      -0.786  51.199 -26.261  1.00  0.00     0.039 A 
HETATM   19  C2  UNL     1      -1.585  50.454 -25.393  1.00  0.00     0.069 A 
HETATM   20  C37 UNL     1      -1.505  50.671 -24.012  1.00  0.00     0.051 A 
BRANCH  12  21
HETATM   21  C7  UNL     1       1.378  53.936 -21.378  1.00  0.00     0.194 C 
HETATM   22  O2  UNL     1       1.453  53.758 -20.172  1.00  0.00    -0.645 OA
BRANCH  21  23
HETATM   23  O3  UNL     1       1.986  54.978 -21.967  1.00  0.00    -0.772 OA
HETATM   24  H7  UNL     1       2.419  55.467 -21.242  1.00  0.00     0.167 HD
ENDBRANCH  21  23
ENDBRANCH  12  21
BRANCH  19  25
HETATM   25  O1  UNL     1      -2.404  49.549 -26.016  1.00  0.00    -0.356 OA
HETATM   26  C1  UNL     1      -3.087  48.620 -25.182  1.00  0.00     0.210 C 
ENDBRANCH  19  25
ENDBRANCH  10  11
ENDBRANCH   9  10
ENDBRANCH   6   9
ENDBRANCH   4   5
ENDBRANCH   3   4
ENDBRANCH   1   3
BRANCH   1  27
HETATM   27  O6  UNL     1       1.007  49.552 -14.184  1.00  0.00    -0.314 OA
BRANCH  27  28
HETATM   28  C15 UNL     1       2.370  49.287 -13.873  1.00  0.00     0.260 C 
BRANCH  28  29
HETATM   29  C16 UNL     1       2.740  49.336 -12.391  1.00  0.00     0.185 C 
HETATM   30  O7  UNL     1       3.717  48.689 -11.993  1.00  0.00    -0.292 OA
BRANCH  29  31
HETATM   31  C17 UNL     1       1.923  50.259 -11.428  1.00  0.00     0.128 C 
HETATM   32  C18 UNL     1       2.293  49.882  -9.974  1.00  0.00     0.047 C 
HETATM   33  C19 UNL     1       3.407  50.842  -9.538  1.00  0.00     0.009 C 
HETATM   34  C20 UNL     1       3.648  51.798 -10.719  1.00  0.00     0.002 C 
HETATM   35  C21 UNL     1       4.141  53.211 -10.349  1.00  0.00    -0.004 C 
HETATM   36  C34 UNL     1       2.317  51.774 -11.500  1.00  0.00    -0.002 C 
HETATM   37  C22 UNL     1       5.422  53.147  -9.505  1.00  0.00     0.010 C 
HETATM   38  C31 UNL     1       3.067  54.075  -9.640  1.00  0.00     0.002 C 
HETATM   39  C23 UNL     1       5.985  54.540  -9.264  1.00  0.00     0.035 C 
HETATM   40  C24 UNL     1       4.970  55.450  -8.616  1.00  0.00    -0.068 C 
HETATM   41  C25 UNL     1       5.323  56.182  -7.544  1.00  0.00     0.053 C 
HETATM   42  C29 UNL     1       3.585  55.523  -9.271  1.00  0.00    -0.016 C 
HETATM   43  C26 UNL     1       4.421  57.196  -6.953  1.00  0.00     0.149 C 
HETATM   44  O9  UNL     1       4.812  57.872  -6.004  1.00  0.00    -0.293 OA
HETATM   45  C27 UNL     1       3.082  57.429  -7.605  1.00  0.00     0.084 C 
HETATM   46  C28 UNL     1       2.572  56.161  -8.274  1.00  0.00     0.022 C 
HETATM   47  C30 UNL     1       3.705  56.430 -10.518  1.00  0.00     0.020 C 
HETATM   48  C32 UNL     1       1.766  54.082 -10.468  1.00  0.00     0.007 C 
HETATM   49  C33 UNL     1       1.263  52.672 -10.789  1.00  0.00     0.013 C 
HETATM   50  C35 UNL     1       2.505  52.284 -12.938  1.00  0.00     0.019 C 
BRANCH  31  51
HETATM   51  O8  UNL     1       0.522  50.074 -11.549  1.00  0.00    -0.381 OA
HETATM   52  H19 UNL     1       0.216  50.488 -12.383  1.00  0.00     0.211 HD
ENDBRANCH  31  51
ENDBRANCH  29  31
ENDBRANCH  28  29
ENDBRANCH  27  28
ENDBRANCH   1  27
TORSDOF 14
ENDMDL
MODEL 6
REMARK minimizedAffinity -9.40048313
REMARK CNNscore 0.388421953
REMARK CNNaffinity 7.04924917
REMARK  14 active torsions:
REMARK  status: ('A' for Active; 'I' for Inactive)
REMARK    1  A    between atoms: O1_2  and  C2_3 
REMARK    2  A    between atoms: C6_8  and  C7_9 
REMARK    3  A    between atoms: C7_9  and  O3_11 
REMARK    4  A    between atoms: C8_12  and  C9_13 
REMARK    5  A    between atoms: C9_13  and  C10_14 
REMARK    6  A    between atoms: C10_14  and  N2_15 
REMARK       I    between atoms: N2_15  and  C11_16 
REMARK    7  A    between atoms: C11_16  and  C12_18 
REMARK    8  A    between atoms: C12_18  and  C13_19 
REMARK    9  A    between atoms: C13_19  and  C14_20 
REMARK   10  A    between atoms: C14_20  and  O6_22 
REMARK   11  A    between atoms: O6_22  and  C15_23 
REMARK   12  A    between atoms: C15_23  and  C16_24 
REMARK   13  A    between atoms: C16_24  and  C17_26 
REMARK   14  A    between atoms: C17_26  and  O8_27 
ROOT
HETATM    1  C14 UNL     1      -5.290  46.916 -30.732  1.00  0.00     0.259 C 
HETATM    2  O5  UNL     1      -4.258  47.123 -31.361  1.00  0.00    -0.265 OA
ENDROOT
BRANCH   1   3
HETATM    3  C13 UNL     1      -5.534  47.339 -29.304  1.00  0.00     0.120 C 
BRANCH   3   4
HETATM    4  C12 UNL     1      -5.150  48.800 -29.098  1.00  0.00     0.112 C 
BRANCH   4   5
HETATM    5  C11 UNL     1      -4.008  48.940 -28.110  1.00  0.00     0.218 C 
HETATM    6  N2  UNL     1      -3.794  50.241 -27.711  1.00  0.00    -0.361 N 
HETATM    7  H12 UNL     1      -4.451  50.956 -27.995  1.00  0.00     0.162 HD
HETATM    8  O4  UNL     1      -3.336  47.988 -27.726  1.00  0.00    -0.274 OA
BRANCH   6   9
HETATM    9  C10 UNL     1      -2.833  50.573 -26.673  1.00  0.00     0.127 C 
BRANCH   9  10
HETATM   10  C9  UNL     1      -2.930  52.026 -26.204  1.00  0.00     0.061 C 
BRANCH  10  11
HETATM   11  C8  UNL     1      -1.649  52.498 -25.573  1.00  0.00    -0.011 A 
HETATM   12  C6  UNL     1      -0.593  53.175 -26.183  1.00  0.00     0.114 A 
HETATM   13  N1  UNL     1       0.361  53.386 -25.211  1.00  0.00    -0.350 N 
HETATM   14  C5  UNL     1      -0.027  52.856 -24.007  1.00  0.00     0.043 A 
HETATM   15  H6  UNL     1       1.239  53.857 -25.381  1.00  0.00     0.166 HD
HETATM   16  C4  UNL     1       0.642  52.827 -22.781  1.00  0.00     0.033 A 
HETATM   17  C36 UNL     1      -1.289  52.302 -24.194  1.00  0.00     0.002 A 
HETATM   18  C3  UNL     1      -0.012  52.216 -21.707  1.00  0.00     0.039 A 
HETATM   19  C2  UNL     1      -1.282  51.656 -21.847  1.00  0.00     0.069 A 
HETATM   20  C37 UNL     1      -1.927  51.692 -23.088  1.00  0.00     0.051 A 
BRANCH  12  21
HETATM   21  C7  UNL     1      -0.367  53.633 -27.528  1.00  0.00     0.194 C 
HETATM   22  O2  UNL     1      -0.420  54.790 -27.918  1.00  0.00    -0.645 OA
BRANCH  21  23
HETATM   23  O3  UNL     1      -0.057  52.631 -28.365  1.00  0.00    -0.772 OA
HETATM   24  H7  UNL     1       0.073  53.052 -29.235  1.00  0.00     0.167 HD
ENDBRANCH  21  23
ENDBRANCH  12  21
BRANCH  19  25
HETATM   25  O1  UNL     1      -1.784  51.100 -20.699  1.00  0.00    -0.356 OA
HETATM   26  C1  UNL     1      -1.286  51.610 -19.467  1.00  0.00     0.210 C 
ENDBRANCH  19  25
ENDBRANCH  10  11
ENDBRANCH   9  10
ENDBRANCH   6   9
ENDBRANCH   4   5
ENDBRANCH   3   4
ENDBRANCH   1   3
BRANCH   1  27
HETATM   27  O6  UNL     1      -6.363  46.234 -31.213  1.00  0.00    -0.314 OA
BRANCH  27  28
HETATM   28  C15 UNL     1      -6.125  45.481 -32.396  1.00  0.00     0.260 C 
BRANCH  28  29
HETATM   29  C16 UNL     1      -7.187  44.440 -32.751  1.00  0.00     0.185 C 
HETATM   30  O7  UNL     1      -6.836  43.273 -32.967  1.00  0.00    -0.292 OA
BRANCH  29  31
HETATM   31  C17 UNL     1      -8.694  44.857 -32.761  1.00  0.00     0.128 C 
HETATM   32  C18 UNL     1      -8.780  46.354 -32.380  1.00  0.00     0.047 C 
HETATM   33  C19 UNL     1      -8.815  47.143 -33.694  1.00  0.00     0.009 C 
HETATM   34  C20 UNL     1      -8.794  46.105 -34.829  1.00  0.00     0.002 C 
HETATM   35  C21 UNL     1      -9.505  46.522 -36.133  1.00  0.00    -0.004 C 
HETATM   36  C34 UNL     1      -9.361  44.825 -34.179  1.00  0.00    -0.002 C 
HETATM   37  C22 UNL     1      -8.941  47.843 -36.672  1.00  0.00     0.010 C 
HETATM   38  C31 UNL     1     -11.046  46.604 -35.998  1.00  0.00     0.002 C 
HETATM   39  C23 UNL     1      -9.541  48.178 -38.030  1.00  0.00     0.035 C 
HETATM   40  C24 UNL     1     -11.049  48.227 -37.980  1.00  0.00    -0.068 C 
HETATM   41  C25 UNL     1     -11.697  49.273 -38.524  1.00  0.00     0.053 C 
HETATM   42  C29 UNL     1     -11.762  47.027 -37.344  1.00  0.00    -0.016 C 
HETATM   43  C26 UNL     1     -13.173  49.312 -38.633  1.00  0.00     0.149 C 
HETATM   44  O9  UNL     1     -13.712  50.269 -39.184  1.00  0.00    -0.293 OA
HETATM   45  C27 UNL     1     -13.957  48.120 -38.148  1.00  0.00     0.084 C 
HETATM   46  C28 UNL     1     -13.234  47.416 -37.010  1.00  0.00     0.022 C 
HETATM   47  C30 UNL     1     -11.765  45.882 -38.382  1.00  0.00     0.020 C 
HETATM   48  C32 UNL     1     -11.594  45.293 -35.399  1.00  0.00     0.007 C 
HETATM   49  C33 UNL     1     -10.912  44.915 -34.082  1.00  0.00     0.013 C 
HETATM   50  C35 UNL     1      -8.993  43.575 -34.995  1.00  0.00     0.019 C 
BRANCH  31  51
HETATM   51  O8  UNL     1      -9.465  44.151 -31.802  1.00  0.00    -0.381 OA
HETATM   52  H19 UNL     1      -9.603  43.233 -32.117  1.00  0.00     0.211 HD
ENDBRANCH  31  51
ENDBRANCH  29  31
ENDBRANCH  28  29
ENDBRANCH  27  28
ENDBRANCH   1  27
TORSDOF 14
ENDMDL
MODEL 7
REMARK minimizedAffinity -9.23501873
REMARK CNNscore 0.386507064
REMARK CNNaffinity 7.07045794
REMARK  14 active torsions:
REMARK  status: ('A' for Active; 'I' for Inactive)
REMARK    1  A    between atoms: O1_2  and  C2_3 
REMARK    2  A    between atoms: C6_8  and  C7_9 
REMARK    3  A    between atoms: C7_9  and  O3_11 
REMARK    4  A    between atoms: C8_12  and  C9_13 
REMARK    5  A    between atoms: C9_13  and  C10_14 
REMARK    6  A    between atoms: C10_14  and  N2_15 
REMARK       I    between atoms: N2_15  and  C11_16 
REMARK    7  A    between atoms: C11_16  and  C12_18 
REMARK    8  A    between atoms: C12_18  and  C13_19 
REMARK    9  A    between atoms: C13_19  and  C14_20 
REMARK   10  A    between atoms: C14_20  and  O6_22 
REMARK   11  A    between atoms: O6_22  and  C15_23 
REMARK   12  A    between atoms: C15_23  and  C16_24 
REMARK   13  A    between atoms: C16_24  and  C17_26 
REMARK   14  A    between atoms: C17_26  and  O8_27 
ROOT
HETATM    1  C14 UNL     1       0.118  52.077 -18.054  1.00  0.00     0.259 C 
HETATM    2  O5  UNL     1       1.178  52.007 -17.441  1.00  0.00    -0.265 OA
ENDROOT
BRANCH   1   3
HETATM    3  C13 UNL     1      -0.154  53.009 -19.209  1.00  0.00     0.120 C 
BRANCH   3   4
HETATM    4  C12 UNL     1       0.930  52.882 -20.275  1.00  0.00     0.112 C 
BRANCH   4   5
HETATM    5  C11 UNL     1       0.425  52.134 -21.494  1.00  0.00     0.218 C 
HETATM    6  N2  UNL     1       0.554  52.855 -22.661  1.00  0.00    -0.361 N 
HETATM    7  H12 UNL     1       1.056  53.732 -22.644  1.00  0.00     0.162 HD
HETATM    8  O4  UNL     1      -0.064  51.011 -21.433  1.00  0.00    -0.274 OA
BRANCH   6   9
HETATM    9  C10 UNL     1       0.250  52.269 -23.955  1.00  0.00     0.127 C 
BRANCH   9  10
HETATM   10  C9  UNL     1      -0.947  52.926 -24.648  1.00  0.00     0.061 C 
BRANCH  10  11
HETATM   11  C8  UNL     1      -1.514  52.054 -25.733  1.00  0.00    -0.011 A 
HETATM   12  C6  UNL     1      -1.483  52.271 -27.110  1.00  0.00     0.114 A 
HETATM   13  N1  UNL     1      -2.137  51.210 -27.698  1.00  0.00    -0.350 N 
HETATM   14  C5  UNL     1      -2.606  50.330 -26.757  1.00  0.00     0.043 A 
HETATM   15  H6  UNL     1      -2.264  51.113 -28.697  1.00  0.00     0.166 HD
HETATM   16  C4  UNL     1      -3.334  49.148 -26.916  1.00  0.00     0.033 A 
HETATM   17  C36 UNL     1      -2.223  50.820 -25.514  1.00  0.00     0.002 A 
HETATM   18  C3  UNL     1      -3.674  48.443 -25.759  1.00  0.00     0.039 A 
HETATM   19  C2  UNL     1      -3.302  48.892 -24.492  1.00  0.00     0.069 A 
HETATM   20  C37 UNL     1      -2.578  50.083 -24.360  1.00  0.00     0.051 A 
BRANCH  12  21
HETATM   21  C7  UNL     1      -0.935  53.322 -27.926  1.00  0.00     0.194 C 
HETATM   22  O2  UNL     1       0.237  53.458 -28.242  1.00  0.00    -0.645 OA
BRANCH  21  23
HETATM   23  O3  UNL     1      -1.874  54.182 -28.350  1.00  0.00    -0.772 OA
HETATM   24  H7  UNL     1      -1.396  54.843 -28.887  1.00  0.00     0.167 HD
ENDBRANCH  21  23
ENDBRANCH  12  21
BRANCH  19  25
HETATM   25  O1  UNL     1      -3.709  48.084 -23.463  1.00  0.00    -0.356 OA
HETATM   26  C1  UNL     1      -2.840  47.985 -22.341  1.00  0.00     0.210 C 
ENDBRANCH  19  25
ENDBRANCH  10  11
ENDBRANCH   9  10
ENDBRANCH   6   9
ENDBRANCH   4   5
ENDBRANCH   3   4
ENDBRANCH   1   3
BRANCH   1  27
HETATM   27  O6  UNL     1      -0.993  51.354 -17.757  1.00  0.00    -0.314 OA
BRANCH  27  28
HETATM   28  C15 UNL     1      -0.924  50.596 -16.555  1.00  0.00     0.260 C 
BRANCH  28  29
HETATM   29  C16 UNL     1      -2.177  49.798 -16.195  1.00  0.00     0.185 C 
HETATM   30  O7  UNL     1      -2.911  49.389 -17.103  1.00  0.00    -0.292 OA
BRANCH  29  31
HETATM   31  C17 UNL     1      -2.461  49.454 -14.696  1.00  0.00     0.128 C 
HETATM   32  C18 UNL     1      -1.173  48.846 -14.091  1.00  0.00     0.047 C 
HETATM   33  C19 UNL     1      -0.413  49.997 -13.420  1.00  0.00     0.009 C 
HETATM   34  C20 UNL     1      -1.279  51.255 -13.597  1.00  0.00     0.002 C 
HETATM   35  C21 UNL     1      -1.151  52.321 -12.490  1.00  0.00    -0.004 C 
HETATM   36  C34 UNL     1      -2.709  50.705 -13.785  1.00  0.00    -0.002 C 
HETATM   37  C22 UNL     1       0.310  52.757 -12.309  1.00  0.00     0.010 C 
HETATM   38  C31 UNL     1      -1.757  51.880 -11.134  1.00  0.00     0.002 C 
HETATM   39  C23 UNL     1       0.416  53.908 -11.320  1.00  0.00     0.035 C 
HETATM   40  C24 UNL     1      -0.201  53.561  -9.987  1.00  0.00    -0.068 C 
HETATM   41  C25 UNL     1       0.482  53.807  -8.855  1.00  0.00     0.053 C 
HETATM   42  C29 UNL     1      -1.622  52.984 -10.009  1.00  0.00    -0.016 C 
HETATM   43  C26 UNL     1      -0.123  53.623  -7.516  1.00  0.00     0.149 C 
HETATM   44  O9  UNL     1       0.529  53.910  -6.515  1.00  0.00    -0.293 OA
HETATM   45  C27 UNL     1      -1.560  53.177  -7.437  1.00  0.00     0.084 C 
HETATM   46  C28 UNL     1      -1.933  52.318  -8.635  1.00  0.00     0.022 C 
HETATM   47  C30 UNL     1      -2.600  54.160 -10.233  1.00  0.00     0.020 C 
HETATM   48  C32 UNL     1      -3.204  51.388 -11.339  1.00  0.00     0.007 C 
HETATM   49  C33 UNL     1      -3.311  50.298 -12.409  1.00  0.00     0.013 C 
HETATM   50  C35 UNL     1      -3.630  51.753 -14.431  1.00  0.00     0.019 C 
BRANCH  31  51
HETATM   51  O8  UNL     1      -3.480  48.480 -14.540  1.00  0.00    -0.381 OA
HETATM   52  H19 UNL     1      -4.348  48.894 -14.723  1.00  0.00     0.211 HD
ENDBRANCH  31  51
ENDBRANCH  29  31
ENDBRANCH  28  29
ENDBRANCH  27  28
ENDBRANCH   1  27
TORSDOF 14
ENDMDL
MODEL 8
REMARK minimizedAffinity -9.46051311
REMARK CNNscore 0.376235604
REMARK CNNaffinity 7.05333519
REMARK  14 active torsions:
REMARK  status: ('A' for Active; 'I' for Inactive)
REMARK    1  A    between atoms: O1_2  and  C2_3 
REMARK    2  A    between atoms: C6_8  and  C7_9 
REMARK    3  A    between atoms: C7_9  and  O3_11 
REMARK    4  A    between atoms: C8_12  and  C9_13 
REMARK    5  A    between atoms: C9_13  and  C10_14 
REMARK    6  A    between atoms: C10_14  and  N2_15 
REMARK       I    between atoms: N2_15  and  C11_16 
REMARK    7  A    between atoms: C11_16  and  C12_18 
REMARK    8  A    between atoms: C12_18  and  C13_19 
REMARK    9  A    between atoms: C13_19  and  C14_20 
REMARK   10  A    between atoms: C14_20  and  O6_22 
REMARK   11  A    between atoms: O6_22  and  C15_23 
REMARK   12  A    between atoms: C15_23  and  C16_24 
REMARK   13  A    between atoms: C16_24  and  C17_26 
REMARK   14  A    between atoms: C17_26  and  O8_27 
ROOT
HETATM    1  C14 UNL     1      -5.144  48.080 -28.059  1.00  0.00     0.259 C 
HETATM    2  O5  UNL     1      -6.103  47.742 -27.373  1.00  0.00    -0.265 OA
ENDROOT
BRANCH   1   3
HETATM    3  C13 UNL     1      -5.207  48.423 -29.527  1.00  0.00     0.120 C 
BRANCH   3   4
HETATM    4  C12 UNL     1      -5.961  47.348 -30.303  1.00  0.00     0.112 C 
BRANCH   4   5
HETATM    5  C11 UNL     1      -6.993  47.956 -31.234  1.00  0.00     0.218 C 
HETATM    6  N2  UNL     1      -7.260  47.169 -32.333  1.00  0.00    -0.361 N 
HETATM    7  H12 UNL     1      -6.863  46.240 -32.379  1.00  0.00     0.162 HD
HETATM    8  O4  UNL     1      -7.515  49.047 -31.031  1.00  0.00    -0.274 OA
BRANCH   6   9
HETATM    9  C10 UNL     1      -8.310  47.509 -33.277  1.00  0.00     0.127 C 
BRANCH   9  10
HETATM   10  C9  UNL     1      -7.904  47.285 -34.735  1.00  0.00     0.061 C 
BRANCH  10  11
HETATM   11  C8  UNL     1      -8.876  46.392 -35.456  1.00  0.00    -0.011 A 
HETATM   12  C6  UNL     1      -9.184  45.061 -35.176  1.00  0.00     0.114 A 
HETATM   13  N1  UNL     1     -10.117  44.662 -36.109  1.00  0.00    -0.350 N 
HETATM   14  C5  UNL     1     -10.406  45.672 -36.990  1.00  0.00     0.043 A 
HETATM   15  H6  UNL     1     -10.516  43.733 -36.141  1.00  0.00     0.166 HD
HETATM   16  C4  UNL     1     -11.268  45.686 -38.090  1.00  0.00     0.033 A 
HETATM   17  C36 UNL     1      -9.655  46.776 -36.604  1.00  0.00     0.002 A 
HETATM   18  C3  UNL     1     -11.368  46.878 -38.812  1.00  0.00     0.039 A 
HETATM   19  C2  UNL     1     -10.641  48.014 -38.454  1.00  0.00     0.069 A 
HETATM   20  C37 UNL     1      -9.779  47.971 -37.351  1.00  0.00     0.051 A 
BRANCH  12  21
HETATM   21  C7  UNL     1      -8.725  44.136 -34.174  1.00  0.00     0.194 C 
HETATM   22  O2  UNL     1      -7.666  44.192 -33.567  1.00  0.00    -0.645 OA
BRANCH  21  23
HETATM   23  O3  UNL     1      -9.615  43.160 -33.932  1.00  0.00    -0.772 OA
HETATM   24  H7  UNL     1      -9.204  42.601 -33.246  1.00  0.00     0.167 HD
ENDBRANCH  21  23
ENDBRANCH  12  21
BRANCH  19  25
HETATM   25  O1  UNL     1     -10.856  49.100 -39.261  1.00  0.00    -0.356 OA
HETATM   26  C1  UNL     1     -11.973  49.037 -40.139  1.00  0.00     0.210 C 
ENDBRANCH  19  25
ENDBRANCH  10  11
ENDBRANCH   9  10
ENDBRANCH   6   9
ENDBRANCH   4   5
ENDBRANCH   3   4
ENDBRANCH   1   3
BRANCH   1  27
HETATM   27  O6  UNL     1      -3.864  48.157 -27.610  1.00  0.00    -0.314 OA
BRANCH  27  28
HETATM   28  C15 UNL     1      -3.625  49.149 -26.618  1.00  0.00     0.260 C 
BRANCH  28  29
HETATM   29  C16 UNL     1      -3.038  50.468 -27.118  1.00  0.00     0.185 C 
HETATM   30  O7  UNL     1      -2.774  50.591 -28.321  1.00  0.00    -0.292 OA
BRANCH  29  31
HETATM   31  C17 UNL     1      -2.854  51.654 -26.115  1.00  0.00     0.128 C 
HETATM   32  C18 UNL     1      -4.019  51.606 -25.098  1.00  0.00     0.047 C 
HETATM   33  C19 UNL     1      -3.510  50.828 -23.879  1.00  0.00     0.009 C 
HETATM   34  C20 UNL     1      -2.044  50.466 -24.170  1.00  0.00     0.002 C 
HETATM   35  C21 UNL     1      -1.125  50.341 -22.938  1.00  0.00    -0.004 C 
HETATM   36  C34 UNL     1      -1.591  51.528 -25.195  1.00  0.00    -0.002 C 
HETATM   37  C22 UNL     1      -1.685  49.328 -21.931  1.00  0.00     0.010 C 
HETATM   38  C31 UNL     1      -0.836  51.695 -22.243  1.00  0.00     0.002 C 
HETATM   39  C23 UNL     1      -0.708  49.099 -20.787  1.00  0.00     0.035 C 
HETATM   40  C24 UNL     1      -0.346  50.390 -20.093  1.00  0.00    -0.068 C 
HETATM   41  C25 UNL     1      -0.391  50.457 -18.751  1.00  0.00     0.053 C 
HETATM   42  C29 UNL     1       0.111  51.552 -20.984  1.00  0.00    -0.016 C 
HETATM   43  C26 UNL     1       0.088  51.645 -18.007  1.00  0.00     0.149 C 
HETATM   44  O9  UNL     1       0.070  51.634 -16.778  1.00  0.00    -0.293 OA
HETATM   45  C27 UNL     1       0.672  52.791 -18.791  1.00  0.00     0.084 C 
HETATM   46  C28 UNL     1       0.046  52.883 -20.175  1.00  0.00     0.022 C 
HETATM   47  C30 UNL     1       1.577  51.280 -21.391  1.00  0.00     0.020 C 
HETATM   48  C32 UNL     1      -0.331  52.722 -23.276  1.00  0.00     0.007 C 
HETATM   49  C33 UNL     1      -1.276  52.869 -24.472  1.00  0.00     0.013 C 
HETATM   50  C35 UNL     1      -0.332  51.072 -25.951  1.00  0.00     0.019 C 
BRANCH  31  51
HETATM   51  O8  UNL     1      -2.919  52.922 -26.747  1.00  0.00    -0.381 OA
HETATM   52  H19 UNL     1      -2.091  53.073 -27.247  1.00  0.00     0.211 HD
ENDBRANCH  31  51
ENDBRANCH  29  31
ENDBRANCH  28  29
ENDBRANCH  27  28
ENDBRANCH   1  27
TORSDOF 14
ENDMDL
MODEL 9
REMARK minimizedAffinity -9.07072735
REMARK CNNscore 0.349216759
REMARK CNNaffinity 6.73233557
REMARK  14 active torsions:
REMARK  status: ('A' for Active; 'I' for Inactive)
REMARK    1  A    between atoms: O1_2  and  C2_3 
REMARK    2  A    between atoms: C6_8  and  C7_9 
REMARK    3  A    between atoms: C7_9  and  O3_11 
REMARK    4  A    between atoms: C8_12  and  C9_13 
REMARK    5  A    between atoms: C9_13  and  C10_14 
REMARK    6  A    between atoms: C10_14  and  N2_15 
REMARK       I    between atoms: N2_15  and  C11_16 
REMARK    7  A    between atoms: C11_16  and  C12_18 
REMARK    8  A    between atoms: C12_18  and  C13_19 
REMARK    9  A    between atoms: C13_19  and  C14_20 
REMARK   10  A    between atoms: C14_20  and  O6_22 
REMARK   11  A    between atoms: O6_22  and  C15_23 
REMARK   12  A    between atoms: C15_23  and  C16_24 
REMARK   13  A    between atoms: C16_24  and  C17_26 
REMARK   14  A    between atoms: C17_26  and  O8_27 
ROOT
HETATM    1  C14 UNL     1      -5.251  48.075 -27.435  1.00  0.00     0.259 C 
HETATM    2  O5  UNL     1      -5.607  47.957 -26.268  1.00  0.00    -0.265 OA
ENDROOT
BRANCH   1   3
HETATM    3  C13 UNL     1      -3.998  48.783 -27.891  1.00  0.00     0.120 C 
BRANCH   3   4
HETATM    4  C12 UNL     1      -3.006  48.923 -26.742  1.00  0.00     0.112 C 
BRANCH   4   5
HETATM    5  C11 UNL     1      -2.549  50.359 -26.574  1.00  0.00     0.218 C 
HETATM    6  N2  UNL     1      -1.365  50.473 -25.879  1.00  0.00    -0.361 N 
HETATM    7  H12 UNL     1      -0.850  49.634 -25.647  1.00  0.00     0.162 HD
HETATM    8  O4  UNL     1      -3.187  51.317 -27.000  1.00  0.00    -0.274 OA
BRANCH   6   9
HETATM    9  C10 UNL     1      -0.692  51.750 -25.722  1.00  0.00     0.127 C 
BRANCH   9  10
HETATM   10  C9  UNL     1      -1.252  52.589 -24.571  1.00  0.00     0.061 C 
BRANCH  10  11
HETATM   11  C8  UNL     1      -0.628  52.219 -23.253  1.00  0.00    -0.011 A 
HETATM   12  C6  UNL     1       0.404  52.873 -22.581  1.00  0.00     0.114 A 
HETATM   13  N1  UNL     1       0.641  52.162 -21.424  1.00  0.00    -0.350 N 
HETATM   14  C5  UNL     1      -0.180  51.068 -21.333  1.00  0.00     0.043 A 
HETATM   15  H6  UNL     1       1.346  52.416 -20.745  1.00  0.00     0.166 HD
HETATM   16  C4  UNL     1      -0.255  50.081 -20.348  1.00  0.00     0.033 A 
HETATM   17  C36 UNL     1      -0.999  51.079 -22.457  1.00  0.00     0.002 A 
HETATM   18  C3  UNL     1      -1.209  49.074 -20.519  1.00  0.00     0.039 A 
HETATM   19  C2  UNL     1      -2.058  49.051 -21.626  1.00  0.00     0.069 A 
HETATM   20  C37 UNL     1      -1.958  50.049 -22.602  1.00  0.00     0.051 A 
BRANCH  12  21
HETATM   21  C7  UNL     1       1.181  54.047 -22.879  1.00  0.00     0.194 C 
HETATM   22  O2  UNL     1       1.808  54.723 -22.078  1.00  0.00    -0.645 OA
BRANCH  21  23
HETATM   23  O3  UNL     1       1.174  54.346 -24.188  1.00  0.00    -0.772 OA
HETATM   24  H7  UNL     1       1.724  55.147 -24.272  1.00  0.00     0.167 HD
ENDBRANCH  21  23
ENDBRANCH  12  21
BRANCH  19  25
HETATM   25  O1  UNL     1      -2.938  48.000 -21.641  1.00  0.00    -0.356 OA
HETATM   26  C1  UNL     1      -2.581  46.851 -20.882  1.00  0.00     0.210 C 
ENDBRANCH  19  25
ENDBRANCH  10  11
ENDBRANCH   9  10
ENDBRANCH   6   9
ENDBRANCH   4   5
ENDBRANCH   3   4
ENDBRANCH   1   3
BRANCH   1  27
HETATM   27  O6  UNL     1      -5.954  47.621 -28.506  1.00  0.00    -0.314 OA
BRANCH  27  28
HETATM   28  C15 UNL     1      -7.349  47.898 -28.480  1.00  0.00     0.260 C 
BRANCH  28  29
HETATM   29  C16 UNL     1      -8.263  46.706 -28.197  1.00  0.00     0.185 C 
HETATM   30  O7  UNL     1      -7.973  45.932 -27.276  1.00  0.00    -0.292 OA
BRANCH  29  31
HETATM   31  C17 UNL     1      -9.578  46.536 -29.026  1.00  0.00     0.128 C 
HETATM   32  C18 UNL     1     -10.044  47.939 -29.480  1.00  0.00     0.047 C 
HETATM   33  C19 UNL     1      -9.483  48.157 -30.890  1.00  0.00     0.009 C 
HETATM   34  C20 UNL     1      -8.734  46.868 -31.267  1.00  0.00     0.002 C 
HETATM   35  C21 UNL     1      -8.697  46.527 -32.771  1.00  0.00    -0.004 C 
HETATM   36  C34 UNL     1      -9.387  45.782 -30.386  1.00  0.00    -0.002 C 
HETATM   37  C22 UNL     1      -8.110  47.688 -33.587  1.00  0.00     0.010 C 
HETATM   38  C31 UNL     1     -10.074  46.104 -33.343  1.00  0.00     0.002 C 
HETATM   39  C23 UNL     1      -7.942  47.296 -35.048  1.00  0.00     0.035 C 
HETATM   40  C24 UNL     1      -9.242  46.827 -35.655  1.00  0.00    -0.068 C 
HETATM   41  C25 UNL     1      -9.635  47.320 -36.843  1.00  0.00     0.053 C 
HETATM   42  C29 UNL     1     -10.021  45.753 -34.884  1.00  0.00    -0.016 C 
HETATM   43  C26 UNL     1     -10.823  46.796 -37.557  1.00  0.00     0.149 C 
HETATM   44  O9  UNL     1     -11.109  47.248 -38.663  1.00  0.00    -0.293 OA
HETATM   45  C27 UNL     1     -11.583  45.653 -36.936  1.00  0.00     0.084 C 
HETATM   46  C28 UNL     1     -11.484  45.690 -35.418  1.00  0.00     0.022 C 
HETATM   47  C30 UNL     1      -9.328  44.396 -35.145  1.00  0.00     0.020 C 
HETATM   48  C32 UNL     1     -10.681  44.979 -32.479  1.00  0.00     0.007 C 
HETATM   49  C33 UNL     1     -10.752  45.349 -30.995  1.00  0.00     0.013 C 
HETATM   50  C35 UNL     1      -8.486  44.540 -30.272  1.00  0.00     0.019 C 
BRANCH  31  51
HETATM   51  O8  UNL     1     -10.639  45.984 -28.264  1.00  0.00    -0.381 OA
HETATM   52  H19 UNL     1     -10.471  45.028 -28.128  1.00  0.00     0.211 HD
ENDBRANCH  31  51
ENDBRANCH  29  31
ENDBRANCH  28  29
ENDBRANCH  27  28
ENDBRANCH   1  27
TORSDOF 14
ENDMDL
