MODEL 1
REMARK minimizedAffinity -5.66777277
REMARK CNNscore 0.421494037
REMARK CNNaffinity 5.95612335
REMARK  6 active torsions:
REMARK  status: ('A' for Active; 'I' for Inactive)
REMARK    1  A    between atoms: C9_10  and  C10_11 
REMARK    2  A    between atoms: C11_13  and  O3_14 
REMARK    3  A    between atoms: C12_15  and  C13_16 
REMARK    4  A    between atoms: C14_18  and  O5_19 
REMARK    5  A    between atoms: C16_21  and  C17_22 
REMARK    6  A    between atoms: C17_22  and  C18_23 
ROOT
HETATM    1  C1  UNL     1       6.217  38.529 -23.153  1.00  0.00     0.043 C 
HETATM    2  C2  UNL     1       7.555  38.439 -22.442  1.00  0.00    -0.087 C 
HETATM    3  C3  UNL     1       8.531  37.713 -23.022  1.00  0.00    -0.024 C 
HETATM    4  C4  UNL     1       9.916  37.382 -22.565  1.00  0.00     0.030 C 
HETATM    5  C5  UNL     1      11.023  37.915 -23.481  1.00  0.00     0.042 C 
HETATM    6  C6  UNL     1      11.221  39.454 -23.622  1.00  0.00     0.069 C 
HETATM    7  C7  UNL     1      10.017  40.100 -24.345  1.00  0.00     0.047 C 
HETATM    8  O1  UNL     1      12.312  39.527 -24.611  1.00  0.00    -0.338 OA
HETATM    9  C8  UNL     1      12.916  40.756 -24.687  1.00  0.00     0.095 A 
HETATM   10  C9  UNL     1      13.126  41.350 -25.934  1.00  0.00     0.070 A 
HETATM   11  C11 UNL     1      13.683  42.632 -26.001  1.00  0.00     0.097 A 
HETATM   12  C12 UNL     1      14.025  43.298 -24.819  1.00  0.00     0.069 A 
HETATM   13  C14 UNL     1      13.838  42.670 -23.569  1.00  0.00     0.091 A 
HETATM   14  C15 UNL     1      13.323  41.371 -23.493  1.00  0.00     0.015 A 
HETATM   15  C16 UNL     1      13.127  40.500 -22.266  1.00  0.00     0.032 C 
HETATM   16  C21 UNL     1      11.615  40.099 -22.210  1.00  0.00     0.034 C 
HETATM   17  C22 UNL     1      10.700  41.255 -21.831  1.00  0.00     0.006 A 
HETATM   18  C23 UNL     1       9.333  41.050 -21.167  1.00  0.00    -0.001 A 
HETATM   19  C24 UNL     1       8.814  39.798 -20.500  1.00  0.00     0.010 C 
HETATM   20  C25 UNL     1       7.553  39.188 -21.123  1.00  0.00     0.034 C 
HETATM   21  C26 UNL     1      10.429  41.825 -20.438  1.00  0.00    -0.039 A 
HETATM   22  C27 UNL     1      10.260  43.327 -20.342  1.00  0.00     0.015 C 
HETATM   23  C28 UNL     1      11.012  41.235 -19.176  1.00  0.00     0.015 C 
ENDROOT
BRANCH  15  24
HETATM   24  C17 UNL     1      13.727  40.934 -20.918  1.00  0.00     0.014 C 
BRANCH  24  25
HETATM   25  C18 UNL     1      14.673  39.904 -20.251  1.00  0.00    -0.022 C 
HETATM   26  C19 UNL     1      15.602  39.225 -21.263  1.00  0.00     0.009 C 
HETATM   27  C20 UNL     1      13.840  38.836 -19.533  1.00  0.00     0.009 C 
ENDBRANCH  24  25
ENDBRANCH  15  24
BRANCH  13  28
HETATM   28  O5  UNL     1      14.131  43.329 -22.406  1.00  0.00    -0.359 OA
HETATM   29  H15 UNL     1      14.509  44.213 -22.621  1.00  0.00     0.217 HD
ENDBRANCH  13  28
BRANCH  10  30
HETATM   30  C10 UNL     1      12.729  40.629 -27.159  1.00  0.00     0.275 C 
HETATM   31  O2  UNL     1      11.901  41.120 -27.923  1.00  0.00    -0.301 OA
ENDBRANCH  10  30
BRANCH  12  32
HETATM   32  C13 UNL     1      14.579  44.666 -24.901  1.00  0.00     0.275 C 
HETATM   33  O4  UNL     1      14.043  45.517 -25.609  1.00  0.00    -0.301 OA
ENDBRANCH  12  32
BRANCH  11  34
HETATM   34  O3  UNL     1      13.891  43.266 -27.200  1.00  0.00    -0.359 OA
HETATM   35  H13 UNL     1      13.587  42.674 -27.929  1.00  0.00     0.217 HD
ENDBRANCH  11  34
TORSDOF 6
ENDMDL
MODEL 2
REMARK minimizedAffinity -6.2709136
REMARK CNNscore 0.344003946
REMARK CNNaffinity 5.67173338
REMARK  6 active torsions:
REMARK  status: ('A' for Active; 'I' for Inactive)
REMARK    1  A    between atoms: C9_10  and  C10_11 
REMARK    2  A    between atoms: C11_13  and  O3_14 
REMARK    3  A    between atoms: C12_15  and  C13_16 
REMARK    4  A    between atoms: C14_18  and  O5_19 
REMARK    5  A    between atoms: C16_21  and  C17_22 
REMARK    6  A    between atoms: C17_22  and  C18_23 
ROOT
HETATM    1  C1  UNL     1       3.741  56.978  -6.519  1.00  0.00     0.043 C 
HETATM    2  C2  UNL     1       2.978  56.682  -7.797  1.00  0.00    -0.087 C 
HETATM    3  C3  UNL     1       3.688  56.481  -8.925  1.00  0.00    -0.024 C 
HETATM    4  C4  UNL     1       3.250  56.230 -10.333  1.00  0.00     0.030 C 
HETATM    5  C5  UNL     1       3.694  54.876 -10.896  1.00  0.00     0.042 C 
HETATM    6  C6  UNL     1       3.125  53.566 -10.273  1.00  0.00     0.069 C 
HETATM    7  C7  UNL     1       3.640  53.375  -8.828  1.00  0.00     0.047 C 
HETATM    8  O1  UNL     1       3.837  52.532 -11.046  1.00  0.00    -0.338 OA
HETATM    9  C8  UNL     1       3.293  51.278 -10.934  1.00  0.00     0.095 A 
HETATM   10  C9  UNL     1       4.120  50.186 -10.658  1.00  0.00     0.070 A 
HETATM   11  C11 UNL     1       3.551  48.919 -10.481  1.00  0.00     0.097 A 
HETATM   12  C12 UNL     1       2.165  48.765 -10.586  1.00  0.00     0.069 A 
HETATM   13  C14 UNL     1       1.347  49.873 -10.898  1.00  0.00     0.091 A 
HETATM   14  C15 UNL     1       1.910  51.135 -11.121  1.00  0.00     0.015 A 
HETATM   15  C16 UNL     1       1.221  52.418 -11.545  1.00  0.00     0.032 C 
HETATM   16  C21 UNL     1       1.535  53.502 -10.462  1.00  0.00     0.034 C 
HETATM   17  C22 UNL     1       0.810  53.265  -9.144  1.00  0.00     0.006 A 
HETATM   18  C23 UNL     1       0.480  54.395  -8.162  1.00  0.00    -0.001 A 
HETATM   19  C24 UNL     1       0.496  55.881  -8.431  1.00  0.00     0.010 C 
HETATM   20  C25 UNL     1       1.476  56.699  -7.583  1.00  0.00     0.034 C 
HETATM   21  C26 UNL     1      -0.646  53.582  -8.799  1.00  0.00    -0.039 A 
HETATM   22  C27 UNL     1      -1.364  52.589  -7.911  1.00  0.00     0.015 C 
HETATM   23  C28 UNL     1      -1.587  54.280  -9.752  1.00  0.00     0.015 C 
ENDROOT
BRANCH  15  24
HETATM   24  C17 UNL     1      -0.246  52.379 -12.008  1.00  0.00     0.014 C 
BRANCH  24  25
HETATM   25  C18 UNL     1      -0.455  52.227 -13.536  1.00  0.00    -0.022 C 
HETATM   26  C19 UNL     1      -1.412  51.082 -13.882  1.00  0.00     0.009 C 
HETATM   27  C20 UNL     1       0.896  51.979 -14.214  1.00  0.00     0.009 C 
ENDBRANCH  24  25
ENDBRANCH  15  24
BRANCH  13  28
HETATM   28  O5  UNL     1      -0.014  49.740 -10.962  1.00  0.00    -0.359 OA
HETATM   29  H15 UNL     1      -0.254  48.796 -10.813  1.00  0.00     0.217 HD
ENDBRANCH  13  28
BRANCH  10  30
HETATM   30  C10 UNL     1       5.576  50.389 -10.530  1.00  0.00     0.275 C 
HETATM   31  O2  UNL     1       6.354  49.710 -11.196  1.00  0.00    -0.301 OA
ENDBRANCH  10  30
BRANCH  12  32
HETATM   32  C13 UNL     1       1.572  47.429 -10.360  1.00  0.00     0.275 C 
HETATM   33  O4  UNL     1       1.801  46.504 -11.137  1.00  0.00    -0.301 OA
ENDBRANCH  12  32
BRANCH  11  34
HETATM   34  O3  UNL     1       4.318  47.818 -10.190  1.00  0.00    -0.359 OA
HETATM   35  H13 UNL     1       5.264  48.096 -10.137  1.00  0.00     0.217 HD
ENDBRANCH  11  34
TORSDOF 6
ENDMDL
MODEL 3
REMARK minimizedAffinity -6.93830681
REMARK CNNscore 0.307630718
REMARK CNNaffinity 5.51060486
REMARK  6 active torsions:
REMARK  status: ('A' for Active; 'I' for Inactive)
REMARK    1  A    between atoms: C9_10  and  C10_11 
REMARK    2  A    between atoms: C11_13  and  O3_14 
REMARK    3  A    between atoms: C12_15  and  C13_16 
REMARK    4  A    between atoms: C14_18  and  O5_19 
REMARK    5  A    between atoms: C16_21  and  C17_22 
REMARK    6  A    between atoms: C17_22  and  C18_23 
ROOT
HETATM    1  C1  UNL     1     -10.745  41.042 -27.760  1.00  0.00     0.043 C 
HETATM    2  C2  UNL     1     -10.700  42.289 -28.622  1.00  0.00    -0.087 C 
HETATM    3  C3  UNL     1     -11.233  43.422 -28.123  1.00  0.00    -0.024 C 
HETATM    4  C4  UNL     1     -11.398  44.781 -28.725  1.00  0.00     0.030 C 
HETATM    5  C5  UNL     1     -10.643  45.891 -27.986  1.00  0.00     0.042 C 
HETATM    6  C6  UNL     1      -9.086  45.870 -27.964  1.00  0.00     0.069 C 
HETATM    7  C7  UNL     1      -8.563  44.671 -27.140  1.00  0.00     0.047 C 
HETATM    8  O1  UNL     1      -8.782  47.042 -27.122  1.00  0.00    -0.338 OA
HETATM    9  C8  UNL     1      -7.477  47.459 -27.195  1.00  0.00     0.095 A 
HETATM   10  C9  UNL     1      -6.765  47.716 -26.021  1.00  0.00     0.070 A 
HETATM   11  C11 UNL     1      -5.415  48.078 -26.101  1.00  0.00     0.097 A 
HETATM   12  C12 UNL     1      -4.801  48.182 -27.354  1.00  0.00     0.069 A 
HETATM   13  C14 UNL     1      -5.545  47.952 -28.532  1.00  0.00     0.091 A 
HETATM   14  C15 UNL     1      -6.906  47.632 -28.465  1.00  0.00     0.015 A 
HETATM   15  C16 UNL     1      -7.889  47.433 -29.603  1.00  0.00     0.032 C 
HETATM   16  C21 UNL     1      -8.503  46.002 -29.450  1.00  0.00     0.034 C 
HETATM   17  C22 UNL     1      -7.522  44.887 -29.783  1.00  0.00     0.006 A 
HETATM   18  C23 UNL     1      -7.970  43.500 -30.261  1.00  0.00    -0.001 A 
HETATM   19  C24 UNL     1      -9.331  43.104 -30.782  1.00  0.00     0.010 C 
HETATM   20  C25 UNL     1     -10.063  42.027 -29.975  1.00  0.00     0.034 C 
HETATM   21  C26 UNL     1      -7.106  44.379 -31.165  1.00  0.00    -0.039 A 
HETATM   22  C27 UNL     1      -5.656  43.977 -31.330  1.00  0.00     0.015 C 
HETATM   23  C28 UNL     1      -7.704  44.899 -32.451  1.00  0.00     0.015 C 
ENDROOT
BRANCH  15  24
HETATM   24  C17 UNL     1      -7.480  47.806 -31.039  1.00  0.00     0.014 C 
BRANCH  24  25
HETATM   25  C18 UNL     1      -8.632  48.300 -31.949  1.00  0.00    -0.022 C 
HETATM   26  C19 UNL     1      -9.975  47.654 -31.592  1.00  0.00     0.009 C 
HETATM   27  C20 UNL     1      -8.295  47.992 -33.412  1.00  0.00     0.009 C 
ENDBRANCH  24  25
ENDBRANCH  15  24
BRANCH  13  28
HETATM   28  O5  UNL     1      -4.943  48.011 -29.760  1.00  0.00    -0.359 OA
HETATM   29  H15 UNL     1      -4.000  48.273 -29.646  1.00  0.00     0.217 HD
ENDBRANCH  13  28
BRANCH  10  30
HETATM   30  C10 UNL     1      -7.437  47.572 -24.716  1.00  0.00     0.275 C 
HETATM   31  O2  UNL     1      -8.521  46.999 -24.640  1.00  0.00    -0.301 OA
ENDBRANCH  10  30
BRANCH  12  32
HETATM   32  C13 UNL     1      -3.366  48.530 -27.423  1.00  0.00     0.275 C 
HETATM   33  O4  UNL     1      -3.008  49.624 -27.856  1.00  0.00    -0.301 OA
ENDBRANCH  12  32
BRANCH  11  34
HETATM   34  O3  UNL     1      -4.666  48.322 -24.977  1.00  0.00    -0.359 OA
HETATM   35  H13 UNL     1      -5.237  48.194 -24.181  1.00  0.00     0.217 HD
ENDBRANCH  11  34
TORSDOF 6
ENDMDL
MODEL 4
REMARK minimizedAffinity -5.73435545
REMARK CNNscore 0.278069556
REMARK CNNaffinity 5.11218119
REMARK  6 active torsions:
REMARK  status: ('A' for Active; 'I' for Inactive)
REMARK    1  A    between atoms: C9_10  and  C10_11 
REMARK    2  A    between atoms: C11_13  and  O3_14 
REMARK    3  A    between atoms: C12_15  and  C13_16 
REMARK    4  A    between atoms: C14_18  and  O5_19 
REMARK    5  A    between atoms: C16_21  and  C17_22 
REMARK    6  A    between atoms: C17_22  and  C18_23 
ROOT
HETATM    1  C1  UNL     1       5.215  51.109  -9.729  1.00  0.00     0.043 C 
HETATM    2  C2  UNL     1       5.810  52.394  -9.183  1.00  0.00    -0.087 C 
HETATM    3  C3  UNL     1       5.456  53.554  -9.771  1.00  0.00    -0.024 C 
HETATM    4  C4  UNL     1       5.896  54.961  -9.518  1.00  0.00     0.030 C 
HETATM    5  C5  UNL     1       4.770  55.899  -9.071  1.00  0.00     0.042 C 
HETATM    6  C6  UNL     1       4.075  55.658  -7.698  1.00  0.00     0.069 C 
HETATM    7  C7  UNL     1       3.261  54.343  -7.717  1.00  0.00     0.047 C 
HETATM    8  O1  UNL     1       3.047  56.714  -7.692  1.00  0.00    -0.338 OA
HETATM    9  C8  UNL     1       2.493  56.947  -6.459  1.00  0.00     0.095 A 
HETATM   10  C9  UNL     1       1.104  57.019  -6.325  1.00  0.00     0.070 A 
HETATM   11  C11 UNL     1       0.542  57.192  -5.055  1.00  0.00     0.097 A 
HETATM   12  C12 UNL     1       1.379  57.293  -3.939  1.00  0.00     0.069 A 
HETATM   13  C14 UNL     1       2.782  57.252  -4.095  1.00  0.00     0.091 A 
HETATM   14  C15 UNL     1       3.354  57.124  -5.366  1.00  0.00     0.015 A 
HETATM   15  C16 UNL     1       4.822  57.144  -5.750  1.00  0.00     0.032 C 
HETATM   16  C21 UNL     1       5.131  55.808  -6.502  1.00  0.00     0.034 C 
HETATM   17  C22 UNL     1       5.139  54.590  -5.588  1.00  0.00     0.006 A 
HETATM   18  C23 UNL     1       5.933  53.317  -5.906  1.00  0.00    -0.001 A 
HETATM   19  C24 UNL     1       7.039  53.154  -6.921  1.00  0.00     0.010 C 
HETATM   20  C25 UNL     1       6.771  52.138  -8.037  1.00  0.00     0.034 C 
HETATM   21  C26 UNL     1       6.253  54.125  -4.649  1.00  0.00    -0.039 A 
HETATM   22  C27 UNL     1       5.820  53.534  -3.325  1.00  0.00     0.015 C 
HETATM   23  C28 UNL     1       7.595  54.811  -4.556  1.00  0.00     0.015 C 
ENDROOT
BRANCH  15  24
HETATM   24  C17 UNL     1       5.878  57.554  -4.708  1.00  0.00     0.014 C 
BRANCH  24  25
HETATM   25  C18 UNL     1       6.478  58.970  -4.894  1.00  0.00    -0.022 C 
HETATM   26  C19 UNL     1       8.010  58.958  -4.896  1.00  0.00     0.009 C 
HETATM   27  C20 UNL     1       5.980  59.887  -3.772  1.00  0.00     0.009 C 
ENDBRANCH  24  25
ENDBRANCH  15  24
BRANCH  13  28
HETATM   28  O5  UNL     1       3.608  57.309  -3.005  1.00  0.00    -0.359 OA
HETATM   29  H15 UNL     1       3.063  57.428  -2.192  1.00  0.00     0.217 HD
ENDBRANCH  13  28
BRANCH  10  30
HETATM   30  C10 UNL     1       0.249  56.883  -7.521  1.00  0.00     0.275 C 
HETATM   31  O2  UNL     1      -0.814  57.495  -7.592  1.00  0.00    -0.301 OA
ENDBRANCH  10  30
BRANCH  12  32
HETATM   32  C13 UNL     1       0.773  57.439  -2.598  1.00  0.00     0.275 C 
HETATM   33  O4  UNL     1       0.093  58.426  -2.323  1.00  0.00    -0.301 OA
ENDBRANCH  12  32
BRANCH  11  34
HETATM   34  O3  UNL     1      -0.817  57.249  -4.868  1.00  0.00    -0.359 OA
HETATM   35  H13 UNL     1      -1.262  57.149  -5.744  1.00  0.00     0.217 HD
ENDBRANCH  11  34
TORSDOF 6
ENDMDL
MODEL 5
REMARK minimizedAffinity -6.62087059
REMARK CNNscore 0.275772691
REMARK CNNaffinity 5.13446045
REMARK  6 active torsions:
REMARK  status: ('A' for Active; 'I' for Inactive)
REMARK    1  A    between atoms: C9_10  and  C10_11 
REMARK    2  A    between atoms: C11_13  and  O3_14 
REMARK    3  A    between atoms: C12_15  and  C13_16 
REMARK    4  A    between atoms: C14_18  and  O5_19 
REMARK    5  A    between atoms: C16_21  and  C17_22 
REMARK    6  A    between atoms: C17_22  and  C18_23 
ROOT
HETATM    1  C1  UNL     1       4.287  64.717 -32.032  1.00  0.00     0.043 C 
HETATM    2  C2  UNL     1       5.223  65.071 -33.172  1.00  0.00    -0.087 C 
HETATM    3  C3  UNL     1       5.125  64.360 -34.314  1.00  0.00    -0.024 C 
HETATM    4  C4  UNL     1       5.920  64.415 -35.579  1.00  0.00     0.030 C 
HETATM    5  C5  UNL     1       5.102  64.796 -36.818  1.00  0.00     0.042 C 
HETATM    6  C6  UNL     1       4.478  66.220 -36.912  1.00  0.00     0.069 C 
HETATM    7  C7  UNL     1       3.364  66.403 -35.856  1.00  0.00     0.047 C 
HETATM    8  O1  UNL     1       3.749  66.144 -38.191  1.00  0.00    -0.338 OA
HETATM    9  C8  UNL     1       3.368  67.364 -38.690  1.00  0.00     0.095 A 
HETATM   10  C9  UNL     1       2.056  67.554 -39.130  1.00  0.00     0.070 A 
HETATM   11  C11 UNL     1       1.656  68.819 -39.578  1.00  0.00     0.097 A 
HETATM   12  C12 UNL     1       2.576  69.872 -39.581  1.00  0.00     0.069 A 
HETATM   13  C14 UNL     1       3.908  69.654 -39.165  1.00  0.00     0.091 A 
HETATM   14  C15 UNL     1       4.329  68.383 -38.757  1.00  0.00     0.015 A 
HETATM   15  C16 UNL     1       5.721  67.930 -38.359  1.00  0.00     0.032 C 
HETATM   16  C21 UNL     1       5.628  67.336 -36.914  1.00  0.00     0.034 C 
HETATM   17  C22 UNL     1       5.404  68.392 -35.842  1.00  0.00     0.006 A 
HETATM   18  C23 UNL     1       5.828  68.197 -34.381  1.00  0.00    -0.001 A 
HETATM   19  C24 UNL     1       6.776  67.159 -33.830  1.00  0.00     0.010 C 
HETATM   20  C25 UNL     1       6.177  66.191 -32.803  1.00  0.00     0.034 C 
HETATM   21  C26 UNL     1       6.436  69.327 -35.210  1.00  0.00    -0.039 A 
HETATM   22  C27 UNL     1       5.974  70.734 -34.897  1.00  0.00     0.015 C 
HETATM   23  C28 UNL     1       7.910  69.270 -35.535  1.00  0.00     0.015 C 
ENDROOT
BRANCH  15  24
HETATM   24  C17 UNL     1       6.924  68.860 -38.594  1.00  0.00     0.014 C 
BRANCH  24  25
HETATM   25  C18 UNL     1       8.149  68.201 -39.276  1.00  0.00    -0.022 C 
HETATM   26  C19 UNL     1       9.458  68.930 -38.952  1.00  0.00     0.009 C 
HETATM   27  C20 UNL     1       7.941  68.185 -40.794  1.00  0.00     0.009 C 
ENDBRANCH  24  25
ENDBRANCH  15  24
BRANCH  13  28
HETATM   28  O5  UNL     1       4.805  70.688 -39.125  1.00  0.00    -0.359 OA
HETATM   29  H15 UNL     1       4.372  71.505 -39.466  1.00  0.00     0.217 HD
ENDBRANCH  13  28
BRANCH  10  30
HETATM   30  C10 UNL     1       1.104  66.427 -39.089  1.00  0.00     0.275 C 
HETATM   31  O2  UNL     1       0.057  66.480 -39.732  1.00  0.00    -0.301 OA
ENDBRANCH  10  30
BRANCH  12  32
HETATM   32  C13 UNL     1       2.132  71.212 -40.021  1.00  0.00     0.275 C 
HETATM   33  O4  UNL     1       2.699  71.784 -40.950  1.00  0.00    -0.301 OA
ENDBRANCH  12  32
BRANCH  11  34
HETATM   34  O3  UNL     1       0.373  69.061 -40.002  1.00  0.00    -0.359 OA
HETATM   35  H13 UNL     1      -0.150  68.227 -39.925  1.00  0.00     0.217 HD
ENDBRANCH  11  34
TORSDOF 6
ENDMDL
MODEL 6
REMARK minimizedAffinity -6.85597944
REMARK CNNscore 0.246862128
REMARK CNNaffinity 5.06339407
REMARK  6 active torsions:
REMARK  status: ('A' for Active; 'I' for Inactive)
REMARK    1  A    between atoms: C9_10  and  C10_11 
REMARK    2  A    between atoms: C11_13  and  O3_14 
REMARK    3  A    between atoms: C12_15  and  C13_16 
REMARK    4  A    between atoms: C14_18  and  O5_19 
REMARK    5  A    between atoms: C16_21  and  C17_22 
REMARK    6  A    between atoms: C17_22  and  C18_23 
ROOT
HETATM    1  C1  UNL     1     -12.482  48.197 -19.539  1.00  0.00     0.043 C 
HETATM    2  C2  UNL     1     -13.722  47.683 -18.832  1.00  0.00    -0.087 C 
HETATM    3  C3  UNL     1     -14.869  48.374 -18.985  1.00  0.00    -0.024 C 
HETATM    4  C4  UNL     1     -16.227  48.172 -18.391  1.00  0.00     0.030 C 
HETATM    5  C5  UNL     1     -17.326  47.890 -19.421  1.00  0.00     0.042 C 
HETATM    6  C6  UNL     1     -17.274  46.573 -20.251  1.00  0.00     0.069 C 
HETATM    7  C7  UNL     1     -16.071  46.581 -21.221  1.00  0.00     0.047 C 
HETATM    8  O1  UNL     1     -18.445  46.727 -21.133  1.00  0.00    -0.338 OA
HETATM    9  C8  UNL     1     -18.835  45.567 -21.752  1.00  0.00     0.095 A 
HETATM   10  C9  UNL     1     -19.086  45.565 -23.127  1.00  0.00     0.070 A 
HETATM   11  C11 UNL     1     -19.420  44.364 -23.764  1.00  0.00     0.097 A 
HETATM   12  C12 UNL     1     -19.502  43.185 -23.015  1.00  0.00     0.069 A 
HETATM   13  C14 UNL     1     -19.279  43.211 -21.621  1.00  0.00     0.091 A 
HETATM   14  C15 UNL     1     -18.987  44.414 -20.967  1.00  0.00     0.015 A 
HETATM   15  C16 UNL     1     -18.800  44.664 -19.482  1.00  0.00     0.032 C 
HETATM   16  C21 UNL     1     -17.383  45.298 -19.286  1.00  0.00     0.034 C 
HETATM   17  C22 UNL     1     -16.246  44.311 -19.508  1.00  0.00     0.006 A 
HETATM   18  C23 UNL     1     -14.865  44.474 -18.860  1.00  0.00    -0.001 A 
HETATM   19  C24 UNL     1     -14.493  45.372 -17.705  1.00  0.00     0.010 C 
HETATM   20  C25 UNL     1     -13.437  46.441 -18.008  1.00  0.00     0.034 C 
HETATM   21  C26 UNL     1     -15.720  43.247 -18.544  1.00  0.00    -0.039 A 
HETATM   22  C27 UNL     1     -15.286  41.933 -19.156  1.00  0.00     0.015 C 
HETATM   23  C28 UNL     1     -16.242  43.077 -17.137  1.00  0.00     0.015 C 
ENDROOT
BRANCH  15  24
HETATM   24  C17 UNL     1     -19.155  43.559 -18.472  1.00  0.00     0.014 C 
BRANCH  24  25
HETATM   25  C18 UNL     1     -20.384  43.852 -17.574  1.00  0.00    -0.022 C 
HETATM   26  C19 UNL     1     -21.604  43.011 -17.965  1.00  0.00     0.009 C 
HETATM   27  C20 UNL     1     -20.742  45.338 -17.668  1.00  0.00     0.009 C 
ENDBRANCH  24  25
ENDBRANCH  15  24
BRANCH  13  28
HETATM   28  O5  UNL     1     -19.316  42.057 -20.886  1.00  0.00    -0.359 OA
HETATM   29  H15 UNL     1     -19.560  41.306 -21.476  1.00  0.00     0.217 HD
ENDBRANCH  13  28
BRANCH  10  30
HETATM   30  C10 UNL     1     -18.965  46.822 -23.890  1.00  0.00     0.275 C 
HETATM   31  O2  UNL     1     -19.667  47.010 -24.882  1.00  0.00    -0.301 OA
ENDBRANCH  10  30
BRANCH  12  32
HETATM   32  C13 UNL     1     -19.820  41.917 -23.705  1.00  0.00     0.275 C 
HETATM   33  O4  UNL     1     -19.659  41.808 -24.919  1.00  0.00    -0.301 OA
ENDBRANCH  12  32
BRANCH  11  34
HETATM   34  O3  UNL     1     -19.656  44.305 -25.115  1.00  0.00    -0.359 OA
HETATM   35  H13 UNL     1     -19.546  45.210 -25.495  1.00  0.00     0.217 HD
ENDBRANCH  11  34
TORSDOF 6
ENDMDL
MODEL 7
REMARK minimizedAffinity -6.12764454
REMARK CNNscore 0.244898543
REMARK CNNaffinity 5.76506567
REMARK  6 active torsions:
REMARK  status: ('A' for Active; 'I' for Inactive)
REMARK    1  A    between atoms: C9_10  and  C10_11 
REMARK    2  A    between atoms: C11_13  and  O3_14 
REMARK    3  A    between atoms: C12_15  and  C13_16 
REMARK    4  A    between atoms: C14_18  and  O5_19 
REMARK    5  A    between atoms: C16_21  and  C17_22 
REMARK    6  A    between atoms: C17_22  and  C18_23 
ROOT
HETATM    1  C1  UNL     1       0.353  55.924  -7.152  1.00  0.00     0.043 C 
HETATM    2  C2  UNL     1       0.548  55.600  -8.622  1.00  0.00    -0.087 C 
HETATM    3  C3  UNL     1       1.798  55.669  -9.123  1.00  0.00    -0.024 C 
HETATM    4  C4  UNL     1       2.314  55.470 -10.513  1.00  0.00     0.030 C 
HETATM    5  C5  UNL     1       3.300  54.306 -10.655  1.00  0.00     0.042 C 
HETATM    6  C6  UNL     1       2.801  52.850 -10.418  1.00  0.00     0.069 C 
HETATM    7  C7  UNL     1       2.427  52.631  -8.934  1.00  0.00     0.047 C 
HETATM    8  O1  UNL     1       4.043  52.075 -10.592  1.00  0.00    -0.338 OA
HETATM    9  C8  UNL     1       3.842  50.729 -10.759  1.00  0.00     0.095 A 
HETATM   10  C9  UNL     1       4.591  49.818 -10.009  1.00  0.00     0.070 A 
HETATM   11  C11 UNL     1       4.336  48.447 -10.137  1.00  0.00     0.097 A 
HETATM   12  C12 UNL     1       3.339  48.010 -11.015  1.00  0.00     0.069 A 
HETATM   13  C14 UNL     1       2.615  48.942 -11.791  1.00  0.00     0.091 A 
HETATM   14  C15 UNL     1       2.893  50.311 -11.703  1.00  0.00     0.015 A 
HETATM   15  C16 UNL     1       2.293  51.452 -12.504  1.00  0.00     0.032 C 
HETATM   16  C21 UNL     1       1.671  52.465 -11.487  1.00  0.00     0.034 C 
HETATM   17  C22 UNL     1       0.404  51.948 -10.820  1.00  0.00     0.006 A 
HETATM   18  C23 UNL     1      -0.680  52.878 -10.259  1.00  0.00    -0.001 A 
HETATM   19  C24 UNL     1      -0.859  54.351 -10.536  1.00  0.00     0.010 C 
HETATM   20  C25 UNL     1      -0.761  55.272  -9.315  1.00  0.00     0.034 C 
HETATM   21  C26 UNL     1      -1.014  51.909 -11.393  1.00  0.00    -0.039 A 
HETATM   22  C27 UNL     1      -1.855  50.701 -11.039  1.00  0.00     0.015 C 
HETATM   23  C28 UNL     1      -1.375  52.479 -12.745  1.00  0.00     0.015 C 
ENDROOT
BRANCH  15  24
HETATM   24  C17 UNL     1       1.410  51.145 -13.726  1.00  0.00     0.014 C 
BRANCH  24  25
HETATM   25  C18 UNL     1       2.131  51.206 -15.096  1.00  0.00    -0.022 C 
HETATM   26  C19 UNL     1       3.419  52.033 -15.040  1.00  0.00     0.009 C 
HETATM   27  C20 UNL     1       1.187  51.810 -16.142  1.00  0.00     0.009 C 
ENDBRANCH  24  25
ENDBRANCH  15  24
BRANCH  13  28
HETATM   28  O5  UNL     1       1.610  48.527 -12.622  1.00  0.00    -0.359 OA
HETATM   29  H15 UNL     1       1.555  47.543 -12.598  1.00  0.00     0.217 HD
ENDBRANCH  13  28
BRANCH  10  30
HETATM   30  C10 UNL     1       5.617  50.315  -9.073  1.00  0.00     0.275 C 
HETATM   31  O2  UNL     1       6.777  49.920  -9.163  1.00  0.00    -0.301 OA
ENDBRANCH  10  30
BRANCH  12  32
HETATM   32  C13 UNL     1       3.054  46.563 -11.114  1.00  0.00     0.275 C 
HETATM   33  O4  UNL     1       3.311  45.944 -12.145  1.00  0.00    -0.301 OA
ENDBRANCH  12  32
BRANCH  11  34
HETATM   34  O3  UNL     1       5.030  47.514  -9.408  1.00  0.00    -0.359 OA
HETATM   35  H13 UNL     1       5.681  47.981  -8.831  1.00  0.00     0.217 HD
ENDBRANCH  11  34
TORSDOF 6
ENDMDL
MODEL 8
REMARK minimizedAffinity -5.79212332
REMARK CNNscore 0.233392835
REMARK CNNaffinity 5.24588966
REMARK  6 active torsions:
REMARK  status: ('A' for Active; 'I' for Inactive)
REMARK    1  A    between atoms: C9_10  and  C10_11 
REMARK    2  A    between atoms: C11_13  and  O3_14 
REMARK    3  A    between atoms: C12_15  and  C13_16 
REMARK    4  A    between atoms: C14_18  and  O5_19 
REMARK    5  A    between atoms: C16_21  and  C17_22 
REMARK    6  A    between atoms: C17_22  and  C18_23 
ROOT
HETATM    1  C1  UNL     1       3.487  56.704 -11.232  1.00  0.00     0.043 C 
HETATM    2  C2  UNL     1       3.366  56.109  -9.841  1.00  0.00    -0.087 C 
HETATM    3  C3  UNL     1       2.776  54.904  -9.719  1.00  0.00    -0.024 C 
HETATM    4  C4  UNL     1       2.455  54.083  -8.511  1.00  0.00     0.030 C 
HETATM    5  C5  UNL     1       3.164  52.725  -8.469  1.00  0.00     0.042 C 
HETATM    6  C6  UNL     1       4.715  52.679  -8.334  1.00  0.00     0.069 C 
HETATM    7  C7  UNL     1       5.395  53.234  -9.607  1.00  0.00     0.047 C 
HETATM    8  O1  UNL     1       4.978  51.230  -8.392  1.00  0.00    -0.338 OA
HETATM    9  C8  UNL     1       6.234  50.872  -7.972  1.00  0.00     0.095 A 
HETATM   10  C9  UNL     1       7.005  50.005  -8.751  1.00  0.00     0.070 A 
HETATM   11  C11 UNL     1       8.310  49.696  -8.350  1.00  0.00     0.097 A 
HETATM   12  C12 UNL     1       8.822  50.257  -7.175  1.00  0.00     0.069 A 
HETATM   13  C14 UNL     1       8.018  51.105  -6.383  1.00  0.00     0.091 A 
HETATM   14  C15 UNL     1       6.697  51.385  -6.752  1.00  0.00     0.015 A 
HETATM   15  C16 UNL     1       5.656  52.194  -6.001  1.00  0.00     0.032 C 
HETATM   16  C21 UNL     1       5.177  53.342  -6.951  1.00  0.00     0.034 C 
HETATM   17  C22 UNL     1       6.222  54.429  -7.156  1.00  0.00     0.006 A 
HETATM   18  C23 UNL     1       5.860  55.871  -7.534  1.00  0.00    -0.001 A 
HETATM   19  C24 UNL     1       4.504  56.529  -7.447  1.00  0.00     0.010 C 
HETATM   20  C25 UNL     1       3.924  57.032  -8.774  1.00  0.00     0.034 C 
HETATM   21  C26 UNL     1       6.580  55.582  -6.217  1.00  0.00    -0.039 A 
HETATM   22  C27 UNL     1       8.043  55.962  -6.138  1.00  0.00     0.015 C 
HETATM   23  C28 UNL     1       5.850  55.850  -4.922  1.00  0.00     0.015 C 
ENDROOT
BRANCH  15  24
HETATM   24  C17 UNL     1       5.929  52.632  -4.551  1.00  0.00     0.014 C 
BRANCH  24  25
HETATM   25  C18 UNL     1       4.726  52.503  -3.583  1.00  0.00    -0.022 C 
HETATM   26  C19 UNL     1       5.155  52.076  -2.175  1.00  0.00     0.009 C 
HETATM   27  C20 UNL     1       3.729  51.482  -4.140  1.00  0.00     0.009 C 
ENDBRANCH  24  25
ENDBRANCH  15  24
BRANCH  13  28
HETATM   28  O5  UNL     1       8.524  51.692  -5.254  1.00  0.00    -0.359 OA
HETATM   29  H15 UNL     1       9.447  51.378  -5.112  1.00  0.00     0.217 HD
ENDBRANCH  13  28
BRANCH  10  30
HETATM   30  C10 UNL     1       6.442  49.451  -9.997  1.00  0.00     0.275 C 
HETATM   31  O2  UNL     1       7.052  49.574 -11.057  1.00  0.00    -0.301 OA
ENDBRANCH  10  30
BRANCH  12  32
HETATM   32  C13 UNL     1      10.214  49.953  -6.782  1.00  0.00     0.275 C 
HETATM   33  O4  UNL     1      10.923  49.240  -7.491  1.00  0.00    -0.301 OA
ENDBRANCH  12  32
BRANCH  11  34
HETATM   34  O3  UNL     1       9.114  48.865  -9.090  1.00  0.00    -0.359 OA
HETATM   35  H13 UNL     1       8.614  48.567  -9.887  1.00  0.00     0.217 HD
ENDBRANCH  11  34
TORSDOF 6
ENDMDL
MODEL 9
REMARK minimizedAffinity -5.88417912
REMARK CNNscore 0.230953202
REMARK CNNaffinity 5.54836321
REMARK  6 active torsions:
REMARK  status: ('A' for Active; 'I' for Inactive)
REMARK    1  A    between atoms: C9_10  and  C10_11 
REMARK    2  A    between atoms: C11_13  and  O3_14 
REMARK    3  A    between atoms: C12_15  and  C13_16 
REMARK    4  A    between atoms: C14_18  and  O5_19 
REMARK    5  A    between atoms: C16_21  and  C17_22 
REMARK    6  A    between atoms: C17_22  and  C18_23 
ROOT
HETATM    1  C1  UNL     1      -0.804  51.042  -4.010  1.00  0.00     0.043 C 
HETATM    2  C2  UNL     1      -0.154  52.155  -4.811  1.00  0.00    -0.087 C 
HETATM    3  C3  UNL     1       1.192  52.200  -4.852  1.00  0.00    -0.024 C 
HETATM    4  C4  UNL     1       2.126  53.179  -5.489  1.00  0.00     0.030 C 
HETATM    5  C5  UNL     1       3.022  52.575  -6.575  1.00  0.00     0.042 C 
HETATM    6  C6  UNL     1       2.375  52.034  -7.885  1.00  0.00     0.069 C 
HETATM    7  C7  UNL     1       1.516  50.781  -7.597  1.00  0.00     0.047 C 
HETATM    8  O1  UNL     1       3.549  51.504  -8.603  1.00  0.00    -0.338 OA
HETATM    9  C8  UNL     1       3.325  51.256  -9.933  1.00  0.00     0.095 A 
HETATM   10  C9  UNL     1       3.718  50.034 -10.486  1.00  0.00     0.070 A 
HETATM   11  C11 UNL     1       3.428  49.761 -11.828  1.00  0.00     0.097 A 
HETATM   12  C12 UNL     1       2.752  50.715 -12.596  1.00  0.00     0.069 A 
HETATM   13  C14 UNL     1       2.392  51.958 -12.031  1.00  0.00     0.091 A 
HETATM   14  C15 UNL     1       2.717  52.258 -10.702  1.00  0.00     0.015 A 
HETATM   15  C16 UNL     1       2.495  53.553  -9.944  1.00  0.00     0.032 C 
HETATM   16  C21 UNL     1       1.641  53.217  -8.677  1.00  0.00     0.034 C 
HETATM   17  C22 UNL     1       0.192  52.879  -9.000  1.00  0.00     0.006 A 
HETATM   18  C23 UNL     1      -0.950  53.068  -7.994  1.00  0.00    -0.001 A 
HETATM   19  C24 UNL     1      -0.927  53.877  -6.719  1.00  0.00     0.010 C 
HETATM   20  C25 UNL     1      -1.178  53.089  -5.429  1.00  0.00     0.034 C 
HETATM   21  C26 UNL     1      -0.954  53.843  -9.312  1.00  0.00    -0.039 A 
HETATM   22  C27 UNL     1      -1.944  53.399 -10.366  1.00  0.00     0.015 C 
HETATM   23  C28 UNL     1      -0.805  55.345  -9.265  1.00  0.00     0.015 C 
ENDROOT
BRANCH  15  24
HETATM   24  C17 UNL     1       2.050  54.816 -10.702  1.00  0.00     0.014 C 
BRANCH  24  25
HETATM   25  C18 UNL     1       3.046  56.003 -10.656  1.00  0.00    -0.022 C 
HETATM   26  C19 UNL     1       4.411  55.641 -11.249  1.00  0.00     0.009 C 
HETATM   27  C20 UNL     1       3.229  56.459  -9.204  1.00  0.00     0.009 C 
ENDBRANCH  24  25
ENDBRANCH  15  24
BRANCH  13  28
HETATM   28  O5  UNL     1       1.695  52.881 -12.762  1.00  0.00    -0.359 OA
HETATM   29  H15 UNL     1       1.568  52.541 -13.678  1.00  0.00     0.217 HD
ENDBRANCH  13  28
BRANCH  10  30
HETATM   30  C10 UNL     1       4.406  49.040  -9.640  1.00  0.00     0.275 C 
HETATM   31  O2  UNL     1       5.481  48.564  -9.999  1.00  0.00    -0.301 OA
ENDBRANCH  10  30
BRANCH  12  32
HETATM   32  C13 UNL     1       2.419  50.400 -14.001  1.00  0.00     0.275 C 
HETATM   33  O4  UNL     1       1.719  49.427 -14.276  1.00  0.00    -0.301 OA
ENDBRANCH  12  32
BRANCH  11  34
HETATM   34  O3  UNL     1       3.775  48.568 -12.413  1.00  0.00    -0.359 OA
HETATM   35  H13 UNL     1       4.228  48.005 -11.740  1.00  0.00     0.217 HD
ENDBRANCH  11  34
TORSDOF 6
ENDMDL
