MODEL 1
REMARK minimizedAffinity -9.46615791
REMARK  7 active torsions:
REMARK  status: ('A' for Active; 'I' for Inactive)
REMARK    1  A    between atoms: C2_2  and  C30_32 
REMARK    2  A    between atoms: C3_3  and  C4_4 
REMARK    3  A    between atoms: C4_4  and  O1_5 
REMARK    4  A    between atoms: C4_4  and  C5_6 
REMARK    5  A    between atoms: C5_6  and  C6_7 
REMARK    6  A    between atoms: C6_7  and  C8_9 
REMARK    7  A    between atoms: C30_32  and  O3_33 
ROOT
HETATM    1  C8  UNL     1      -0.988  51.863 -21.118  1.00  0.00    -0.002 C 
HETATM    2  C9  UNL     1      -0.411  50.906 -20.034  1.00  0.00     0.007 C 
HETATM    3  C10 UNL     1      -1.439  49.774 -19.840  1.00  0.00     0.015 C 
HETATM    4  C11 UNL     1      -2.734  50.306 -20.487  1.00  0.00    -0.013 C 
HETATM    5  C12 UNL     1      -3.399  51.243 -19.424  1.00  0.00     0.021 C 
HETATM    6  C13 UNL     1      -3.815  49.302 -20.883  1.00  0.00    -0.070 C 
HETATM    7  C14 UNL     1      -4.027  48.168 -20.191  1.00  0.00    -0.022 C 
HETATM    8  C15 UNL     1      -5.169  47.230 -20.433  1.00  0.00     0.034 C 
HETATM    9  C16 UNL     1      -5.990  47.515 -21.715  1.00  0.00     0.013 C 
HETATM   10  C17 UNL     1      -7.293  46.644 -21.829  1.00  0.00     0.018 C 
HETATM   11  C18 UNL     1      -7.924  46.288 -20.463  1.00  0.00     0.023 C 
HETATM   12  C19 UNL     1      -6.923  45.305 -22.520  1.00  0.00     0.023 C 
HETATM   13  C20 UNL     1      -8.418  47.252 -22.682  1.00  0.00     0.135 C 
HETATM   14  O2  UNL     1      -9.507  46.667 -22.801  1.00  0.00    -0.297 OA
HETATM   15  C21 UNL     1      -8.244  48.575 -23.389  1.00  0.00     0.080 C 
HETATM   16  C22 UNL     1      -6.865  49.198 -23.332  1.00  0.00     0.017 C 
HETATM   17  C23 UNL     1      -6.159  49.050 -21.967  1.00  0.00    -0.031 C 
HETATM   18  C24 UNL     1      -6.987  49.741 -20.862  1.00  0.00     0.016 C 
HETATM   19  C25 UNL     1      -4.705  49.678 -22.070  1.00  0.00     0.024 C 
HETATM   20  C26 UNL     1      -4.677  51.194 -22.390  1.00  0.00     0.010 C 
HETATM   21  C27 UNL     1      -3.283  51.863 -22.409  1.00  0.00     0.011 C 
HETATM   22  C28 UNL     1      -2.156  51.036 -21.753  1.00  0.00    -0.029 C 
HETATM   23  C29 UNL     1      -1.565  50.062 -22.813  1.00  0.00     0.016 C 
ENDROOT
BRANCH   1  24
HETATM   24  C6  UNL     1       0.096  52.601 -21.970  1.00  0.00    -0.011 C 
HETATM   25  C7  UNL     1       1.540  52.097 -21.844  1.00  0.00     0.010 C 
BRANCH  24  26
HETATM   26  C5  UNL     1      -0.322  52.690 -23.460  1.00  0.00     0.040 C 
BRANCH  26  27
HETATM   27  C4  UNL     1       0.798  53.129 -24.416  1.00  0.00     0.141 C 
BRANCH  27  28
HETATM   28  C3  UNL     1       0.479  52.806 -25.853  1.00  0.00     0.009 C 
HETATM   29  C2  UNL     1       1.151  52.018 -26.722  1.00  0.00    -0.062 C 
HETATM   30  C1  UNL     1       0.610  51.809 -28.114  1.00  0.00     0.045 C 
BRANCH  29  31
HETATM   31  C30 UNL     1       2.444  51.302 -26.415  1.00  0.00     0.198 C 
BRANCH  31  32
HETATM   32  O3  UNL     1       3.370  51.517 -27.476  1.00  0.00    -0.397 OA
HETATM   33  H48 UNL     1       3.113  50.926 -28.203  1.00  0.00     0.209 HD
ENDBRANCH  31  32
ENDBRANCH  29  31
ENDBRANCH  27  28
BRANCH  27  34
HETATM   34  O1  UNL     1       1.056  54.520 -24.280  1.00  0.00    -0.392 OA
HETATM   35  H6  UNL     1       1.718  54.749 -24.955  1.00  0.00     0.210 HD
ENDBRANCH  27  34
ENDBRANCH  26  27
ENDBRANCH  24  26
ENDBRANCH   1  24
TORSDOF 7
ENDMDL
MODEL 2
REMARK minimizedAffinity -9.30142307
REMARK  7 active torsions:
REMARK  status: ('A' for Active; 'I' for Inactive)
REMARK    1  A    between atoms: C2_2  and  C30_32 
REMARK    2  A    between atoms: C3_3  and  C4_4 
REMARK    3  A    between atoms: C4_4  and  O1_5 
REMARK    4  A    between atoms: C4_4  and  C5_6 
REMARK    5  A    between atoms: C5_6  and  C6_7 
REMARK    6  A    between atoms: C6_7  and  C8_9 
REMARK    7  A    between atoms: C30_32  and  O3_33 
ROOT
HETATM    1  C8  UNL     1      -3.313  48.624 -19.259  1.00  0.00    -0.002 C 
HETATM    2  C9  UNL     1      -3.977  47.493 -20.098  1.00  0.00     0.007 C 
HETATM    3  C10 UNL     1      -3.698  47.809 -21.581  1.00  0.00     0.015 C 
HETATM    4  C11 UNL     1      -3.255  49.286 -21.590  1.00  0.00    -0.013 C 
HETATM    5  C12 UNL     1      -4.569  50.135 -21.542  1.00  0.00     0.021 C 
HETATM    6  C13 UNL     1      -2.476  49.804 -22.797  1.00  0.00    -0.070 C 
HETATM    7  C14 UNL     1      -2.684  49.333 -24.040  1.00  0.00    -0.022 C 
HETATM    8  C15 UNL     1      -2.070  49.912 -25.278  1.00  0.00     0.034 C 
HETATM    9  C16 UNL     1      -0.962  50.965 -25.029  1.00  0.00     0.013 C 
HETATM   10  C17 UNL     1      -0.486  51.692 -26.338  1.00  0.00     0.018 C 
HETATM   11  C18 UNL     1      -1.597  51.845 -27.402  1.00  0.00     0.023 C 
HETATM   12  C19 UNL     1       0.644  50.846 -26.980  1.00  0.00     0.023 C 
HETATM   13  C20 UNL     1       0.113  53.092 -26.131  1.00  0.00     0.135 C 
HETATM   14  O2  UNL     1       0.479  53.773 -27.103  1.00  0.00    -0.297 OA
HETATM   15  C21 UNL     1       0.266  53.689 -24.752  1.00  0.00     0.080 C 
HETATM   16  C22 UNL     1      -0.067  52.786 -23.583  1.00  0.00     0.017 C 
HETATM   17  C23 UNL     1      -1.299  51.884 -23.809  1.00  0.00    -0.031 C 
HETATM   18  C24 UNL     1      -2.554  52.750 -24.052  1.00  0.00     0.016 C 
HETATM   19  C25 UNL     1      -1.488  50.946 -22.543  1.00  0.00     0.024 C 
HETATM   20  C26 UNL     1      -1.761  51.698 -21.216  1.00  0.00     0.010 C 
HETATM   21  C27 UNL     1      -2.040  50.816 -19.976  1.00  0.00     0.011 C 
HETATM   22  C28 UNL     1      -2.375  49.341 -20.289  1.00  0.00    -0.029 C 
HETATM   23  C29 UNL     1      -1.048  48.538 -20.405  1.00  0.00     0.016 C 
ENDROOT
BRANCH   1  24
HETATM   24  C6  UNL     1      -2.837  48.180 -17.839  1.00  0.00    -0.011 C 
HETATM   25  C7  UNL     1      -3.037  46.704 -17.470  1.00  0.00     0.010 C 
BRANCH  24  26
HETATM   26  C5  UNL     1      -1.372  48.613 -17.572  1.00  0.00     0.040 C 
BRANCH  26  27
HETATM   27  C4  UNL     1      -1.215  49.757 -16.559  1.00  0.00     0.141 C 
BRANCH  27  28
HETATM   28  C3  UNL     1      -0.061  50.665 -16.900  1.00  0.00     0.009 C 
HETATM   29  C2  UNL     1       0.709  51.414 -16.080  1.00  0.00    -0.062 C 
HETATM   30  C1  UNL     1       1.847  52.220 -16.653  1.00  0.00     0.045 C 
BRANCH  29  31
HETATM   31  C30 UNL     1       0.527  51.522 -14.585  1.00  0.00     0.198 C 
BRANCH  31  32
HETATM   32  O3  UNL     1       0.723  52.872 -14.178  1.00  0.00    -0.397 OA
HETATM   33  H48 UNL     1       1.683  53.028 -14.162  1.00  0.00     0.209 HD
ENDBRANCH  31  32
ENDBRANCH  29  31
ENDBRANCH  27  28
BRANCH  27  34
HETATM   34  O1  UNL     1      -2.414  50.514 -16.469  1.00  0.00    -0.392 OA
HETATM   35  H6  UNL     1      -2.231  51.260 -15.871  1.00  0.00     0.210 HD
ENDBRANCH  27  34
ENDBRANCH  26  27
ENDBRANCH  24  26
ENDBRANCH   1  24
TORSDOF 7
ENDMDL
MODEL 3
REMARK minimizedAffinity -9.22462749
REMARK  7 active torsions:
REMARK  status: ('A' for Active; 'I' for Inactive)
REMARK    1  A    between atoms: C2_2  and  C30_32 
REMARK    2  A    between atoms: C3_3  and  C4_4 
REMARK    3  A    between atoms: C4_4  and  O1_5 
REMARK    4  A    between atoms: C4_4  and  C5_6 
REMARK    5  A    between atoms: C5_6  and  C6_7 
REMARK    6  A    between atoms: C6_7  and  C8_9 
REMARK    7  A    between atoms: C30_32  and  O3_33 
ROOT
HETATM    1  C8  UNL     1      -1.305  50.748 -22.499  1.00  0.00    -0.002 C 
HETATM    2  C9  UNL     1      -1.584  50.211 -23.934  1.00  0.00     0.007 C 
HETATM    3  C10 UNL     1      -2.832  49.310 -23.843  1.00  0.00     0.015 C 
HETATM    4  C11 UNL     1      -2.995  49.018 -22.338  1.00  0.00    -0.013 C 
HETATM    5  C12 UNL     1      -1.997  47.857 -22.009  1.00  0.00     0.021 C 
HETATM    6  C13 UNL     1      -4.355  48.544 -21.832  1.00  0.00    -0.070 C 
HETATM    7  C14 UNL     1      -5.175  47.786 -22.584  1.00  0.00    -0.022 C 
HETATM    8  C15 UNL     1      -6.442  47.161 -22.087  1.00  0.00     0.034 C 
HETATM    9  C16 UNL     1      -6.902  47.636 -20.687  1.00  0.00     0.013 C 
HETATM   10  C17 UNL     1      -8.115  46.816 -20.116  1.00  0.00     0.018 C 
HETATM   11  C18 UNL     1      -8.137  45.339 -20.575  1.00  0.00     0.023 C 
HETATM   12  C19 UNL     1      -9.425  47.469 -20.625  1.00  0.00     0.023 C 
HETATM   13  C20 UNL     1      -8.231  46.796 -18.583  1.00  0.00     0.135 C 
HETATM   14  O2  UNL     1      -9.126  46.140 -18.026  1.00  0.00    -0.297 OA
HETATM   15  C21 UNL     1      -7.262  47.556 -17.709  1.00  0.00     0.080 C 
HETATM   16  C22 UNL     1      -6.265  48.448 -18.418  1.00  0.00     0.017 C 
HETATM   17  C23 UNL     1      -5.691  47.847 -19.719  1.00  0.00    -0.031 C 
HETATM   18  C24 UNL     1      -4.945  46.530 -19.412  1.00  0.00     0.016 C 
HETATM   19  C25 UNL     1      -4.723  48.909 -20.392  1.00  0.00     0.024 C 
HETATM   20  C26 UNL     1      -3.492  49.297 -19.534  1.00  0.00     0.010 C 
HETATM   21  C27 UNL     1      -2.477  50.261 -20.192  1.00  0.00     0.011 C 
HETATM   22  C28 UNL     1      -2.623  50.414 -21.721  1.00  0.00    -0.029 C 
HETATM   23  C29 UNL     1      -3.676  51.521 -22.017  1.00  0.00     0.016 C 
ENDROOT
BRANCH   1  24
HETATM   24  C6  UNL     1      -0.623  52.153 -22.458  1.00  0.00    -0.011 C 
HETATM   25  C7  UNL     1       0.842  52.200 -22.002  1.00  0.00     0.010 C 
BRANCH  24  26
HETATM   26  C5  UNL     1      -0.800  52.908 -23.800  1.00  0.00     0.040 C 
BRANCH  26  27
HETATM   27  C4  UNL     1       0.497  53.118 -24.595  1.00  0.00     0.141 C 
BRANCH  27  28
HETATM   28  C3  UNL     1       0.340  52.751 -26.049  1.00  0.00     0.009 C 
HETATM   29  C2  UNL     1       1.138  51.989 -26.830  1.00  0.00    -0.062 C 
HETATM   30  C1  UNL     1       0.749  51.724 -28.262  1.00  0.00     0.045 C 
BRANCH  29  31
HETATM   31  C30 UNL     1       2.434  51.357 -26.382  1.00  0.00     0.198 C 
BRANCH  31  32
HETATM   32  O3  UNL     1       3.404  51.476 -27.418  1.00  0.00    -0.397 OA
HETATM   33  H48 UNL     1       3.198  50.795 -28.080  1.00  0.00     0.209 HD
ENDBRANCH  31  32
ENDBRANCH  29  31
ENDBRANCH  27  28
BRANCH  27  34
HETATM   34  O1  UNL     1       0.941  54.463 -24.482  1.00  0.00    -0.392 OA
HETATM   35  H6  UNL     1       1.719  54.551 -25.060  1.00  0.00     0.210 HD
ENDBRANCH  27  34
ENDBRANCH  26  27
ENDBRANCH  24  26
ENDBRANCH   1  24
TORSDOF 7
ENDMDL
MODEL 4
REMARK minimizedAffinity -9.16992855
REMARK  7 active torsions:
REMARK  status: ('A' for Active; 'I' for Inactive)
REMARK    1  A    between atoms: C2_2  and  C30_32 
REMARK    2  A    between atoms: C3_3  and  C4_4 
REMARK    3  A    between atoms: C4_4  and  O1_5 
REMARK    4  A    between atoms: C4_4  and  C5_6 
REMARK    5  A    between atoms: C5_6  and  C6_7 
REMARK    6  A    between atoms: C6_7  and  C8_9 
REMARK    7  A    between atoms: C30_32  and  O3_33 
ROOT
HETATM    1  C8  UNL     1      -1.527  50.436 -23.357  1.00  0.00    -0.002 C 
HETATM    2  C9  UNL     1      -2.860  49.632 -23.386  1.00  0.00     0.007 C 
HETATM    3  C10 UNL     1      -3.256  49.365 -21.920  1.00  0.00     0.015 C 
HETATM    4  C11 UNL     1      -1.973  49.643 -21.111  1.00  0.00    -0.013 C 
HETATM    5  C12 UNL     1      -1.097  48.351 -21.227  1.00  0.00     0.021 C 
HETATM    6  C13 UNL     1      -2.102  49.919 -19.615  1.00  0.00    -0.070 C 
HETATM    7  C14 UNL     1      -3.058  49.347 -18.861  1.00  0.00    -0.022 C 
HETATM    8  C15 UNL     1      -3.136  49.452 -17.368  1.00  0.00     0.034 C 
HETATM    9  C16 UNL     1      -2.166  50.478 -16.733  1.00  0.00     0.013 C 
HETATM   10  C17 UNL     1      -2.131  50.417 -15.163  1.00  0.00     0.018 C 
HETATM   11  C18 UNL     1      -2.385  49.002 -14.592  1.00  0.00     0.023 C 
HETATM   12  C19 UNL     1      -3.255  51.335 -14.617  1.00  0.00     0.023 C 
HETATM   13  C20 UNL     1      -0.833  50.921 -14.514  1.00  0.00     0.135 C 
HETATM   14  O2  UNL     1      -0.682  50.874 -13.282  1.00  0.00    -0.297 OA
HETATM   15  C21 UNL     1       0.300  51.476 -15.345  1.00  0.00     0.080 C 
HETATM   16  C22 UNL     1       0.036  51.641 -16.826  1.00  0.00     0.017 C 
HETATM   17  C23 UNL     1      -0.779  50.491 -17.457  1.00  0.00    -0.031 C 
HETATM   18  C24 UNL     1      -0.021  49.155 -17.303  1.00  0.00     0.016 C 
HETATM   19  C25 UNL     1      -1.042  50.827 -18.986  1.00  0.00     0.024 C 
HETATM   20  C26 UNL     1       0.238  50.951 -19.850  1.00  0.00     0.010 C 
HETATM   21  C27 UNL     1       0.020  51.187 -21.363  1.00  0.00     0.011 C 
HETATM   22  C28 UNL     1      -1.411  50.901 -21.866  1.00  0.00    -0.029 C 
HETATM   23  C29 UNL     1      -2.278  52.179 -21.670  1.00  0.00     0.016 C 
ENDROOT
BRANCH   1  24
HETATM   24  C6  UNL     1      -1.329  51.402 -24.570  1.00  0.00    -0.011 C 
HETATM   25  C7  UNL     1      -2.531  51.598 -25.504  1.00  0.00     0.010 C 
BRANCH  24  26
HETATM   26  C5  UNL     1      -0.763  52.771 -24.115  1.00  0.00     0.040 C 
BRANCH  26  27
HETATM   27  C4  UNL     1       0.349  53.336 -25.011  1.00  0.00     0.141 C 
BRANCH  27  28
HETATM   28  C3  UNL     1       0.266  52.810 -26.422  1.00  0.00     0.009 C 
HETATM   29  C2  UNL     1       1.098  51.964 -27.070  1.00  0.00    -0.062 C 
HETATM   30  C1  UNL     1       0.783  51.543 -28.483  1.00  0.00     0.045 C 
BRANCH  29  31
HETATM   31  C30 UNL     1       2.362  51.380 -26.486  1.00  0.00     0.198 C 
BRANCH  31  32
HETATM   32  O3  UNL     1       3.437  51.563 -27.401  1.00  0.00    -0.397 OA
HETATM   33  H48 UNL     1       3.339  50.887 -28.093  1.00  0.00     0.209 HD
ENDBRANCH  31  32
ENDBRANCH  29  31
ENDBRANCH  27  28
BRANCH  27  34
HETATM   34  O1  UNL     1       0.312  54.756 -25.022  1.00  0.00    -0.392 OA
HETATM   35  H6  UNL     1       0.988  55.049 -25.657  1.00  0.00     0.210 HD
ENDBRANCH  27  34
ENDBRANCH  26  27
ENDBRANCH  24  26
ENDBRANCH   1  24
TORSDOF 7
ENDMDL
MODEL 5
REMARK minimizedAffinity -9.16779232
REMARK  7 active torsions:
REMARK  status: ('A' for Active; 'I' for Inactive)
REMARK    1  A    between atoms: C2_2  and  C30_32 
REMARK    2  A    between atoms: C3_3  and  C4_4 
REMARK    3  A    between atoms: C4_4  and  O1_5 
REMARK    4  A    between atoms: C4_4  and  C5_6 
REMARK    5  A    between atoms: C5_6  and  C6_7 
REMARK    6  A    between atoms: C6_7  and  C8_9 
REMARK    7  A    between atoms: C30_32  and  O3_33 
ROOT
HETATM    1  C8  UNL     1      -2.469  50.879 -23.426  1.00  0.00    -0.002 C 
HETATM    2  C9  UNL     1      -1.364  50.248 -22.529  1.00  0.00     0.007 C 
HETATM    3  C10 UNL     1      -1.957  48.960 -21.922  1.00  0.00     0.015 C 
HETATM    4  C11 UNL     1      -3.479  49.091 -22.138  1.00  0.00    -0.013 C 
HETATM    5  C12 UNL     1      -4.004  50.010 -20.985  1.00  0.00     0.021 C 
HETATM    6  C13 UNL     1      -4.333  47.828 -22.078  1.00  0.00    -0.070 C 
HETATM    7  C14 UNL     1      -4.026  46.793 -21.275  1.00  0.00    -0.022 C 
HETATM    8  C15 UNL     1      -4.907  45.602 -21.054  1.00  0.00     0.034 C 
HETATM    9  C16 UNL     1      -6.124  45.502 -22.006  1.00  0.00     0.013 C 
HETATM   10  C17 UNL     1      -7.130  44.360 -21.617  1.00  0.00     0.018 C 
HETATM   11  C18 UNL     1      -7.201  44.086 -20.096  1.00  0.00     0.023 C 
HETATM   12  C19 UNL     1      -6.658  43.046 -22.292  1.00  0.00     0.023 C 
HETATM   13  C20 UNL     1      -8.578  44.570 -22.088  1.00  0.00     0.135 C 
HETATM   14  O2  UNL     1      -9.464  43.750 -21.795  1.00  0.00    -0.297 OA
HETATM   15  C21 UNL     1      -8.974  45.776 -22.907  1.00  0.00     0.080 C 
HETATM   16  C22 UNL     1      -7.851  46.687 -23.357  1.00  0.00     0.017 C 
HETATM   17  C23 UNL     1      -6.749  46.906 -22.298  1.00  0.00    -0.031 C 
HETATM   18  C24 UNL     1      -7.349  47.559 -21.034  1.00  0.00     0.016 C 
HETATM   19  C25 UNL     1      -5.608  47.815 -22.924  1.00  0.00     0.024 C 
HETATM   20  C26 UNL     1      -6.069  49.233 -23.345  1.00  0.00     0.010 C 
HETATM   21  C27 UNL     1      -4.967  50.180 -23.875  1.00  0.00     0.011 C 
HETATM   22  C28 UNL     1      -3.522  49.730 -23.573  1.00  0.00    -0.029 C 
HETATM   23  C29 UNL     1      -3.054  48.759 -24.696  1.00  0.00     0.016 C 
ENDROOT
BRANCH   1  24
HETATM   24  C6  UNL     1      -1.924  51.698 -24.640  1.00  0.00    -0.011 C 
HETATM   25  C7  UNL     1      -2.948  52.139 -25.696  1.00  0.00     0.010 C 
BRANCH  24  26
HETATM   26  C5  UNL     1      -1.071  52.905 -24.172  1.00  0.00     0.040 C 
BRANCH  26  27
HETATM   27  C4  UNL     1       0.332  52.979 -24.792  1.00  0.00     0.141 C 
BRANCH  27  28
HETATM   28  C3  UNL     1       0.313  52.707 -26.275  1.00  0.00     0.009 C 
HETATM   29  C2  UNL     1       1.180  51.988 -27.024  1.00  0.00    -0.062 C 
HETATM   30  C1  UNL     1       0.930  51.819 -28.501  1.00  0.00     0.045 C 
BRANCH  29  31
HETATM   31  C30 UNL     1       2.424  51.315 -26.495  1.00  0.00     0.198 C 
BRANCH  31  32
HETATM   32  O3  UNL     1       3.504  51.539 -27.395  1.00  0.00    -0.397 OA
HETATM   33  H48 UNL     1       3.384  50.928 -28.142  1.00  0.00     0.209 HD
ENDBRANCH  31  32
ENDBRANCH  29  31
ENDBRANCH  27  28
BRANCH  27  34
HETATM   34  O1  UNL     1       0.923  54.247 -24.542  1.00  0.00    -0.392 OA
HETATM   35  H6  UNL     1       1.773  54.258 -25.016  1.00  0.00     0.210 HD
ENDBRANCH  27  34
ENDBRANCH  26  27
ENDBRANCH  24  26
ENDBRANCH   1  24
TORSDOF 7
ENDMDL
MODEL 6
REMARK minimizedAffinity -9.16095257
REMARK  7 active torsions:
REMARK  status: ('A' for Active; 'I' for Inactive)
REMARK    1  A    between atoms: C2_2  and  C30_32 
REMARK    2  A    between atoms: C3_3  and  C4_4 
REMARK    3  A    between atoms: C4_4  and  O1_5 
REMARK    4  A    between atoms: C4_4  and  C5_6 
REMARK    5  A    between atoms: C5_6  and  C6_7 
REMARK    6  A    between atoms: C6_7  and  C8_9 
REMARK    7  A    between atoms: C30_32  and  O3_33 
ROOT
HETATM    1  C8  UNL     1      -3.620  50.611 -25.397  1.00  0.00    -0.002 C 
HETATM    2  C9  UNL     1      -3.629  52.142 -25.110  1.00  0.00     0.007 C 
HETATM    3  C10 UNL     1      -3.458  52.316 -23.587  1.00  0.00     0.015 C 
HETATM    4  C11 UNL     1      -3.764  50.924 -22.998  1.00  0.00    -0.013 C 
HETATM    5  C12 UNL     1      -5.325  50.818 -22.922  1.00  0.00     0.021 C 
HETATM    6  C13 UNL     1      -3.263  50.604 -21.592  1.00  0.00    -0.070 C 
HETATM    7  C14 UNL     1      -3.162  51.545 -20.636  1.00  0.00    -0.022 C 
HETATM    8  C15 UNL     1      -2.832  51.263 -19.202  1.00  0.00     0.034 C 
HETATM    9  C16 UNL     1      -2.366  49.816 -18.909  1.00  0.00     0.013 C 
HETATM   10  C17 UNL     1      -2.225  49.502 -17.376  1.00  0.00     0.018 C 
HETATM   11  C18 UNL     1      -3.222  50.282 -16.489  1.00  0.00     0.023 C 
HETATM   12  C19 UNL     1      -0.799  49.913 -16.926  1.00  0.00     0.023 C 
HETATM   13  C20 UNL     1      -2.368  48.021 -16.992  1.00  0.00     0.135 C 
HETATM   14  O2  UNL     1      -2.319  47.669 -15.802  1.00  0.00    -0.297 OA
HETATM   15  C21 UNL     1      -2.584  46.952 -18.037  1.00  0.00     0.080 C 
HETATM   16  C22 UNL     1      -2.510  47.395 -19.483  1.00  0.00     0.017 C 
HETATM   17  C23 UNL     1      -3.158  48.768 -19.760  1.00  0.00    -0.031 C 
HETATM   18  C24 UNL     1      -4.659  48.730 -19.401  1.00  0.00     0.016 C 
HETATM   19  C25 UNL     1      -2.944  49.137 -21.289  1.00  0.00     0.024 C 
HETATM   20  C26 UNL     1      -3.606  48.156 -22.290  1.00  0.00     0.010 C 
HETATM   21  C27 UNL     1      -3.498  48.531 -23.786  1.00  0.00     0.011 C 
HETATM   22  C28 UNL     1      -3.082  49.992 -24.063  1.00  0.00    -0.029 C 
HETATM   23  C29 UNL     1      -1.528  50.081 -24.057  1.00  0.00     0.016 C 
ENDROOT
BRANCH   1  24
HETATM   24  C6  UNL     1      -3.062  50.222 -26.804  1.00  0.00    -0.011 C 
HETATM   25  C7  UNL     1      -3.758  49.063 -27.530  1.00  0.00     0.010 C 
BRANCH  24  26
HETATM   26  C5  UNL     1      -2.953  51.459 -27.731  1.00  0.00     0.040 C 
BRANCH  26  27
HETATM   27  C4  UNL     1      -1.919  52.504 -27.289  1.00  0.00     0.141 C 
BRANCH  27  28
HETATM   28  C3  UNL     1      -0.528  51.927 -27.202  1.00  0.00     0.009 C 
HETATM   29  C2  UNL     1       0.481  52.251 -26.363  1.00  0.00    -0.062 C 
HETATM   30  C1  UNL     1       1.785  51.498 -26.437  1.00  0.00     0.045 C 
BRANCH  29  31
HETATM   31  C30 UNL     1       0.419  53.341 -25.319  1.00  0.00     0.198 C 
BRANCH  31  32
HETATM   32  O3  UNL     1       0.205  54.597 -25.955  1.00  0.00    -0.397 OA
HETATM   33  H48 UNL     1       1.058  54.877 -26.326  1.00  0.00     0.209 HD
ENDBRANCH  31  32
ENDBRANCH  29  31
ENDBRANCH  27  28
BRANCH  27  34
HETATM   34  O1  UNL     1      -1.924  53.619 -28.171  1.00  0.00    -0.392 OA
HETATM   35  H6  UNL     1      -1.205  54.207 -27.884  1.00  0.00     0.210 HD
ENDBRANCH  27  34
ENDBRANCH  26  27
ENDBRANCH  24  26
ENDBRANCH   1  24
TORSDOF 7
ENDMDL
MODEL 7
REMARK minimizedAffinity -8.94325256
REMARK  7 active torsions:
REMARK  status: ('A' for Active; 'I' for Inactive)
REMARK    1  A    between atoms: C2_2  and  C30_32 
REMARK    2  A    between atoms: C3_3  and  C4_4 
REMARK    3  A    between atoms: C4_4  and  O1_5 
REMARK    4  A    between atoms: C4_4  and  C5_6 
REMARK    5  A    between atoms: C5_6  and  C6_7 
REMARK    6  A    between atoms: C6_7  and  C8_9 
REMARK    7  A    between atoms: C30_32  and  O3_33 
ROOT
HETATM    1  C8  UNL     1      -2.673  48.973 -23.282  1.00  0.00    -0.002 C 
HETATM    2  C9  UNL     1      -4.037  48.276 -23.004  1.00  0.00     0.007 C 
HETATM    3  C10 UNL     1      -4.259  48.313 -21.478  1.00  0.00     0.015 C 
HETATM    4  C11 UNL     1      -2.872  48.643 -20.889  1.00  0.00    -0.013 C 
HETATM    5  C12 UNL     1      -2.082  47.292 -20.853  1.00  0.00     0.021 C 
HETATM    6  C13 UNL     1      -2.800  49.199 -19.469  1.00  0.00    -0.070 C 
HETATM    7  C14 UNL     1      -3.681  48.846 -18.515  1.00  0.00    -0.022 C 
HETATM    8  C15 UNL     1      -3.566  49.231 -17.072  1.00  0.00     0.034 C 
HETATM    9  C16 UNL     1      -2.475  50.284 -16.760  1.00  0.00     0.013 C 
HETATM   10  C17 UNL     1      -2.248  50.511 -15.222  1.00  0.00     0.018 C 
HETATM   11  C18 UNL     1      -2.496  49.249 -14.365  1.00  0.00     0.023 C 
HETATM   12  C19 UNL     1      -3.248  51.593 -14.737  1.00  0.00     0.023 C 
HETATM   13  C20 UNL     1      -0.855  51.033 -14.833  1.00  0.00     0.135 C 
HETATM   14  O2  UNL     1      -0.554  51.203 -13.640  1.00  0.00    -0.297 OA
HETATM   15  C21 UNL     1       0.191  51.342 -15.878  1.00  0.00     0.080 C 
HETATM   16  C22 UNL     1      -0.248  51.248 -17.324  1.00  0.00     0.017 C 
HETATM   17  C23 UNL     1      -1.191  50.064 -17.625  1.00  0.00    -0.031 C 
HETATM   18  C24 UNL     1      -0.486  48.728 -17.304  1.00  0.00     0.016 C 
HETATM   19  C25 UNL     1      -1.626  50.129 -19.150  1.00  0.00     0.024 C 
HETATM   20  C26 UNL     1      -0.460  49.999 -20.162  1.00  0.00     0.010 C 
HETATM   21  C27 UNL     1      -0.854  49.967 -21.657  1.00  0.00     0.011 C 
HETATM   22  C28 UNL     1      -2.349  49.696 -21.931  1.00  0.00    -0.029 C 
HETATM   23  C29 UNL     1      -3.120  51.047 -21.886  1.00  0.00     0.016 C 
ENDROOT
BRANCH   1  24
HETATM   24  C6  UNL     1      -2.581  49.682 -24.671  1.00  0.00    -0.011 C 
HETATM   25  C7  UNL     1      -3.005  48.862 -25.898  1.00  0.00     0.010 C 
BRANCH  24  26
HETATM   26  C5  UNL     1      -3.306  51.052 -24.656  1.00  0.00     0.040 C 
BRANCH  26  27
HETATM   27  C4  UNL     1      -2.451  52.236 -25.130  1.00  0.00     0.141 C 
BRANCH  27  28
HETATM   28  C3  UNL     1      -1.040  51.822 -25.462  1.00  0.00     0.009 C 
HETATM   29  C2  UNL     1       0.101  52.546 -25.398  1.00  0.00    -0.062 C 
HETATM   30  C1  UNL     1       1.417  51.897 -25.745  1.00  0.00     0.045 C 
BRANCH  29  31
HETATM   31  C30 UNL     1       0.180  53.999 -24.997  1.00  0.00     0.198 C 
BRANCH  31  32
HETATM   32  O3  UNL     1       0.202  54.814 -26.165  1.00  0.00    -0.397 OA
HETATM   33  H48 UNL     1       1.104  54.772 -26.524  1.00  0.00     0.209 HD
ENDBRANCH  31  32
ENDBRANCH  29  31
ENDBRANCH  27  28
BRANCH  27  34
HETATM   34  O1  UNL     1      -3.047  52.865 -26.256  1.00  0.00    -0.392 OA
HETATM   35  H6  UNL     1      -2.429  53.556 -26.551  1.00  0.00     0.210 HD
ENDBRANCH  27  34
ENDBRANCH  26  27
ENDBRANCH  24  26
ENDBRANCH   1  24
TORSDOF 7
ENDMDL
MODEL 8
REMARK minimizedAffinity -8.85968208
REMARK  7 active torsions:
REMARK  status: ('A' for Active; 'I' for Inactive)
REMARK    1  A    between atoms: C2_2  and  C30_32 
REMARK    2  A    between atoms: C3_3  and  C4_4 
REMARK    3  A    between atoms: C4_4  and  O1_5 
REMARK    4  A    between atoms: C4_4  and  C5_6 
REMARK    5  A    between atoms: C5_6  and  C6_7 
REMARK    6  A    between atoms: C6_7  and  C8_9 
REMARK    7  A    between atoms: C30_32  and  O3_33 
ROOT
HETATM    1  C8  UNL     1      -1.445  50.961 -23.026  1.00  0.00    -0.002 C 
HETATM    2  C9  UNL     1      -1.109  50.547 -24.489  1.00  0.00     0.007 C 
HETATM    3  C10 UNL     1      -2.300  49.715 -25.006  1.00  0.00     0.015 C 
HETATM    4  C11 UNL     1      -3.085  49.324 -23.737  1.00  0.00    -0.013 C 
HETATM    5  C12 UNL     1      -2.342  48.087 -23.130  1.00  0.00     0.021 C 
HETATM    6  C13 UNL     1      -4.542  48.894 -23.888  1.00  0.00    -0.070 C 
HETATM    7  C14 UNL     1      -4.988  48.242 -24.976  1.00  0.00    -0.022 C 
HETATM    8  C15 UNL     1      -6.360  47.656 -25.110  1.00  0.00     0.034 C 
HETATM    9  C16 UNL     1      -7.353  48.053 -23.990  1.00  0.00     0.013 C 
HETATM   10  C17 UNL     1      -8.712  47.266 -24.051  1.00  0.00     0.018 C 
HETATM   11  C18 UNL     1      -8.572  45.830 -24.609  1.00  0.00     0.023 C 
HETATM   12  C19 UNL     1      -9.674  48.029 -24.997  1.00  0.00     0.023 C 
HETATM   13  C20 UNL     1      -9.459  47.141 -22.714  1.00  0.00     0.135 C 
HETATM   14  O2  UNL     1     -10.520  46.499 -22.640  1.00  0.00    -0.297 OA
HETATM   15  C21 UNL     1      -8.930  47.778 -21.451  1.00  0.00     0.080 C 
HETATM   16  C22 UNL     1      -7.708  48.660 -21.599  1.00  0.00     0.017 C 
HETATM   17  C23 UNL     1      -6.655  48.123 -22.592  1.00  0.00    -0.031 C 
HETATM   18  C24 UNL     1      -6.135  46.747 -22.124  1.00  0.00     0.016 C 
HETATM   19  C25 UNL     1      -5.471  49.174 -22.703  1.00  0.00     0.024 C 
HETATM   20  C26 UNL     1      -4.704  49.427 -21.380  1.00  0.00     0.010 C 
HETATM   21  C27 UNL     1      -3.486  50.376 -21.468  1.00  0.00     0.011 C 
HETATM   22  C28 UNL     1      -2.974  50.648 -22.899  1.00  0.00    -0.029 C 
HETATM   23  C29 UNL     1      -3.782  51.833 -23.503  1.00  0.00     0.016 C 
ENDROOT
BRANCH   1  24
HETATM   24  C6  UNL     1      -0.812  52.317 -22.577  1.00  0.00    -0.011 C 
HETATM   25  C7  UNL     1      -0.592  52.517 -21.072  1.00  0.00     0.010 C 
BRANCH  24  26
HETATM   26  C5  UNL     1       0.490  52.621 -23.363  1.00  0.00     0.040 C 
BRANCH  26  27
HETATM   27  C4  UNL     1       0.285  53.408 -24.665  1.00  0.00     0.141 C 
BRANCH  27  28
HETATM   28  C3  UNL     1       0.765  52.645 -25.874  1.00  0.00     0.009 C 
HETATM   29  C2  UNL     1       0.466  52.833 -27.179  1.00  0.00    -0.062 C 
HETATM   30  C1  UNL     1       1.108  51.959 -28.226  1.00  0.00     0.045 C 
BRANCH  29  31
HETATM   31  C30 UNL     1      -0.488  53.878 -27.703  1.00  0.00     0.198 C 
BRANCH  31  32
HETATM   32  O3  UNL     1      -0.079  55.166 -27.253  1.00  0.00    -0.397 OA
HETATM   33  H48 UNL     1      -0.360  55.246 -26.326  1.00  0.00     0.209 HD
ENDBRANCH  31  32
ENDBRANCH  29  31
ENDBRANCH  27  28
BRANCH  27  34
HETATM   34  O1  UNL     1      -1.082  53.761 -24.829  1.00  0.00    -0.392 OA
HETATM   35  H6  UNL     1      -1.158  54.191 -25.698  1.00  0.00     0.210 HD
ENDBRANCH  27  34
ENDBRANCH  26  27
ENDBRANCH  24  26
ENDBRANCH   1  24
TORSDOF 7
ENDMDL
MODEL 9
REMARK minimizedAffinity -8.79068661
REMARK  7 active torsions:
REMARK  status: ('A' for Active; 'I' for Inactive)
REMARK    1  A    between atoms: C2_2  and  C30_32 
REMARK    2  A    between atoms: C3_3  and  C4_4 
REMARK    3  A    between atoms: C4_4  and  O1_5 
REMARK    4  A    between atoms: C4_4  and  C5_6 
REMARK    5  A    between atoms: C5_6  and  C6_7 
REMARK    6  A    between atoms: C6_7  and  C8_9 
REMARK    7  A    between atoms: C30_32  and  O3_33 
ROOT
HETATM    1  C8  UNL     1      -5.598  47.642 -20.717  1.00  0.00    -0.002 C 
HETATM    2  C9  UNL     1      -6.280  47.068 -21.994  1.00  0.00     0.007 C 
HETATM    3  C10 UNL     1      -5.575  47.706 -23.207  1.00  0.00     0.015 C 
HETATM    4  C11 UNL     1      -4.809  48.912 -22.625  1.00  0.00    -0.013 C 
HETATM    5  C12 UNL     1      -5.856  50.067 -22.485  1.00  0.00     0.021 C 
HETATM    6  C13 UNL     1      -3.655  49.499 -23.435  1.00  0.00    -0.070 C 
HETATM    7  C14 UNL     1      -3.653  49.503 -24.780  1.00  0.00    -0.022 C 
HETATM    8  C15 UNL     1      -2.632  50.205 -25.623  1.00  0.00     0.034 C 
HETATM    9  C16 UNL     1      -1.406  50.747 -24.850  1.00  0.00     0.013 C 
HETATM   10  C17 UNL     1      -0.462  51.647 -25.727  1.00  0.00     0.018 C 
HETATM   11  C18 UNL     1      -1.206  52.438 -26.827  1.00  0.00     0.023 C 
HETATM   12  C19 UNL     1       0.560  50.726 -26.443  1.00  0.00     0.023 C 
HETATM   13  C20 UNL     1       0.379  52.671 -24.949  1.00  0.00     0.135 C 
HETATM   14  O2  UNL     1       1.125  53.463 -25.548  1.00  0.00    -0.297 OA
HETATM   15  C21 UNL     1       0.321  52.758 -23.442  1.00  0.00     0.080 C 
HETATM   16  C22 UNL     1      -0.494  51.697 -22.734  1.00  0.00     0.017 C 
HETATM   17  C23 UNL     1      -1.809  51.322 -23.452  1.00  0.00    -0.031 C 
HETATM   18  C24 UNL     1      -2.724  52.561 -23.565  1.00  0.00     0.016 C 
HETATM   19  C25 UNL     1      -2.521  50.157 -22.644  1.00  0.00     0.024 C 
HETATM   20  C26 UNL     1      -2.930  50.529 -21.197  1.00  0.00     0.010 C 
HETATM   21  C27 UNL     1      -3.708  49.450 -20.408  1.00  0.00     0.011 C 
HETATM   22  C28 UNL     1      -4.293  48.309 -21.269  1.00  0.00    -0.029 C 
HETATM   23  C29 UNL     1      -3.205  47.212 -21.453  1.00  0.00     0.016 C 
ENDROOT
BRANCH   1  24
HETATM   24  C6  UNL     1      -5.608  46.675 -19.490  1.00  0.00    -0.011 C 
HETATM   25  C7  UNL     1      -4.434  46.787 -18.508  1.00  0.00     0.010 C 
BRANCH  24  26
HETATM   26  C5  UNL     1      -6.959  46.737 -18.732  1.00  0.00     0.040 C 
BRANCH  26  27
HETATM   27  C4  UNL     1      -7.556  48.145 -18.599  1.00  0.00     0.141 C 
BRANCH  27  28
HETATM   28  C3  UNL     1      -8.958  48.224 -19.149  1.00  0.00     0.009 C 
HETATM   29  C2  UNL     1     -10.124  47.851 -18.574  1.00  0.00    -0.062 C 
HETATM   30  C1  UNL     1     -11.422  48.067 -19.311  1.00  0.00     0.045 C 
BRANCH  29  31
HETATM   31  C30 UNL     1     -10.250  47.214 -17.212  1.00  0.00     0.198 C 
BRANCH  31  32
HETATM   32  O3  UNL     1     -10.264  48.228 -16.212  1.00  0.00    -0.397 OA
HETATM   33  H48 UNL     1      -9.345  48.518 -16.089  1.00  0.00     0.209 HD
ENDBRANCH  31  32
ENDBRANCH  29  31
ENDBRANCH  27  28
BRANCH  27  34
HETATM   34  O1  UNL     1      -7.546  48.567 -17.242  1.00  0.00    -0.392 OA
HETATM   35  H6  UNL     1      -7.999  49.428 -17.212  1.00  0.00     0.210 HD
ENDBRANCH  27  34
ENDBRANCH  26  27
ENDBRANCH  24  26
ENDBRANCH   1  24
TORSDOF 7
ENDMDL
