MODEL 1
REMARK minimizedAffinity -8.44215488
REMARK CNNscore 0.368278146
REMARK CNNaffinity 6.12642908
REMARK  11 active torsions:
REMARK  status: ('A' for Active; 'I' for Inactive)
REMARK    1  A    between atoms: C3_4  and  O2_5 
REMARK    2  A    between atoms: O2_5  and  C4_6 
REMARK    3  A    between atoms: C7_9  and  C8_10 
REMARK    4  A    between atoms: N1_11  and  C9_13 
REMARK    5  A    between atoms: C9_13  and  C10_14 
REMARK    6  A    between atoms: C10_14  and  C11_15 
REMARK    7  A    between atoms: C22_26  and  C23_27 
REMARK    8  A    between atoms: C29_35  and  O5_36 
REMARK    9  A    between atoms: C33_40  and  O6_41 
REMARK   10  A    between atoms: C36_44  and  O7_45 
REMARK   11  A    between atoms: C37_46  and  O8_47 
ROOT
HETATM    1  C4  UNL     1     -10.245 -10.108  14.459  1.00  0.00     0.127 C 
HETATM    2  C5  UNL     1     -10.485 -11.249  15.454  1.00  0.00     0.033 C 
HETATM    3  C6  UNL     1     -11.824 -11.108  16.162  1.00  0.00     0.021 C 
HETATM    4  C7  UNL     1     -11.976  -9.785  16.990  1.00  0.00     0.026 C 
HETATM    5  C17 UNL     1     -13.466  -9.270  16.817  1.00  0.00     0.009 C 
HETATM    6  C18 UNL     1     -14.523 -10.254  17.361  1.00  0.00     0.007 C 
HETATM    7  C19 UNL     1     -15.946  -9.765  17.099  1.00  0.00     0.013 C 
HETATM    8  C20 UNL     1     -16.238  -8.374  17.729  1.00  0.00    -0.005 C 
HETATM    9  C21 UNL     1     -16.295  -8.525  19.265  1.00  0.00     0.019 C 
HETATM   10  C22 UNL     1     -17.570  -7.827  17.102  1.00  0.00     0.028 C 
HETATM   11  C27 UNL     1     -17.128  -7.077  15.827  1.00  0.00     0.013 C 
HETATM   12  C28 UNL     1     -15.599  -7.020  15.829  1.00  0.00     0.040 C 
HETATM   13  C29 UNL     1     -15.166  -7.352  17.262  1.00  0.00     0.070 C 
HETATM   14  C30 UNL     1     -13.698  -7.851  17.387  1.00  0.00     0.026 C 
HETATM   15  C31 UNL     1     -12.721  -6.858  16.736  1.00  0.00     0.011 C 
HETATM   16  C32 UNL     1     -11.279  -7.271  16.978  1.00  0.00     0.039 C 
HETATM   17  C33 UNL     1     -10.935  -8.700  16.506  1.00  0.00     0.073 C 
HETATM   18  C34 UNL     1     -10.796  -8.758  14.966  1.00  0.00     0.071 C 
ENDROOT
BRANCH   1  19
HETATM   19  O2  UNL     1      -8.837 -10.040  14.237  1.00  0.00    -0.356 OA
BRANCH  19  20
HETATM   20  C3  UNL     1      -8.445 -10.100  12.871  1.00  0.00     0.263 C 
HETATM   21  O1  UNL     1      -8.390 -11.463  12.459  1.00  0.00    -0.354 OA
HETATM   22  C2  UNL     1      -8.103 -11.640  11.064  1.00  0.00     0.151 C 
HETATM   23  C1  UNL     1      -9.411 -11.797  10.293  1.00  0.00     0.042 C 
HETATM   24  C37 UNL     1      -7.224 -10.515  10.472  1.00  0.00     0.175 C 
HETATM   25  C36 UNL     1      -6.280  -9.971  11.548  1.00  0.00     0.154 C 
HETATM   26  C35 UNL     1      -7.045  -9.476  12.774  1.00  0.00     0.095 C 
BRANCH  24  27
HETATM   27  O8  UNL     1      -6.460 -11.008   9.367  1.00  0.00    -0.390 OA
HETATM   28  H51 UNL     1      -5.648 -11.396   9.760  1.00  0.00     0.210 HD
ENDBRANCH  24  27
BRANCH  25  29
HETATM   29  O7  UNL     1      -5.354 -11.013  11.912  1.00  0.00    -0.393 OA
HETATM   30  H49 UNL     1      -5.788 -11.575  12.590  1.00  0.00     0.210 HD
ENDBRANCH  25  29
ENDBRANCH  19  20
ENDBRANCH   1  19
BRANCH  17  31
HETATM   31  O6  UNL     1      -9.622  -8.989  17.015  1.00  0.00    -0.389 OA
HETATM   32  H43 UNL     1      -9.399  -8.412  17.766  1.00  0.00     0.210 HD
ENDBRANCH  17  31
BRANCH   4  33
HETATM   33  C8  UNL     1     -11.702 -10.041  18.479  1.00  0.00     0.068 C 
HETATM   34  N1  UNL     1     -10.791 -10.852  18.906  1.00  0.00    -0.401 N 
ATOM     35  H1  UNL     1     -10.186 -11.398  18.294  1.00  0.00     0.158 HD
BRANCH  34  36
HETATM   36  C9  UNL     1     -10.725 -10.901  20.376  1.00  0.00     0.123 C 
BRANCH  36  37
HETATM   37  C10 UNL     1      -9.385 -10.317  20.836  1.00  0.00     0.058 C 
BRANCH  37  38
HETATM   38  C11 UNL     1      -8.950 -10.938  22.140  1.00  0.00    -0.057 A 
HETATM   39  C12 UNL     1      -9.866 -11.634  22.939  1.00  0.00     0.007 A 
HETATM   40  C13 UNL     1      -9.471 -12.159  24.169  1.00  0.00     0.001 A 
HETATM   41  C14 UNL     1      -8.158 -12.002  24.607  1.00  0.00     0.000 A 
HETATM   42  C15 UNL     1      -7.239 -11.310  23.819  1.00  0.00     0.001 A 
HETATM   43  C16 UNL     1      -7.633 -10.775  22.593  1.00  0.00     0.007 A 
ENDBRANCH  37  38
ENDBRANCH  36  37
ENDBRANCH  34  36
ENDBRANCH   4  33
BRANCH  13  44
HETATM   44  O5  UNL     1     -15.285  -6.132  18.001  1.00  0.00    -0.389 OA
HETATM   45  H37 UNL     1     -14.937  -6.276  18.897  1.00  0.00     0.210 HD
ENDBRANCH  13  44
BRANCH  10  46
HETATM   46  C23 UNL     1     -18.465  -7.002  17.993  1.00  0.00    -0.045 A 
HETATM   47  C24 UNL     1     -19.286  -7.394  18.967  1.00  0.00     0.087 A 
HETATM   48  C25 UNL     1     -19.922  -6.192  19.506  1.00  0.00     0.283 A 
HETATM   49  O3  UNL     1     -20.751  -6.182  20.394  1.00  0.00    -0.260 OA
HETATM   50  O4  UNL     1     -19.438  -5.102  18.856  1.00  0.00    -0.314 OA
HETATM   51  C26 UNL     1     -18.497  -5.524  17.872  1.00  0.00     0.213 A 
ENDBRANCH  10  46
TORSDOF 11
ENDMDL
MODEL 2
REMARK minimizedAffinity -9.13623142
REMARK CNNscore 0.365059048
REMARK CNNaffinity 7.14802361
REMARK  11 active torsions:
REMARK  status: ('A' for Active; 'I' for Inactive)
REMARK    1  A    between atoms: C3_4  and  O2_5 
REMARK    2  A    between atoms: O2_5  and  C4_6 
REMARK    3  A    between atoms: C7_9  and  C8_10 
REMARK    4  A    between atoms: N1_11  and  C9_13 
REMARK    5  A    between atoms: C9_13  and  C10_14 
REMARK    6  A    between atoms: C10_14  and  C11_15 
REMARK    7  A    between atoms: C22_26  and  C23_27 
REMARK    8  A    between atoms: C29_35  and  O5_36 
REMARK    9  A    between atoms: C33_40  and  O6_41 
REMARK   10  A    between atoms: C36_44  and  O7_45 
REMARK   11  A    between atoms: C37_46  and  O8_47 
ROOT
HETATM    1  C4  UNL     1      -2.717   6.063  15.066  1.00  0.00     0.127 C 
HETATM    2  C5  UNL     1      -1.266   5.738  14.693  1.00  0.00     0.033 C 
HETATM    3  C6  UNL     1      -0.298   6.783  15.227  1.00  0.00     0.021 C 
HETATM    4  C7  UNL     1      -0.560   8.232  14.691  1.00  0.00     0.026 C 
HETATM    5  C17 UNL     1      -0.302   9.248  15.882  1.00  0.00     0.009 C 
HETATM    6  C18 UNL     1       1.149   9.226  16.405  1.00  0.00     0.007 C 
HETATM    7  C19 UNL     1       1.337  10.149  17.606  1.00  0.00     0.013 C 
HETATM    8  C20 UNL     1       0.976  11.630  17.298  1.00  0.00    -0.005 C 
HETATM    9  C21 UNL     1       2.045  12.217  16.351  1.00  0.00     0.019 C 
HETATM   10  C22 UNL     1       0.859  12.396  18.665  1.00  0.00     0.028 C 
HETATM   11  C27 UNL     1      -0.609  12.204  19.101  1.00  0.00     0.013 C 
HETATM   12  C28 UNL     1      -1.354  11.535  17.944  1.00  0.00     0.040 C 
HETATM   13  C29 UNL     1      -0.460  11.708  16.711  1.00  0.00     0.070 C 
HETATM   14  C30 UNL     1      -0.746  10.695  15.565  1.00  0.00     0.026 C 
HETATM   15  C31 UNL     1      -2.232  10.714  15.171  1.00  0.00     0.011 C 
HETATM   16  C32 UNL     1      -2.489   9.830  13.962  1.00  0.00     0.039 C 
HETATM   17  C33 UNL     1      -2.031   8.365  14.131  1.00  0.00     0.073 C 
HETATM   18  C34 UNL     1      -3.008   7.578  15.037  1.00  0.00     0.071 C 
ENDROOT
BRANCH   1  19
HETATM   19  O2  UNL     1      -3.551   5.360  14.146  1.00  0.00    -0.356 OA
BRANCH  19  20
HETATM   20  C3  UNL     1      -2.858   4.494  13.254  1.00  0.00     0.263 C 
HETATM   21  O1  UNL     1      -2.585   5.192  12.042  1.00  0.00    -0.354 OA
HETATM   22  C2  UNL     1      -1.795   4.445  11.105  1.00  0.00     0.151 C 
HETATM   23  C1  UNL     1      -0.324   4.815  11.271  1.00  0.00     0.042 C 
HETATM   24  C37 UNL     1      -2.013   2.918  11.201  1.00  0.00     0.175 C 
HETATM   25  C36 UNL     1      -3.450   2.623  11.641  1.00  0.00     0.154 C 
HETATM   26  C35 UNL     1      -3.786   3.305  12.965  1.00  0.00     0.095 C 
BRANCH  24  27
HETATM   27  O8  UNL     1      -1.761   2.297   9.935  1.00  0.00    -0.390 OA
HETATM   28  H51 UNL     1      -2.607   2.357   9.440  1.00  0.00     0.210 HD
ENDBRANCH  24  27
BRANCH  25  29
HETATM   29  O7  UNL     1      -4.345   3.061  10.600  1.00  0.00    -0.393 OA
HETATM   30  H49 UNL     1      -4.511   4.019  10.733  1.00  0.00     0.210 HD
ENDBRANCH  25  29
ENDBRANCH  19  20
ENDBRANCH   1  19
BRANCH  17  31
HETATM   31  O6  UNL     1      -2.142   7.755  12.835  1.00  0.00    -0.389 OA
HETATM   32  H43 UNL     1      -2.149   8.423  12.128  1.00  0.00     0.210 HD
ENDBRANCH  17  31
BRANCH   4  33
HETATM   33  C8  UNL     1       0.395   8.563  13.533  1.00  0.00     0.068 C 
HETATM   34  N1  UNL     1       1.161   7.689  12.970  1.00  0.00    -0.401 N 
ATOM     35  H1  UNL     1       1.206   6.710  13.252  1.00  0.00     0.158 HD
BRANCH  34  36
HETATM   36  C9  UNL     1       1.962   8.263  11.877  1.00  0.00     0.123 C 
BRANCH  36  37
HETATM   37  C10 UNL     1       1.060   8.482  10.657  1.00  0.00     0.058 C 
BRANCH  37  38
HETATM   38  C11 UNL     1       1.593   7.741   9.457  1.00  0.00    -0.057 A 
HETATM   39  C12 UNL     1       1.254   8.149   8.160  1.00  0.00     0.007 A 
HETATM   40  C13 UNL     1       1.706   7.427   7.055  1.00  0.00     0.001 A 
HETATM   41  C14 UNL     1       2.505   6.301   7.235  1.00  0.00     0.000 A 
HETATM   42  C15 UNL     1       2.847   5.888   8.521  1.00  0.00     0.001 A 
HETATM   43  C16 UNL     1       2.389   6.600   9.629  1.00  0.00     0.007 A 
ENDBRANCH  37  38
ENDBRANCH  36  37
ENDBRANCH  34  36
ENDBRANCH   4  33
BRANCH  13  44
HETATM   44  O5  UNL     1      -0.725  13.024  16.215  1.00  0.00    -0.389 OA
HETATM   45  H37 UNL     1      -0.243  13.146  15.381  1.00  0.00     0.210 HD
ENDBRANCH  13  44
BRANCH  10  46
HETATM   46  C23 UNL     1       1.298  13.839  18.688  1.00  0.00    -0.045 A 
HETATM   47  C24 UNL     1       2.512  14.353  18.888  1.00  0.00     0.087 A 
HETATM   48  C25 UNL     1       2.383  15.807  18.814  1.00  0.00     0.283 A 
HETATM   49  O3  UNL     1       3.293  16.596  18.976  1.00  0.00    -0.260 OA
HETATM   50  O4  UNL     1       1.091  16.127  18.539  1.00  0.00    -0.314 OA
HETATM   51  C26 UNL     1       0.325  14.930  18.437  1.00  0.00     0.213 A 
ENDBRANCH  10  46
TORSDOF 11
ENDMDL
MODEL 3
REMARK minimizedAffinity -9.58821583
REMARK CNNscore 0.365039349
REMARK CNNaffinity 7.05575228
REMARK  11 active torsions:
REMARK  status: ('A' for Active; 'I' for Inactive)
REMARK    1  A    between atoms: C3_4  and  O2_5 
REMARK    2  A    between atoms: O2_5  and  C4_6 
REMARK    3  A    between atoms: C7_9  and  C8_10 
REMARK    4  A    between atoms: N1_11  and  C9_13 
REMARK    5  A    between atoms: C9_13  and  C10_14 
REMARK    6  A    between atoms: C10_14  and  C11_15 
REMARK    7  A    between atoms: C22_26  and  C23_27 
REMARK    8  A    between atoms: C29_35  and  O5_36 
REMARK    9  A    between atoms: C33_40  and  O6_41 
REMARK   10  A    between atoms: C36_44  and  O7_45 
REMARK   11  A    between atoms: C37_46  and  O8_47 
ROOT
HETATM    1  C4  UNL     1      -3.078   5.848  14.525  1.00  0.00     0.127 C 
HETATM    2  C5  UNL     1      -1.670   5.241  14.531  1.00  0.00     0.033 C 
HETATM    3  C6  UNL     1      -0.629   6.236  15.019  1.00  0.00     0.021 C 
HETATM    4  C7  UNL     1      -0.526   7.537  14.149  1.00  0.00     0.026 C 
HETATM    5  C17 UNL     1      -0.287   8.761  15.128  1.00  0.00     0.009 C 
HETATM    6  C18 UNL     1       1.029   8.661  15.927  1.00  0.00     0.007 C 
HETATM    7  C19 UNL     1       1.182   9.810  16.921  1.00  0.00     0.013 C 
HETATM    8  C20 UNL     1       1.156  11.209  16.244  1.00  0.00    -0.005 C 
HETATM    9  C21 UNL     1       2.456  11.394  15.432  1.00  0.00     0.019 C 
HETATM   10  C22 UNL     1       0.958  12.289  17.367  1.00  0.00     0.028 C 
HETATM   11  C27 UNL     1      -0.572  12.417  17.526  1.00  0.00     0.013 C 
HETATM   12  C28 UNL     1      -1.225  11.602  16.408  1.00  0.00     0.040 C 
HETATM   13  C29 UNL     1      -0.124  11.345  15.374  1.00  0.00     0.070 C 
HETATM   14  C30 UNL     1      -0.398  10.138  14.432  1.00  0.00     0.026 C 
HETATM   15  C31 UNL     1      -1.770  10.272  13.750  1.00  0.00     0.011 C 
HETATM   16  C32 UNL     1      -1.982   9.169  12.726  1.00  0.00     0.039 C 
HETATM   17  C33 UNL     1      -1.835   7.738  13.288  1.00  0.00     0.073 C 
HETATM   18  C34 UNL     1      -3.077   7.338  14.121  1.00  0.00     0.071 C 
ENDROOT
BRANCH   1  19
HETATM   19  O2  UNL     1      -3.863   5.070  13.623  1.00  0.00    -0.356 OA
BRANCH  19  20
HETATM   20  C3  UNL     1      -5.211   5.501  13.480  1.00  0.00     0.263 C 
HETATM   21  O1  UNL     1      -5.774   5.713  14.771  1.00  0.00    -0.354 OA
HETATM   22  C2  UNL     1      -7.105   6.251  14.746  1.00  0.00     0.151 C 
HETATM   23  C1  UNL     1      -7.041   7.770  14.880  1.00  0.00     0.042 C 
HETATM   24  C37 UNL     1      -7.915   5.822  13.503  1.00  0.00     0.175 C 
HETATM   25  C36 UNL     1      -7.473   4.428  13.047  1.00  0.00     0.154 C 
HETATM   26  C35 UNL     1      -5.973   4.376  12.765  1.00  0.00     0.095 C 
BRANCH  24  27
HETATM   27  O8  UNL     1      -9.316   5.808  13.800  1.00  0.00    -0.390 OA
HETATM   28  H51 UNL     1      -9.495   4.924  14.185  1.00  0.00     0.210 HD
ENDBRANCH  24  27
BRANCH  25  29
HETATM   29  O7  UNL     1      -7.832   3.479  14.070  1.00  0.00    -0.393 OA
HETATM   30  H49 UNL     1      -7.115   3.477  14.741  1.00  0.00     0.210 HD
ENDBRANCH  25  29
ENDBRANCH  19  20
ENDBRANCH   1  19
BRANCH  17  31
HETATM   31  O6  UNL     1      -1.841   6.856  12.154  1.00  0.00    -0.389 OA
HETATM   32  H43 UNL     1      -1.608   7.329  11.336  1.00  0.00     0.210 HD
ENDBRANCH  17  31
BRANCH   4  33
HETATM   33  C8  UNL     1       0.650   7.441  13.167  1.00  0.00     0.068 C 
HETATM   34  N1  UNL     1       1.403   6.397  13.056  1.00  0.00    -0.401 N 
ATOM     35  H1  UNL     1       1.288   5.554  13.618  1.00  0.00     0.158 HD
BRANCH  34  36
HETATM   36  C9  UNL     1       2.446   6.561  12.030  1.00  0.00     0.123 C 
BRANCH  36  37
HETATM   37  C10 UNL     1       2.151   5.614  10.862  1.00  0.00     0.058 C 
BRANCH  37  38
HETATM   38  C11 UNL     1       1.926   6.388   9.588  1.00  0.00    -0.057 A 
HETATM   39  C12 UNL     1       1.015   7.451   9.551  1.00  0.00     0.007 A 
HETATM   40  C13 UNL     1       0.771   8.129   8.356  1.00  0.00     0.001 A 
HETATM   41  C14 UNL     1       1.440   7.757   7.193  1.00  0.00     0.000 A 
HETATM   42  C15 UNL     1       2.348   6.700   7.219  1.00  0.00     0.001 A 
HETATM   43  C16 UNL     1       2.587   6.013   8.409  1.00  0.00     0.007 A 
ENDBRANCH  37  38
ENDBRANCH  36  37
ENDBRANCH  34  36
ENDBRANCH   4  33
BRANCH  13  44
HETATM   44  O5  UNL     1      -0.057  12.528  14.571  1.00  0.00    -0.389 OA
HETATM   45  H37 UNL     1       0.571  12.376  13.844  1.00  0.00     0.210 HD
ENDBRANCH  13  44
BRANCH  10  46
HETATM   46  C23 UNL     1       1.645  13.618  17.175  1.00  0.00    -0.045 A 
HETATM   47  C24 UNL     1       2.909  13.964  17.425  1.00  0.00     0.087 A 
HETATM   48  C25 UNL     1       3.050  15.374  17.067  1.00  0.00     0.283 A 
HETATM   49  O3  UNL     1       4.069  16.025  17.191  1.00  0.00    -0.260 OA
HETATM   50  O4  UNL     1       1.868  15.831  16.579  1.00  0.00    -0.314 OA
HETATM   51  C26 UNL     1       0.911  14.775  16.608  1.00  0.00     0.213 A 
ENDBRANCH  10  46
TORSDOF 11
ENDMDL
MODEL 4
REMARK minimizedAffinity -8.14284706
REMARK CNNscore 0.191270396
REMARK CNNaffinity 6.34023714
REMARK  11 active torsions:
REMARK  status: ('A' for Active; 'I' for Inactive)
REMARK    1  A    between atoms: C3_4  and  O2_5 
REMARK    2  A    between atoms: O2_5  and  C4_6 
REMARK    3  A    between atoms: C7_9  and  C8_10 
REMARK    4  A    between atoms: N1_11  and  C9_13 
REMARK    5  A    between atoms: C9_13  and  C10_14 
REMARK    6  A    between atoms: C10_14  and  C11_15 
REMARK    7  A    between atoms: C22_26  and  C23_27 
REMARK    8  A    between atoms: C29_35  and  O5_36 
REMARK    9  A    between atoms: C33_40  and  O6_41 
REMARK   10  A    between atoms: C36_44  and  O7_45 
REMARK   11  A    between atoms: C37_46  and  O8_47 
ROOT
HETATM    1  C4  UNL     1      -3.613   8.371  14.653  1.00  0.00     0.127 C 
HETATM    2  C5  UNL     1      -2.433   7.487  14.232  1.00  0.00     0.033 C 
HETATM    3  C6  UNL     1      -1.154   7.869  14.962  1.00  0.00     0.021 C 
HETATM    4  C7  UNL     1      -0.689   9.345  14.712  1.00  0.00     0.026 C 
HETATM    5  C17 UNL     1      -0.116   9.914  16.077  1.00  0.00     0.009 C 
HETATM    6  C18 UNL     1       1.118   9.145  16.594  1.00  0.00     0.007 C 
HETATM    7  C19 UNL     1       1.586   9.664  17.951  1.00  0.00     0.013 C 
HETATM    8  C20 UNL     1       1.956  11.174  17.931  1.00  0.00    -0.005 C 
HETATM    9  C21 UNL     1       3.257  11.358  17.120  1.00  0.00     0.019 C 
HETATM   10  C22 UNL     1       2.068  11.666  19.419  1.00  0.00     0.028 C 
HETATM   11  C27 UNL     1       0.636  12.095  19.802  1.00  0.00     0.013 C 
HETATM   12  C28 UNL     1      -0.219  12.045  18.534  1.00  0.00     0.040 C 
HETATM   13  C29 UNL     1       0.767  11.996  17.362  1.00  0.00     0.070 C 
HETATM   14  C30 UNL     1       0.166  11.434  16.042  1.00  0.00     0.026 C 
HETATM   15  C31 UNL     1      -1.112  12.196  15.651  1.00  0.00     0.011 C 
HETATM   16  C32 UNL     1      -1.624  11.744  14.293  1.00  0.00     0.039 C 
HETATM   17  C33 UNL     1      -1.887  10.227  14.181  1.00  0.00     0.073 C 
HETATM   18  C34 UNL     1      -3.192   9.833  14.913  1.00  0.00     0.071 C 
ENDROOT
BRANCH   1  19
HETATM   19  O2  UNL     1      -4.584   8.292  13.610  1.00  0.00    -0.356 OA
BRANCH  19  20
HETATM   20  C3  UNL     1      -5.853   7.792  14.013  1.00  0.00     0.263 C 
HETATM   21  O1  UNL     1      -6.279   8.486  15.183  1.00  0.00    -0.354 OA
HETATM   22  C2  UNL     1      -7.600   8.133  15.622  1.00  0.00     0.151 C 
HETATM   23  C1  UNL     1      -8.606   9.132  15.055  1.00  0.00     0.042 C 
HETATM   24  C37 UNL     1      -7.989   6.677  15.283  1.00  0.00     0.175 C 
HETATM   25  C36 UNL     1      -6.742   5.787  15.296  1.00  0.00     0.154 C 
HETATM   26  C35 UNL     1      -5.671   6.302  14.337  1.00  0.00     0.095 C 
BRANCH  24  27
HETATM   27  O8  UNL     1      -8.942   6.182  16.229  1.00  0.00    -0.390 OA
HETATM   28  H51 UNL     1      -8.413   5.835  16.979  1.00  0.00     0.210 HD
ENDBRANCH  24  27
BRANCH  25  29
HETATM   29  O7  UNL     1      -6.236   5.732  16.644  1.00  0.00    -0.393 OA
HETATM   30  H49 UNL     1      -5.665   6.519  16.781  1.00  0.00     0.210 HD
ENDBRANCH  25  29
ENDBRANCH  19  20
ENDBRANCH   1  19
BRANCH  17  31
HETATM   31  O6  UNL     1      -2.139   9.962  12.791  1.00  0.00    -0.389 OA
HETATM   32  H43 UNL     1      -1.782  10.668  12.226  1.00  0.00     0.210 HD
ENDBRANCH  17  31
BRANCH   4  33
HETATM   33  C8  UNL     1       0.414   9.393  13.645  1.00  0.00     0.068 C 
HETATM   34  N1  UNL     1       0.588   8.470  12.757  1.00  0.00    -0.401 N 
ATOM     35  H1  UNL     1       0.016   7.629  12.696  1.00  0.00     0.158 HD
BRANCH  34  36
HETATM   36  C9  UNL     1       1.703   8.769  11.844  1.00  0.00     0.123 C 
BRANCH  36  37
HETATM   37  C10 UNL     1       2.375   7.457  11.428  1.00  0.00     0.058 C 
BRANCH  37  38
HETATM   38  C11 UNL     1       2.283   7.258   9.936  1.00  0.00    -0.057 A 
HETATM   39  C12 UNL     1       1.579   8.169   9.137  1.00  0.00     0.007 A 
HETATM   40  C13 UNL     1       1.452   7.951   7.765  1.00  0.00     0.001 A 
HETATM   41  C14 UNL     1       2.033   6.828   7.179  1.00  0.00     0.000 A 
HETATM   42  C15 UNL     1       2.735   5.916   7.966  1.00  0.00     0.001 A 
HETATM   43  C16 UNL     1       2.855   6.125   9.339  1.00  0.00     0.007 A 
ENDBRANCH  37  38
ENDBRANCH  36  37
ENDBRANCH  34  36
ENDBRANCH   4  33
BRANCH  13  44
HETATM   44  O5  UNL     1       1.166  13.351  17.126  1.00  0.00    -0.389 OA
HETATM   45  H37 UNL     1       1.726  13.377  16.333  1.00  0.00     0.210 HD
ENDBRANCH  13  44
BRANCH  10  46
HETATM   46  C23 UNL     1       3.102  12.723  19.720  1.00  0.00    -0.045 A 
HETATM   47  C24 UNL     1       3.008  14.050  19.633  1.00  0.00     0.087 A 
HETATM   48  C25 UNL     1       4.301  14.602  20.034  1.00  0.00     0.283 A 
HETATM   49  O3  UNL     1       4.579  15.785  20.049  1.00  0.00    -0.260 OA
HETATM   50  O4  UNL     1       5.131  13.585  20.383  1.00  0.00    -0.314 OA
HETATM   51  C26 UNL     1       4.447  12.346  20.216  1.00  0.00     0.213 A 
ENDBRANCH  10  46
TORSDOF 11
ENDMDL
MODEL 5
REMARK minimizedAffinity -10.0352488
REMARK CNNscore 0.160650238
REMARK CNNaffinity 6.33368826
REMARK  11 active torsions:
REMARK  status: ('A' for Active; 'I' for Inactive)
REMARK    1  A    between atoms: C3_4  and  O2_5 
REMARK    2  A    between atoms: O2_5  and  C4_6 
REMARK    3  A    between atoms: C7_9  and  C8_10 
REMARK    4  A    between atoms: N1_11  and  C9_13 
REMARK    5  A    between atoms: C9_13  and  C10_14 
REMARK    6  A    between atoms: C10_14  and  C11_15 
REMARK    7  A    between atoms: C22_26  and  C23_27 
REMARK    8  A    between atoms: C29_35  and  O5_36 
REMARK    9  A    between atoms: C33_40  and  O6_41 
REMARK   10  A    between atoms: C36_44  and  O7_45 
REMARK   11  A    between atoms: C37_46  and  O8_47 
ROOT
HETATM    1  C4  UNL     1       2.054   8.709  12.614  1.00  0.00     0.127 C 
HETATM    2  C5  UNL     1       0.707   8.183  12.106  1.00  0.00     0.033 C 
HETATM    3  C6  UNL     1      -0.463   8.852  12.810  1.00  0.00     0.021 C 
HETATM    4  C7  UNL     1      -0.484   8.639  14.363  1.00  0.00     0.026 C 
HETATM    5  C17 UNL     1      -0.969   9.992  15.034  1.00  0.00     0.009 C 
HETATM    6  C18 UNL     1      -2.400  10.402  14.627  1.00  0.00     0.007 C 
HETATM    7  C19 UNL     1      -2.798  11.750  15.221  1.00  0.00     0.013 C 
HETATM    8  C20 UNL     1      -2.733  11.774  16.774  1.00  0.00    -0.005 C 
HETATM    9  C21 UNL     1      -3.874  10.897  17.334  1.00  0.00     0.019 C 
HETATM   10  C22 UNL     1      -2.806  13.273  17.241  1.00  0.00     0.028 C 
HETATM   11  C27 UNL     1      -1.341  13.757  17.244  1.00  0.00     0.013 C 
HETATM   12  C28 UNL     1      -0.449  12.540  16.990  1.00  0.00     0.040 C 
HETATM   13  C29 UNL     1      -1.328  11.311  17.247  1.00  0.00     0.070 C 
HETATM   14  C30 UNL     1      -0.817  10.006  16.573  1.00  0.00     0.026 C 
HETATM   15  C31 UNL     1       0.646   9.724  16.958  1.00  0.00     0.011 C 
HETATM   16  C32 UNL     1       1.104   8.380  16.416  1.00  0.00     0.039 C 
HETATM   17  C33 UNL     1       0.944   8.218  14.889  1.00  0.00     0.073 C 
HETATM   18  C34 UNL     1       2.037   9.008  14.129  1.00  0.00     0.071 C 
ENDROOT
BRANCH   1  19
HETATM   19  O2  UNL     1       3.034   7.723  12.294  1.00  0.00    -0.356 OA
BRANCH  19  20
HETATM   20  C3  UNL     1       3.086   7.357  10.921  1.00  0.00     0.263 C 
HETATM   21  O1  UNL     1       1.786   6.960  10.493  1.00  0.00    -0.354 OA
HETATM   22  C2  UNL     1       1.699   6.666   9.090  1.00  0.00     0.151 C 
HETATM   23  C1  UNL     1       1.214   7.905   8.342  1.00  0.00     0.042 C 
HETATM   24  C37 UNL     1       3.016   6.120   8.496  1.00  0.00     0.175 C 
HETATM   25  C36 UNL     1       3.779   5.326   9.561  1.00  0.00     0.154 C 
HETATM   26  C35 UNL     1       4.051   6.168  10.805  1.00  0.00     0.095 C 
BRANCH  24  27
HETATM   27  O8  UNL     1       2.744   5.276   7.371  1.00  0.00    -0.390 OA
HETATM   28  H51 UNL     1       2.577   4.384   7.745  1.00  0.00     0.210 HD
ENDBRANCH  24  27
BRANCH  25  29
HETATM   29  O7  UNL     1       3.009   4.155   9.895  1.00  0.00    -0.393 OA
HETATM   30  H49 UNL     1       2.350   4.415  10.575  1.00  0.00     0.210 HD
ENDBRANCH  25  29
ENDBRANCH  19  20
ENDBRANCH   1  19
BRANCH  17  31
HETATM   31  O6  UNL     1       1.208   6.835  14.600  1.00  0.00    -0.389 OA
HETATM   32  H43 UNL     1       1.099   6.281  15.392  1.00  0.00     0.210 HD
ENDBRANCH  17  31
BRANCH   4  33
HETATM   33  C8  UNL     1      -1.456   7.512  14.743  1.00  0.00     0.068 C 
HETATM   34  N1  UNL     1      -1.837   6.592  13.921  1.00  0.00    -0.401 N 
ATOM     35  H1  UNL     1      -1.534   6.541  12.948  1.00  0.00     0.158 HD
BRANCH  34  36
HETATM   36  C9  UNL     1      -2.756   5.625  14.543  1.00  0.00     0.123 C 
BRANCH  36  37
HETATM   37  C10 UNL     1      -4.148   5.789  13.926  1.00  0.00     0.058 C 
BRANCH  37  38
HETATM   38  C11 UNL     1      -4.518   4.577  13.109  1.00  0.00    -0.057 A 
HETATM   39  C12 UNL     1      -3.525   3.733  12.595  1.00  0.00     0.007 A 
HETATM   40  C13 UNL     1      -3.871   2.643  11.796  1.00  0.00     0.001 A 
HETATM   41  C14 UNL     1      -5.209   2.383  11.510  1.00  0.00     0.000 A 
HETATM   42  C15 UNL     1      -6.205   3.217  12.017  1.00  0.00     0.001 A 
HETATM   43  C16 UNL     1      -5.862   4.313  12.808  1.00  0.00     0.007 A 
ENDBRANCH  37  38
ENDBRANCH  36  37
ENDBRANCH  34  36
ENDBRANCH   4  33
BRANCH  13  44
HETATM   44  O5  UNL     1      -1.319  11.112  18.664  1.00  0.00    -0.389 OA
HETATM   45  H37 UNL     1      -1.795  10.289  18.866  1.00  0.00     0.210 HD
ENDBRANCH  13  44
BRANCH  10  46
HETATM   46  C23 UNL     1      -3.526  13.558  18.536  1.00  0.00    -0.045 A 
HETATM   47  C24 UNL     1      -4.513  12.882  19.124  1.00  0.00     0.087 A 
HETATM   48  C25 UNL     1      -4.848  13.593  20.356  1.00  0.00     0.283 A 
HETATM   49  O3  UNL     1      -5.727  13.268  21.132  1.00  0.00    -0.260 OA
HETATM   50  O4  UNL     1      -4.026  14.666  20.490  1.00  0.00    -0.314 OA
HETATM   51  C26 UNL     1      -3.145  14.721  19.373  1.00  0.00     0.213 A 
ENDBRANCH  10  46
TORSDOF 11
ENDMDL
MODEL 6
REMARK minimizedAffinity -8.52797508
REMARK CNNscore 0.154176131
REMARK CNNaffinity 6.23245001
REMARK  11 active torsions:
REMARK  status: ('A' for Active; 'I' for Inactive)
REMARK    1  A    between atoms: C3_4  and  O2_5 
REMARK    2  A    between atoms: O2_5  and  C4_6 
REMARK    3  A    between atoms: C7_9  and  C8_10 
REMARK    4  A    between atoms: N1_11  and  C9_13 
REMARK    5  A    between atoms: C9_13  and  C10_14 
REMARK    6  A    between atoms: C10_14  and  C11_15 
REMARK    7  A    between atoms: C22_26  and  C23_27 
REMARK    8  A    between atoms: C29_35  and  O5_36 
REMARK    9  A    between atoms: C33_40  and  O6_41 
REMARK   10  A    between atoms: C36_44  and  O7_45 
REMARK   11  A    between atoms: C37_46  and  O8_47 
ROOT
HETATM    1  C4  UNL     1       0.755  10.722  18.356  1.00  0.00     0.127 C 
HETATM    2  C5  UNL     1      -0.689  11.204  18.536  1.00  0.00     0.033 C 
HETATM    3  C6  UNL     1      -1.676  10.319  17.790  1.00  0.00     0.021 C 
HETATM    4  C7  UNL     1      -1.440  10.258  16.241  1.00  0.00     0.026 C 
HETATM    5  C17 UNL     1      -1.718   8.771  15.763  1.00  0.00     0.009 C 
HETATM    6  C18 UNL     1      -3.170   8.309  16.006  1.00  0.00     0.007 C 
HETATM    7  C19 UNL     1      -3.376   6.848  15.616  1.00  0.00     0.013 C 
HETATM    8  C20 UNL     1      -3.041   6.562  14.125  1.00  0.00    -0.005 C 
HETATM    9  C21 UNL     1      -4.118   7.222  13.237  1.00  0.00     0.019 C 
HETATM   10  C22 UNL     1      -2.940   5.005  13.938  1.00  0.00     0.028 C 
HETATM   11  C27 UNL     1      -1.470   4.663  14.260  1.00  0.00     0.013 C 
HETATM   12  C28 UNL     1      -0.711   5.982  14.424  1.00  0.00     0.040 C 
HETATM   13  C29 UNL     1      -1.606   7.063  13.806  1.00  0.00     0.070 C 
HETATM   14  C30 UNL     1      -1.299   8.506  14.299  1.00  0.00     0.026 C 
HETATM   15  C31 UNL     1       0.188   8.849  14.107  1.00  0.00     0.011 C 
HETATM   16  C32 UNL     1       0.463  10.303  14.457  1.00  0.00     0.039 C 
HETATM   17  C33 UNL     1       0.030  10.711  15.882  1.00  0.00     0.073 C 
HETATM   18  C34 UNL     1       1.019  10.167  16.940  1.00  0.00     0.071 C 
ENDROOT
BRANCH   1  19
HETATM   19  O2  UNL     1       1.603  11.834  18.640  1.00  0.00    -0.356 OA
BRANCH  19  20
HETATM   20  C3  UNL     1       2.406  11.690  19.804  1.00  0.00     0.263 C 
HETATM   21  O1  UNL     1       3.567  10.930  19.481  1.00  0.00    -0.354 OA
HETATM   22  C2  UNL     1       4.504  10.808  20.562  1.00  0.00     0.151 C 
HETATM   23  C1  UNL     1       5.573  11.891  20.432  1.00  0.00     0.042 C 
HETATM   24  C37 UNL     1       3.838  10.829  21.955  1.00  0.00     0.175 C 
HETATM   25  C36 UNL     1       2.437  10.214  21.873  1.00  0.00     0.154 C 
HETATM   26  C35 UNL     1       1.567  10.930  20.842  1.00  0.00     0.095 C 
BRANCH  24  27
HETATM   27  O8  UNL     1       4.629  10.097  22.898  1.00  0.00    -0.390 OA
HETATM   28  H51 UNL     1       4.346   9.161  22.809  1.00  0.00     0.210 HD
ENDBRANCH  24  27
BRANCH  25  29
HETATM   29  O7  UNL     1       2.571   8.817  21.546  1.00  0.00    -0.393 OA
HETATM   30  H49 UNL     1       2.650   8.745  20.570  1.00  0.00     0.210 HD
ENDBRANCH  25  29
ENDBRANCH  19  20
ENDBRANCH   1  19
BRANCH  17  31
HETATM   31  O6  UNL     1       0.155  12.141  15.948  1.00  0.00    -0.389 OA
HETATM   32  H43 UNL     1       0.152  12.538  15.060  1.00  0.00     0.210 HD
ENDBRANCH  17  31
BRANCH   4  33
HETATM   33  C8  UNL     1      -2.397  11.209  15.508  1.00  0.00     0.068 C 
HETATM   34  N1  UNL     1      -2.782  12.344  15.990  1.00  0.00    -0.401 N 
ATOM     35  H1  UNL     1      -2.493  12.700  16.901  1.00  0.00     0.158 HD
BRANCH  34  36
HETATM   36  C9  UNL     1      -3.685  13.066  15.079  1.00  0.00     0.123 C 
BRANCH  36  37
HETATM   37  C10 UNL     1      -4.910  13.544  15.863  1.00  0.00     0.058 C 
BRANCH  37  38
HETATM   38  C11 UNL     1      -5.499  14.783  15.236  1.00  0.00    -0.057 A 
HETATM   39  C12 UNL     1      -4.668  15.817  14.784  1.00  0.00     0.007 A 
HETATM   40  C13 UNL     1      -5.220  16.983  14.254  1.00  0.00     0.001 A 
HETATM   41  C14 UNL     1      -6.603  17.123  14.163  1.00  0.00     0.000 A 
HETATM   42  C15 UNL     1      -7.438  16.100  14.610  1.00  0.00     0.001 A 
HETATM   43  C16 UNL     1      -6.890  14.937  15.150  1.00  0.00     0.007 A 
ENDBRANCH  37  38
ENDBRANCH  36  37
ENDBRANCH  34  36
ENDBRANCH   4  33
BRANCH  13  44
HETATM   44  O5  UNL     1      -1.362   7.014  12.396  1.00  0.00    -0.389 OA
HETATM   45  H37 UNL     1      -1.845   7.743  11.972  1.00  0.00     0.210 HD
ENDBRANCH  13  44
BRANCH  10  46
HETATM   46  C23 UNL     1      -3.405   4.436  12.621  1.00  0.00    -0.045 A 
HETATM   47  C24 UNL     1      -4.630   4.074  12.239  1.00  0.00     0.087 A 
HETATM   48  C25 UNL     1      -4.525   3.580  10.867  1.00  0.00     0.283 A 
HETATM   49  O3  UNL     1      -5.451   3.141  10.212  1.00  0.00    -0.260 OA
HETATM   50  O4  UNL     1      -3.237   3.690  10.450  1.00  0.00    -0.314 OA
HETATM   51  C26 UNL     1      -2.449   4.232  11.506  1.00  0.00     0.213 A 
ENDBRANCH  10  46
TORSDOF 11
ENDMDL
MODEL 7
REMARK minimizedAffinity -10.7705736
REMARK CNNscore 0.141314149
REMARK CNNaffinity 6.66476059
REMARK  11 active torsions:
REMARK  status: ('A' for Active; 'I' for Inactive)
REMARK    1  A    between atoms: C3_4  and  O2_5 
REMARK    2  A    between atoms: O2_5  and  C4_6 
REMARK    3  A    between atoms: C7_9  and  C8_10 
REMARK    4  A    between atoms: N1_11  and  C9_13 
REMARK    5  A    between atoms: C9_13  and  C10_14 
REMARK    6  A    between atoms: C10_14  and  C11_15 
REMARK    7  A    between atoms: C22_26  and  C23_27 
REMARK    8  A    between atoms: C29_35  and  O5_36 
REMARK    9  A    between atoms: C33_40  and  O6_41 
REMARK   10  A    between atoms: C36_44  and  O7_45 
REMARK   11  A    between atoms: C37_46  and  O8_47 
ROOT
HETATM    1  C4  UNL     1      -4.677   6.469  13.764  1.00  0.00     0.127 C 
HETATM    2  C5  UNL     1      -4.700   7.984  13.528  1.00  0.00     0.033 C 
HETATM    3  C6  UNL     1      -3.409   8.476  12.892  1.00  0.00     0.021 C 
HETATM    4  C7  UNL     1      -2.126   8.200  13.750  1.00  0.00     0.026 C 
HETATM    5  C17 UNL     1      -0.954   7.799  12.758  1.00  0.00     0.009 C 
HETATM    6  C18 UNL     1      -0.585   8.916  11.760  1.00  0.00     0.007 C 
HETATM    7  C19 UNL     1       0.483   8.463  10.767  1.00  0.00     0.013 C 
HETATM    8  C20 UNL     1       1.799   8.003  11.456  1.00  0.00    -0.005 C 
HETATM    9  C21 UNL     1       2.507   9.238  12.054  1.00  0.00     0.019 C 
HETATM   10  C22 UNL     1       2.663   7.238  10.391  1.00  0.00     0.028 C 
HETATM   11  C27 UNL     1       2.189   5.772  10.477  1.00  0.00     0.013 C 
HETATM   12  C28 UNL     1       1.244   5.659  11.676  1.00  0.00     0.040 C 
HETATM   13  C29 UNL     1       1.480   6.916  12.519  1.00  0.00     0.070 C 
HETATM   14  C30 UNL     1       0.309   7.273  13.479  1.00  0.00     0.026 C 
HETATM   15  C31 UNL     1      -0.056   6.075  14.371  1.00  0.00     0.011 C 
HETATM   16  C32 UNL     1      -1.103   6.461  15.403  1.00  0.00     0.039 C 
HETATM   17  C33 UNL     1      -2.396   7.060  14.809  1.00  0.00     0.073 C 
HETATM   18  C34 UNL     1      -3.281   5.958  14.180  1.00  0.00     0.071 C 
ENDROOT
BRANCH   1  19
HETATM   19  O2  UNL     1      -5.649   6.190  14.771  1.00  0.00    -0.356 OA
BRANCH  19  20
HETATM   20  C3  UNL     1      -6.983   6.546  14.428  1.00  0.00     0.263 C 
HETATM   21  O1  UNL     1      -7.866   6.090  15.448  1.00  0.00    -0.354 OA
HETATM   22  C2  UNL     1      -9.233   6.486  15.256  1.00  0.00     0.151 C 
HETATM   23  C1  UNL     1      -9.505   7.767  16.042  1.00  0.00     0.042 C 
HETATM   24  C37 UNL     1      -9.624   6.636  13.769  1.00  0.00     0.175 C 
HETATM   25  C36 UNL     1      -8.819   5.650  12.916  1.00  0.00     0.154 C 
HETATM   26  C35 UNL     1      -7.315   5.838  13.106  1.00  0.00     0.095 C 
BRANCH  24  27
HETATM   27  O8  UNL     1     -11.023   6.390  13.594  1.00  0.00    -0.390 OA
HETATM   28  H51 UNL     1     -11.109   5.418  13.488  1.00  0.00     0.210 HD
ENDBRANCH  24  27
BRANCH  25  29
HETATM   29  O7  UNL     1      -9.214   4.311  13.272  1.00  0.00    -0.393 OA
HETATM   30  H49 UNL     1      -8.691   4.044  14.058  1.00  0.00     0.210 HD
ENDBRANCH  25  29
ENDBRANCH  19  20
ENDBRANCH   1  19
BRANCH  17  31
HETATM   31  O6  UNL     1      -3.155   7.565  15.920  1.00  0.00    -0.389 OA
HETATM   32  H43 UNL     1      -2.587   7.718  16.696  1.00  0.00     0.210 HD
ENDBRANCH  17  31
BRANCH   4  33
HETATM   33  C8  UNL     1      -1.716   9.456  14.532  1.00  0.00     0.068 C 
HETATM   34  N1  UNL     1      -1.295   9.429  15.753  1.00  0.00    -0.401 N 
ATOM     35  H1  UNL     1      -1.209   8.575  16.304  1.00  0.00     0.158 HD
BRANCH  34  36
HETATM   36  C9  UNL     1      -0.952  10.768  16.260  1.00  0.00     0.123 C 
BRANCH  36  37
HETATM   37  C10 UNL     1      -1.188  10.805  17.774  1.00  0.00     0.058 C 
BRANCH  37  38
HETATM   38  C11 UNL     1       0.121  10.843  18.520  1.00  0.00    -0.057 A 
HETATM   39  C12 UNL     1       1.332  10.630  17.847  1.00  0.00     0.007 A 
HETATM   40  C13 UNL     1       2.536  10.612  18.551  1.00  0.00     0.001 A 
HETATM   41  C14 UNL     1       2.542  10.816  19.929  1.00  0.00     0.000 A 
HETATM   42  C15 UNL     1       1.343  11.029  20.608  1.00  0.00     0.001 A 
HETATM   43  C16 UNL     1       0.137  11.037  19.909  1.00  0.00     0.007 A 
ENDBRANCH  37  38
ENDBRANCH  36  37
ENDBRANCH  34  36
ENDBRANCH   4  33
BRANCH  13  44
HETATM   44  O5  UNL     1       2.639   6.643  13.315  1.00  0.00    -0.389 OA
HETATM   45  H37 UNL     1       2.775   7.383  13.931  1.00  0.00     0.210 HD
ENDBRANCH  13  44
BRANCH  10  46
HETATM   46  C23 UNL     1       4.162   7.381  10.486  1.00  0.00    -0.045 A 
HETATM   47  C24 UNL     1       4.916   8.477  10.397  1.00  0.00     0.087 A 
HETATM   48  C25 UNL     1       6.308   8.057  10.552  1.00  0.00     0.283 A 
HETATM   49  O3  UNL     1       7.269   8.799  10.499  1.00  0.00    -0.260 OA
HETATM   50  O4  UNL     1       6.348   6.716  10.762  1.00  0.00    -0.314 OA
HETATM   51  C26 UNL     1       5.020   6.199  10.739  1.00  0.00     0.213 A 
ENDBRANCH  10  46
TORSDOF 11
ENDMDL
MODEL 8
REMARK minimizedAffinity -9.73604965
REMARK CNNscore 0.137423962
REMARK CNNaffinity 6.33223963
REMARK  11 active torsions:
REMARK  status: ('A' for Active; 'I' for Inactive)
REMARK    1  A    between atoms: C3_4  and  O2_5 
REMARK    2  A    between atoms: O2_5  and  C4_6 
REMARK    3  A    between atoms: C7_9  and  C8_10 
REMARK    4  A    between atoms: N1_11  and  C9_13 
REMARK    5  A    between atoms: C9_13  and  C10_14 
REMARK    6  A    between atoms: C10_14  and  C11_15 
REMARK    7  A    between atoms: C22_26  and  C23_27 
REMARK    8  A    between atoms: C29_35  and  O5_36 
REMARK    9  A    between atoms: C33_40  and  O6_41 
REMARK   10  A    between atoms: C36_44  and  O7_45 
REMARK   11  A    between atoms: C37_46  and  O8_47 
ROOT
HETATM    1  C4  UNL     1       2.078   7.064  12.907  1.00  0.00     0.127 C 
HETATM    2  C5  UNL     1       2.148   7.630  14.330  1.00  0.00     0.033 C 
HETATM    3  C6  UNL     1       0.783   7.639  15.001  1.00  0.00     0.021 C 
HETATM    4  C7  UNL     1      -0.293   8.501  14.254  1.00  0.00     0.026 C 
HETATM    5  C17 UNL     1      -1.679   7.735  14.346  1.00  0.00     0.009 C 
HETATM    6  C18 UNL     1      -2.187   7.552  15.791  1.00  0.00     0.007 C 
HETATM    7  C19 UNL     1      -3.475   6.736  15.845  1.00  0.00     0.013 C 
HETATM    8  C20 UNL     1      -4.633   7.371  15.024  1.00  0.00    -0.005 C 
HETATM    9  C21 UNL     1      -5.108   8.653  15.741  1.00  0.00     0.019 C 
HETATM   10  C22 UNL     1      -5.760   6.290  14.857  1.00  0.00     0.028 C 
HETATM   11  C27 UNL     1      -5.377   5.512  13.580  1.00  0.00     0.013 C 
HETATM   12  C28 UNL     1      -4.199   6.241  12.929  1.00  0.00     0.040 C 
HETATM   13  C29 UNL     1      -4.159   7.633  13.568  1.00  0.00     0.070 C 
HETATM   14  C30 UNL     1      -2.783   8.351  13.455  1.00  0.00     0.026 C 
HETATM   15  C31 UNL     1      -2.309   8.405  11.993  1.00  0.00     0.011 C 
HETATM   16  C32 UNL     1      -1.036   9.225  11.861  1.00  0.00     0.039 C 
HETATM   17  C33 UNL     1       0.130   8.745  12.752  1.00  0.00     0.073 C 
HETATM   18  C34 UNL     1       0.779   7.464  12.176  1.00  0.00     0.071 C 
ENDROOT
BRANCH   1  19
HETATM   19  O2  UNL     1       3.229   7.543  12.212  1.00  0.00    -0.356 OA
BRANCH  19  20
HETATM   20  C3  UNL     1       4.331   7.881  13.044  1.00  0.00     0.263 C 
HETATM   21  O1  UNL     1       5.300   6.838  12.985  1.00  0.00    -0.354 OA
HETATM   22  C2  UNL     1       6.507   7.120  13.710  1.00  0.00     0.151 C 
HETATM   23  C1  UNL     1       7.548   7.702  12.756  1.00  0.00     0.042 C 
HETATM   24  C37 UNL     1       6.284   8.033  14.936  1.00  0.00     0.175 C 
HETATM   25  C36 UNL     1       4.890   7.790  15.521  1.00  0.00     0.154 C 
HETATM   26  C35 UNL     1       3.795   8.003  14.478  1.00  0.00     0.095 C 
BRANCH  24  27
HETATM   27  O8  UNL     1       7.276   7.776  15.936  1.00  0.00    -0.390 OA
HETATM   28  H51 UNL     1       6.927   7.027  16.467  1.00  0.00     0.210 HD
ENDBRANCH  24  27
BRANCH  25  29
HETATM   29  O7  UNL     1       4.842   6.448  16.043  1.00  0.00    -0.393 OA
HETATM   30  H49 UNL     1       4.625   5.845  15.300  1.00  0.00     0.210 HD
ENDBRANCH  25  29
ENDBRANCH  19  20
ENDBRANCH   1  19
BRANCH  17  31
HETATM   31  O6  UNL     1       1.147   9.756  12.666  1.00  0.00    -0.389 OA
HETATM   32  H43 UNL     1       0.777  10.606  12.371  1.00  0.00     0.210 HD
ENDBRANCH  17  31
BRANCH   4  33
HETATM   33  C8  UNL     1      -0.436   9.880  14.913  1.00  0.00     0.068 C 
HETATM   34  N1  UNL     1      -0.880  10.054  16.114  1.00  0.00    -0.401 N 
ATOM     35  H1  UNL     1      -1.182   9.294  16.721  1.00  0.00     0.158 HD
BRANCH  34  36
HETATM   36  C9  UNL     1      -0.901  11.473  16.507  1.00  0.00     0.123 C 
BRANCH  36  37
HETATM   37  C10 UNL     1      -1.468  11.591  17.925  1.00  0.00     0.058 C 
BRANCH  37  38
HETATM   38  C11 UNL     1      -0.372  11.879  18.919  1.00  0.00    -0.057 A 
HETATM   39  C12 UNL     1       0.312  10.832  19.550  1.00  0.00     0.007 A 
HETATM   40  C13 UNL     1       1.288  11.104  20.509  1.00  0.00     0.001 A 
HETATM   41  C14 UNL     1       1.595  12.422  20.838  1.00  0.00     0.000 A 
HETATM   42  C15 UNL     1       0.920  13.471  20.216  1.00  0.00     0.001 A 
HETATM   43  C16 UNL     1      -0.064  13.203  19.265  1.00  0.00     0.007 A 
ENDBRANCH  37  38
ENDBRANCH  36  37
ENDBRANCH  34  36
ENDBRANCH   4  33
BRANCH  13  44
HETATM   44  O5  UNL     1      -5.127   8.417  12.862  1.00  0.00    -0.389 OA
HETATM   45  H37 UNL     1      -5.074   9.335  13.177  1.00  0.00     0.210 HD
ENDBRANCH  13  44
BRANCH  10  46
HETATM   46  C23 UNL     1      -7.188   6.777  14.845  1.00  0.00    -0.045 A 
HETATM   47  C24 UNL     1      -8.301   6.134  14.490  1.00  0.00     0.087 A 
HETATM   48  C25 UNL     1      -9.412   7.068  14.661  1.00  0.00     0.283 A 
HETATM   49  O3  UNL     1     -10.575   6.822  14.404  1.00  0.00    -0.260 OA
HETATM   50  O4  UNL     1      -8.937   8.244  15.147  1.00  0.00    -0.314 OA
HETATM   51  C26 UNL     1      -7.523   8.148  15.300  1.00  0.00     0.213 A 
ENDBRANCH  10  46
TORSDOF 11
ENDMDL
MODEL 9
REMARK minimizedAffinity -11.0667791
REMARK CNNscore 0.13620922
REMARK CNNaffinity 6.6398921
REMARK  11 active torsions:
REMARK  status: ('A' for Active; 'I' for Inactive)
REMARK    1  A    between atoms: C3_4  and  O2_5 
REMARK    2  A    between atoms: O2_5  and  C4_6 
REMARK    3  A    between atoms: C7_9  and  C8_10 
REMARK    4  A    between atoms: N1_11  and  C9_13 
REMARK    5  A    between atoms: C9_13  and  C10_14 
REMARK    6  A    between atoms: C10_14  and  C11_15 
REMARK    7  A    between atoms: C22_26  and  C23_27 
REMARK    8  A    between atoms: C29_35  and  O5_36 
REMARK    9  A    between atoms: C33_40  and  O6_41 
REMARK   10  A    between atoms: C36_44  and  O7_45 
REMARK   11  A    between atoms: C37_46  and  O8_47 
ROOT
HETATM    1  C4  UNL     1       1.674   6.975  13.222  1.00  0.00     0.127 C 
HETATM    2  C5  UNL     1       1.684   7.430  14.686  1.00  0.00     0.033 C 
HETATM    3  C6  UNL     1       0.299   7.349  15.311  1.00  0.00     0.021 C 
HETATM    4  C7  UNL     1      -0.779   8.237  14.598  1.00  0.00     0.026 C 
HETATM    5  C17 UNL     1      -2.144   7.429  14.584  1.00  0.00     0.009 C 
HETATM    6  C18 UNL     1      -2.690   7.120  15.993  1.00  0.00     0.007 C 
HETATM    7  C19 UNL     1      -3.955   6.268  15.941  1.00  0.00     0.013 C 
HETATM    8  C20 UNL     1      -5.105   6.934  15.133  1.00  0.00    -0.005 C 
HETATM    9  C21 UNL     1      -5.640   8.142  15.931  1.00  0.00     0.019 C 
HETATM   10  C22 UNL     1      -6.195   5.839  14.846  1.00  0.00     0.028 C 
HETATM   11  C27 UNL     1      -5.749   5.174  13.526  1.00  0.00     0.013 C 
HETATM   12  C28 UNL     1      -4.574   5.983  12.973  1.00  0.00     0.040 C 
HETATM   13  C29 UNL     1      -4.595   7.322  13.719  1.00  0.00     0.070 C 
HETATM   14  C30 UNL     1      -3.238   8.083  13.707  1.00  0.00     0.026 C 
HETATM   15  C31 UNL     1      -2.720   8.264  12.270  1.00  0.00     0.011 C 
HETATM   16  C32 UNL     1      -1.469   9.126  12.244  1.00  0.00     0.039 C 
HETATM   17  C33 UNL     1      -0.317   8.609  13.134  1.00  0.00     0.073 C 
HETATM   18  C34 UNL     1       0.387   7.395  12.482  1.00  0.00     0.071 C 
ENDROOT
BRANCH   1  19
HETATM   19  O2  UNL     1       2.831   7.537  12.604  1.00  0.00    -0.356 OA
BRANCH  19  20
HETATM   20  C3  UNL     1       2.952   7.273  11.212  1.00  0.00     0.263 C 
HETATM   21  O1  UNL     1       1.695   6.831  10.709  1.00  0.00    -0.354 OA
HETATM   22  C2  UNL     1       1.673   6.632   9.287  1.00  0.00     0.151 C 
HETATM   23  C1  UNL     1       1.137   7.890   8.607  1.00  0.00     0.042 C 
HETATM   24  C37 UNL     1       3.040   6.209   8.707  1.00  0.00     0.175 C 
HETATM   25  C36 UNL     1       3.815   5.388   9.743  1.00  0.00     0.154 C 
HETATM   26  C35 UNL     1       3.992   6.155  11.052  1.00  0.00     0.095 C 
BRANCH  24  27
HETATM   27  O8  UNL     1       2.860   5.432   7.517  1.00  0.00    -0.390 OA
HETATM   28  H51 UNL     1       2.736   4.508   7.823  1.00  0.00     0.210 HD
ENDBRANCH  24  27
BRANCH  25  29
HETATM   29  O7  UNL     1       3.108   4.153   9.967  1.00  0.00    -0.393 OA
HETATM   30  H49 UNL     1       2.412   4.324  10.638  1.00  0.00     0.210 HD
ENDBRANCH  25  29
ENDBRANCH  19  20
ENDBRANCH   1  19
BRANCH  17  31
HETATM   31  O6  UNL     1       0.672   9.651  13.159  1.00  0.00    -0.389 OA
HETATM   32  H43 UNL     1       0.287  10.511  12.919  1.00  0.00     0.210 HD
ENDBRANCH  17  31
BRANCH   4  33
HETATM   33  C8  UNL     1      -0.983   9.557  15.356  1.00  0.00     0.068 C 
HETATM   34  N1  UNL     1      -0.771   9.691  16.623  1.00  0.00    -0.401 N 
ATOM     35  H1  UNL     1      -0.461   8.931  17.229  1.00  0.00     0.158 HD
BRANCH  34  36
HETATM   36  C9  UNL     1      -1.026  11.062  17.095  1.00  0.00     0.123 C 
BRANCH  36  37
HETATM   37  C10 UNL     1      -1.403  11.017  18.580  1.00  0.00     0.058 C 
BRANCH  37  38
HETATM   38  C11 UNL     1      -0.301  11.597  19.430  1.00  0.00    -0.057 A 
HETATM   39  C12 UNL     1      -0.126  12.984  19.522  1.00  0.00     0.007 A 
HETATM   40  C13 UNL     1       0.928  13.514  20.266  1.00  0.00     0.001 A 
HETATM   41  C14 UNL     1       1.810  12.664  20.930  1.00  0.00     0.000 A 
HETATM   42  C15 UNL     1       1.645  11.283  20.844  1.00  0.00     0.001 A 
HETATM   43  C16 UNL     1       0.599  10.750  20.093  1.00  0.00     0.007 A 
ENDBRANCH  37  38
ENDBRANCH  36  37
ENDBRANCH  34  36
ENDBRANCH   4  33
BRANCH  13  44
HETATM   44  O5  UNL     1      -5.563   8.132  13.044  1.00  0.00    -0.389 OA
HETATM   45  H37 UNL     1      -5.547   9.023  13.431  1.00  0.00     0.210 HD
ENDBRANCH  13  44
BRANCH  10  46
HETATM   46  C23 UNL     1      -7.635   6.287  14.825  1.00  0.00    -0.045 A 
HETATM   47  C24 UNL     1      -8.440   6.505  13.785  1.00  0.00     0.087 A 
HETATM   48  C25 UNL     1      -9.731   6.932  14.320  1.00  0.00     0.283 A 
HETATM   49  O3  UNL     1     -10.696   7.241  13.648  1.00  0.00    -0.260 OA
HETATM   50  O4  UNL     1      -9.675   6.928  15.678  1.00  0.00    -0.314 OA
HETATM   51  C26 UNL     1      -8.372   6.525  16.090  1.00  0.00     0.213 A 
ENDBRANCH  10  46
TORSDOF 11
ENDMDL
