MODEL 1
REMARK minimizedAffinity -7.84091663
REMARK CNNscore 0.743154168
REMARK CNNaffinity 6.86620712
REMARK  10 active torsions:
REMARK  status: ('A' for Active; 'I' for Inactive)
REMARK    1  A    between atoms: C19_21  and  O3_22 
REMARK    2  A    between atoms: C19_21  and  C20_23 
REMARK    3  A    between atoms: C20_23  and  C21_25 
REMARK    4  A    between atoms: C21_25  and  O5_26 
REMARK    5  A    between atoms: O5_26  and  C22_27 
REMARK    6  A    between atoms: C22_27  and  C23_29 
REMARK    7  A    between atoms: C23_29  and  C24_30 
REMARK    8  A    between atoms: C24_30  and  C25_31 
REMARK       I    between atoms: C25_31  and  N1_33 
REMARK    9  A    between atoms: N1_33  and  C26_34 
REMARK   10  A    between atoms: C26_34  and  C27_35 
ROOT
HETATM    1  C1  UNL     1       1.136  52.048 -10.027  1.00  0.00     0.021 C 
HETATM    2  C2  UNL     1       0.038  53.003 -10.547  1.00  0.00    -0.009 C 
HETATM    3  C3  UNL     1       0.639  54.425 -10.769  1.00  0.00     0.022 C 
HETATM    4  C4  UNL     1       0.939  55.176  -9.480  1.00  0.00     0.084 C 
HETATM    5  C5  UNL     1      -0.295  55.262  -8.623  1.00  0.00     0.149 C 
HETATM    6  O1  UNL     1      -0.513  56.207  -7.871  1.00  0.00    -0.293 OA
HETATM    7  C6  UNL     1      -1.231  54.112  -8.637  1.00  0.00     0.053 C 
HETATM    8  C7  UNL     1      -1.060  53.069  -9.469  1.00  0.00    -0.067 C 
HETATM    9  C8  UNL     1      -1.963  51.865  -9.344  1.00  0.00     0.035 C 
HETATM   10  C9  UNL     1      -2.564  51.465 -10.683  1.00  0.00     0.010 C 
HETATM   11  C10 UNL     1      -1.475  51.236 -11.739  1.00  0.00     0.003 C 
HETATM   12  C11 UNL     1      -0.603  52.518 -11.895  1.00  0.00     0.072 C 
HETATM   13  C12 UNL     1       0.377  52.330 -13.073  1.00  0.00     0.133 C 
HETATM   14  O2  UNL     1       1.587  52.528 -12.985  1.00  0.00    -0.297 OA
HETATM   15  C13 UNL     1      -0.232  51.907 -14.404  1.00  0.00     0.091 C 
HETATM   16  C14 UNL     1      -1.036  50.615 -14.204  1.00  0.00     0.005 C 
HETATM   17  C15 UNL     1      -0.058  49.464 -13.848  1.00  0.00     0.019 C 
HETATM   18  C16 UNL     1      -2.091  50.890 -13.102  1.00  0.00     0.002 C 
HETATM   19  C17 UNL     1      -3.036  49.694 -13.193  1.00  0.00     0.009 C 
HETATM   20  C18 UNL     1      -3.016  49.285 -14.680  1.00  0.00     0.047 C 
HETATM   21  C19 UNL     1      -1.980  50.199 -15.368  1.00  0.00     0.128 C 
ENDROOT
BRANCH  21  22
HETATM   22  O3  UNL     1      -2.696  51.367 -15.823  1.00  0.00    -0.381 OA
HETATM   23  H25 UNL     1      -2.173  51.748 -16.561  1.00  0.00     0.211 HD
ENDBRANCH  21  22
BRANCH  21  24
HETATM   24  C20 UNL     1      -1.267  49.643 -16.616  1.00  0.00     0.185 C 
HETATM   25  O4  UNL     1      -1.344  48.429 -16.849  1.00  0.00    -0.292 OA
BRANCH  24  26
HETATM   26  C21 UNL     1      -0.501  50.591 -17.537  1.00  0.00     0.260 C 
BRANCH  26  27
HETATM   27  O5  UNL     1      -1.358  51.534 -18.186  1.00  0.00    -0.314 OA
BRANCH  27  28
HETATM   28  C22 UNL     1      -0.891  51.949 -19.400  1.00  0.00     0.259 C 
HETATM   29  O6  UNL     1      -1.126  51.382 -20.461  1.00  0.00    -0.265 OA
BRANCH  28  30
HETATM   30  C23 UNL     1      -0.028  53.172 -19.239  1.00  0.00     0.120 C 
BRANCH  30  31
HETATM   31  C24 UNL     1       1.310  52.974 -19.942  1.00  0.00     0.112 C 
BRANCH  31  32
HETATM   32  C25 UNL     1       1.369  53.707 -21.261  1.00  0.00     0.218 C 
HETATM   33  O7  UNL     1       1.846  54.829 -21.394  1.00  0.00    -0.274 OA
HETATM   34  N1  UNL     1       0.842  52.971 -22.300  1.00  0.00    -0.357 N 
HETATM   35  H32 UNL     1       0.319  52.133 -22.083  1.00  0.00     0.162 HD
BRANCH  34  36
HETATM   36  C26 UNL     1       0.714  53.516 -23.634  1.00  0.00     0.162 C 
BRANCH  36  37
HETATM   37  C27 UNL     1       0.217  52.478 -24.596  1.00  0.00    -0.025 A 
HETATM   38  C28 UNL     1      -1.017  51.847 -24.414  1.00  0.00     0.011 A 
HETATM   39  C29 UNL     1      -1.436  50.874 -25.316  1.00  0.00     0.018 A 
HETATM   40  C30 UNL     1      -0.600  50.555 -26.374  1.00  0.00     0.087 A 
HETATM   41  N2  UNL     1       0.603  51.134 -26.579  1.00  0.00    -0.375 N 
HETATM   42  C31 UNL     1       0.983  52.079 -25.688  1.00  0.00     0.096 A 
ATOM     43  H2  UNL     1       1.195  50.872 -27.367  1.00  0.00     0.164 HD
ENDBRANCH  36  37
ENDBRANCH  34  36
ENDBRANCH  31  32
ENDBRANCH  30  31
ENDBRANCH  28  30
ENDBRANCH  27  28
ENDBRANCH  26  27
ENDBRANCH  24  26
ENDBRANCH  21  24
TORSDOF 10
ENDMDL
MODEL 2
REMARK minimizedAffinity -10.4293776
REMARK CNNscore 0.609388769
REMARK CNNaffinity 7.59396029
REMARK  10 active torsions:
REMARK  status: ('A' for Active; 'I' for Inactive)
REMARK    1  A    between atoms: C19_21  and  O3_22 
REMARK    2  A    between atoms: C19_21  and  C20_23 
REMARK    3  A    between atoms: C20_23  and  C21_25 
REMARK    4  A    between atoms: C21_25  and  O5_26 
REMARK    5  A    between atoms: O5_26  and  C22_27 
REMARK    6  A    between atoms: C22_27  and  C23_29 
REMARK    7  A    between atoms: C23_29  and  C24_30 
REMARK    8  A    between atoms: C24_30  and  C25_31 
REMARK       I    between atoms: C25_31  and  N1_33 
REMARK    9  A    between atoms: N1_33  and  C26_34 
REMARK   10  A    between atoms: C26_34  and  C27_35 
ROOT
HETATM    1  C1  UNL     1      -0.344  49.747 -20.949  1.00  0.00     0.021 C 
HETATM    2  C2  UNL     1      -1.005  51.136 -21.100  1.00  0.00    -0.009 C 
HETATM    3  C3  UNL     1      -0.199  51.995 -22.121  1.00  0.00     0.022 C 
HETATM    4  C4  UNL     1       1.140  52.488 -21.590  1.00  0.00     0.084 C 
HETATM    5  C5  UNL     1       0.947  53.251 -20.308  1.00  0.00     0.149 C 
HETATM    6  O1  UNL     1       1.680  54.177 -19.973  1.00  0.00    -0.293 OA
HETATM    7  C6  UNL     1      -0.120  52.798 -19.384  1.00  0.00     0.053 C 
HETATM    8  C7  UNL     1      -0.975  51.813 -19.717  1.00  0.00    -0.067 C 
HETATM    9  C8  UNL     1      -1.952  51.299 -18.687  1.00  0.00     0.035 C 
HETATM   10  C9  UNL     1      -3.375  51.263 -19.222  1.00  0.00     0.010 C 
HETATM   11  C10 UNL     1      -3.463  50.455 -20.524  1.00  0.00     0.003 C 
HETATM   12  C11 UNL     1      -2.495  51.050 -21.590  1.00  0.00     0.072 C 
HETATM   13  C12 UNL     1      -2.716  50.334 -22.939  1.00  0.00     0.133 C 
HETATM   14  O2  UNL     1      -1.806  49.842 -23.601  1.00  0.00    -0.297 OA
HETATM   15  C13 UNL     1      -4.149  50.284 -23.455  1.00  0.00     0.091 C 
HETATM   16  C14 UNL     1      -5.049  49.644 -22.389  1.00  0.00     0.005 C 
HETATM   17  C15 UNL     1      -4.650  48.153 -22.223  1.00  0.00     0.019 C 
HETATM   18  C16 UNL     1      -4.890  50.473 -21.088  1.00  0.00     0.002 C 
HETATM   19  C17 UNL     1      -6.032  49.984 -20.201  1.00  0.00     0.009 C 
HETATM   20  C18 UNL     1      -7.160  49.599 -21.181  1.00  0.00     0.047 C 
HETATM   21  C19 UNL     1      -6.582  49.786 -22.601  1.00  0.00     0.128 C 
ENDROOT
BRANCH  21  22
HETATM   22  O3  UNL     1      -6.873  51.145 -22.990  1.00  0.00    -0.381 OA
HETATM   23  H25 UNL     1      -6.870  51.164 -23.971  1.00  0.00     0.211 HD
ENDBRANCH  21  22
BRANCH  21  24
HETATM   24  C20 UNL     1      -7.168  48.904 -23.722  1.00  0.00     0.185 C 
HETATM   25  O4  UNL     1      -8.337  49.102 -24.080  1.00  0.00    -0.292 OA
BRANCH  24  26
HETATM   26  C21 UNL     1      -6.300  47.828 -24.371  1.00  0.00     0.260 C 
BRANCH  26  27
HETATM   27  O5  UNL     1      -5.575  48.318 -25.502  1.00  0.00    -0.314 OA
BRANCH  27  28
HETATM   28  C22 UNL     1      -6.023  47.821 -26.692  1.00  0.00     0.259 C 
HETATM   29  O6  UNL     1      -7.073  47.207 -26.834  1.00  0.00    -0.265 OA
BRANCH  28  30
HETATM   30  C23 UNL     1      -5.029  48.108 -27.786  1.00  0.00     0.120 C 
BRANCH  30  31
HETATM   31  C24 UNL     1      -3.681  48.495 -27.191  1.00  0.00     0.112 C 
BRANCH  31  32
HETATM   32  C25 UNL     1      -3.243  49.873 -27.629  1.00  0.00     0.218 C 
HETATM   33  O7  UNL     1      -3.339  50.281 -28.782  1.00  0.00    -0.274 OA
HETATM   34  N1  UNL     1      -2.737  50.624 -26.591  1.00  0.00    -0.357 N 
HETATM   35  H32 UNL     1      -2.535  50.162 -25.713  1.00  0.00     0.162 HD
BRANCH  34  36
HETATM   36  C26 UNL     1      -2.175  51.939 -26.802  1.00  0.00     0.162 C 
BRANCH  36  37
HETATM   37  C27 UNL     1      -0.678  51.881 -26.883  1.00  0.00    -0.025 A 
HETATM   38  C28 UNL     1      -0.018  51.792 -28.111  1.00  0.00     0.011 A 
HETATM   39  C29 UNL     1       1.372  51.719 -28.146  1.00  0.00     0.018 A 
HETATM   40  C30 UNL     1       2.060  51.729 -26.944  1.00  0.00     0.087 A 
HETATM   41  N2  UNL     1       1.459  51.803 -25.737  1.00  0.00    -0.375 N 
HETATM   42  C31 UNL     1       0.108  51.877 -25.734  1.00  0.00     0.096 A 
ATOM     43  H2  UNL     1       1.997  51.804 -24.871  1.00  0.00     0.164 HD
ENDBRANCH  36  37
ENDBRANCH  34  36
ENDBRANCH  31  32
ENDBRANCH  30  31
ENDBRANCH  28  30
ENDBRANCH  27  28
ENDBRANCH  26  27
ENDBRANCH  24  26
ENDBRANCH  21  24
TORSDOF 10
ENDMDL
MODEL 3
REMARK minimizedAffinity -9.27410412
REMARK CNNscore 0.487258077
REMARK CNNaffinity 6.8450532
REMARK  10 active torsions:
REMARK  status: ('A' for Active; 'I' for Inactive)
REMARK    1  A    between atoms: C19_21  and  O3_22 
REMARK    2  A    between atoms: C19_21  and  C20_23 
REMARK    3  A    between atoms: C20_23  and  C21_25 
REMARK    4  A    between atoms: C21_25  and  O5_26 
REMARK    5  A    between atoms: O5_26  and  C22_27 
REMARK    6  A    between atoms: C22_27  and  C23_29 
REMARK    7  A    between atoms: C23_29  and  C24_30 
REMARK    8  A    between atoms: C24_30  and  C25_31 
REMARK       I    between atoms: C25_31  and  N1_33 
REMARK    9  A    between atoms: N1_33  and  C26_34 
REMARK   10  A    between atoms: C26_34  and  C27_35 
ROOT
HETATM    1  C1  UNL     1      -2.076  52.720 -24.528  1.00  0.00     0.021 C 
HETATM    2  C2  UNL     1      -1.094  51.530 -24.625  1.00  0.00    -0.009 C 
HETATM    3  C3  UNL     1       0.363  52.060 -24.783  1.00  0.00     0.022 C 
HETATM    4  C4  UNL     1       0.659  52.654 -26.154  1.00  0.00     0.084 C 
HETATM    5  C5  UNL     1       0.350  51.653 -27.235  1.00  0.00     0.149 C 
HETATM    6  O1  UNL     1       0.966  51.617 -28.296  1.00  0.00    -0.293 OA
HETATM    7  C6  UNL     1      -0.800  50.742 -27.030  1.00  0.00     0.053 C 
HETATM    8  C7  UNL     1      -1.485  50.714 -25.872  1.00  0.00    -0.067 C 
HETATM    9  C8  UNL     1      -2.731  49.867 -25.766  1.00  0.00     0.035 C 
HETATM   10  C9  UNL     1      -2.705  48.969 -24.538  1.00  0.00     0.010 C 
HETATM   11  C10 UNL     1      -2.475  49.782 -23.257  1.00  0.00     0.003 C 
HETATM   12  C11 UNL     1      -1.149  50.592 -23.367  1.00  0.00     0.072 C 
HETATM   13  C12 UNL     1      -0.849  51.269 -22.014  1.00  0.00     0.133 C 
HETATM   14  O2  UNL     1      -0.594  52.466 -21.897  1.00  0.00    -0.297 OA
HETATM   15  C13 UNL     1      -0.848  50.366 -20.786  1.00  0.00     0.091 C 
HETATM   16  C14 UNL     1      -2.193  49.633 -20.697  1.00  0.00     0.005 C 
HETATM   17  C15 UNL     1      -3.312  50.668 -20.409  1.00  0.00     0.019 C 
HETATM   18  C16 UNL     1      -2.392  48.864 -22.029  1.00  0.00     0.002 C 
HETATM   19  C17 UNL     1      -3.561  47.925 -21.739  1.00  0.00     0.009 C 
HETATM   20  C18 UNL     1      -3.442  47.597 -20.237  1.00  0.00     0.047 C 
HETATM   21  C19 UNL     1      -2.268  48.443 -19.699  1.00  0.00     0.128 C 
ENDROOT
BRANCH  21  22
HETATM   22  O3  UNL     1      -1.079  47.639 -19.845  1.00  0.00    -0.381 OA
HETATM   23  H25 UNL     1      -0.430  47.975 -19.189  1.00  0.00     0.211 HD
ENDBRANCH  21  22
BRANCH  21  24
HETATM   24  C20 UNL     1      -2.312  48.845 -18.211  1.00  0.00     0.185 C 
HETATM   25  O4  UNL     1      -3.374  48.701 -17.591  1.00  0.00    -0.292 OA
BRANCH  24  26
HETATM   26  C21 UNL     1      -1.055  49.392 -17.537  1.00  0.00     0.260 C 
BRANCH  26  27
HETATM   27  O5  UNL     1      -1.085  50.815 -17.397  1.00  0.00    -0.314 OA
BRANCH  27  28
HETATM   28  C22 UNL     1       0.146  51.368 -17.194  1.00  0.00     0.259 C 
HETATM   29  O6  UNL     1       0.667  52.189 -17.941  1.00  0.00    -0.265 OA
BRANCH  28  30
HETATM   30  C23 UNL     1       0.776  50.802 -15.949  1.00  0.00     0.120 C 
BRANCH  30  31
HETATM   31  C24 UNL     1       1.573  51.877 -15.221  1.00  0.00     0.112 C 
BRANCH  31  32
HETATM   32  C25 UNL     1       1.432  51.767 -13.721  1.00  0.00     0.218 C 
HETATM   33  O7  UNL     1       2.016  50.927 -13.044  1.00  0.00    -0.274 OA
HETATM   34  N1  UNL     1       0.589  52.722 -13.196  1.00  0.00    -0.357 N 
HETATM   35  H32 UNL     1       0.019  53.266 -13.831  1.00  0.00     0.162 HD
BRANCH  34  36
HETATM   36  C26 UNL     1       0.239  52.744 -11.793  1.00  0.00     0.162 C 
BRANCH  36  37
HETATM   37  C27 UNL     1      -1.236  52.948 -11.607  1.00  0.00    -0.025 A 
HETATM   38  C28 UNL     1      -1.733  53.826 -10.640  1.00  0.00     0.011 A 
HETATM   39  C29 UNL     1      -3.108  53.975 -10.482  1.00  0.00     0.018 A 
HETATM   40  C30 UNL     1      -3.946  53.231 -11.296  1.00  0.00     0.087 A 
HETATM   41  N2  UNL     1      -3.505  52.365 -12.234  1.00  0.00    -0.375 N 
HETATM   42  C31 UNL     1      -2.165  52.244 -12.368  1.00  0.00     0.096 A 
ATOM     43  H2  UNL     1      -4.152  51.830 -12.813  1.00  0.00     0.164 HD
ENDBRANCH  36  37
ENDBRANCH  34  36
ENDBRANCH  31  32
ENDBRANCH  30  31
ENDBRANCH  28  30
ENDBRANCH  27  28
ENDBRANCH  26  27
ENDBRANCH  24  26
ENDBRANCH  21  24
TORSDOF 10
ENDMDL
MODEL 4
REMARK minimizedAffinity -8.75163746
REMARK CNNscore 0.438747525
REMARK CNNaffinity 6.97796869
REMARK  10 active torsions:
REMARK  status: ('A' for Active; 'I' for Inactive)
REMARK    1  A    between atoms: C19_21  and  O3_22 
REMARK    2  A    between atoms: C19_21  and  C20_23 
REMARK    3  A    between atoms: C20_23  and  C21_25 
REMARK    4  A    between atoms: C21_25  and  O5_26 
REMARK    5  A    between atoms: O5_26  and  C22_27 
REMARK    6  A    between atoms: C22_27  and  C23_29 
REMARK    7  A    between atoms: C23_29  and  C24_30 
REMARK    8  A    between atoms: C24_30  and  C25_31 
REMARK       I    between atoms: C25_31  and  N1_33 
REMARK    9  A    between atoms: N1_33  and  C26_34 
REMARK   10  A    between atoms: C26_34  and  C27_35 
ROOT
HETATM    1  C1  UNL     1      -8.180  46.053 -25.291  1.00  0.00     0.021 C 
HETATM    2  C2  UNL     1      -8.151  47.521 -25.772  1.00  0.00    -0.009 C 
HETATM    3  C3  UNL     1      -9.587  48.125 -25.711  1.00  0.00     0.022 C 
HETATM    4  C4  UNL     1     -10.524  47.599 -26.789  1.00  0.00     0.084 C 
HETATM    5  C5  UNL     1      -9.926  47.816 -28.153  1.00  0.00     0.149 C 
HETATM    6  O1  UNL     1     -10.614  48.014 -29.151  1.00  0.00    -0.293 OA
HETATM    7  C6  UNL     1      -8.456  47.696 -28.295  1.00  0.00     0.053 C 
HETATM    8  C7  UNL     1      -7.654  47.517 -27.230  1.00  0.00    -0.067 C 
HETATM    9  C8  UNL     1      -6.181  47.264 -27.445  1.00  0.00     0.035 C 
HETATM   10  C9  UNL     1      -5.317  48.186 -26.599  1.00  0.00     0.010 C 
HETATM   11  C10 UNL     1      -5.686  48.091 -25.113  1.00  0.00     0.003 C 
HETATM   12  C11 UNL     1      -7.195  48.424 -24.913  1.00  0.00     0.072 C 
HETATM   13  C12 UNL     1      -7.510  48.486 -23.404  1.00  0.00     0.133 C 
HETATM   14  O2  UNL     1      -8.435  47.870 -22.880  1.00  0.00    -0.297 OA
HETATM   15  C13 UNL     1      -6.624  49.396 -22.561  1.00  0.00     0.091 C 
HETATM   16  C14 UNL     1      -5.156  48.992 -22.755  1.00  0.00     0.005 C 
HETATM   17  C15 UNL     1      -4.939  47.580 -22.150  1.00  0.00     0.019 C 
HETATM   18  C16 UNL     1      -4.850  49.067 -24.273  1.00  0.00     0.002 C 
HETATM   19  C17 UNL     1      -3.328  48.973 -24.344  1.00  0.00     0.009 C 
HETATM   20  C18 UNL     1      -2.828  49.634 -23.043  1.00  0.00     0.047 C 
HETATM   21  C19 UNL     1      -4.089  49.991 -22.226  1.00  0.00     0.128 C 
ENDROOT
BRANCH  21  22
HETATM   22  O3  UNL     1      -4.470  51.327 -22.616  1.00  0.00    -0.381 OA
HETATM   23  H25 UNL     1      -4.992  51.699 -21.873  1.00  0.00     0.211 HD
ENDBRANCH  21  22
BRANCH  21  24
HETATM   24  C20 UNL     1      -3.944  50.037 -20.692  1.00  0.00     0.185 C 
HETATM   25  O4  UNL     1      -4.972  50.062 -20.001  1.00  0.00    -0.292 OA
BRANCH  24  26
HETATM   26  C21 UNL     1      -2.553  50.034 -20.062  1.00  0.00     0.260 C 
BRANCH  26  27
HETATM   27  O5  UNL     1      -2.006  51.351 -19.938  1.00  0.00    -0.314 OA
BRANCH  27  28
HETATM   28  C22 UNL     1      -0.726  51.454 -20.402  1.00  0.00     0.259 C 
HETATM   29  O6  UNL     1      -0.161  50.595 -21.069  1.00  0.00    -0.265 OA
BRANCH  28  30
HETATM   30  C23 UNL     1      -0.109  52.751 -19.949  1.00  0.00     0.120 C 
BRANCH  30  31
HETATM   31  C24 UNL     1       1.294  52.899 -20.523  1.00  0.00     0.112 C 
BRANCH  31  32
HETATM   32  C25 UNL     1       1.313  53.778 -21.752  1.00  0.00     0.218 C 
HETATM   33  O7  UNL     1       1.763  54.919 -21.764  1.00  0.00    -0.274 OA
HETATM   34  N1  UNL     1       0.782  53.153 -22.859  1.00  0.00    -0.357 N 
HETATM   35  H32 UNL     1       0.282  52.283 -22.730  1.00  0.00     0.162 HD
BRANCH  34  36
HETATM   36  C26 UNL     1       0.617  53.842 -24.119  1.00  0.00     0.162 C 
BRANCH  36  37
HETATM   37  C27 UNL     1       0.294  52.879 -25.224  1.00  0.00    -0.025 A 
HETATM   38  C28 UNL     1       0.509  53.210 -26.564  1.00  0.00     0.011 A 
HETATM   39  C29 UNL     1       0.179  52.299 -27.563  1.00  0.00     0.018 A 
HETATM   40  C30 UNL     1      -0.367  51.083 -27.188  1.00  0.00     0.087 A 
HETATM   41  N2  UNL     1      -0.600  50.730 -25.906  1.00  0.00    -0.375 N 
HETATM   42  C31 UNL     1      -0.266  51.633 -24.956  1.00  0.00     0.096 A 
ATOM     43  H2  UNL     1      -1.009  49.827 -25.665  1.00  0.00     0.164 HD
ENDBRANCH  36  37
ENDBRANCH  34  36
ENDBRANCH  31  32
ENDBRANCH  30  31
ENDBRANCH  28  30
ENDBRANCH  27  28
ENDBRANCH  26  27
ENDBRANCH  24  26
ENDBRANCH  21  24
TORSDOF 10
ENDMDL
MODEL 5
REMARK minimizedAffinity -8.75448418
REMARK CNNscore 0.406202137
REMARK CNNaffinity 6.00627136
REMARK  10 active torsions:
REMARK  status: ('A' for Active; 'I' for Inactive)
REMARK    1  A    between atoms: C19_21  and  O3_22 
REMARK    2  A    between atoms: C19_21  and  C20_23 
REMARK    3  A    between atoms: C20_23  and  C21_25 
REMARK    4  A    between atoms: C21_25  and  O5_26 
REMARK    5  A    between atoms: O5_26  and  C22_27 
REMARK    6  A    between atoms: C22_27  and  C23_29 
REMARK    7  A    between atoms: C23_29  and  C24_30 
REMARK    8  A    between atoms: C24_30  and  C25_31 
REMARK       I    between atoms: C25_31  and  N1_33 
REMARK    9  A    between atoms: N1_33  and  C26_34 
REMARK   10  A    between atoms: C26_34  and  C27_35 
ROOT
HETATM    1  C1  UNL     1      -0.364  49.804 -21.080  1.00  0.00     0.021 C 
HETATM    2  C2  UNL     1      -1.102  51.144 -21.297  1.00  0.00    -0.009 C 
HETATM    3  C3  UNL     1      -0.418  51.942 -22.448  1.00  0.00     0.022 C 
HETATM    4  C4  UNL     1       0.931  52.536 -22.071  1.00  0.00     0.084 C 
HETATM    5  C5  UNL     1       0.798  53.402 -20.847  1.00  0.00     0.149 C 
HETATM    6  O1  UNL     1       1.508  54.385 -20.653  1.00  0.00    -0.293 OA
HETATM    7  C6  UNL     1      -0.172  52.988 -19.805  1.00  0.00     0.053 C 
HETATM    8  C7  UNL     1      -1.000  51.942 -19.983  1.00  0.00    -0.067 C 
HETATM    9  C8  UNL     1      -1.869  51.481 -18.838  1.00  0.00     0.035 C 
HETATM   10  C9  UNL     1      -3.325  51.338 -19.253  1.00  0.00     0.010 C 
HETATM   11  C10 UNL     1      -3.472  50.414 -20.469  1.00  0.00     0.003 C 
HETATM   12  C11 UNL     1      -2.618  50.952 -21.656  1.00  0.00     0.072 C 
HETATM   13  C12 UNL     1      -2.906  50.110 -22.917  1.00  0.00     0.133 C 
HETATM   14  O2  UNL     1      -2.026  49.600 -23.606  1.00  0.00    -0.297 OA
HETATM   15  C13 UNL     1      -4.370  49.953 -23.311  1.00  0.00     0.091 C 
HETATM   16  C14 UNL     1      -5.153  49.373 -22.126  1.00  0.00     0.005 C 
HETATM   17  C15 UNL     1      -4.670  47.922 -21.865  1.00  0.00     0.019 C 
HETATM   18  C16 UNL     1      -4.937  50.321 -20.918  1.00  0.00     0.002 C 
HETATM   19  C17 UNL     1      -5.983  49.865 -19.903  1.00  0.00     0.009 C 
HETATM   20  C18 UNL     1      -7.162  49.347 -20.754  1.00  0.00     0.047 C 
HETATM   21  C19 UNL     1      -6.704  49.431 -22.226  1.00  0.00     0.128 C 
ENDROOT
BRANCH  21  22
HETATM   22  O3  UNL     1      -7.089  50.737 -22.705  1.00  0.00    -0.381 OA
HETATM   23  H25 UNL     1      -7.161  50.668 -23.681  1.00  0.00     0.211 HD
ENDBRANCH  21  22
BRANCH  21  24
HETATM   24  C20 UNL     1      -7.329  48.429 -23.217  1.00  0.00     0.185 C 
HETATM   25  O4  UNL     1      -7.652  47.309 -22.800  1.00  0.00    -0.292 OA
BRANCH  24  26
HETATM   26  C21 UNL     1      -7.548  48.839 -24.672  1.00  0.00     0.260 C 
BRANCH  26  27
HETATM   27  O5  UNL     1      -8.865  49.348 -24.904  1.00  0.00    -0.314 OA
BRANCH  27  28
HETATM   28  C22 UNL     1      -9.568  48.635 -25.831  1.00  0.00     0.259 C 
HETATM   29  O6  UNL     1     -10.792  48.578 -25.877  1.00  0.00    -0.265 OA
BRANCH  28  30
HETATM   30  C23 UNL     1      -8.629  47.909 -26.757  1.00  0.00     0.120 C 
BRANCH  30  31
HETATM   31  C24 UNL     1      -8.824  48.385 -28.191  1.00  0.00     0.112 C 
BRANCH  31  32
HETATM   32  C25 UNL     1      -9.851  47.557 -28.927  1.00  0.00     0.218 C 
HETATM   33  O7  UNL     1      -9.599  46.484 -29.465  1.00  0.00    -0.274 OA
HETATM   34  N1  UNL     1     -11.102  48.133 -28.916  1.00  0.00    -0.357 N 
HETATM   35  H32 UNL     1     -11.192  49.091 -28.602  1.00  0.00     0.162 HD
BRANCH  34  36
HETATM   36  C26 UNL     1     -12.215  47.557 -29.639  1.00  0.00     0.162 C 
BRANCH  36  37
HETATM   37  C27 UNL     1     -12.960  46.572 -28.788  1.00  0.00    -0.025 A 
HETATM   38  C28 UNL     1     -13.013  45.216 -29.121  1.00  0.00     0.011 A 
HETATM   39  C29 UNL     1     -13.732  44.334 -28.319  1.00  0.00     0.018 A 
HETATM   40  C30 UNL     1     -14.384  44.841 -27.207  1.00  0.00     0.087 A 
HETATM   41  N2  UNL     1     -14.365  46.145 -26.857  1.00  0.00    -0.375 N 
HETATM   42  C31 UNL     1     -13.657  46.978 -27.653  1.00  0.00     0.096 A 
ATOM     43  H2  UNL     1     -14.861  46.484 -26.033  1.00  0.00     0.164 HD
ENDBRANCH  36  37
ENDBRANCH  34  36
ENDBRANCH  31  32
ENDBRANCH  30  31
ENDBRANCH  28  30
ENDBRANCH  27  28
ENDBRANCH  26  27
ENDBRANCH  24  26
ENDBRANCH  21  24
TORSDOF 10
ENDMDL
MODEL 6
REMARK minimizedAffinity -9.30391598
REMARK CNNscore 0.403940767
REMARK CNNaffinity 6.31150198
REMARK  10 active torsions:
REMARK  status: ('A' for Active; 'I' for Inactive)
REMARK    1  A    between atoms: C19_21  and  O3_22 
REMARK    2  A    between atoms: C19_21  and  C20_23 
REMARK    3  A    between atoms: C20_23  and  C21_25 
REMARK    4  A    between atoms: C21_25  and  O5_26 
REMARK    5  A    between atoms: O5_26  and  C22_27 
REMARK    6  A    between atoms: C22_27  and  C23_29 
REMARK    7  A    between atoms: C23_29  and  C24_30 
REMARK    8  A    between atoms: C24_30  and  C25_31 
REMARK       I    between atoms: C25_31  and  N1_33 
REMARK    9  A    between atoms: N1_33  and  C26_34 
REMARK   10  A    between atoms: C26_34  and  C27_35 
ROOT
HETATM    1  C1  UNL     1      -0.352  49.822 -21.024  1.00  0.00     0.021 C 
HETATM    2  C2  UNL     1      -1.076  51.171 -21.230  1.00  0.00    -0.009 C 
HETATM    3  C3  UNL     1      -0.358  51.991 -22.345  1.00  0.00     0.022 C 
HETATM    4  C4  UNL     1       0.985  52.567 -21.918  1.00  0.00     0.084 C 
HETATM    5  C5  UNL     1       0.824  53.406 -20.679  1.00  0.00     0.149 C 
HETATM    6  O1  UNL     1       1.535  54.379 -20.444  1.00  0.00    -0.293 OA
HETATM    7  C6  UNL     1      -0.175  52.975 -19.673  1.00  0.00     0.053 C 
HETATM    8  C7  UNL     1      -1.004  51.939 -19.897  1.00  0.00    -0.067 C 
HETATM    9  C8  UNL     1      -1.907  51.458 -18.786  1.00  0.00     0.035 C 
HETATM   10  C9  UNL     1      -3.353  51.334 -19.242  1.00  0.00     0.010 C 
HETATM   11  C10 UNL     1      -3.472  50.438 -20.483  1.00  0.00     0.003 C 
HETATM   12  C11 UNL     1      -2.584  50.997 -21.634  1.00  0.00     0.072 C 
HETATM   13  C12 UNL     1      -2.843  50.186 -22.921  1.00  0.00     0.133 C 
HETATM   14  O2  UNL     1      -1.947  49.685 -23.597  1.00  0.00    -0.297 OA
HETATM   15  C13 UNL     1      -4.296  50.047 -23.357  1.00  0.00     0.091 C 
HETATM   16  C14 UNL     1      -5.114  49.446 -22.206  1.00  0.00     0.005 C 
HETATM   17  C15 UNL     1      -4.647  47.986 -21.966  1.00  0.00     0.019 C 
HETATM   18  C16 UNL     1      -4.925  50.365 -20.972  1.00  0.00     0.002 C 
HETATM   19  C17 UNL     1      -6.001  49.893 -19.996  1.00  0.00     0.009 C 
HETATM   20  C18 UNL     1      -7.159  49.402 -20.889  1.00  0.00     0.047 C 
HETATM   21  C19 UNL     1      -6.661  49.516 -22.347  1.00  0.00     0.128 C 
ENDROOT
BRANCH  21  22
HETATM   22  O3  UNL     1      -7.026  50.835 -22.806  1.00  0.00    -0.381 OA
HETATM   23  H25 UNL     1      -7.073  50.788 -23.785  1.00  0.00     0.211 HD
ENDBRANCH  21  22
BRANCH  21  24
HETATM   24  C20 UNL     1      -7.266  48.541 -23.376  1.00  0.00     0.185 C 
HETATM   25  O4  UNL     1      -6.974  47.340 -23.296  1.00  0.00    -0.292 OA
BRANCH  24  26
HETATM   26  C21 UNL     1      -8.213  49.067 -24.452  1.00  0.00     0.260 C 
BRANCH  26  27
HETATM   27  O5  UNL     1      -8.934  48.019 -25.107  1.00  0.00    -0.314 OA
BRANCH  27  28
HETATM   28  C22 UNL     1      -8.717  47.968 -26.454  1.00  0.00     0.259 C 
HETATM   29  O6  UNL     1      -9.153  48.786 -27.255  1.00  0.00    -0.265 OA
BRANCH  28  30
HETATM   30  C23 UNL     1      -7.900  46.753 -26.807  1.00  0.00     0.120 C 
BRANCH  30  31
HETATM   31  C24 UNL     1      -6.885  47.094 -27.891  1.00  0.00     0.112 C 
BRANCH  31  32
HETATM   32  C25 UNL     1      -6.983  46.157 -29.073  1.00  0.00     0.218 C 
HETATM   33  O7  UNL     1      -6.912  44.936 -28.979  1.00  0.00    -0.274 OA
HETATM   34  N1  UNL     1      -7.176  46.824 -30.263  1.00  0.00    -0.357 N 
HETATM   35  H32 UNL     1      -7.055  47.829 -30.280  1.00  0.00     0.162 HD
BRANCH  34  36
HETATM   36  C26 UNL     1      -7.206  46.130 -31.531  1.00  0.00     0.162 C 
BRANCH  36  37
HETATM   37  C27 UNL     1      -6.298  46.787 -32.528  1.00  0.00    -0.025 A 
HETATM   38  C28 UNL     1      -4.922  46.885 -32.306  1.00  0.00     0.011 A 
HETATM   39  C29 UNL     1      -4.113  47.520 -33.244  1.00  0.00     0.018 A 
HETATM   40  C30 UNL     1      -4.711  48.045 -34.377  1.00  0.00     0.087 A 
HETATM   41  N2  UNL     1      -6.037  47.980 -34.624  1.00  0.00    -0.375 N 
HETATM   42  C31 UNL     1      -6.798  47.355 -33.697  1.00  0.00     0.096 A 
ATOM     43  H2  UNL     1      -6.444  48.383 -35.468  1.00  0.00     0.164 HD
ENDBRANCH  36  37
ENDBRANCH  34  36
ENDBRANCH  31  32
ENDBRANCH  30  31
ENDBRANCH  28  30
ENDBRANCH  27  28
ENDBRANCH  26  27
ENDBRANCH  24  26
ENDBRANCH  21  24
TORSDOF 10
ENDMDL
MODEL 7
REMARK minimizedAffinity -9.51641273
REMARK CNNscore 0.393719405
REMARK CNNaffinity 7.22759628
REMARK  10 active torsions:
REMARK  status: ('A' for Active; 'I' for Inactive)
REMARK    1  A    between atoms: C19_21  and  O3_22 
REMARK    2  A    between atoms: C19_21  and  C20_23 
REMARK    3  A    between atoms: C20_23  and  C21_25 
REMARK    4  A    between atoms: C21_25  and  O5_26 
REMARK    5  A    between atoms: O5_26  and  C22_27 
REMARK    6  A    between atoms: C22_27  and  C23_29 
REMARK    7  A    between atoms: C23_29  and  C24_30 
REMARK    8  A    between atoms: C24_30  and  C25_31 
REMARK       I    between atoms: C25_31  and  N1_33 
REMARK    9  A    between atoms: N1_33  and  C26_34 
REMARK   10  A    between atoms: C26_34  and  C27_35 
ROOT
HETATM    1  C1  UNL     1      -4.434  51.228 -24.740  1.00  0.00     0.021 C 
HETATM    2  C2  UNL     1      -3.678  49.880 -24.756  1.00  0.00    -0.009 C 
HETATM    3  C3  UNL     1      -2.503  49.947 -25.779  1.00  0.00     0.022 C 
HETATM    4  C4  UNL     1      -2.950  49.923 -27.234  1.00  0.00     0.084 C 
HETATM    5  C5  UNL     1      -3.802  48.711 -27.500  1.00  0.00     0.149 C 
HETATM    6  O1  UNL     1      -3.830  48.151 -28.592  1.00  0.00    -0.293 OA
HETATM    7  C6  UNL     1      -4.699  48.242 -26.418  1.00  0.00     0.053 C 
HETATM    8  C7  UNL     1      -4.681  48.795 -25.192  1.00  0.00    -0.067 C 
HETATM    9  C8  UNL     1      -5.710  48.372 -24.171  1.00  0.00     0.035 C 
HETATM   10  C9  UNL     1      -5.071  47.993 -22.844  1.00  0.00     0.010 C 
HETATM   11  C10 UNL     1      -4.187  49.125 -22.305  1.00  0.00     0.003 C 
HETATM   12  C11 UNL     1      -3.092  49.494 -23.351  1.00  0.00     0.072 C 
HETATM   13  C12 UNL     1      -2.114  50.513 -22.731  1.00  0.00     0.133 C 
HETATM   14  O2  UNL     1      -1.805  51.572 -23.272  1.00  0.00    -0.297 OA
HETATM   15  C13 UNL     1      -1.496  50.135 -21.390  1.00  0.00     0.091 C 
HETATM   16  C14 UNL     1      -2.616  49.832 -20.385  1.00  0.00     0.005 C 
HETATM   17  C15 UNL     1      -3.395  51.141 -20.090  1.00  0.00     0.019 C 
HETATM   18  C16 UNL     1      -3.499  48.714 -20.996  1.00  0.00     0.002 C 
HETATM   19  C17 UNL     1      -4.369  48.255 -19.828  1.00  0.00     0.009 C 
HETATM   20  C18 UNL     1      -3.493  48.464 -18.575  1.00  0.00     0.047 C 
HETATM   21  C19 UNL     1      -2.190  49.133 -19.063  1.00  0.00     0.128 C 
ENDROOT
BRANCH  21  22
HETATM   22  O3  UNL     1      -1.271  48.065 -19.379  1.00  0.00    -0.381 OA
HETATM   23  H25 UNL     1      -0.368  48.443 -19.314  1.00  0.00     0.211 HD
ENDBRANCH  21  22
BRANCH  21  24
HETATM   24  C20 UNL     1      -1.442  50.035 -18.062  1.00  0.00     0.185 C 
HETATM   25  O4  UNL     1      -1.971  50.267 -16.966  1.00  0.00    -0.292 OA
BRANCH  24  26
HETATM   26  C21 UNL     1      -0.074  50.605 -18.431  1.00  0.00     0.260 C 
BRANCH  26  27
HETATM   27  O5  UNL     1       0.079  51.968 -18.023  1.00  0.00    -0.314 OA
BRANCH  27  28
HETATM   28  C22 UNL     1       0.011  52.856 -19.057  1.00  0.00     0.259 C 
HETATM   29  O6  UNL     1      -0.340  54.025 -18.943  1.00  0.00    -0.265 OA
BRANCH  28  30
HETATM   30  C23 UNL     1       0.394  52.186 -20.350  1.00  0.00     0.120 C 
BRANCH  30  31
HETATM   31  C24 UNL     1       1.663  52.811 -20.916  1.00  0.00     0.112 C 
BRANCH  31  32
HETATM   32  C25 UNL     1       1.364  53.797 -22.021  1.00  0.00     0.218 C 
HETATM   33  O7  UNL     1       1.531  55.007 -21.916  1.00  0.00    -0.274 OA
HETATM   34  N1  UNL     1       0.895  53.185 -23.163  1.00  0.00    -0.357 N 
HETATM   35  H32 UNL     1       0.626  52.211 -23.116  1.00  0.00     0.162 HD
BRANCH  34  36
HETATM   36  C26 UNL     1       0.460  53.946 -24.313  1.00  0.00     0.162 C 
BRANCH  36  37
HETATM   37  C27 UNL     1       0.453  53.099 -25.552  1.00  0.00    -0.025 A 
HETATM   38  C28 UNL     1      -0.035  53.588 -26.766  1.00  0.00     0.011 A 
HETATM   39  C29 UNL     1      -0.044  52.767 -27.889  1.00  0.00     0.018 A 
HETATM   40  C30 UNL     1       0.430  51.472 -27.760  1.00  0.00     0.087 A 
HETATM   41  N2  UNL     1       0.901  50.959 -26.602  1.00  0.00    -0.375 N 
HETATM   42  C31 UNL     1       0.901  51.781 -25.528  1.00  0.00     0.096 A 
ATOM     43  H2  UNL     1       1.239  49.999 -26.542  1.00  0.00     0.164 HD
ENDBRANCH  36  37
ENDBRANCH  34  36
ENDBRANCH  31  32
ENDBRANCH  30  31
ENDBRANCH  28  30
ENDBRANCH  27  28
ENDBRANCH  26  27
ENDBRANCH  24  26
ENDBRANCH  21  24
TORSDOF 10
ENDMDL
MODEL 8
REMARK minimizedAffinity -8.25622463
REMARK CNNscore 0.353217483
REMARK CNNaffinity 5.97566938
REMARK  10 active torsions:
REMARK  status: ('A' for Active; 'I' for Inactive)
REMARK    1  A    between atoms: C19_21  and  O3_22 
REMARK    2  A    between atoms: C19_21  and  C20_23 
REMARK    3  A    between atoms: C20_23  and  C21_25 
REMARK    4  A    between atoms: C21_25  and  O5_26 
REMARK    5  A    between atoms: O5_26  and  C22_27 
REMARK    6  A    between atoms: C22_27  and  C23_29 
REMARK    7  A    between atoms: C23_29  and  C24_30 
REMARK    8  A    between atoms: C24_30  and  C25_31 
REMARK       I    between atoms: C25_31  and  N1_33 
REMARK    9  A    between atoms: N1_33  and  C26_34 
REMARK   10  A    between atoms: C26_34  and  C27_35 
ROOT
HETATM    1  C1  UNL     1      -0.436  49.786 -21.106  1.00  0.00     0.021 C 
HETATM    2  C2  UNL     1      -1.180  51.126 -21.302  1.00  0.00    -0.009 C 
HETATM    3  C3  UNL     1      -0.509  51.939 -22.451  1.00  0.00     0.022 C 
HETATM    4  C4  UNL     1       0.841  52.533 -22.079  1.00  0.00     0.084 C 
HETATM    5  C5  UNL     1       0.716  53.385 -20.845  1.00  0.00     0.149 C 
HETATM    6  O1  UNL     1       1.424  54.369 -20.647  1.00  0.00    -0.293 OA
HETATM    7  C6  UNL     1      -0.243  52.958 -19.800  1.00  0.00     0.053 C 
HETATM    8  C7  UNL     1      -1.069  51.911 -19.981  1.00  0.00    -0.067 C 
HETATM    9  C8  UNL     1      -1.927  51.435 -18.834  1.00  0.00     0.035 C 
HETATM   10  C9  UNL     1      -3.387  51.291 -19.237  1.00  0.00     0.010 C 
HETATM   11  C10 UNL     1      -3.541  50.379 -20.462  1.00  0.00     0.003 C 
HETATM   12  C11 UNL     1      -2.699  50.933 -21.651  1.00  0.00     0.072 C 
HETATM   13  C12 UNL     1      -2.995  50.102 -22.917  1.00  0.00     0.133 C 
HETATM   14  O2  UNL     1      -2.118  49.603 -23.619  1.00  0.00    -0.297 OA
HETATM   15  C13 UNL     1      -4.461  49.944 -23.301  1.00  0.00     0.091 C 
HETATM   16  C14 UNL     1      -5.232  49.349 -22.115  1.00  0.00     0.005 C 
HETATM   17  C15 UNL     1      -4.742  47.897 -21.874  1.00  0.00     0.019 C 
HETATM   18  C16 UNL     1      -5.009  50.285 -20.899  1.00  0.00     0.002 C 
HETATM   19  C17 UNL     1      -6.045  49.815 -19.880  1.00  0.00     0.009 C 
HETATM   20  C18 UNL     1      -7.229  49.302 -20.726  1.00  0.00     0.047 C 
HETATM   21  C19 UNL     1      -6.784  49.403 -22.201  1.00  0.00     0.128 C 
ENDROOT
BRANCH  21  22
HETATM   22  O3  UNL     1      -7.178  50.712 -22.663  1.00  0.00    -0.381 OA
HETATM   23  H25 UNL     1      -7.258  50.653 -23.640  1.00  0.00     0.211 HD
ENDBRANCH  21  22
BRANCH  21  24
HETATM   24  C20 UNL     1      -7.414  48.409 -23.197  1.00  0.00     0.185 C 
HETATM   25  O4  UNL     1      -7.786  47.305 -22.776  1.00  0.00    -0.292 OA
BRANCH  24  26
HETATM   26  C21 UNL     1      -7.579  48.807 -24.662  1.00  0.00     0.260 C 
BRANCH  26  27
HETATM   27  O5  UNL     1      -8.886  49.312 -24.949  1.00  0.00    -0.314 OA
BRANCH  27  28
HETATM   28  C22 UNL     1      -9.581  48.550 -25.842  1.00  0.00     0.259 C 
HETATM   29  O6  UNL     1     -10.797  48.401 -25.825  1.00  0.00    -0.265 OA
BRANCH  28  30
HETATM   30  C23 UNL     1      -8.639  47.899 -26.820  1.00  0.00     0.120 C 
BRANCH  30  31
HETATM   31  C24 UNL     1      -9.084  48.175 -28.250  1.00  0.00     0.112 C 
BRANCH  31  32
HETATM   32  C25 UNL     1      -9.571  46.924 -28.943  1.00  0.00     0.218 C 
HETATM   33  O7  UNL     1     -10.662  46.407 -28.724  1.00  0.00    -0.274 OA
HETATM   34  N1  UNL     1      -8.661  46.435 -29.855  1.00  0.00    -0.357 N 
HETATM   35  H32 UNL     1      -7.724  46.815 -29.854  1.00  0.00     0.162 HD
BRANCH  34  36
HETATM   36  C26 UNL     1      -8.883  45.194 -30.564  1.00  0.00     0.162 C 
BRANCH  36  37
HETATM   37  C27 UNL     1      -9.460  45.446 -31.926  1.00  0.00    -0.025 A 
HETATM   38  C28 UNL     1     -10.771  45.076 -32.241  1.00  0.00     0.011 A 
HETATM   39  C29 UNL     1     -11.266  45.307 -33.521  1.00  0.00     0.018 A 
HETATM   40  C30 UNL     1     -10.429  45.897 -34.452  1.00  0.00     0.087 A 
HETATM   41  N2  UNL     1      -9.155  46.260 -34.190  1.00  0.00    -0.375 N 
HETATM   42  C31 UNL     1      -8.701  46.027 -32.938  1.00  0.00     0.096 A 
ATOM     43  H2  UNL     1      -8.564  46.689 -34.903  1.00  0.00     0.164 HD
ENDBRANCH  36  37
ENDBRANCH  34  36
ENDBRANCH  31  32
ENDBRANCH  30  31
ENDBRANCH  28  30
ENDBRANCH  27  28
ENDBRANCH  26  27
ENDBRANCH  24  26
ENDBRANCH  21  24
TORSDOF 10
ENDMDL
MODEL 9
REMARK minimizedAffinity -9.05579567
REMARK CNNscore 0.318533063
REMARK CNNaffinity 6.30849409
REMARK  10 active torsions:
REMARK  status: ('A' for Active; 'I' for Inactive)
REMARK    1  A    between atoms: C19_21  and  O3_22 
REMARK    2  A    between atoms: C19_21  and  C20_23 
REMARK    3  A    between atoms: C20_23  and  C21_25 
REMARK    4  A    between atoms: C21_25  and  O5_26 
REMARK    5  A    between atoms: O5_26  and  C22_27 
REMARK    6  A    between atoms: C22_27  and  C23_29 
REMARK    7  A    between atoms: C23_29  and  C24_30 
REMARK    8  A    between atoms: C24_30  and  C25_31 
REMARK       I    between atoms: C25_31  and  N1_33 
REMARK    9  A    between atoms: N1_33  and  C26_34 
REMARK   10  A    between atoms: C26_34  and  C27_35 
ROOT
HETATM    1  C1  UNL     1      -0.412  49.791 -21.189  1.00  0.00     0.021 C 
HETATM    2  C2  UNL     1      -1.164  51.136 -21.296  1.00  0.00    -0.009 C 
HETATM    3  C3  UNL     1      -0.530  52.007 -22.423  1.00  0.00     0.022 C 
HETATM    4  C4  UNL     1       0.830  52.586 -22.063  1.00  0.00     0.084 C 
HETATM    5  C5  UNL     1       0.742  53.376 -20.785  1.00  0.00     0.149 C 
HETATM    6  O1  UNL     1       1.455  54.350 -20.560  1.00  0.00    -0.293 OA
HETATM    7  C6  UNL     1      -0.184  52.894 -19.734  1.00  0.00     0.053 C 
HETATM    8  C7  UNL     1      -1.014  51.855 -19.942  1.00  0.00    -0.067 C 
HETATM    9  C8  UNL     1      -1.835  51.320 -18.793  1.00  0.00     0.035 C 
HETATM   10  C9  UNL     1      -3.306  51.192 -19.158  1.00  0.00     0.010 C 
HETATM   11  C10 UNL     1      -3.497  50.342 -20.421  1.00  0.00     0.003 C 
HETATM   12  C11 UNL     1      -2.693  50.956 -21.606  1.00  0.00     0.072 C 
HETATM   13  C12 UNL     1      -3.026  50.189 -22.903  1.00  0.00     0.133 C 
HETATM   14  O2  UNL     1      -2.171  49.727 -23.655  1.00  0.00    -0.297 OA
HETATM   15  C13 UNL     1      -4.504  50.046 -23.248  1.00  0.00     0.091 C 
HETATM   16  C14 UNL     1      -5.237  49.390 -22.070  1.00  0.00     0.005 C 
HETATM   17  C15 UNL     1      -4.738  47.929 -21.917  1.00  0.00     0.019 C 
HETATM   18  C16 UNL     1      -4.978  50.265 -20.817  1.00  0.00     0.002 C 
HETATM   19  C17 UNL     1      -5.981  49.742 -19.791  1.00  0.00     0.009 C 
HETATM   20  C18 UNL     1      -7.189  49.269 -20.625  1.00  0.00     0.047 C 
HETATM   21  C19 UNL     1      -6.791  49.443 -22.106  1.00  0.00     0.128 C 
ENDROOT
BRANCH  21  22
HETATM   22  O3  UNL     1      -7.200  50.773 -22.490  1.00  0.00    -0.381 OA
HETATM   23  H25 UNL     1      -7.311  50.762 -23.465  1.00  0.00     0.211 HD
ENDBRANCH  21  22
BRANCH  21  24
HETATM   24  C20 UNL     1      -7.450  48.499 -23.130  1.00  0.00     0.185 C 
HETATM   25  O4  UNL     1      -7.756  47.355 -22.768  1.00  0.00    -0.292 OA
BRANCH  24  26
HETATM   26  C21 UNL     1      -7.723  48.992 -24.550  1.00  0.00     0.260 C 
BRANCH  26  27
HETATM   27  O5  UNL     1      -7.716  47.931 -25.509  1.00  0.00    -0.314 OA
BRANCH  27  28
HETATM   28  C22 UNL     1      -6.509  47.759 -26.122  1.00  0.00     0.259 C 
HETATM   29  O6  UNL     1      -5.431  48.064 -25.624  1.00  0.00    -0.265 OA
BRANCH  28  30
HETATM   30  C23 UNL     1      -6.698  47.176 -27.497  1.00  0.00     0.120 C 
BRANCH  30  31
HETATM   31  C24 UNL     1      -5.706  47.792 -28.476  1.00  0.00     0.112 C 
BRANCH  31  32
HETATM   32  C25 UNL     1      -6.322  48.025 -29.835  1.00  0.00     0.218 C 
HETATM   33  O7  UNL     1      -5.842  47.598 -30.881  1.00  0.00    -0.274 OA
HETATM   34  N1  UNL     1      -7.488  48.756 -29.771  1.00  0.00    -0.357 N 
HETATM   35  H32 UNL     1      -7.726  49.212 -28.899  1.00  0.00     0.162 HD
BRANCH  34  36
HETATM   36  C26 UNL     1      -8.195  49.173 -30.961  1.00  0.00     0.162 C 
BRANCH  36  37
HETATM   37  C27 UNL     1      -9.124  48.097 -31.443  1.00  0.00    -0.025 A 
HETATM   38  C28 UNL     1      -8.891  47.418 -32.642  1.00  0.00     0.011 A 
HETATM   39  C29 UNL     1      -9.785  46.439 -33.068  1.00  0.00     0.018 A 
HETATM   40  C30 UNL     1     -10.893  46.175 -32.280  1.00  0.00     0.087 A 
HETATM   41  N2  UNL     1     -11.158  46.816 -31.121  1.00  0.00    -0.375 N 
HETATM   42  C31 UNL     1     -10.271  47.759 -30.730  1.00  0.00     0.096 A 
ATOM     43  H2  UNL     1     -11.987  46.599 -30.568  1.00  0.00     0.164 HD
ENDBRANCH  36  37
ENDBRANCH  34  36
ENDBRANCH  31  32
ENDBRANCH  30  31
ENDBRANCH  28  30
ENDBRANCH  27  28
ENDBRANCH  26  27
ENDBRANCH  24  26
ENDBRANCH  21  24
TORSDOF 10
ENDMDL
