MODEL 1
REMARK minimizedAffinity -8.24233913
REMARK CNNscore 0.358759642
REMARK CNNaffinity 7.29213333
REMARK  19 active torsions:
REMARK  status: ('A' for Active; 'I' for Inactive)
REMARK    1  A    between atoms: C19_20  and  O2_21 
REMARK    2  A    between atoms: C19_20  and  C20_22 
REMARK    3  A    between atoms: C20_22  and  C21_24 
REMARK    4  A    between atoms: C21_24  and  O4_25 
REMARK    5  A    between atoms: O4_25  and  C22_26 
REMARK    6  A    between atoms: C22_26  and  C23_28 
REMARK    7  A    between atoms: C23_28  and  C24_29 
REMARK    8  A    between atoms: C24_29  and  C25_30 
REMARK       I    between atoms: C25_30  and  N1_32 
REMARK    9  A    between atoms: N1_32  and  C26_33 
REMARK   10  A    between atoms: C26_33  and  C27_34 
REMARK   11  A    between atoms: C27_34  and  C28_35 
REMARK   12  A    between atoms: C28_35  and  C29_36 
REMARK   13  A    between atoms: C29_36  and  C30_37 
REMARK   14  A    between atoms: C30_37  and  C31_38 
REMARK       I    between atoms: C31_38  and  N2_40 
REMARK   15  A    between atoms: N2_40  and  C32_41 
REMARK   16  A    between atoms: C32_41  and  C33_42 
REMARK   17  A    between atoms: C32_41  and  C40_49 
REMARK   18  A    between atoms: C33_42  and  C34_43 
REMARK   19  A    between atoms: C40_49  and  O9_51 
ROOT
HETATM    1  C22 UNL     1       2.046   5.533  11.247  1.00  0.00     0.259 C 
HETATM    2  O5  UNL     1       2.003   4.766  10.293  1.00  0.00    -0.265 OA
ENDROOT
BRANCH   1   3
HETATM    3  O4  UNL     1       1.236   5.451  12.332  1.00  0.00    -0.314 OA
BRANCH   3   4
HETATM    4  C21 UNL     1       0.687   6.699  12.767  1.00  0.00     0.260 C 
BRANCH   4   5
HETATM    5  C20 UNL     1      -0.507   6.421  13.677  1.00  0.00     0.185 C 
HETATM    6  O3  UNL     1      -0.391   6.410  14.905  1.00  0.00    -0.292 OA
BRANCH   5   7
HETATM    7  C19 UNL     1      -1.843   6.050  12.996  1.00  0.00     0.128 C 
HETATM    8  C14 UNL     1      -3.123   6.105  13.895  1.00  0.00    -0.002 C 
HETATM    9  C13 UNL     1      -3.751   7.505  14.103  1.00  0.00     0.013 C 
HETATM   10  C15 UNL     1      -2.842   5.423  15.261  1.00  0.00     0.019 C 
HETATM   11  C16 UNL     1      -4.095   5.291  13.016  1.00  0.00     0.002 C 
HETATM   12  C12 UNL     1      -5.293   7.550  13.951  1.00  0.00     0.007 C 
HETATM   13  C11 UNL     1      -5.986   6.267  14.466  1.00  0.00     0.002 C 
HETATM   14  C2  UNL     1      -7.556   6.323  14.706  1.00  0.00    -0.016 C 
HETATM   15  C10 UNL     1      -5.485   5.031  13.638  1.00  0.00    -0.004 C 
HETATM   16  C1  UNL     1      -7.865   5.468  15.967  1.00  0.00     0.020 C 
HETATM   17  C3  UNL     1      -8.033   7.781  14.975  1.00  0.00     0.022 C 
HETATM   18  C7  UNL     1      -8.376   5.728  13.563  1.00  0.00    -0.068 C 
HETATM   19  C4  UNL     1      -9.546   7.930  15.053  1.00  0.00     0.084 C 
HETATM   20  C5  UNL     1     -10.173   7.411  13.786  1.00  0.00     0.149 C 
HETATM   21  O1  UNL     1     -11.213   7.874  13.326  1.00  0.00    -0.293 OA
HETATM   22  C6  UNL     1      -9.537   6.248  13.123  1.00  0.00     0.053 C 
HETATM   23  C8  UNL     1      -7.863   4.451  12.963  1.00  0.00     0.035 C 
HETATM   24  C9  UNL     1      -6.437   4.634  12.496  1.00  0.00     0.010 C 
HETATM   25  C17 UNL     1      -3.291   4.072  12.583  1.00  0.00     0.009 C 
HETATM   26  C18 UNL     1      -1.845   4.586  12.469  1.00  0.00     0.047 C 
BRANCH   7  27
HETATM   27  O2  UNL     1      -1.992   6.921  11.869  1.00  0.00    -0.381 OA
HETATM   28  H27 UNL     1      -1.291   6.701  11.227  1.00  0.00     0.211 HD
ENDBRANCH   7  27
ENDBRANCH   5   7
ENDBRANCH   4   5
ENDBRANCH   3   4
ENDBRANCH   1   3
BRANCH   1  29
HETATM   29  C23 UNL     1       2.931   6.758  11.299  1.00  0.00     0.120 C 
BRANCH  29  30
HETATM   30  C24 UNL     1       4.331   6.542  10.733  1.00  0.00     0.112 C 
BRANCH  30  31
HETATM   31  C25 UNL     1       5.193   7.781  10.865  1.00  0.00     0.217 C 
HETATM   32  O6  UNL     1       4.929   8.844  10.314  1.00  0.00    -0.274 OA
HETATM   33  N1  UNL     1       6.283   7.594  11.686  1.00  0.00    -0.361 N 
HETATM   34  H34 UNL     1       6.422   6.692  12.124  1.00  0.00     0.162 HD
BRANCH  33  35
HETATM   35  C26 UNL     1       7.152   8.688  12.072  1.00  0.00     0.122 C 
BRANCH  35  36
HETATM   36  C27 UNL     1       7.645   8.497  13.504  1.00  0.00     0.020 C 
BRANCH  36  37
HETATM   37  C28 UNL     1       9.060   9.031  13.740  1.00  0.00     0.002 C 
BRANCH  37  38
HETATM   38  C29 UNL     1       9.780   8.314  14.888  1.00  0.00     0.009 C 
BRANCH  38  39
HETATM   39  C30 UNL     1       8.925   8.236  16.153  1.00  0.00     0.103 C 
BRANCH  39  40
HETATM   40  C31 UNL     1       9.171   9.381  17.121  1.00  0.00     0.218 C 
HETATM   41  O7  UNL     1       8.431   9.665  18.054  1.00  0.00    -0.274 OA
HETATM   42  N2  UNL     1      10.325  10.082  16.836  1.00  0.00    -0.346 N 
HETATM   43  H45 UNL     1      10.656  10.029  15.879  1.00  0.00     0.163 HD
BRANCH  42  44
HETATM   44  C32 UNL     1      10.623  11.336  17.545  1.00  0.00     0.186 C 
BRANCH  44  45
HETATM   45  C33 UNL     1       9.373  12.221  17.592  1.00  0.00     0.074 C 
BRANCH  45  46
HETATM   46  C34 UNL     1       9.174  13.067  16.358  1.00  0.00    -0.056 A 
HETATM   47  C35 UNL     1       9.367  14.455  16.407  1.00  0.00     0.007 A 
HETATM   48  C36 UNL     1       9.166  15.237  15.269  1.00  0.00     0.001 A 
HETATM   49  C37 UNL     1       8.774  14.641  14.071  1.00  0.00     0.000 A 
HETATM   50  C38 UNL     1       8.582  13.263  14.011  1.00  0.00     0.001 A 
HETATM   51  C39 UNL     1       8.780  12.477  15.148  1.00  0.00     0.007 A 
ENDBRANCH  45  46
ENDBRANCH  44  45
BRANCH  44  52
HETATM   52  C40 UNL     1      11.050  10.957  18.961  1.00  0.00     0.163 C 
HETATM   53  O8  UNL     1      10.482  11.298  19.991  1.00  0.00    -0.648 OA
BRANCH  52  54
HETATM   54  O9  UNL     1      12.156  10.192  19.007  1.00  0.00    -0.775 OA
HETATM   55  H54 UNL     1      12.304  10.013  19.957  1.00  0.00     0.167 HD
ENDBRANCH  52  54
ENDBRANCH  44  52
ENDBRANCH  42  44
ENDBRANCH  39  40
ENDBRANCH  38  39
ENDBRANCH  37  38
ENDBRANCH  36  37
ENDBRANCH  35  36
ENDBRANCH  33  35
ENDBRANCH  30  31
ENDBRANCH  29  30
ENDBRANCH   1  29
TORSDOF 19
ENDMDL
MODEL 2
REMARK minimizedAffinity -8.16577911
REMARK CNNscore 0.300513089
REMARK CNNaffinity 6.80736303
REMARK  19 active torsions:
REMARK  status: ('A' for Active; 'I' for Inactive)
REMARK    1  A    between atoms: C19_20  and  O2_21 
REMARK    2  A    between atoms: C19_20  and  C20_22 
REMARK    3  A    between atoms: C20_22  and  C21_24 
REMARK    4  A    between atoms: C21_24  and  O4_25 
REMARK    5  A    between atoms: O4_25  and  C22_26 
REMARK    6  A    between atoms: C22_26  and  C23_28 
REMARK    7  A    between atoms: C23_28  and  C24_29 
REMARK    8  A    between atoms: C24_29  and  C25_30 
REMARK       I    between atoms: C25_30  and  N1_32 
REMARK    9  A    between atoms: N1_32  and  C26_33 
REMARK   10  A    between atoms: C26_33  and  C27_34 
REMARK   11  A    between atoms: C27_34  and  C28_35 
REMARK   12  A    between atoms: C28_35  and  C29_36 
REMARK   13  A    between atoms: C29_36  and  C30_37 
REMARK   14  A    between atoms: C30_37  and  C31_38 
REMARK       I    between atoms: C31_38  and  N2_40 
REMARK   15  A    between atoms: N2_40  and  C32_41 
REMARK   16  A    between atoms: C32_41  and  C33_42 
REMARK   17  A    between atoms: C32_41  and  C40_49 
REMARK   18  A    between atoms: C33_42  and  C34_43 
REMARK   19  A    between atoms: C40_49  and  O9_51 
ROOT
HETATM    1  C22 UNL     1       1.023  12.037  18.225  1.00  0.00     0.259 C 
HETATM    2  O5  UNL     1       0.361  12.961  18.683  1.00  0.00    -0.265 OA
ENDROOT
BRANCH   1   3
HETATM    3  O4  UNL     1       1.022  11.668  16.919  1.00  0.00    -0.314 OA
BRANCH   3   4
HETATM    4  C21 UNL     1       0.131  10.595  16.600  1.00  0.00     0.260 C 
BRANCH   4   5
HETATM    5  C20 UNL     1      -0.634  10.951  15.328  1.00  0.00     0.185 C 
HETATM    6  O3  UNL     1      -0.885  12.123  15.035  1.00  0.00    -0.292 OA
BRANCH   5   7
HETATM    7  C19 UNL     1      -1.173   9.780  14.476  1.00  0.00     0.128 C 
HETATM    8  C14 UNL     1      -2.466   9.072  15.002  1.00  0.00    -0.002 C 
HETATM    9  C13 UNL     1      -3.808   9.773  14.680  1.00  0.00     0.013 C 
HETATM   10  C15 UNL     1      -2.341   8.804  16.526  1.00  0.00     0.019 C 
HETATM   11  C16 UNL     1      -2.413   7.776  14.167  1.00  0.00     0.002 C 
HETATM   12  C12 UNL     1      -4.924   8.828  14.165  1.00  0.00     0.007 C 
HETATM   13  C11 UNL     1      -4.878   7.430  14.823  1.00  0.00     0.002 C 
HETATM   14  C2  UNL     1      -6.157   6.499  14.665  1.00  0.00    -0.016 C 
HETATM   15  C10 UNL     1      -3.508   6.737  14.493  1.00  0.00    -0.004 C 
HETATM   16  C1  UNL     1      -6.332   5.719  15.998  1.00  0.00     0.020 C 
HETATM   17  C3  UNL     1      -7.441   7.344  14.420  1.00  0.00     0.022 C 
HETATM   18  C7  UNL     1      -6.025   5.452  13.560  1.00  0.00    -0.068 C 
HETATM   19  C4  UNL     1      -8.675   6.511  14.100  1.00  0.00     0.084 C 
HETATM   20  C5  UNL     1      -8.400   5.637  12.904  1.00  0.00     0.149 C 
HETATM   21  O1  UNL     1      -9.277   5.314  12.108  1.00  0.00    -0.293 OA
HETATM   22  C6  UNL     1      -7.030   5.097  12.740  1.00  0.00     0.053 C 
HETATM   23  C8  UNL     1      -4.702   4.750  13.456  1.00  0.00     0.035 C 
HETATM   24  C9  UNL     1      -3.588   5.761  13.305  1.00  0.00     0.010 C 
HETATM   25  C17 UNL     1      -0.965   7.312  14.272  1.00  0.00     0.009 C 
HETATM   26  C18 UNL     1      -0.150   8.614  14.368  1.00  0.00     0.047 C 
BRANCH   7  27
HETATM   27  O2  UNL     1      -1.393  10.293  13.156  1.00  0.00    -0.381 OA
HETATM   28  H27 UNL     1      -0.524  10.525  12.778  1.00  0.00     0.211 HD
ENDBRANCH   7  27
ENDBRANCH   5   7
ENDBRANCH   4   5
ENDBRANCH   3   4
ENDBRANCH   1   3
BRANCH   1  29
HETATM   29  C23 UNL     1       1.848  11.095  19.073  1.00  0.00     0.120 C 
BRANCH  29  30
HETATM   30  C24 UNL     1       1.186  10.696  20.388  1.00  0.00     0.112 C 
BRANCH  30  31
HETATM   31  C25 UNL     1       2.190  10.159  21.388  1.00  0.00     0.217 C 
HETATM   32  O6  UNL     1       2.393   8.963  21.558  1.00  0.00    -0.274 OA
HETATM   33  N1  UNL     1       2.866  11.155  22.060  1.00  0.00    -0.361 N 
HETATM   34  H34 UNL     1       2.659  12.122  21.848  1.00  0.00     0.162 HD
BRANCH  33  35
HETATM   35  C26 UNL     1       3.975  10.866  22.947  1.00  0.00     0.122 C 
BRANCH  35  36
HETATM   36  C27 UNL     1       4.948  12.042  22.982  1.00  0.00     0.020 C 
BRANCH  36  37
HETATM   37  C28 UNL     1       6.410  11.620  23.149  1.00  0.00     0.002 C 
BRANCH  37  38
HETATM   38  C29 UNL     1       7.387  12.790  22.981  1.00  0.00     0.009 C 
BRANCH  38  39
HETATM   39  C30 UNL     1       8.846  12.332  22.971  1.00  0.00     0.103 C 
BRANCH  39  40
HETATM   40  C31 UNL     1       9.571  12.650  21.675  1.00  0.00     0.218 C 
HETATM   41  O7  UNL     1      10.157  13.702  21.452  1.00  0.00    -0.274 OA
HETATM   42  N2  UNL     1       9.496  11.622  20.756  1.00  0.00    -0.346 N 
HETATM   43  H45 UNL     1       8.716  10.983  20.862  1.00  0.00     0.163 HD
BRANCH  42  44
HETATM   44  C32 UNL     1       9.972  11.826  19.379  1.00  0.00     0.186 C 
BRANCH  44  45
HETATM   45  C33 UNL     1      11.413  11.324  19.242  1.00  0.00     0.074 C 
BRANCH  45  46
HETATM   46  C34 UNL     1      12.393  12.386  18.806  1.00  0.00    -0.056 A 
HETATM   47  C35 UNL     1      12.128  13.181  17.681  1.00  0.00     0.007 A 
HETATM   48  C36 UNL     1      13.043  14.151  17.269  1.00  0.00     0.001 A 
HETATM   49  C37 UNL     1      14.228  14.339  17.978  1.00  0.00     0.000 A 
HETATM   50  C38 UNL     1      14.500  13.557  19.098  1.00  0.00     0.001 A 
HETATM   51  C39 UNL     1      13.588  12.584  19.511  1.00  0.00     0.007 A 
ENDBRANCH  45  46
ENDBRANCH  44  45
BRANCH  44  52
HETATM   52  C40 UNL     1       9.049  11.024  18.465  1.00  0.00     0.163 C 
HETATM   53  O8  UNL     1       9.277  10.736  17.297  1.00  0.00    -0.648 OA
BRANCH  52  54
HETATM   54  O9  UNL     1       7.900  10.643  19.054  1.00  0.00    -0.775 OA
HETATM   55  H54 UNL     1       7.420  10.132  18.373  1.00  0.00     0.167 HD
ENDBRANCH  52  54
ENDBRANCH  44  52
ENDBRANCH  42  44
ENDBRANCH  39  40
ENDBRANCH  38  39
ENDBRANCH  37  38
ENDBRANCH  36  37
ENDBRANCH  35  36
ENDBRANCH  33  35
ENDBRANCH  30  31
ENDBRANCH  29  30
ENDBRANCH   1  29
TORSDOF 19
ENDMDL
MODEL 3
REMARK minimizedAffinity -9.23270226
REMARK CNNscore 0.298124969
REMARK CNNaffinity 7.03528929
REMARK  19 active torsions:
REMARK  status: ('A' for Active; 'I' for Inactive)
REMARK    1  A    between atoms: C19_20  and  O2_21 
REMARK    2  A    between atoms: C19_20  and  C20_22 
REMARK    3  A    between atoms: C20_22  and  C21_24 
REMARK    4  A    between atoms: C21_24  and  O4_25 
REMARK    5  A    between atoms: O4_25  and  C22_26 
REMARK    6  A    between atoms: C22_26  and  C23_28 
REMARK    7  A    between atoms: C23_28  and  C24_29 
REMARK    8  A    between atoms: C24_29  and  C25_30 
REMARK       I    between atoms: C25_30  and  N1_32 
REMARK    9  A    between atoms: N1_32  and  C26_33 
REMARK   10  A    between atoms: C26_33  and  C27_34 
REMARK   11  A    between atoms: C27_34  and  C28_35 
REMARK   12  A    between atoms: C28_35  and  C29_36 
REMARK   13  A    between atoms: C29_36  and  C30_37 
REMARK   14  A    between atoms: C30_37  and  C31_38 
REMARK       I    between atoms: C31_38  and  N2_40 
REMARK   15  A    between atoms: N2_40  and  C32_41 
REMARK   16  A    between atoms: C32_41  and  C33_42 
REMARK   17  A    between atoms: C32_41  and  C40_49 
REMARK   18  A    between atoms: C33_42  and  C34_43 
REMARK   19  A    between atoms: C40_49  and  O9_51 
ROOT
HETATM    1  C22 UNL     1       2.407   5.770  10.393  1.00  0.00     0.259 C 
HETATM    2  O5  UNL     1       2.508   5.427   9.221  1.00  0.00    -0.265 OA
ENDROOT
BRANCH   1   3
HETATM    3  O4  UNL     1       1.344   5.481  11.186  1.00  0.00    -0.314 OA
BRANCH   3   4
HETATM    4  C21 UNL     1       0.961   6.530  12.080  1.00  0.00     0.260 C 
BRANCH   4   5
HETATM    5  C20 UNL     1      -0.078   5.988  13.058  1.00  0.00     0.185 C 
HETATM    6  O3  UNL     1       0.175   5.854  14.258  1.00  0.00    -0.292 OA
BRANCH   5   7
HETATM    7  C19 UNL     1      -1.425   5.513  12.468  1.00  0.00     0.128 C 
HETATM    8  C14 UNL     1      -2.676   5.630  13.400  1.00  0.00    -0.002 C 
HETATM    9  C13 UNL     1      -3.337   7.028  13.485  1.00  0.00     0.013 C 
HETATM   10  C15 UNL     1      -2.331   5.103  14.819  1.00  0.00     0.019 C 
HETATM   11  C16 UNL     1      -3.653   4.704  12.646  1.00  0.00     0.002 C 
HETATM   12  C12 UNL     1      -4.884   7.018  13.384  1.00  0.00     0.007 C 
HETATM   13  C11 UNL     1      -5.522   5.778  14.053  1.00  0.00     0.002 C 
HETATM   14  C2  UNL     1      -7.084   5.820  14.342  1.00  0.00    -0.016 C 
HETATM   15  C10 UNL     1      -5.012   4.475  13.341  1.00  0.00    -0.004 C 
HETATM   16  C1  UNL     1      -7.327   5.093  15.695  1.00  0.00     0.020 C 
HETATM   17  C3  UNL     1      -7.594   7.285  14.474  1.00  0.00     0.022 C 
HETATM   18  C7  UNL     1      -7.924   5.088  13.296  1.00  0.00    -0.068 C 
HETATM   19  C4  UNL     1      -9.108   7.403  14.591  1.00  0.00     0.084 C 
HETATM   20  C5  UNL     1      -9.760   6.738  13.407  1.00  0.00     0.149 C 
HETATM   21  O1  UNL     1     -10.827   7.125  12.939  1.00  0.00    -0.293 OA
HETATM   22  C6  UNL     1      -9.113   5.529  12.846  1.00  0.00     0.053 C 
HETATM   23  C8  UNL     1      -7.394   3.769  12.814  1.00  0.00     0.035 C 
HETATM   24  C9  UNL     1      -5.989   3.937  12.280  1.00  0.00     0.010 C 
HETATM   25  C17 UNL     1      -2.827   3.467  12.314  1.00  0.00     0.009 C 
HETATM   26  C18 UNL     1      -1.402   4.003  12.095  1.00  0.00     0.047 C 
BRANCH   7  27
HETATM   27  O2  UNL     1      -1.636   6.258  11.262  1.00  0.00    -0.381 OA
HETATM   28  H27 UNL     1      -0.950   5.989  10.622  1.00  0.00     0.211 HD
ENDBRANCH   7  27
ENDBRANCH   5   7
ENDBRANCH   4   5
ENDBRANCH   3   4
ENDBRANCH   1   3
BRANCH   1  29
HETATM   29  C23 UNL     1       3.401   6.669  11.092  1.00  0.00     0.120 C 
BRANCH  29  30
HETATM   30  C24 UNL     1       4.640   6.995  10.264  1.00  0.00     0.112 C 
BRANCH  30  31
HETATM   31  C25 UNL     1       5.906   6.946  11.095  1.00  0.00     0.217 C 
HETATM   32  O6  UNL     1       7.026   6.863  10.605  1.00  0.00    -0.274 OA
HETATM   33  N1  UNL     1       5.665   7.028  12.449  1.00  0.00    -0.361 N 
HETATM   34  H34 UNL     1       4.711   7.117  12.776  1.00  0.00     0.162 HD
BRANCH  33  35
HETATM   35  C26 UNL     1       6.739   7.153  13.414  1.00  0.00     0.122 C 
BRANCH  35  36
HETATM   36  C27 UNL     1       7.203   8.604  13.509  1.00  0.00     0.020 C 
BRANCH  36  37
HETATM   37  C28 UNL     1       8.663   8.751  13.948  1.00  0.00     0.002 C 
BRANCH  37  38
HETATM   38  C29 UNL     1       8.812   8.919  15.464  1.00  0.00     0.009 C 
BRANCH  38  39
HETATM   39  C30 UNL     1       9.555  10.201  15.838  1.00  0.00     0.103 C 
BRANCH  39  40
HETATM   40  C31 UNL     1       9.768  10.364  17.333  1.00  0.00     0.218 C 
HETATM   41  O7  UNL     1       9.423   9.541  18.171  1.00  0.00    -0.274 OA
HETATM   42  N2  UNL     1      10.389  11.553  17.657  1.00  0.00    -0.346 N 
HETATM   43  H45 UNL     1      10.297  12.304  16.983  1.00  0.00     0.163 HD
BRANCH  42  44
HETATM   44  C32 UNL     1      10.502  11.968  19.064  1.00  0.00     0.186 C 
BRANCH  44  45
HETATM   45  C33 UNL     1       9.316  11.425  19.868  1.00  0.00     0.074 C 
BRANCH  45  46
HETATM   46  C34 UNL     1       8.689  12.437  20.796  1.00  0.00    -0.056 A 
HETATM   47  C35 UNL     1       7.327  12.356  21.122  1.00  0.00     0.007 A 
HETATM   48  C36 UNL     1       6.745  13.302  21.967  1.00  0.00     0.001 A 
HETATM   49  C37 UNL     1       7.517  14.334  22.497  1.00  0.00     0.000 A 
HETATM   50  C38 UNL     1       8.871  14.422  22.181  1.00  0.00     0.001 A 
HETATM   51  C39 UNL     1       9.456  13.480  21.334  1.00  0.00     0.007 A 
ENDBRANCH  45  46
ENDBRANCH  44  45
BRANCH  44  52
HETATM   52  C40 UNL     1      11.808  11.385  19.598  1.00  0.00     0.163 C 
HETATM   53  O8  UNL     1      12.493  11.871  20.489  1.00  0.00    -0.648 OA
BRANCH  52  54
HETATM   54  O9  UNL     1      12.185  10.249  18.983  1.00  0.00    -0.775 OA
HETATM   55  H54 UNL     1      13.014   9.981  19.428  1.00  0.00     0.167 HD
ENDBRANCH  52  54
ENDBRANCH  44  52
ENDBRANCH  42  44
ENDBRANCH  39  40
ENDBRANCH  38  39
ENDBRANCH  37  38
ENDBRANCH  36  37
ENDBRANCH  35  36
ENDBRANCH  33  35
ENDBRANCH  30  31
ENDBRANCH  29  30
ENDBRANCH   1  29
TORSDOF 19
ENDMDL
MODEL 4
REMARK minimizedAffinity -8.88466358
REMARK CNNscore 0.290178031
REMARK CNNaffinity 6.93023634
REMARK  19 active torsions:
REMARK  status: ('A' for Active; 'I' for Inactive)
REMARK    1  A    between atoms: C19_20  and  O2_21 
REMARK    2  A    between atoms: C19_20  and  C20_22 
REMARK    3  A    between atoms: C20_22  and  C21_24 
REMARK    4  A    between atoms: C21_24  and  O4_25 
REMARK    5  A    between atoms: O4_25  and  C22_26 
REMARK    6  A    between atoms: C22_26  and  C23_28 
REMARK    7  A    between atoms: C23_28  and  C24_29 
REMARK    8  A    between atoms: C24_29  and  C25_30 
REMARK       I    between atoms: C25_30  and  N1_32 
REMARK    9  A    between atoms: N1_32  and  C26_33 
REMARK   10  A    between atoms: C26_33  and  C27_34 
REMARK   11  A    between atoms: C27_34  and  C28_35 
REMARK   12  A    between atoms: C28_35  and  C29_36 
REMARK   13  A    between atoms: C29_36  and  C30_37 
REMARK   14  A    between atoms: C30_37  and  C31_38 
REMARK       I    between atoms: C31_38  and  N2_40 
REMARK   15  A    between atoms: N2_40  and  C32_41 
REMARK   16  A    between atoms: C32_41  and  C33_42 
REMARK   17  A    between atoms: C32_41  and  C40_49 
REMARK   18  A    between atoms: C33_42  and  C34_43 
REMARK   19  A    between atoms: C40_49  and  O9_51 
ROOT
HETATM    1  C22 UNL     1       3.244   7.651  13.358  1.00  0.00     0.259 C 
HETATM    2  O5  UNL     1       3.339   7.201  12.222  1.00  0.00    -0.265 OA
ENDROOT
BRANCH   1   3
HETATM    3  O4  UNL     1       2.243   7.347  14.220  1.00  0.00    -0.314 OA
BRANCH   3   4
HETATM    4  C21 UNL     1       1.186   6.562  13.659  1.00  0.00     0.260 C 
BRANCH   4   5
HETATM    5  C20 UNL     1      -0.057   7.438  13.519  1.00  0.00     0.185 C 
HETATM    6  O3  UNL     1      -0.093   8.582  13.979  1.00  0.00    -0.292 OA
BRANCH   5   7
HETATM    7  C19 UNL     1      -1.305   6.796  12.873  1.00  0.00     0.128 C 
HETATM    8  C14 UNL     1      -2.581   6.691  13.773  1.00  0.00    -0.002 C 
HETATM    9  C13 UNL     1      -3.443   7.972  13.891  1.00  0.00     0.013 C 
HETATM   10  C15 UNL     1      -2.194   6.162  15.181  1.00  0.00     0.019 C 
HETATM   11  C16 UNL     1      -3.393   5.663  12.958  1.00  0.00     0.002 C 
HETATM   12  C12 UNL     1      -4.968   7.740  13.745  1.00  0.00     0.007 C 
HETATM   13  C11 UNL     1      -5.432   6.394  14.349  1.00  0.00     0.002 C 
HETATM   14  C2  UNL     1      -6.990   6.195  14.595  1.00  0.00    -0.016 C 
HETATM   15  C10 UNL     1      -4.720   5.210  13.605  1.00  0.00    -0.004 C 
HETATM   16  C1  UNL     1      -7.153   5.386  15.912  1.00  0.00     0.020 C 
HETATM   17  C3  UNL     1      -7.712   7.563  14.767  1.00  0.00     0.022 C 
HETATM   18  C7  UNL     1      -7.688   5.391  13.499  1.00  0.00    -0.068 C 
HETATM   19  C4  UNL     1      -9.229   7.454  14.844  1.00  0.00     0.084 C 
HETATM   20  C5  UNL     1      -9.749   6.750  13.619  1.00  0.00     0.149 C 
HETATM   21  O1  UNL     1     -10.851   6.995  13.135  1.00  0.00    -0.293 OA
HETATM   22  C6  UNL     1      -8.919   5.672  13.032  1.00  0.00     0.053 C 
HETATM   23  C8  UNL     1      -6.959   4.185  12.984  1.00  0.00     0.035 C 
HETATM   24  C9  UNL     1      -5.583   4.579  12.497  1.00  0.00     0.010 C 
HETATM   25  C17 UNL     1      -2.387   4.575  12.603  1.00  0.00     0.009 C 
HETATM   26  C18 UNL     1      -1.051   5.322  12.446  1.00  0.00     0.047 C 
BRANCH   7  27
HETATM   27  O2  UNL     1      -1.596   7.550  11.690  1.00  0.00    -0.381 OA
HETATM   28  H27 UNL     1      -0.864   7.411  11.060  1.00  0.00     0.211 HD
ENDBRANCH   7  27
ENDBRANCH   5   7
ENDBRANCH   4   5
ENDBRANCH   3   4
ENDBRANCH   1   3
BRANCH   1  29
HETATM   29  C23 UNL     1       4.167   8.708  13.920  1.00  0.00     0.120 C 
BRANCH  29  30
HETATM   30  C24 UNL     1       5.047   8.224  15.068  1.00  0.00     0.112 C 
BRANCH  30  31
HETATM   31  C25 UNL     1       6.521   8.340  14.741  1.00  0.00     0.217 C 
HETATM   32  O6  UNL     1       6.939   8.714  13.651  1.00  0.00    -0.274 OA
HETATM   33  N1  UNL     1       7.336   8.008  15.802  1.00  0.00    -0.361 N 
HETATM   34  H34 UNL     1       6.916   7.730  16.679  1.00  0.00     0.162 HD
BRANCH  33  35
HETATM   35  C26 UNL     1       8.773   8.196  15.755  1.00  0.00     0.122 C 
BRANCH  35  36
HETATM   36  C27 UNL     1       9.261   8.882  17.029  1.00  0.00     0.020 C 
BRANCH  36  37
HETATM   37  C28 UNL     1       8.935  10.376  17.082  1.00  0.00     0.002 C 
BRANCH  37  38
HETATM   38  C29 UNL     1       8.435  10.825  18.460  1.00  0.00     0.009 C 
BRANCH  38  39
HETATM   39  C30 UNL     1       9.575  11.269  19.377  1.00  0.00     0.103 C 
BRANCH  39  40
HETATM   40  C31 UNL     1       9.101  11.990  20.627  1.00  0.00     0.218 C 
HETATM   41  O7  UNL     1       9.454  11.702  21.764  1.00  0.00    -0.274 OA
HETATM   42  N2  UNL     1       8.215  13.011  20.350  1.00  0.00    -0.346 N 
HETATM   43  H45 UNL     1       7.708  12.938  19.475  1.00  0.00     0.163 HD
BRANCH  42  44
HETATM   44  C32 UNL     1       7.505  13.691  21.445  1.00  0.00     0.186 C 
BRANCH  44  45
HETATM   45  C33 UNL     1       7.304  12.726  22.618  1.00  0.00     0.074 C 
BRANCH  45  46
HETATM   46  C34 UNL     1       5.869  12.307  22.828  1.00  0.00    -0.056 A 
HETATM   47  C35 UNL     1       5.532  10.949  22.932  1.00  0.00     0.007 A 
HETATM   48  C36 UNL     1       4.203  10.562  23.109  1.00  0.00     0.001 A 
HETATM   49  C37 UNL     1       3.199  11.526  23.189  1.00  0.00     0.000 A 
HETATM   50  C38 UNL     1       3.524  12.877  23.089  1.00  0.00     0.001 A 
HETATM   51  C39 UNL     1       4.852  13.268  22.909  1.00  0.00     0.007 A 
ENDBRANCH  45  46
ENDBRANCH  44  45
BRANCH  44  52
HETATM   52  C40 UNL     1       8.375  14.868  21.877  1.00  0.00     0.163 C 
HETATM   53  O8  UNL     1       8.063  16.050  21.802  1.00  0.00    -0.648 OA
BRANCH  52  54
HETATM   54  O9  UNL     1       9.578  14.504  22.360  1.00  0.00    -0.775 OA
HETATM   55  H54 UNL     1      10.017  15.342  22.610  1.00  0.00     0.167 HD
ENDBRANCH  52  54
ENDBRANCH  44  52
ENDBRANCH  42  44
ENDBRANCH  39  40
ENDBRANCH  38  39
ENDBRANCH  37  38
ENDBRANCH  36  37
ENDBRANCH  35  36
ENDBRANCH  33  35
ENDBRANCH  30  31
ENDBRANCH  29  30
ENDBRANCH   1  29
TORSDOF 19
ENDMDL
MODEL 5
REMARK minimizedAffinity -9.19616032
REMARK CNNscore 0.276454061
REMARK CNNaffinity 6.81577826
REMARK  19 active torsions:
REMARK  status: ('A' for Active; 'I' for Inactive)
REMARK    1  A    between atoms: C19_20  and  O2_21 
REMARK    2  A    between atoms: C19_20  and  C20_22 
REMARK    3  A    between atoms: C20_22  and  C21_24 
REMARK    4  A    between atoms: C21_24  and  O4_25 
REMARK    5  A    between atoms: O4_25  and  C22_26 
REMARK    6  A    between atoms: C22_26  and  C23_28 
REMARK    7  A    between atoms: C23_28  and  C24_29 
REMARK    8  A    between atoms: C24_29  and  C25_30 
REMARK       I    between atoms: C25_30  and  N1_32 
REMARK    9  A    between atoms: N1_32  and  C26_33 
REMARK   10  A    between atoms: C26_33  and  C27_34 
REMARK   11  A    between atoms: C27_34  and  C28_35 
REMARK   12  A    between atoms: C28_35  and  C29_36 
REMARK   13  A    between atoms: C29_36  and  C30_37 
REMARK   14  A    between atoms: C30_37  and  C31_38 
REMARK       I    between atoms: C31_38  and  N2_40 
REMARK   15  A    between atoms: N2_40  and  C32_41 
REMARK   16  A    between atoms: C32_41  and  C33_42 
REMARK   17  A    between atoms: C32_41  and  C40_49 
REMARK   18  A    between atoms: C33_42  and  C34_43 
REMARK   19  A    between atoms: C40_49  and  O9_51 
ROOT
HETATM    1  C22 UNL     1       5.165   7.019  11.179  1.00  0.00     0.259 C 
HETATM    2  O5  UNL     1       5.005   6.205  10.278  1.00  0.00    -0.265 OA
ENDROOT
BRANCH   1   3
HETATM    3  O4  UNL     1       4.180   7.801  11.687  1.00  0.00    -0.314 OA
BRANCH   3   4
HETATM    4  C21 UNL     1       3.065   7.086  12.229  1.00  0.00     0.260 C 
BRANCH   4   5
HETATM    5  C20 UNL     1       1.780   7.820  11.853  1.00  0.00     0.185 C 
HETATM    6  O3  UNL     1       1.714   9.052  11.870  1.00  0.00    -0.292 OA
BRANCH   5   7
HETATM    7  C19 UNL     1       0.535   6.956  11.553  1.00  0.00     0.128 C 
HETATM    8  C14 UNL     1      -0.591   6.953  12.640  1.00  0.00    -0.002 C 
HETATM    9  C13 UNL     1      -1.564   8.157  12.620  1.00  0.00     0.013 C 
HETATM   10  C15 UNL     1       0.034   6.780  14.051  1.00  0.00     0.019 C 
HETATM   11  C16 UNL     1      -1.387   5.711  12.190  1.00  0.00     0.002 C 
HETATM   12  C12 UNL     1      -3.061   7.781  12.761  1.00  0.00     0.007 C 
HETATM   13  C11 UNL     1      -3.290   6.570  13.695  1.00  0.00     0.002 C 
HETATM   14  C2  UNL     1      -4.771   6.310  14.213  1.00  0.00    -0.016 C 
HETATM   15  C10 UNL     1      -2.559   5.310  13.112  1.00  0.00    -0.004 C 
HETATM   16  C1  UNL     1      -4.669   5.802  15.678  1.00  0.00     0.020 C 
HETATM   17  C3  UNL     1      -5.609   7.621  14.206  1.00  0.00     0.022 C 
HETATM   18  C7  UNL     1      -5.517   5.232  13.428  1.00  0.00    -0.068 C 
HETATM   19  C4  UNL     1      -7.081   7.414  14.536  1.00  0.00     0.084 C 
HETATM   20  C5  UNL     1      -7.680   6.418  13.577  1.00  0.00     0.149 C 
HETATM   21  O1  UNL     1      -8.856   6.463  13.228  1.00  0.00    -0.293 OA
HETATM   22  C6  UNL     1      -6.822   5.306  13.107  1.00  0.00     0.053 C 
HETATM   23  C8  UNL     1      -4.735   4.001  13.068  1.00  0.00     0.035 C 
HETATM   24  C9  UNL     1      -3.487   4.384  12.306  1.00  0.00     0.010 C 
HETATM   25  C17 UNL     1      -0.325   4.653  11.919  1.00  0.00     0.009 C 
HETATM   26  C18 UNL     1       0.889   5.448  11.407  1.00  0.00     0.047 C 
BRANCH   7  27
HETATM   27  O2  UNL     1       0.009   7.405  10.298  1.00  0.00    -0.381 OA
HETATM   28  H27 UNL     1       0.662   7.188   9.607  1.00  0.00     0.211 HD
ENDBRANCH   7  27
ENDBRANCH   5   7
ENDBRANCH   4   5
ENDBRANCH   3   4
ENDBRANCH   1   3
BRANCH   1  29
HETATM   29  C23 UNL     1       6.513   7.354  11.777  1.00  0.00     0.120 C 
BRANCH  29  30
HETATM   30  C24 UNL     1       6.608   7.116  13.280  1.00  0.00     0.112 C 
BRANCH  30  31
HETATM   31  C25 UNL     1       7.893   7.669  13.862  1.00  0.00     0.217 C 
HETATM   32  O6  UNL     1       8.851   8.004  13.174  1.00  0.00    -0.274 OA
HETATM   33  N1  UNL     1       7.859   7.777  15.235  1.00  0.00    -0.361 N 
HETATM   34  H34 UNL     1       7.022   7.500  15.732  1.00  0.00     0.162 HD
BRANCH  33  35
HETATM   35  C26 UNL     1       8.921   8.423  15.981  1.00  0.00     0.122 C 
BRANCH  35  36
HETATM   36  C27 UNL     1       9.175   9.827  15.439  1.00  0.00     0.020 C 
BRANCH  36  37
HETATM   37  C28 UNL     1       9.541  10.844  16.523  1.00  0.00     0.002 C 
BRANCH  37  38
HETATM   38  C29 UNL     1       8.315  11.386  17.266  1.00  0.00     0.009 C 
BRANCH  38  39
HETATM   39  C30 UNL     1       8.190  10.814  18.678  1.00  0.00     0.103 C 
BRANCH  39  40
HETATM   40  C31 UNL     1       7.520  11.761  19.658  1.00  0.00     0.218 C 
HETATM   41  O7  UNL     1       6.385  12.202  19.523  1.00  0.00    -0.274 OA
HETATM   42  N2  UNL     1       8.330  12.085  20.727  1.00  0.00    -0.346 N 
HETATM   43  H45 UNL     1       9.329  11.992  20.575  1.00  0.00     0.163 HD
BRANCH  42  44
HETATM   44  C32 UNL     1       7.923  13.137  21.672  1.00  0.00     0.186 C 
BRANCH  44  45
HETATM   45  C33 UNL     1       7.405  12.506  22.968  1.00  0.00     0.074 C 
BRANCH  45  46
HETATM   46  C34 UNL     1       5.909  12.309  23.000  1.00  0.00    -0.056 A 
HETATM   47  C35 UNL     1       5.045  13.414  22.995  1.00  0.00     0.007 A 
HETATM   48  C36 UNL     1       3.663  13.231  23.042  1.00  0.00     0.001 A 
HETATM   49  C37 UNL     1       3.129  11.944  23.089  1.00  0.00     0.000 A 
HETATM   50  C38 UNL     1       3.978  10.840  23.091  1.00  0.00     0.001 A 
HETATM   51  C39 UNL     1       5.362  11.019  23.048  1.00  0.00     0.007 A 
ENDBRANCH  45  46
ENDBRANCH  44  45
BRANCH  44  52
HETATM   52  C40 UNL     1       9.160  13.983  21.958  1.00  0.00     0.163 C 
HETATM   53  O8  UNL     1      10.193  13.979  21.300  1.00  0.00    -0.648 OA
BRANCH  52  54
HETATM   54  O9  UNL     1       9.042  14.765  23.047  1.00  0.00    -0.775 OA
HETATM   55  H54 UNL     1       9.886  15.256  23.102  1.00  0.00     0.167 HD
ENDBRANCH  52  54
ENDBRANCH  44  52
ENDBRANCH  42  44
ENDBRANCH  39  40
ENDBRANCH  38  39
ENDBRANCH  37  38
ENDBRANCH  36  37
ENDBRANCH  35  36
ENDBRANCH  33  35
ENDBRANCH  30  31
ENDBRANCH  29  30
ENDBRANCH   1  29
TORSDOF 19
ENDMDL
MODEL 6
REMARK minimizedAffinity -9.14906693
REMARK CNNscore 0.224094346
REMARK CNNaffinity 6.66597795
REMARK  19 active torsions:
REMARK  status: ('A' for Active; 'I' for Inactive)
REMARK    1  A    between atoms: C19_20  and  O2_21 
REMARK    2  A    between atoms: C19_20  and  C20_22 
REMARK    3  A    between atoms: C20_22  and  C21_24 
REMARK    4  A    between atoms: C21_24  and  O4_25 
REMARK    5  A    between atoms: O4_25  and  C22_26 
REMARK    6  A    between atoms: C22_26  and  C23_28 
REMARK    7  A    between atoms: C23_28  and  C24_29 
REMARK    8  A    between atoms: C24_29  and  C25_30 
REMARK       I    between atoms: C25_30  and  N1_32 
REMARK    9  A    between atoms: N1_32  and  C26_33 
REMARK   10  A    between atoms: C26_33  and  C27_34 
REMARK   11  A    between atoms: C27_34  and  C28_35 
REMARK   12  A    between atoms: C28_35  and  C29_36 
REMARK   13  A    between atoms: C29_36  and  C30_37 
REMARK   14  A    between atoms: C30_37  and  C31_38 
REMARK       I    between atoms: C31_38  and  N2_40 
REMARK   15  A    between atoms: N2_40  and  C32_41 
REMARK   16  A    between atoms: C32_41  and  C33_42 
REMARK   17  A    between atoms: C32_41  and  C40_49 
REMARK   18  A    between atoms: C33_42  and  C34_43 
REMARK   19  A    between atoms: C40_49  and  O9_51 
ROOT
HETATM    1  C22 UNL     1       5.501   7.370  11.595  1.00  0.00     0.259 C 
HETATM    2  O5  UNL     1       6.196   7.262  10.592  1.00  0.00    -0.265 OA
ENDROOT
BRANCH   1   3
HETATM    3  O4  UNL     1       4.215   6.949  11.684  1.00  0.00    -0.314 OA
BRANCH   3   4
HETATM    4  C21 UNL     1       3.382   7.330  10.584  1.00  0.00     0.260 C 
BRANCH   4   5
HETATM    5  C20 UNL     1       2.077   7.903  11.131  1.00  0.00     0.185 C 
HETATM    6  O3  UNL     1       2.052   8.964  11.759  1.00  0.00    -0.292 OA
BRANCH   5   7
HETATM    7  C19 UNL     1       0.802   7.047  10.957  1.00  0.00     0.128 C 
HETATM    8  C14 UNL     1      -0.202   7.038  12.157  1.00  0.00    -0.002 C 
HETATM    9  C13 UNL     1      -1.166   8.247  12.251  1.00  0.00     0.013 C 
HETATM   10  C15 UNL     1       0.569   6.850  13.492  1.00  0.00     0.019 C 
HETATM   11  C16 UNL     1      -1.048   5.804  11.783  1.00  0.00     0.002 C 
HETATM   12  C12 UNL     1      -2.641   7.875  12.547  1.00  0.00     0.007 C 
HETATM   13  C11 UNL     1      -2.776   6.657  13.490  1.00  0.00     0.002 C 
HETATM   14  C2  UNL     1      -4.195   6.397  14.159  1.00  0.00    -0.016 C 
HETATM   15  C10 UNL     1      -2.117   5.399  12.821  1.00  0.00    -0.004 C 
HETATM   16  C1  UNL     1      -3.940   5.876  15.601  1.00  0.00     0.020 C 
HETATM   17  C3  UNL     1      -5.023   7.713  14.252  1.00  0.00     0.022 C 
HETATM   18  C7  UNL     1      -5.025   5.330  13.448  1.00  0.00    -0.068 C 
HETATM   19  C4  UNL     1      -6.452   7.508  14.735  1.00  0.00     0.084 C 
HETATM   20  C5  UNL     1      -7.154   6.524  13.837  1.00  0.00     0.149 C 
HETATM   21  O1  UNL     1      -8.360   6.577  13.614  1.00  0.00    -0.293 OA
HETATM   22  C6  UNL     1      -6.357   5.412  13.268  1.00  0.00     0.053 C 
HETATM   23  C8  UNL     1      -4.292   4.100  12.997  1.00  0.00     0.035 C 
HETATM   24  C9  UNL     1      -3.130   4.484  12.110  1.00  0.00     0.010 C 
HETATM   25  C17 UNL     1      -0.026   4.744  11.392  1.00  0.00     0.009 C 
HETATM   26  C18 UNL     1       1.131   5.538  10.761  1.00  0.00     0.047 C 
BRANCH   7  27
HETATM   27  O2  UNL     1       0.148   7.509   9.769  1.00  0.00    -0.381 OA
HETATM   28  H27 UNL     1       0.723   7.296   9.010  1.00  0.00     0.211 HD
ENDBRANCH   7  27
ENDBRANCH   5   7
ENDBRANCH   4   5
ENDBRANCH   3   4
ENDBRANCH   1   3
BRANCH   1  29
HETATM   29  C23 UNL     1       5.941   8.100  12.845  1.00  0.00     0.120 C 
BRANCH  29  30
HETATM   30  C24 UNL     1       6.712   7.234  13.836  1.00  0.00     0.112 C 
BRANCH  30  31
HETATM   31  C25 UNL     1       7.007   7.973  15.125  1.00  0.00     0.217 C 
HETATM   32  O6  UNL     1       6.131   8.401  15.868  1.00  0.00    -0.274 OA
HETATM   33  N1  UNL     1       8.355   8.090  15.382  1.00  0.00    -0.361 N 
HETATM   34  H34 UNL     1       9.019   7.691  14.730  1.00  0.00     0.162 HD
BRANCH  33  35
HETATM   35  C26 UNL     1       8.856   8.625  16.633  1.00  0.00     0.122 C 
BRANCH  35  36
HETATM   36  C27 UNL     1       8.975  10.145  16.552  1.00  0.00     0.020 C 
BRANCH  36  37
HETATM   37  C28 UNL     1       9.950  10.737  17.572  1.00  0.00     0.002 C 
BRANCH  37  38
HETATM   38  C29 UNL     1       9.275  11.089  18.903  1.00  0.00     0.009 C 
BRANCH  38  39
HETATM   39  C30 UNL     1      10.285  11.480  19.982  1.00  0.00     0.103 C 
BRANCH  39  40
HETATM   40  C31 UNL     1       9.661  12.212  21.158  1.00  0.00     0.218 C 
HETATM   41  O7  UNL     1      10.187  12.321  22.259  1.00  0.00    -0.274 OA
HETATM   42  N2  UNL     1       8.422  12.742  20.860  1.00  0.00    -0.346 N 
HETATM   43  H45 UNL     1       7.920  12.303  20.096  1.00  0.00     0.163 HD
BRANCH  42  44
HETATM   44  C32 UNL     1       7.587  13.315  21.928  1.00  0.00     0.186 C 
BRANCH  44  45
HETATM   45  C33 UNL     1       7.259  12.241  22.970  1.00  0.00     0.074 C 
BRANCH  45  46
HETATM   46  C34 UNL     1       5.802  11.848  23.008  1.00  0.00    -0.056 A 
HETATM   47  C35 UNL     1       5.431  10.498  23.091  1.00  0.00     0.007 A 
HETATM   48  C36 UNL     1       4.084  10.135  23.109  1.00  0.00     0.001 A 
HETATM   49  C37 UNL     1       3.095  11.115  23.048  1.00  0.00     0.000 A 
HETATM   50  C38 UNL     1       3.453  12.459  22.968  1.00  0.00     0.001 A 
HETATM   51  C39 UNL     1       4.799  12.826  22.946  1.00  0.00     0.007 A 
ENDBRANCH  45  46
ENDBRANCH  44  45
BRANCH  44  52
HETATM   52  C40 UNL     1       8.395  14.439  22.570  1.00  0.00     0.163 C 
HETATM   53  O8  UNL     1       8.763  15.463  22.007  1.00  0.00    -0.648 OA
BRANCH  52  54
HETATM   54  O9  UNL     1       8.704  14.216  23.861  1.00  0.00    -0.775 OA
HETATM   55  H54 UNL     1       9.199  15.009  24.147  1.00  0.00     0.167 HD
ENDBRANCH  52  54
ENDBRANCH  44  52
ENDBRANCH  42  44
ENDBRANCH  39  40
ENDBRANCH  38  39
ENDBRANCH  37  38
ENDBRANCH  36  37
ENDBRANCH  35  36
ENDBRANCH  33  35
ENDBRANCH  30  31
ENDBRANCH  29  30
ENDBRANCH   1  29
TORSDOF 19
ENDMDL
MODEL 7
REMARK minimizedAffinity -8.36031532
REMARK CNNscore 0.215640366
REMARK CNNaffinity 6.90287161
REMARK  19 active torsions:
REMARK  status: ('A' for Active; 'I' for Inactive)
REMARK    1  A    between atoms: C19_20  and  O2_21 
REMARK    2  A    between atoms: C19_20  and  C20_22 
REMARK    3  A    between atoms: C20_22  and  C21_24 
REMARK    4  A    between atoms: C21_24  and  O4_25 
REMARK    5  A    between atoms: O4_25  and  C22_26 
REMARK    6  A    between atoms: C22_26  and  C23_28 
REMARK    7  A    between atoms: C23_28  and  C24_29 
REMARK    8  A    between atoms: C24_29  and  C25_30 
REMARK       I    between atoms: C25_30  and  N1_32 
REMARK    9  A    between atoms: N1_32  and  C26_33 
REMARK   10  A    between atoms: C26_33  and  C27_34 
REMARK   11  A    between atoms: C27_34  and  C28_35 
REMARK   12  A    between atoms: C28_35  and  C29_36 
REMARK   13  A    between atoms: C29_36  and  C30_37 
REMARK   14  A    between atoms: C30_37  and  C31_38 
REMARK       I    between atoms: C31_38  and  N2_40 
REMARK   15  A    between atoms: N2_40  and  C32_41 
REMARK   16  A    between atoms: C32_41  and  C33_42 
REMARK   17  A    between atoms: C32_41  and  C40_49 
REMARK   18  A    between atoms: C33_42  and  C34_43 
REMARK   19  A    between atoms: C40_49  and  O9_51 
ROOT
HETATM    1  C22 UNL     1       1.110  12.060  18.166  1.00  0.00     0.259 C 
HETATM    2  O5  UNL     1       0.419  12.957  18.635  1.00  0.00    -0.265 OA
ENDROOT
BRANCH   1   3
HETATM    3  O4  UNL     1       1.176  11.756  16.846  1.00  0.00    -0.314 OA
BRANCH   3   4
HETATM    4  C21 UNL     1       0.456  10.579  16.465  1.00  0.00     0.260 C 
BRANCH   4   5
HETATM    5  C20 UNL     1      -0.614  10.965  15.445  1.00  0.00     0.185 C 
HETATM    6  O3  UNL     1      -1.056  12.114  15.380  1.00  0.00    -0.292 OA
BRANCH   5   7
HETATM    7  C19 UNL     1      -1.196   9.833  14.569  1.00  0.00     0.128 C 
HETATM    8  C14 UNL     1      -2.487   9.129  15.106  1.00  0.00    -0.002 C 
HETATM    9  C13 UNL     1      -3.825   9.863  14.845  1.00  0.00     0.013 C 
HETATM   10  C15 UNL     1      -2.326   8.807  16.617  1.00  0.00     0.019 C 
HETATM   11  C16 UNL     1      -2.478   7.861  14.227  1.00  0.00     0.002 C 
HETATM   12  C12 UNL     1      -4.970   8.955  14.328  1.00  0.00     0.007 C 
HETATM   13  C11 UNL     1      -4.931   7.534  14.937  1.00  0.00     0.002 C 
HETATM   14  C2  UNL     1      -6.230   6.631  14.783  1.00  0.00    -0.016 C 
HETATM   15  C10 UNL     1      -3.583   6.831  14.547  1.00  0.00    -0.004 C 
HETATM   16  C1  UNL     1      -6.383   5.809  16.093  1.00  0.00     0.020 C 
HETATM   17  C3  UNL     1      -7.505   7.505  14.601  1.00  0.00     0.022 C 
HETATM   18  C7  UNL     1      -6.146   5.620  13.640  1.00  0.00    -0.068 C 
HETATM   19  C4  UNL     1      -8.762   6.704  14.286  1.00  0.00     0.084 C 
HETATM   20  C5  UNL     1      -8.534   5.868  13.055  1.00  0.00     0.149 C 
HETATM   21  O1  UNL     1      -9.437   5.586  12.272  1.00  0.00    -0.293 OA
HETATM   22  C6  UNL     1      -7.179   5.310  12.835  1.00  0.00     0.053 C 
HETATM   23  C8  UNL     1      -4.838   4.900  13.477  1.00  0.00     0.035 C 
HETATM   24  C9  UNL     1      -3.711   5.897  13.330  1.00  0.00     0.010 C 
HETATM   25  C17 UNL     1      -1.037   7.370  14.278  1.00  0.00     0.009 C 
HETATM   26  C18 UNL     1      -0.196   8.654  14.395  1.00  0.00     0.047 C 
BRANCH   7  27
HETATM   27  O2  UNL     1      -1.441  10.393  13.274  1.00  0.00    -0.381 OA
HETATM   28  H27 UNL     1      -0.578  10.623  12.881  1.00  0.00     0.211 HD
ENDBRANCH   7  27
ENDBRANCH   5   7
ENDBRANCH   4   5
ENDBRANCH   3   4
ENDBRANCH   1   3
BRANCH   1  29
HETATM   29  C23 UNL     1       1.899  11.082  19.007  1.00  0.00     0.120 C 
BRANCH  29  30
HETATM   30  C24 UNL     1       1.204  10.667  20.300  1.00  0.00     0.112 C 
BRANCH  30  31
HETATM   31  C25 UNL     1       2.189  10.169  21.338  1.00  0.00     0.217 C 
HETATM   32  O6  UNL     1       2.350   8.981  21.594  1.00  0.00    -0.274 OA
HETATM   33  N1  UNL     1       2.898  11.186  21.939  1.00  0.00    -0.361 N 
HETATM   34  H34 UNL     1       2.724  12.143  21.658  1.00  0.00     0.162 HD
BRANCH  33  35
HETATM   35  C26 UNL     1       3.996  10.924  22.848  1.00  0.00     0.122 C 
BRANCH  35  36
HETATM   36  C27 UNL     1       4.931  12.129  22.914  1.00  0.00     0.020 C 
BRANCH  36  37
HETATM   37  C28 UNL     1       6.409  11.751  23.034  1.00  0.00     0.002 C 
BRANCH  37  38
HETATM   38  C29 UNL     1       7.338  12.970  23.008  1.00  0.00     0.009 C 
BRANCH  38  39
HETATM   39  C30 UNL     1       8.812  12.583  23.134  1.00  0.00     0.103 C 
BRANCH  39  40
HETATM   40  C31 UNL     1       9.600  12.776  21.850  1.00  0.00     0.218 C 
HETATM   41  O7  UNL     1      10.169  13.815  21.541  1.00  0.00    -0.274 OA
HETATM   42  N2  UNL     1       9.604  11.650  21.052  1.00  0.00    -0.346 N 
HETATM   43  H45 UNL     1       8.836  11.002  21.189  1.00  0.00     0.163 HD
BRANCH  42  44
HETATM   44  C32 UNL     1      10.151  11.713  19.688  1.00  0.00     0.186 C 
BRANCH  44  45
HETATM   45  C33 UNL     1       9.968  13.122  19.114  1.00  0.00     0.074 C 
BRANCH  45  46
HETATM   46  C34 UNL     1       9.200  13.160  17.814  1.00  0.00    -0.056 A 
HETATM   47  C35 UNL     1       7.822  13.420  17.809  1.00  0.00     0.007 A 
HETATM   48  C36 UNL     1       7.111  13.438  16.608  1.00  0.00     0.001 A 
HETATM   49  C37 UNL     1       7.769  13.201  15.403  1.00  0.00     0.000 A 
HETATM   50  C38 UNL     1       9.138  12.943  15.397  1.00  0.00     0.001 A 
HETATM   51  C39 UNL     1       9.852  12.921  16.596  1.00  0.00     0.007 A 
ENDBRANCH  45  46
ENDBRANCH  44  45
BRANCH  44  52
HETATM   52  C40 UNL     1      11.637  11.377  19.787  1.00  0.00     0.163 C 
HETATM   53  O8  UNL     1      12.469  12.010  20.424  1.00  0.00    -0.648 OA
BRANCH  52  54
HETATM   54  O9  UNL     1      11.994  10.288  19.081  1.00  0.00    -0.775 OA
HETATM   55  H54 UNL     1      12.952  10.180  19.246  1.00  0.00     0.167 HD
ENDBRANCH  52  54
ENDBRANCH  44  52
ENDBRANCH  42  44
ENDBRANCH  39  40
ENDBRANCH  38  39
ENDBRANCH  37  38
ENDBRANCH  36  37
ENDBRANCH  35  36
ENDBRANCH  33  35
ENDBRANCH  30  31
ENDBRANCH  29  30
ENDBRANCH   1  29
TORSDOF 19
ENDMDL
MODEL 8
REMARK minimizedAffinity -8.94930935
REMARK CNNscore 0.208755225
REMARK CNNaffinity 6.23025274
REMARK  19 active torsions:
REMARK  status: ('A' for Active; 'I' for Inactive)
REMARK    1  A    between atoms: C19_20  and  O2_21 
REMARK    2  A    between atoms: C19_20  and  C20_22 
REMARK    3  A    between atoms: C20_22  and  C21_24 
REMARK    4  A    between atoms: C21_24  and  O4_25 
REMARK    5  A    between atoms: O4_25  and  C22_26 
REMARK    6  A    between atoms: C22_26  and  C23_28 
REMARK    7  A    between atoms: C23_28  and  C24_29 
REMARK    8  A    between atoms: C24_29  and  C25_30 
REMARK       I    between atoms: C25_30  and  N1_32 
REMARK    9  A    between atoms: N1_32  and  C26_33 
REMARK   10  A    between atoms: C26_33  and  C27_34 
REMARK   11  A    between atoms: C27_34  and  C28_35 
REMARK   12  A    between atoms: C28_35  and  C29_36 
REMARK   13  A    between atoms: C29_36  and  C30_37 
REMARK   14  A    between atoms: C30_37  and  C31_38 
REMARK       I    between atoms: C31_38  and  N2_40 
REMARK   15  A    between atoms: N2_40  and  C32_41 
REMARK   16  A    between atoms: C32_41  and  C33_42 
REMARK   17  A    between atoms: C32_41  and  C40_49 
REMARK   18  A    between atoms: C33_42  and  C34_43 
REMARK   19  A    between atoms: C40_49  and  O9_51 
ROOT
HETATM    1  C22 UNL     1      -3.224   9.505  16.468  1.00  0.00     0.259 C 
HETATM    2  O5  UNL     1      -4.366   9.520  16.025  1.00  0.00    -0.265 OA
ENDROOT
BRANCH   1   3
HETATM    3  O4  UNL     1      -2.535   8.376  16.771  1.00  0.00    -0.314 OA
BRANCH   3   4
HETATM    4  C21 UNL     1      -1.509   8.031  15.836  1.00  0.00     0.260 C 
BRANCH   4   5
HETATM    5  C20 UNL     1      -2.046   6.963  14.887  1.00  0.00     0.185 C 
HETATM    6  O3  UNL     1      -2.612   5.952  15.310  1.00  0.00    -0.292 OA
BRANCH   5   7
HETATM    7  C19 UNL     1      -1.759   7.147  13.380  1.00  0.00     0.128 C 
HETATM    8  C14 UNL     1      -0.305   6.820  12.902  1.00  0.00    -0.002 C 
HETATM    9  C13 UNL     1       0.016   5.325  12.663  1.00  0.00     0.013 C 
HETATM   10  C15 UNL     1       0.728   7.452  13.874  1.00  0.00     0.019 C 
HETATM   11  C16 UNL     1      -0.321   7.514  11.524  1.00  0.00     0.002 C 
HETATM   12  C12 UNL     1       0.783   5.031  11.348  1.00  0.00     0.007 C 
HETATM   13  C11 UNL     1       1.790   6.145  10.978  1.00  0.00     0.002 C 
HETATM   14  C2  UNL     1       2.886   5.810   9.876  1.00  0.00    -0.016 C 
HETATM   15  C10 UNL     1       1.023   7.497  10.763  1.00  0.00    -0.004 C 
HETATM   16  C1  UNL     1       4.202   6.520  10.299  1.00  0.00     0.020 C 
HETATM   17  C3  UNL     1       3.158   4.279   9.799  1.00  0.00     0.022 C 
HETATM   18  C7  UNL     1       2.537   6.330   8.482  1.00  0.00    -0.068 C 
HETATM   19  C4  UNL     1       4.077   3.874   8.654  1.00  0.00     0.084 C 
HETATM   20  C5  UNL     1       3.505   4.359   7.349  1.00  0.00     0.149 C 
HETATM   21  O1  UNL     1       3.671   3.757   6.291  1.00  0.00    -0.293 OA
HETATM   22  C6  UNL     1       2.781   5.651   7.346  1.00  0.00     0.053 C 
HETATM   23  C8  UNL     1       1.951   7.710   8.409  1.00  0.00     0.035 C 
HETATM   24  C9  UNL     1       0.721   7.800   9.284  1.00  0.00     0.010 C 
HETATM   25  C17 UNL     1      -0.951   8.875  11.788  1.00  0.00     0.009 C 
HETATM   26  C18 UNL     1      -1.960   8.620  12.921  1.00  0.00     0.047 C 
BRANCH   7  27
HETATM   27  O2  UNL     1      -2.706   6.336  12.674  1.00  0.00    -0.381 OA
HETATM   28  H27 UNL     1      -3.593   6.711  12.828  1.00  0.00     0.211 HD
ENDBRANCH   7  27
ENDBRANCH   5   7
ENDBRANCH   4   5
ENDBRANCH   3   4
ENDBRANCH   1   3
BRANCH   1  29
HETATM   29  C23 UNL     1      -2.458  10.751  16.855  1.00  0.00     0.120 C 
BRANCH  29  30
HETATM   30  C24 UNL     1      -2.360  11.794  15.746  1.00  0.00     0.112 C 
BRANCH  30  31
HETATM   31  C25 UNL     1      -1.990  13.160  16.285  1.00  0.00     0.217 C 
HETATM   32  O6  UNL     1      -2.621  14.178  16.024  1.00  0.00    -0.274 OA
HETATM   33  N1  UNL     1      -0.891  13.132  17.116  1.00  0.00    -0.361 N 
HETATM   34  H34 UNL     1      -0.436  12.247  17.302  1.00  0.00     0.162 HD
BRANCH  33  35
HETATM   35  C26 UNL     1      -0.459  14.299  17.859  1.00  0.00     0.122 C 
BRANCH  35  36
HETATM   36  C27 UNL     1      -0.746  14.118  19.348  1.00  0.00     0.020 C 
BRANCH  36  37
HETATM   37  C28 UNL     1       0.502  14.225  20.228  1.00  0.00     0.002 C 
BRANCH  37  38
HETATM   38  C29 UNL     1       1.519  13.112  19.953  1.00  0.00     0.009 C 
BRANCH  38  39
HETATM   39  C30 UNL     1       0.950  11.721  20.236  1.00  0.00     0.103 C 
BRANCH  39  40
HETATM   40  C31 UNL     1       2.016  10.677  20.521  1.00  0.00     0.218 C 
HETATM   41  O7  UNL     1       2.448   9.889  19.689  1.00  0.00    -0.274 OA
HETATM   42  N2  UNL     1       2.451  10.702  21.830  1.00  0.00    -0.346 N 
HETATM   43  H45 UNL     1       1.809  11.098  22.507  1.00  0.00     0.163 HD
BRANCH  42  44
HETATM   44  C32 UNL     1       3.337   9.641  22.335  1.00  0.00     0.186 C 
BRANCH  44  45
HETATM   45  C33 UNL     1       4.344  10.228  23.329  1.00  0.00     0.074 C 
BRANCH  45  46
HETATM   46  C34 UNL     1       5.008  11.497  22.853  1.00  0.00    -0.056 A 
HETATM   47  C35 UNL     1       4.305  12.411  22.054  1.00  0.00     0.007 A 
HETATM   48  C36 UNL     1       4.925  13.576  21.601  1.00  0.00     0.001 A 
HETATM   49  C37 UNL     1       6.250  13.842  21.944  1.00  0.00     0.000 A 
HETATM   50  C38 UNL     1       6.956  12.941  22.739  1.00  0.00     0.001 A 
HETATM   51  C39 UNL     1       6.340  11.774  23.192  1.00  0.00     0.007 A 
ENDBRANCH  45  46
ENDBRANCH  44  45
BRANCH  44  52
HETATM   52  C40 UNL     1       2.449   8.614  23.033  1.00  0.00     0.163 C 
HETATM   53  O8  UNL     1       2.187   8.595  24.229  1.00  0.00    -0.648 OA
BRANCH  52  54
HETATM   54  O9  UNL     1       1.957   7.672  22.207  1.00  0.00    -0.775 OA
HETATM   55  H54 UNL     1       1.402   7.099  22.773  1.00  0.00     0.167 HD
ENDBRANCH  52  54
ENDBRANCH  44  52
ENDBRANCH  42  44
ENDBRANCH  39  40
ENDBRANCH  38  39
ENDBRANCH  37  38
ENDBRANCH  36  37
ENDBRANCH  35  36
ENDBRANCH  33  35
ENDBRANCH  30  31
ENDBRANCH  29  30
ENDBRANCH   1  29
TORSDOF 19
ENDMDL
MODEL 9
REMARK minimizedAffinity -8.36336708
REMARK CNNscore 0.20645453
REMARK CNNaffinity 6.7871418
REMARK  19 active torsions:
REMARK  status: ('A' for Active; 'I' for Inactive)
REMARK    1  A    between atoms: C19_20  and  O2_21 
REMARK    2  A    between atoms: C19_20  and  C20_22 
REMARK    3  A    between atoms: C20_22  and  C21_24 
REMARK    4  A    between atoms: C21_24  and  O4_25 
REMARK    5  A    between atoms: O4_25  and  C22_26 
REMARK    6  A    between atoms: C22_26  and  C23_28 
REMARK    7  A    between atoms: C23_28  and  C24_29 
REMARK    8  A    between atoms: C24_29  and  C25_30 
REMARK       I    between atoms: C25_30  and  N1_32 
REMARK    9  A    between atoms: N1_32  and  C26_33 
REMARK   10  A    between atoms: C26_33  and  C27_34 
REMARK   11  A    between atoms: C27_34  and  C28_35 
REMARK   12  A    between atoms: C28_35  and  C29_36 
REMARK   13  A    between atoms: C29_36  and  C30_37 
REMARK   14  A    between atoms: C30_37  and  C31_38 
REMARK       I    between atoms: C31_38  and  N2_40 
REMARK   15  A    between atoms: N2_40  and  C32_41 
REMARK   16  A    between atoms: C32_41  and  C33_42 
REMARK   17  A    between atoms: C32_41  and  C40_49 
REMARK   18  A    between atoms: C33_42  and  C34_43 
REMARK   19  A    between atoms: C40_49  and  O9_51 
ROOT
HETATM    1  C22 UNL     1      -9.675   6.499  13.542  1.00  0.00     0.259 C 
HETATM    2  O5  UNL     1      -9.244   6.168  12.443  1.00  0.00    -0.265 OA
ENDROOT
BRANCH   1   3
HETATM    3  O4  UNL     1      -8.970   6.410  14.697  1.00  0.00    -0.314 OA
BRANCH   3   4
HETATM    4  C21 UNL     1      -7.965   5.391  14.710  1.00  0.00     0.260 C 
BRANCH   4   5
HETATM    5  C20 UNL     1      -6.660   5.994  15.225  1.00  0.00     0.185 C 
HETATM    6  O3  UNL     1      -6.356   5.946  16.419  1.00  0.00    -0.292 OA
BRANCH   5   7
HETATM    7  C19 UNL     1      -5.785   6.761  14.207  1.00  0.00     0.128 C 
HETATM    8  C14 UNL     1      -4.256   6.433  14.215  1.00  0.00    -0.002 C 
HETATM    9  C13 UNL     1      -3.826   5.158  13.449  1.00  0.00     0.013 C 
HETATM   10  C15 UNL     1      -3.728   6.396  15.675  1.00  0.00     0.019 C 
HETATM   11  C16 UNL     1      -3.723   7.646  13.424  1.00  0.00     0.002 C 
HETATM   12  C12 UNL     1      -2.580   5.336  12.543  1.00  0.00     0.007 C 
HETATM   13  C11 UNL     1      -1.540   6.312  13.140  1.00  0.00     0.002 C 
HETATM   14  C2  UNL     1      -0.080   6.308  12.509  1.00  0.00    -0.016 C 
HETATM   15  C10 UNL     1      -2.186   7.733  13.308  1.00  0.00    -0.004 C 
HETATM   16  C1  UNL     1       0.929   6.531  13.670  1.00  0.00     0.020 C 
HETATM   17  C3  UNL     1       0.240   4.940  11.839  1.00  0.00     0.022 C 
HETATM   18  C7  UNL     1       0.159   7.431  11.501  1.00  0.00    -0.068 C 
HETATM   19  C4  UNL     1       1.557   4.921  11.075  1.00  0.00     0.084 C 
HETATM   20  C5  UNL     1       1.557   6.012  10.038  1.00  0.00     0.149 C 
HETATM   21  O1  UNL     1       2.158   5.909   8.972  1.00  0.00    -0.293 OA
HETATM   22  C6  UNL     1       0.864   7.280  10.365  1.00  0.00     0.053 C 
HETATM   23  C8  UNL     1      -0.381   8.784  11.863  1.00  0.00     0.035 C 
HETATM   24  C9  UNL     1      -1.863   8.692  12.148  1.00  0.00     0.010 C 
HETATM   25  C17 UNL     1      -4.441   8.844  14.032  1.00  0.00     0.009 C 
HETATM   26  C18 UNL     1      -5.819   8.298  14.447  1.00  0.00     0.047 C 
BRANCH   7  27
HETATM   27  O2  UNL     1      -6.338   6.509  12.910  1.00  0.00    -0.381 OA
HETATM   28  H27 UNL     1      -7.221   6.924  12.876  1.00  0.00     0.211 HD
ENDBRANCH   7  27
ENDBRANCH   5   7
ENDBRANCH   4   5
ENDBRANCH   3   4
ENDBRANCH   1   3
BRANCH   1  29
HETATM   29  C23 UNL     1     -11.099   6.943  13.785  1.00  0.00     0.120 C 
BRANCH  29  30
HETATM   30  C24 UNL     1     -11.529   8.148  12.955  1.00  0.00     0.112 C 
BRANCH  30  31
HETATM   31  C25 UNL     1     -12.846   8.725  13.432  1.00  0.00     0.217 C 
HETATM   32  O6  UNL     1     -13.934   8.241  13.142  1.00  0.00    -0.274 OA
HETATM   33  N1  UNL     1     -12.688   9.828  14.243  1.00  0.00    -0.361 N 
HETATM   34  H34 UNL     1     -11.754  10.155  14.456  1.00  0.00     0.162 HD
BRANCH  33  35
HETATM   35  C26 UNL     1     -13.806  10.441  14.932  1.00  0.00     0.122 C 
BRANCH  35  36
HETATM   36  C27 UNL     1     -13.499  10.589  16.420  1.00  0.00     0.020 C 
BRANCH  36  37
HETATM   37  C28 UNL     1     -12.073  10.178  16.793  1.00  0.00     0.002 C 
BRANCH  37  38
HETATM   38  C29 UNL     1     -11.642  10.710  18.165  1.00  0.00     0.009 C 
BRANCH  38  39
HETATM   39  C30 UNL     1     -11.241   9.590  19.125  1.00  0.00     0.103 C 
BRANCH  39  40
HETATM   40  C31 UNL     1     -11.997   9.623  20.442  1.00  0.00     0.218 C 
HETATM   41  O7  UNL     1     -13.202   9.815  20.540  1.00  0.00    -0.274 OA
HETATM   42  N2  UNL     1     -11.177   9.418  21.533  1.00  0.00    -0.346 N 
HETATM   43  H45 UNL     1     -10.196   9.638  21.403  1.00  0.00     0.163 HD
BRANCH  42  44
HETATM   44  C32 UNL     1     -11.698   9.607  22.896  1.00  0.00     0.186 C 
BRANCH  44  45
HETATM   45  C33 UNL     1     -11.350   8.394  23.764  1.00  0.00     0.074 C 
BRANCH  45  46
HETATM   46  C34 UNL     1     -12.552   7.691  24.347  1.00  0.00    -0.056 A 
HETATM   47  C35 UNL     1     -13.014   6.490  23.790  1.00  0.00     0.007 A 
HETATM   48  C36 UNL     1     -14.135   5.850  24.319  1.00  0.00     0.001 A 
HETATM   49  C37 UNL     1     -14.804   6.401  25.411  1.00  0.00     0.000 A 
HETATM   50  C38 UNL     1     -14.352   7.593  25.973  1.00  0.00     0.001 A 
HETATM   51  C39 UNL     1     -13.233   8.238  25.444  1.00  0.00     0.007 A 
ENDBRANCH  45  46
ENDBRANCH  44  45
BRANCH  44  52
HETATM   52  C40 UNL     1     -11.034  10.862  23.457  1.00  0.00     0.163 C 
HETATM   53  O8  UNL     1     -10.998  11.955  22.907  1.00  0.00    -0.648 OA
BRANCH  52  54
HETATM   54  O9  UNL     1     -10.447  10.675  24.654  1.00  0.00    -0.775 OA
HETATM   55  H54 UNL     1     -10.082  11.549  24.899  1.00  0.00     0.167 HD
ENDBRANCH  52  54
ENDBRANCH  44  52
ENDBRANCH  42  44
ENDBRANCH  39  40
ENDBRANCH  38  39
ENDBRANCH  37  38
ENDBRANCH  36  37
ENDBRANCH  35  36
ENDBRANCH  33  35
ENDBRANCH  30  31
ENDBRANCH  29  30
ENDBRANCH   1  29
TORSDOF 19
ENDMDL
