MODEL 1
REMARK minimizedAffinity -8.55953884
REMARK  10 active torsions:
REMARK  status: ('A' for Active; 'I' for Inactive)
REMARK    1  A    between atoms: C2_2  and  C3_4 
REMARK    2  A    between atoms: C10_12  and  O3_13 
REMARK    3  A    between atoms: C13_16  and  C14_17 
REMARK    4  A    between atoms: C14_17  and  C16_19 
REMARK    5  A    between atoms: C16_19  and  C17_20 
REMARK    6  A    between atoms: C17_20  and  C18_21 
REMARK    7  A    between atoms: C26_29  and  C27_30 
REMARK    8  A    between atoms: C27_30  and  C28_31 
REMARK    9  A    between atoms: C28_31  and  C29_32 
REMARK   10  A    between atoms: C29_32  and  O4_33 
ROOT
HETATM    1  C3  UNL     1      -4.127  50.169 -23.990  1.00  0.00     0.151 A 
HETATM    2  O2  UNL     1      -5.183  51.143 -24.216  1.00  0.00    -0.360 OA
HETATM    3  C4  UNL     1      -4.899  50.820 -22.866  1.00  0.00     0.166 A 
HETATM    4  C5  UNL     1      -4.257  51.932 -22.110  1.00  0.00     0.041 C 
HETATM    5  C6  UNL     1      -2.807  51.616 -21.700  1.00  0.00     0.006 C 
HETATM    6  C7  UNL     1      -1.915  50.997 -22.883  1.00  0.00    -0.030 C 
HETATM    7  C8  UNL     1      -0.725  51.942 -23.216  1.00  0.00     0.016 C 
HETATM    8  C9  UNL     1      -1.252  49.656 -22.436  1.00  0.00     0.042 C 
HETATM    9  C10 UNL     1      -0.613  49.582 -21.021  1.00  0.00     0.128 C 
HETATM   10  C11 UNL     1      -1.215  50.543 -19.954  1.00  0.00    -0.006 C 
HETATM   11  C12 UNL     1      -0.344  51.841 -19.857  1.00  0.00     0.019 C 
HETATM   12  C13 UNL     1      -1.365  50.012 -18.477  1.00  0.00     0.001 C 
HETATM   13  C22 UNL     1      -2.486  50.935 -17.904  1.00  0.00     0.007 C 
HETATM   14  C23 UNL     1      -3.174  51.627 -19.097  1.00  0.00     0.011 C 
HETATM   15  C24 UNL     1      -2.717  50.830 -20.333  1.00  0.00    -0.029 C 
HETATM   16  C25 UNL     1      -3.625  49.557 -20.349  1.00  0.00     0.016 C 
HETATM   17  C26 UNL     1      -2.721  50.722 -24.257  1.00  0.00     0.039 C 
ENDROOT
BRANCH  12  18
HETATM   18  C14 UNL     1      -0.126  49.939 -17.526  1.00  0.00    -0.013 C 
HETATM   19  C15 UNL     1      -0.180  48.704 -16.617  1.00  0.00     0.010 C 
BRANCH  18  20
HETATM   20  C16 UNL     1      -0.034  51.240 -16.681  1.00  0.00     0.008 C 
BRANCH  20  21
HETATM   21  C17 UNL     1       0.647  51.132 -15.307  1.00  0.00     0.028 C 
BRANCH  21  22
HETATM   22  C18 UNL     1       2.134  51.357 -15.343  1.00  0.00    -0.025 C 
HETATM   23  C19 UNL     1       2.821  52.179 -16.161  1.00  0.00    -0.091 C 
HETATM   24  C20 UNL     1       2.211  52.992 -17.273  1.00  0.00     0.042 C 
HETATM   25  C21 UNL     1       4.314  52.331 -16.026  1.00  0.00     0.042 C 
ENDBRANCH  21  22
ENDBRANCH  20  21
ENDBRANCH  18  20
ENDBRANCH  12  18
BRANCH   9  26
HETATM   26  O3  UNL     1      -0.736  48.223 -20.593  1.00  0.00    -0.395 OA
HETATM   27  H14 UNL     1      -0.207  47.671 -21.200  1.00  0.00     0.210 HD
ENDBRANCH   9  26
BRANCH  17  28
HETATM   28  C27 UNL     1      -2.761  51.921 -25.258  1.00  0.00     0.011 C 
BRANCH  28  29
HETATM   29  C28 UNL     1      -2.251  51.563 -26.663  1.00  0.00     0.027 C 
BRANCH  29  30
HETATM   30  C29 UNL     1      -1.297  52.622 -27.211  1.00  0.00     0.164 C 
BRANCH  30  31
HETATM   31  O4  UNL     1      -1.996  53.541 -28.042  1.00  0.00    -0.401 OA
HETATM   32  H48 UNL     1      -1.357  54.231 -28.295  1.00  0.00     0.209 HD
ENDBRANCH  30  31
ENDBRANCH  29  30
ENDBRANCH  28  29
ENDBRANCH  17  28
BRANCH   1  33
HETATM   33  C2  UNL     1      -4.521  48.821 -24.517  1.00  0.00     0.160 C 
HETATM   34  C1  UNL     1      -4.022  48.449 -25.884  1.00  0.00     0.094 C 
HETATM   35  O1  UNL     1      -5.237  48.065 -23.861  1.00  0.00    -0.295 OA
ENDBRANCH   1  33
TORSDOF 10
ENDMDL
MODEL 2
REMARK minimizedAffinity -8.50157928
REMARK  10 active torsions:
REMARK  status: ('A' for Active; 'I' for Inactive)
REMARK    1  A    between atoms: C2_2  and  C3_4 
REMARK    2  A    between atoms: C10_12  and  O3_13 
REMARK    3  A    between atoms: C13_16  and  C14_17 
REMARK    4  A    between atoms: C14_17  and  C16_19 
REMARK    5  A    between atoms: C16_19  and  C17_20 
REMARK    6  A    between atoms: C17_20  and  C18_21 
REMARK    7  A    between atoms: C26_29  and  C27_30 
REMARK    8  A    between atoms: C27_30  and  C28_31 
REMARK    9  A    between atoms: C28_31  and  C29_32 
REMARK   10  A    between atoms: C29_32  and  O4_33 
ROOT
HETATM    1  C3  UNL     1      -2.567  51.428 -25.731  1.00  0.00     0.151 A 
HETATM    2  O2  UNL     1      -3.327  52.587 -26.177  1.00  0.00    -0.360 OA
HETATM    3  C4  UNL     1      -3.836  51.891 -25.052  1.00  0.00     0.166 A 
HETATM    4  C5  UNL     1      -3.726  52.656 -23.778  1.00  0.00     0.041 C 
HETATM    5  C6  UNL     1      -2.744  52.015 -22.780  1.00  0.00     0.006 C 
HETATM    6  C7  UNL     1      -1.343  51.579 -23.433  1.00  0.00    -0.030 C 
HETATM    7  C8  UNL     1      -0.172  52.371 -22.783  1.00  0.00     0.016 C 
HETATM    8  C9  UNL     1      -1.032  50.079 -23.130  1.00  0.00     0.042 C 
HETATM    9  C10 UNL     1      -1.283  49.547 -21.692  1.00  0.00     0.128 C 
HETATM   10  C11 UNL     1      -2.380  50.291 -20.875  1.00  0.00    -0.006 C 
HETATM   11  C12 UNL     1      -1.714  51.363 -19.947  1.00  0.00     0.019 C 
HETATM   12  C13 UNL     1      -3.320  49.436 -19.943  1.00  0.00     0.001 C 
HETATM   13  C22 UNL     1      -4.575  50.354 -19.803  1.00  0.00     0.007 C 
HETATM   14  C23 UNL     1      -4.491  51.428 -20.907  1.00  0.00     0.011 C 
HETATM   15  C24 UNL     1      -3.422  50.905 -21.885  1.00  0.00    -0.029 C 
HETATM   16  C25 UNL     1      -4.164  49.843 -22.760  1.00  0.00     0.016 C 
HETATM   17  C26 UNL     1      -1.252  51.795 -25.033  1.00  0.00     0.039 C 
ENDROOT
BRANCH  12  18
HETATM   18  C14 UNL     1      -2.814  48.924 -18.553  1.00  0.00    -0.013 C 
HETATM   19  C15 UNL     1      -3.365  49.775 -17.402  1.00  0.00     0.010 C 
BRANCH  18  20
HETATM   20  C16 UNL     1      -1.260  48.909 -18.532  1.00  0.00     0.008 C 
BRANCH  20  21
HETATM   21  C17 UNL     1      -0.580  49.203 -17.185  1.00  0.00     0.028 C 
BRANCH  21  22
HETATM   22  C18 UNL     1       0.255  50.453 -17.182  1.00  0.00    -0.025 C 
HETATM   23  C19 UNL     1       1.079  50.889 -16.208  1.00  0.00    -0.091 C 
HETATM   24  C20 UNL     1       1.262  50.216 -14.873  1.00  0.00     0.042 C 
HETATM   25  C21 UNL     1       1.892  52.144 -16.390  1.00  0.00     0.042 C 
ENDBRANCH  21  22
ENDBRANCH  20  21
ENDBRANCH  18  20
ENDBRANCH  12  18
BRANCH   9  26
HETATM   26  O3  UNL     1      -1.616  48.162 -21.825  1.00  0.00    -0.395 OA
HETATM   27  H14 UNL     1      -0.837  47.704 -22.193  1.00  0.00     0.210 HD
ENDBRANCH   9  26
BRANCH  17  28
HETATM   28  C27 UNL     1      -0.737  53.198 -25.488  1.00  0.00     0.011 C 
BRANCH  28  29
HETATM   29  C28 UNL     1       0.079  53.158 -26.789  1.00  0.00     0.027 C 
BRANCH  29  30
HETATM   30  C29 UNL     1      -0.493  54.095 -27.851  1.00  0.00     0.164 C 
BRANCH  30  31
HETATM   31  O4  UNL     1      -1.821  53.713 -28.190  1.00  0.00    -0.401 OA
HETATM   32  H48 UNL     1      -2.157  54.387 -28.807  1.00  0.00     0.209 HD
ENDBRANCH  30  31
ENDBRANCH  29  30
ENDBRANCH  28  29
ENDBRANCH  17  28
BRANCH   1  33
HETATM   33  C2  UNL     1      -2.598  50.340 -26.763  1.00  0.00     0.160 C 
HETATM   34  C1  UNL     1      -2.694  48.927 -26.262  1.00  0.00     0.094 C 
HETATM   35  O1  UNL     1      -2.528  50.598 -27.964  1.00  0.00    -0.295 OA
ENDBRANCH   1  33
TORSDOF 10
ENDMDL
MODEL 3
REMARK minimizedAffinity -8.31214046
REMARK  10 active torsions:
REMARK  status: ('A' for Active; 'I' for Inactive)
REMARK    1  A    between atoms: C2_2  and  C3_4 
REMARK    2  A    between atoms: C10_12  and  O3_13 
REMARK    3  A    between atoms: C13_16  and  C14_17 
REMARK    4  A    between atoms: C14_17  and  C16_19 
REMARK    5  A    between atoms: C16_19  and  C17_20 
REMARK    6  A    between atoms: C17_20  and  C18_21 
REMARK    7  A    between atoms: C26_29  and  C27_30 
REMARK    8  A    between atoms: C27_30  and  C28_31 
REMARK    9  A    between atoms: C28_31  and  C29_32 
REMARK   10  A    between atoms: C29_32  and  O4_33 
ROOT
HETATM    1  C3  UNL     1      -5.721  48.368 -23.198  1.00  0.00     0.151 A 
HETATM    2  O2  UNL     1      -6.706  49.339 -23.652  1.00  0.00    -0.360 OA
HETATM    3  C4  UNL     1      -6.122  49.577 -22.382  1.00  0.00     0.166 A 
HETATM    4  C5  UNL     1      -5.211  50.755 -22.356  1.00  0.00     0.041 C 
HETATM    5  C6  UNL     1      -3.740  50.366 -22.117  1.00  0.00     0.006 C 
HETATM    6  C7  UNL     1      -3.236  49.138 -23.020  1.00  0.00    -0.030 C 
HETATM    7  C8  UNL     1      -2.084  49.595 -23.962  1.00  0.00     0.016 C 
HETATM    8  C9  UNL     1      -2.609  48.017 -22.133  1.00  0.00     0.042 C 
HETATM    9  C10 UNL     1      -1.645  48.432 -20.987  1.00  0.00     0.128 C 
HETATM   10  C11 UNL     1      -1.868  49.855 -20.394  1.00  0.00    -0.006 C 
HETATM   11  C12 UNL     1      -0.884  50.869 -21.069  1.00  0.00     0.019 C 
HETATM   12  C13 UNL     1      -1.691  50.048 -18.841  1.00  0.00     0.001 C 
HETATM   13  C22 UNL     1      -2.542  51.329 -18.566  1.00  0.00     0.007 C 
HETATM   14  C23 UNL     1      -3.440  51.563 -19.797  1.00  0.00     0.011 C 
HETATM   15  C24 UNL     1      -3.384  50.241 -20.584  1.00  0.00    -0.029 C 
HETATM   16  C25 UNL     1      -4.381  49.291 -19.845  1.00  0.00     0.016 C 
HETATM   17  C26 UNL     1      -4.382  48.465 -23.940  1.00  0.00     0.039 C 
ENDROOT
BRANCH  12  18
HETATM   18  C14 UNL     1      -0.265  50.148 -18.206  1.00  0.00    -0.013 C 
HETATM   19  C15 UNL     1      -0.131  49.250 -16.969  1.00  0.00     0.010 C 
BRANCH  18  20
HETATM   20  C16 UNL     1       0.049  51.627 -17.848  1.00  0.00     0.008 C 
BRANCH  20  21
HETATM   21  C17 UNL     1       0.750  51.884 -16.504  1.00  0.00     0.028 C 
BRANCH  21  22
HETATM   22  C18 UNL     1       2.174  52.348 -16.637  1.00  0.00    -0.025 C 
HETATM   23  C19 UNL     1       3.206  52.081 -15.812  1.00  0.00    -0.091 C 
HETATM   24  C20 UNL     1       3.099  51.304 -14.525  1.00  0.00     0.042 C 
HETATM   25  C21 UNL     1       4.593  52.580 -16.124  1.00  0.00     0.042 C 
ENDBRANCH  21  22
ENDBRANCH  20  21
ENDBRANCH  18  20
ENDBRANCH  12  18
BRANCH   9  26
HETATM   26  O3  UNL     1      -1.783  47.440 -19.964  1.00  0.00    -0.395 OA
HETATM   27  H14 UNL     1      -1.477  46.590 -20.332  1.00  0.00     0.210 HD
ENDBRANCH   9  26
BRANCH  17  28
HETATM   28  C27 UNL     1      -4.561  49.102 -25.356  1.00  0.00     0.011 C 
BRANCH  28  29
HETATM   29  C28 UNL     1      -3.855  48.318 -26.473  1.00  0.00     0.027 C 
BRANCH  29  30
HETATM   30  C29 UNL     1      -4.644  48.350 -27.780  1.00  0.00     0.164 C 
BRANCH  30  31
HETATM   31  O4  UNL     1      -4.148  49.371 -28.637  1.00  0.00    -0.401 OA
HETATM   32  H48 UNL     1      -4.635  49.291 -29.477  1.00  0.00     0.209 HD
ENDBRANCH  30  31
ENDBRANCH  29  30
ENDBRANCH  28  29
ENDBRANCH  17  28
BRANCH   1  33
HETATM   33  C2  UNL     1      -6.359  47.032 -22.960  1.00  0.00     0.160 C 
HETATM   34  C1  UNL     1      -5.835  46.220 -21.810  1.00  0.00     0.094 C 
HETATM   35  O1  UNL     1      -7.259  46.616 -23.689  1.00  0.00    -0.295 OA
ENDBRANCH   1  33
TORSDOF 10
ENDMDL
MODEL 4
REMARK minimizedAffinity -8.25574493
REMARK  10 active torsions:
REMARK  status: ('A' for Active; 'I' for Inactive)
REMARK    1  A    between atoms: C2_2  and  C3_4 
REMARK    2  A    between atoms: C10_12  and  O3_13 
REMARK    3  A    between atoms: C13_16  and  C14_17 
REMARK    4  A    between atoms: C14_17  and  C16_19 
REMARK    5  A    between atoms: C16_19  and  C17_20 
REMARK    6  A    between atoms: C17_20  and  C18_21 
REMARK    7  A    between atoms: C26_29  and  C27_30 
REMARK    8  A    between atoms: C27_30  and  C28_31 
REMARK    9  A    between atoms: C28_31  and  C29_32 
REMARK   10  A    between atoms: C29_32  and  O4_33 
ROOT
HETATM    1  C3  UNL     1      -1.072  51.130 -20.148  1.00  0.00     0.151 A 
HETATM    2  O2  UNL     1       0.144  50.412 -19.795  1.00  0.00    -0.360 OA
HETATM    3  C4  UNL     1      -1.051  49.650 -19.839  1.00  0.00     0.166 A 
HETATM    4  C5  UNL     1      -1.100  48.684 -20.972  1.00  0.00     0.041 C 
HETATM    5  C6  UNL     1      -2.181  49.036 -22.011  1.00  0.00     0.006 C 
HETATM    6  C7  UNL     1      -2.194  50.583 -22.438  1.00  0.00    -0.030 C 
HETATM    7  C8  UNL     1      -1.882  50.729 -23.956  1.00  0.00     0.016 C 
HETATM    8  C9  UNL     1      -3.618  51.198 -22.259  1.00  0.00     0.042 C 
HETATM    9  C10 UNL     1      -4.845  50.371 -22.735  1.00  0.00     0.128 C 
HETATM   10  C11 UNL     1      -4.663  48.825 -22.737  1.00  0.00    -0.006 C 
HETATM   11  C12 UNL     1      -4.266  48.341 -24.173  1.00  0.00     0.019 C 
HETATM   12  C13 UNL     1      -5.886  47.932 -22.302  1.00  0.00     0.001 C 
HETATM   13  C22 UNL     1      -5.190  46.607 -21.857  1.00  0.00     0.007 C 
HETATM   14  C23 UNL     1      -3.689  46.910 -21.672  1.00  0.00     0.011 C 
HETATM   15  C24 UNL     1      -3.598  48.447 -21.639  1.00  0.00    -0.029 C 
HETATM   16  C25 UNL     1      -4.014  48.843 -20.185  1.00  0.00     0.016 C 
HETATM   17  C26 UNL     1      -1.144  51.512 -21.632  1.00  0.00     0.039 C 
ENDROOT
BRANCH  12  18
HETATM   18  C14 UNL     1      -7.070  47.665 -23.289  1.00  0.00    -0.013 C 
HETATM   19  C15 UNL     1      -7.663  46.263 -23.096  1.00  0.00     0.010 C 
BRANCH  18  20
HETATM   20  C16 UNL     1      -6.589  47.862 -24.754  1.00  0.00     0.008 C 
BRANCH  20  21
HETATM   21  C17 UNL     1      -7.335  47.074 -25.843  1.00  0.00     0.028 C 
BRANCH  21  22
HETATM   22  C18 UNL     1      -6.906  47.412 -27.244  1.00  0.00    -0.025 C 
HETATM   23  C19 UNL     1      -5.712  47.894 -27.645  1.00  0.00    -0.091 C 
HETATM   24  C20 UNL     1      -4.580  48.262 -26.722  1.00  0.00     0.042 C 
HETATM   25  C21 UNL     1      -5.425  48.126 -29.106  1.00  0.00     0.042 C 
ENDBRANCH  21  22
ENDBRANCH  20  21
ENDBRANCH  18  20
ENDBRANCH  12  18
BRANCH   9  26
HETATM   26  O3  UNL     1      -5.936  50.742 -21.886  1.00  0.00    -0.395 OA
HETATM   27  H14 UNL     1      -6.122  51.688 -22.037  1.00  0.00     0.210 HD
ENDBRANCH   9  26
BRANCH  17  28
HETATM   28  C27 UNL     1       0.281  51.612 -22.264  1.00  0.00     0.011 C 
BRANCH  28  29
HETATM   29  C28 UNL     1       0.661  53.037 -22.695  1.00  0.00     0.027 C 
BRANCH  29  30
HETATM   30  C29 UNL     1       1.370  53.801 -21.580  1.00  0.00     0.164 C 
BRANCH  30  31
HETATM   31  O4  UNL     1       2.035  54.945 -22.103  1.00  0.00    -0.401 OA
HETATM   32  H48 UNL     1       2.399  55.429 -21.341  1.00  0.00     0.209 HD
ENDBRANCH  30  31
ENDBRANCH  29  30
ENDBRANCH  28  29
ENDBRANCH  17  28
BRANCH   1  33
HETATM   33  C2  UNL     1      -1.426  52.133 -19.091  1.00  0.00     0.160 C 
HETATM   34  C1  UNL     1      -0.307  52.973 -18.544  1.00  0.00     0.094 C 
HETATM   35  O1  UNL     1      -2.580  52.246 -18.680  1.00  0.00    -0.295 OA
ENDBRANCH   1  33
TORSDOF 10
ENDMDL
MODEL 5
REMARK minimizedAffinity -7.90190458
REMARK  10 active torsions:
REMARK  status: ('A' for Active; 'I' for Inactive)
REMARK    1  A    between atoms: C2_2  and  C3_4 
REMARK    2  A    between atoms: C10_12  and  O3_13 
REMARK    3  A    between atoms: C13_16  and  C14_17 
REMARK    4  A    between atoms: C14_17  and  C16_19 
REMARK    5  A    between atoms: C16_19  and  C17_20 
REMARK    6  A    between atoms: C17_20  and  C18_21 
REMARK    7  A    between atoms: C26_29  and  C27_30 
REMARK    8  A    between atoms: C27_30  and  C28_31 
REMARK    9  A    between atoms: C28_31  and  C29_32 
REMARK   10  A    between atoms: C29_32  and  O4_33 
ROOT
HETATM    1  C3  UNL     1      -8.322  47.284 -22.612  1.00  0.00     0.151 A 
HETATM    2  O2  UNL     1      -8.258  45.961 -22.010  1.00  0.00    -0.360 OA
HETATM    3  C4  UNL     1      -7.066  46.442 -22.608  1.00  0.00     0.166 A 
HETATM    4  C5  UNL     1      -5.994  46.765 -21.624  1.00  0.00     0.041 C 
HETATM    5  C6  UNL     1      -5.674  48.270 -21.562  1.00  0.00     0.006 C 
HETATM    6  C7  UNL     1      -6.974  49.210 -21.482  1.00  0.00    -0.030 C 
HETATM    7  C8  UNL     1      -6.980  50.014 -20.150  1.00  0.00     0.016 C 
HETATM    8  C9  UNL     1      -6.947  50.293 -22.606  1.00  0.00     0.042 C 
HETATM    9  C10 UNL     1      -5.611  51.037 -22.885  1.00  0.00     0.128 C 
HETATM   10  C11 UNL     1      -4.312  50.255 -22.531  1.00  0.00    -0.006 C 
HETATM   11  C12 UNL     1      -3.807  50.683 -21.111  1.00  0.00     0.019 C 
HETATM   12  C13 UNL     1      -3.073  50.401 -23.493  1.00  0.00     0.001 C 
HETATM   13  C22 UNL     1      -2.264  49.099 -23.193  1.00  0.00     0.007 C 
HETATM   14  C23 UNL     1      -3.200  48.133 -22.440  1.00  0.00     0.011 C 
HETATM   15  C24 UNL     1      -4.612  48.712 -22.644  1.00  0.00    -0.029 C 
HETATM   16  C25 UNL     1      -5.034  48.249 -24.077  1.00  0.00     0.016 C 
HETATM   17  C26 UNL     1      -8.381  48.420 -21.583  1.00  0.00     0.039 C 
ENDROOT
BRANCH  12  18
HETATM   18  C14 UNL     1      -2.166  51.675 -23.440  1.00  0.00    -0.013 C 
HETATM   19  C15 UNL     1      -2.634  52.744 -24.435  1.00  0.00     0.010 C 
BRANCH  18  20
HETATM   20  C16 UNL     1      -0.688  51.280 -23.712  1.00  0.00     0.008 C 
BRANCH  20  21
HETATM   21  C17 UNL     1       0.180  52.305 -24.459  1.00  0.00     0.028 C 
BRANCH  21  22
HETATM   22  C18 UNL     1       0.069  52.224 -25.957  1.00  0.00    -0.025 C 
HETATM   23  C19 UNL     1       0.995  51.775 -26.827  1.00  0.00    -0.091 C 
HETATM   24  C20 UNL     1       2.384  51.330 -26.449  1.00  0.00     0.042 C 
HETATM   25  C21 UNL     1       0.700  51.708 -28.303  1.00  0.00     0.042 C 
ENDBRANCH  21  22
ENDBRANCH  20  21
ENDBRANCH  18  20
ENDBRANCH  12  18
BRANCH   9  26
HETATM   26  O3  UNL     1      -5.622  51.380 -24.274  1.00  0.00    -0.395 OA
HETATM   27  H14 UNL     1      -6.360  52.002 -24.421  1.00  0.00     0.210 HD
ENDBRANCH   9  26
BRANCH  17  28
HETATM   28  C27 UNL     1      -8.967  47.925 -20.222  1.00  0.00     0.011 C 
BRANCH  28  29
HETATM   29  C28 UNL     1      -7.916  47.814 -19.107  1.00  0.00     0.027 C 
BRANCH  29  30
HETATM   30  C29 UNL     1      -8.547  47.890 -17.718  1.00  0.00     0.164 C 
BRANCH  30  31
HETATM   31  O4  UNL     1      -7.579  47.607 -16.715  1.00  0.00    -0.401 OA
HETATM   32  H48 UNL     1      -8.018  47.747 -15.857  1.00  0.00     0.209 HD
ENDBRANCH  30  31
ENDBRANCH  29  30
ENDBRANCH  28  29
ENDBRANCH  17  28
BRANCH   1  33
HETATM   33  C2  UNL     1      -9.242  47.287 -23.796  1.00  0.00     0.160 C 
HETATM   34  C1  UNL     1     -10.481  46.443 -23.700  1.00  0.00     0.094 C 
HETATM   35  O1  UNL     1      -8.981  47.940 -24.806  1.00  0.00    -0.295 OA
ENDBRANCH   1  33
TORSDOF 10
ENDMDL
MODEL 6
REMARK minimizedAffinity -7.83961964
REMARK  10 active torsions:
REMARK  status: ('A' for Active; 'I' for Inactive)
REMARK    1  A    between atoms: C2_2  and  C3_4 
REMARK    2  A    between atoms: C10_12  and  O3_13 
REMARK    3  A    between atoms: C13_16  and  C14_17 
REMARK    4  A    between atoms: C14_17  and  C16_19 
REMARK    5  A    between atoms: C16_19  and  C17_20 
REMARK    6  A    between atoms: C17_20  and  C18_21 
REMARK    7  A    between atoms: C26_29  and  C27_30 
REMARK    8  A    between atoms: C27_30  and  C28_31 
REMARK    9  A    between atoms: C28_31  and  C29_32 
REMARK   10  A    between atoms: C29_32  and  O4_33 
ROOT
HETATM    1  C3  UNL     1      -5.301  48.259 -21.890  1.00  0.00     0.151 A 
HETATM    2  O2  UNL     1      -5.316  47.516 -23.141  1.00  0.00    -0.360 OA
HETATM    3  C4  UNL     1      -4.614  48.748 -23.145  1.00  0.00     0.166 A 
HETATM    4  C5  UNL     1      -3.137  48.592 -23.257  1.00  0.00     0.041 C 
HETATM    5  C6  UNL     1      -2.391  49.038 -21.986  1.00  0.00     0.006 C 
HETATM    6  C7  UNL     1      -3.031  48.478 -20.624  1.00  0.00    -0.030 C 
HETATM    7  C8  UNL     1      -2.014  47.563 -19.883  1.00  0.00     0.016 C 
HETATM    8  C9  UNL     1      -3.325  49.643 -19.627  1.00  0.00     0.042 C 
HETATM    9  C10 UNL     1      -2.248  50.749 -19.443  1.00  0.00     0.128 C 
HETATM   10  C11 UNL     1      -1.307  50.989 -20.661  1.00  0.00    -0.006 C 
HETATM   11  C12 UNL     1       0.028  50.195 -20.463  1.00  0.00     0.019 C 
HETATM   12  C13 UNL     1      -0.885  52.471 -20.992  1.00  0.00     0.001 C 
HETATM   13  C22 UNL     1      -0.507  52.379 -22.505  1.00  0.00     0.007 C 
HETATM   14  C23 UNL     1      -1.078  51.053 -23.047  1.00  0.00     0.011 C 
HETATM   15  C24 UNL     1      -2.080  50.587 -21.974  1.00  0.00    -0.029 C 
HETATM   16  C25 UNL     1      -3.371  51.428 -22.237  1.00  0.00     0.016 C 
HETATM   17  C26 UNL     1      -4.396  47.634 -20.821  1.00  0.00     0.039 C 
ENDROOT
BRANCH  12  18
HETATM   18  C14 UNL     1       0.225  53.190 -20.157  1.00  0.00    -0.013 C 
HETATM   19  C15 UNL     1       1.587  53.139 -20.861  1.00  0.00     0.010 C 
BRANCH  18  20
HETATM   20  C16 UNL     1       0.314  52.554 -18.741  1.00  0.00     0.008 C 
BRANCH  20  21
HETATM   21  C17 UNL     1       1.687  52.580 -18.052  1.00  0.00     0.028 C 
BRANCH  21  22
HETATM   22  C18 UNL     1       1.688  51.990 -16.669  1.00  0.00    -0.025 C 
HETATM   23  C19 UNL     1       2.684  52.023 -15.761  1.00  0.00    -0.091 C 
HETATM   24  C20 UNL     1       4.049  52.613 -16.005  1.00  0.00     0.042 C 
HETATM   25  C21 UNL     1       2.500  51.428 -14.390  1.00  0.00     0.042 C 
ENDBRANCH  21  22
ENDBRANCH  20  21
ENDBRANCH  18  20
ENDBRANCH  12  18
BRANCH   9  26
HETATM   26  O3  UNL     1      -2.953  51.950 -19.116  1.00  0.00    -0.395 OA
HETATM   27  H14 UNL     1      -3.400  51.808 -18.260  1.00  0.00     0.210 HD
ENDBRANCH   9  26
BRANCH  17  28
HETATM   28  C27 UNL     1      -4.204  46.102 -21.063  1.00  0.00     0.011 C 
BRANCH  28  29
HETATM   29  C28 UNL     1      -4.829  45.226 -19.966  1.00  0.00     0.027 C 
BRANCH  29  30
HETATM   30  C29 UNL     1      -5.307  46.055 -18.776  1.00  0.00     0.164 C 
BRANCH  30  31
HETATM   31  O4  UNL     1      -6.728  46.067 -18.716  1.00  0.00    -0.401 OA
HETATM   32  H48 UNL     1      -6.969  46.541 -17.900  1.00  0.00     0.209 HD
ENDBRANCH  30  31
ENDBRANCH  29  30
ENDBRANCH  28  29
ENDBRANCH  17  28
BRANCH   1  33
HETATM   33  C2  UNL     1      -6.679  48.730 -21.533  1.00  0.00     0.160 C 
HETATM   34  C1  UNL     1      -7.208  49.923 -22.277  1.00  0.00     0.094 C 
HETATM   35  O1  UNL     1      -7.336  48.173 -20.654  1.00  0.00    -0.295 OA
ENDBRANCH   1  33
TORSDOF 10
ENDMDL
MODEL 7
REMARK minimizedAffinity -7.82643127
REMARK  10 active torsions:
REMARK  status: ('A' for Active; 'I' for Inactive)
REMARK    1  A    between atoms: C2_2  and  C3_4 
REMARK    2  A    between atoms: C10_12  and  O3_13 
REMARK    3  A    between atoms: C13_16  and  C14_17 
REMARK    4  A    between atoms: C14_17  and  C16_19 
REMARK    5  A    between atoms: C16_19  and  C17_20 
REMARK    6  A    between atoms: C17_20  and  C18_21 
REMARK    7  A    between atoms: C26_29  and  C27_30 
REMARK    8  A    between atoms: C27_30  and  C28_31 
REMARK    9  A    between atoms: C28_31  and  C29_32 
REMARK   10  A    between atoms: C29_32  and  O4_33 
ROOT
HETATM    1  C3  UNL     1      -0.636  51.958 -24.710  1.00  0.00     0.151 A 
HETATM    2  O2  UNL     1      -0.844  53.335 -25.131  1.00  0.00    -0.360 OA
HETATM    3  C4  UNL     1      -1.993  52.506 -25.089  1.00  0.00     0.166 A 
HETATM    4  C5  UNL     1      -2.947  52.864 -24.002  1.00  0.00     0.041 C 
HETATM    5  C6  UNL     1      -3.052  51.777 -22.917  1.00  0.00     0.006 C 
HETATM    6  C7  UNL     1      -1.633  51.216 -22.417  1.00  0.00    -0.030 C 
HETATM    7  C8  UNL     1      -1.434  51.520 -20.904  1.00  0.00     0.016 C 
HETATM    8  C9  UNL     1      -1.581  49.660 -22.526  1.00  0.00     0.042 C 
HETATM    9  C10 UNL     1      -2.816  48.843 -22.054  1.00  0.00     0.128 C 
HETATM   10  C11 UNL     1      -4.186  49.579 -22.131  1.00  0.00    -0.006 C 
HETATM   11  C12 UNL     1      -4.538  50.188 -20.731  1.00  0.00     0.019 C 
HETATM   12  C13 UNL     1      -5.451  48.750 -22.572  1.00  0.00     0.001 C 
HETATM   13  C22 UNL     1      -6.411  49.863 -23.100  1.00  0.00     0.007 C 
HETATM   14  C23 UNL     1      -5.571  51.139 -23.313  1.00  0.00     0.011 C 
HETATM   15  C24 UNL     1      -4.108  50.659 -23.275  1.00  0.00    -0.029 C 
HETATM   16  C25 UNL     1      -3.845  50.063 -24.697  1.00  0.00     0.016 C 
HETATM   17  C26 UNL     1      -0.357  51.816 -23.208  1.00  0.00     0.039 C 
ENDROOT
BRANCH  12  18
HETATM   18  C14 UNL     1      -6.168  47.791 -21.565  1.00  0.00    -0.013 C 
HETATM   19  C15 UNL     1      -5.964  46.319 -21.942  1.00  0.00     0.010 C 
BRANCH  18  20
HETATM   20  C16 UNL     1      -7.683  48.137 -21.498  1.00  0.00     0.008 C 
BRANCH  20  21
HETATM   21  C17 UNL     1      -8.241  48.547 -20.126  1.00  0.00     0.028 C 
BRANCH  21  22
HETATM   22  C18 UNL     1      -9.649  48.083 -19.876  1.00  0.00    -0.025 C 
HETATM   23  C19 UNL     1     -10.278  47.965 -18.689  1.00  0.00    -0.091 C 
HETATM   24  C20 UNL     1      -9.637  48.216 -17.349  1.00  0.00     0.042 C 
HETATM   25  C21 UNL     1     -11.720  47.536 -18.618  1.00  0.00     0.042 C 
ENDBRANCH  21  22
ENDBRANCH  20  21
ENDBRANCH  18  20
ENDBRANCH  12  18
BRANCH   9  26
HETATM   26  O3  UNL     1      -2.845  47.656 -22.853  1.00  0.00    -0.395 OA
HETATM   27  H14 UNL     1      -2.039  47.143 -22.652  1.00  0.00     0.210 HD
ENDBRANCH   9  26
BRANCH  17  28
HETATM   28  C27 UNL     1       0.239  53.132 -22.613  1.00  0.00     0.011 C 
BRANCH  28  29
HETATM   29  C28 UNL     1       1.314  52.887 -21.542  1.00  0.00     0.027 C 
BRANCH  29  30
HETATM   30  C29 UNL     1       1.390  54.034 -20.537  1.00  0.00     0.164 C 
BRANCH  30  31
HETATM   31  O4  UNL     1       1.123  53.563 -19.222  1.00  0.00    -0.401 OA
HETATM   32  H48 UNL     1       1.262  54.318 -18.622  1.00  0.00     0.209 HD
ENDBRANCH  30  31
ENDBRANCH  29  30
ENDBRANCH  28  29
ENDBRANCH  17  28
BRANCH   1  33
HETATM   33  C2  UNL     1       0.201  51.215 -25.708  1.00  0.00     0.160 C 
HETATM   34  C1  UNL     1       1.606  51.704 -25.920  1.00  0.00     0.094 C 
HETATM   35  O1  UNL     1      -0.253  50.259 -26.335  1.00  0.00    -0.295 OA
ENDBRANCH   1  33
TORSDOF 10
ENDMDL
MODEL 8
REMARK minimizedAffinity -7.78684807
REMARK  10 active torsions:
REMARK  status: ('A' for Active; 'I' for Inactive)
REMARK    1  A    between atoms: C2_2  and  C3_4 
REMARK    2  A    between atoms: C10_12  and  O3_13 
REMARK    3  A    between atoms: C13_16  and  C14_17 
REMARK    4  A    between atoms: C14_17  and  C16_19 
REMARK    5  A    between atoms: C16_19  and  C17_20 
REMARK    6  A    between atoms: C17_20  and  C18_21 
REMARK    7  A    between atoms: C26_29  and  C27_30 
REMARK    8  A    between atoms: C27_30  and  C28_31 
REMARK    9  A    between atoms: C28_31  and  C29_32 
REMARK   10  A    between atoms: C29_32  and  O4_33 
ROOT
HETATM    1  C3  UNL     1      -7.064  47.543 -22.090  1.00  0.00     0.151 A 
HETATM    2  O2  UNL     1      -8.289  48.012 -21.459  1.00  0.00    -0.360 OA
HETATM    3  C4  UNL     1      -7.071  48.387 -20.836  1.00  0.00     0.166 A 
HETATM    4  C5  UNL     1      -6.765  49.840 -20.952  1.00  0.00     0.041 C 
HETATM    5  C6  UNL     1      -5.528  50.122 -21.823  1.00  0.00     0.006 C 
HETATM    6  C7  UNL     1      -5.509  49.312 -23.209  1.00  0.00    -0.030 C 
HETATM    7  C8  UNL     1      -5.538  50.297 -24.414  1.00  0.00     0.016 C 
HETATM    8  C9  UNL     1      -4.175  48.518 -23.371  1.00  0.00     0.042 C 
HETATM    9  C10 UNL     1      -2.842  49.228 -23.005  1.00  0.00     0.128 C 
HETATM   10  C11 UNL     1      -2.946  50.359 -21.939  1.00  0.00    -0.006 C 
HETATM   11  C12 UNL     1      -3.043  51.750 -22.652  1.00  0.00     0.019 C 
HETATM   12  C13 UNL     1      -1.784  50.494 -20.884  1.00  0.00     0.001 C 
HETATM   13  C22 UNL     1      -2.487  51.246 -19.709  1.00  0.00     0.007 C 
HETATM   14  C23 UNL     1      -4.009  51.152 -19.942  1.00  0.00     0.011 C 
HETATM   15  C24 UNL     1      -4.178  50.052 -21.006  1.00  0.00    -0.029 C 
HETATM   16  C25 UNL     1      -4.061  48.708 -20.217  1.00  0.00     0.016 C 
HETATM   17  C26 UNL     1      -6.734  48.274 -23.397  1.00  0.00     0.039 C 
ENDROOT
BRANCH  12  18
HETATM   18  C14 UNL     1      -0.425  51.164 -21.273  1.00  0.00    -0.013 C 
HETATM   19  C15 UNL     1       0.057  52.138 -20.192  1.00  0.00     0.010 C 
BRANCH  18  20
HETATM   20  C16 UNL     1      -0.569  51.887 -22.642  1.00  0.00     0.008 C 
BRANCH  20  21
HETATM   21  C17 UNL     1       0.715  52.459 -23.264  1.00  0.00     0.028 C 
BRANCH  21  22
HETATM   22  C18 UNL     1       0.493  53.196 -24.555  1.00  0.00    -0.025 C 
HETATM   23  C19 UNL     1       0.386  52.673 -25.793  1.00  0.00    -0.091 C 
HETATM   24  C20 UNL     1       0.549  51.212 -26.125  1.00  0.00     0.042 C 
HETATM   25  C21 UNL     1       0.105  53.554 -26.982  1.00  0.00     0.042 C 
ENDBRANCH  21  22
ENDBRANCH  20  21
ENDBRANCH  18  20
ENDBRANCH  12  18
BRANCH   9  26
HETATM   26  O3  UNL     1      -1.948  48.204 -22.557  1.00  0.00    -0.395 OA
HETATM   27  H14 UNL     1      -1.783  47.605 -23.309  1.00  0.00     0.210 HD
ENDBRANCH   9  26
BRANCH  17  28
HETATM   28  C27 UNL     1      -8.019  48.870 -24.056  1.00  0.00     0.011 C 
BRANCH  28  29
HETATM   29  C28 UNL     1      -8.642  47.955 -25.122  1.00  0.00     0.027 C 
BRANCH  29  30
HETATM   30  C29 UNL     1      -9.619  48.708 -26.021  1.00  0.00     0.164 C 
BRANCH  30  31
HETATM   31  O4  UNL     1      -9.474  50.113 -25.849  1.00  0.00    -0.401 OA
HETATM   32  H48 UNL     1     -10.063  50.536 -26.500  1.00  0.00     0.209 HD
ENDBRANCH  30  31
ENDBRANCH  29  30
ENDBRANCH  28  29
ENDBRANCH  17  28
BRANCH   1  33
HETATM   33  C2  UNL     1      -6.962  46.049 -22.013  1.00  0.00     0.160 C 
HETATM   34  C1  UNL     1      -8.202  45.262 -22.331  1.00  0.00     0.094 C 
HETATM   35  O1  UNL     1      -5.913  45.497 -21.684  1.00  0.00    -0.295 OA
ENDBRANCH   1  33
TORSDOF 10
ENDMDL
MODEL 9
REMARK minimizedAffinity -7.75221157
REMARK  10 active torsions:
REMARK  status: ('A' for Active; 'I' for Inactive)
REMARK    1  A    between atoms: C2_2  and  C3_4 
REMARK    2  A    between atoms: C10_12  and  O3_13 
REMARK    3  A    between atoms: C13_16  and  C14_17 
REMARK    4  A    between atoms: C14_17  and  C16_19 
REMARK    5  A    between atoms: C16_19  and  C17_20 
REMARK    6  A    between atoms: C17_20  and  C18_21 
REMARK    7  A    between atoms: C26_29  and  C27_30 
REMARK    8  A    between atoms: C27_30  and  C28_31 
REMARK    9  A    between atoms: C28_31  and  C29_32 
REMARK   10  A    between atoms: C29_32  and  O4_33 
ROOT
HETATM    1  C3  UNL     1      -0.987  51.144 -20.452  1.00  0.00     0.151 A 
HETATM    2  O2  UNL     1       0.278  50.436 -20.323  1.00  0.00    -0.360 OA
HETATM    3  C4  UNL     1      -0.900  49.658 -20.189  1.00  0.00     0.166 A 
HETATM    4  C5  UNL     1      -1.125  48.718 -21.323  1.00  0.00     0.041 C 
HETATM    5  C6  UNL     1      -2.366  49.079 -22.160  1.00  0.00     0.006 C 
HETATM    6  C7  UNL     1      -2.466  50.635 -22.539  1.00  0.00    -0.030 C 
HETATM    7  C8  UNL     1      -2.410  50.822 -24.083  1.00  0.00     0.016 C 
HETATM    8  C9  UNL     1      -3.847  51.224 -22.112  1.00  0.00     0.042 C 
HETATM    9  C10 UNL     1      -5.127  50.391 -22.401  1.00  0.00     0.128 C 
HETATM   10  C11 UNL     1      -4.931  48.848 -22.473  1.00  0.00    -0.006 C 
HETATM   11  C12 UNL     1      -4.772  48.404 -23.967  1.00  0.00     0.019 C 
HETATM   12  C13 UNL     1      -6.057  47.928 -21.866  1.00  0.00     0.001 C 
HETATM   13  C22 UNL     1      -5.282  46.603 -21.575  1.00  0.00     0.007 C 
HETATM   14  C23 UNL     1      -3.775  46.924 -21.633  1.00  0.00     0.011 C 
HETATM   15  C24 UNL     1      -3.696  48.460 -21.575  1.00  0.00    -0.029 C 
HETATM   16  C25 UNL     1      -3.870  48.816 -20.063  1.00  0.00     0.016 C 
HETATM   17  C26 UNL     1      -1.307  51.560 -21.893  1.00  0.00     0.039 C 
ENDROOT
BRANCH  12  18
HETATM   18  C14 UNL     1      -7.384  47.666 -22.650  1.00  0.00    -0.013 C 
HETATM   19  C15 UNL     1      -8.619  47.946 -21.784  1.00  0.00     0.010 C 
BRANCH  18  20
HETATM   20  C16 UNL     1      -7.403  46.205 -23.180  1.00  0.00     0.008 C 
BRANCH  20  21
HETATM   21  C17 UNL     1      -8.121  45.959 -24.517  1.00  0.00     0.028 C 
BRANCH  21  22
HETATM   22  C18 UNL     1      -7.620  46.817 -25.646  1.00  0.00    -0.025 C 
HETATM   23  C19 UNL     1      -7.601  46.518 -26.960  1.00  0.00    -0.091 C 
HETATM   24  C20 UNL     1      -8.023  45.195 -27.546  1.00  0.00     0.042 C 
HETATM   25  C21 UNL     1      -7.115  47.521 -27.973  1.00  0.00     0.042 C 
ENDBRANCH  21  22
ENDBRANCH  20  21
ENDBRANCH  18  20
ENDBRANCH  12  18
BRANCH   9  26
HETATM   26  O3  UNL     1      -6.067  50.726 -21.374  1.00  0.00    -0.395 OA
HETATM   27  H14 UNL     1      -6.285  51.672 -21.469  1.00  0.00     0.210 HD
ENDBRANCH   9  26
BRANCH  17  28
HETATM   28  C27 UNL     1      -0.007  51.696 -22.749  1.00  0.00     0.011 C 
BRANCH  28  29
HETATM   29  C28 UNL     1       0.629  53.093 -22.679  1.00  0.00     0.027 C 
BRANCH  29  30
HETATM   30  C29 UNL     1       0.724  53.747 -24.055  1.00  0.00     0.164 C 
BRANCH  30  31
HETATM   31  O4  UNL     1       1.408  54.991 -23.970  1.00  0.00    -0.401 OA
HETATM   32  H48 UNL     1       1.505  55.319 -24.882  1.00  0.00     0.209 HD
ENDBRANCH  30  31
ENDBRANCH  29  30
ENDBRANCH  28  29
ENDBRANCH  17  28
BRANCH   1  33
HETATM   33  C2  UNL     1      -1.172  52.116 -19.326  1.00  0.00     0.160 C 
HETATM   34  C1  UNL     1      -0.021  53.031 -19.017  1.00  0.00     0.094 C 
HETATM   35  O1  UNL     1      -2.216  52.146 -18.674  1.00  0.00    -0.295 OA
ENDBRANCH   1  33
TORSDOF 10
ENDMDL
