MODEL 1
REMARK minimizedAffinity -8.86163425
REMARK CNNscore 0.413501889
REMARK CNNaffinity 7.07400179
REMARK  4 active torsions:
REMARK  status: ('A' for Active; 'I' for Inactive)
REMARK    1  A    between atoms: C4_4  and  C5_5 
REMARK    2  A    between atoms: C5_5  and  C6_7 
REMARK    3  A    between atoms: C6_7  and  C7_8 
REMARK    4  A    between atoms: C7_8  and  C9_10 
ROOT
HETATM    1  C9  UNL     1      -6.709   7.351  14.518  1.00  0.00    -0.001 C 
HETATM    2  C10 UNL     1      -6.381   8.704  15.218  1.00  0.00     0.007 C 
HETATM    3  C11 UNL     1      -4.864   8.952  15.059  1.00  0.00     0.015 C 
HETATM    4  C12 UNL     1      -4.411   7.915  14.017  1.00  0.00    -0.013 C 
HETATM    5  C13 UNL     1      -4.756   8.536  12.614  1.00  0.00     0.021 C 
HETATM    6  C14 UNL     1      -2.926   7.551  13.937  1.00  0.00    -0.070 C 
HETATM    7  C15 UNL     1      -1.981   8.507  13.999  1.00  0.00    -0.022 C 
HETATM    8  C16 UNL     1      -0.566   8.303  13.557  1.00  0.00     0.034 C 
HETATM    9  C17 UNL     1      -0.477   7.152  12.529  1.00  0.00     0.013 C 
HETATM   10  C18 UNL     1       0.920   7.054  11.815  1.00  0.00     0.018 C 
HETATM   11  C19 UNL     1       1.096   8.285  10.886  1.00  0.00     0.023 C 
HETATM   12  C20 UNL     1       2.143   7.020  12.746  1.00  0.00     0.023 C 
HETATM   13  C21 UNL     1       0.957   5.792  10.940  1.00  0.00     0.135 C 
HETATM   14  O2  UNL     1       1.460   5.782   9.815  1.00  0.00    -0.297 OA
HETATM   15  C22 UNL     1       0.439   4.509  11.543  1.00  0.00     0.080 C 
HETATM   16  C23 UNL     1      -0.969   4.710  12.080  1.00  0.00     0.017 C 
HETATM   17  C24 UNL     1      -1.076   5.835  13.139  1.00  0.00    -0.031 C 
HETATM   18  C25 UNL     1      -0.320   5.373  14.418  1.00  0.00     0.016 C 
HETATM   19  C26 UNL     1      -2.590   6.089  13.599  1.00  0.00     0.024 C 
HETATM   20  C27 UNL     1      -3.706   5.459  12.734  1.00  0.00     0.010 C 
HETATM   21  C28 UNL     1      -5.141   5.596  13.319  1.00  0.00     0.011 C 
HETATM   22  C29 UNL     1      -5.298   6.681  14.412  1.00  0.00    -0.029 C 
HETATM   23  C30 UNL     1      -4.960   6.075  15.811  1.00  0.00     0.016 C 
ENDROOT
BRANCH   1  24
HETATM   24  C7  UNL     1      -7.881   6.596  15.209  1.00  0.00    -0.007 C 
HETATM   25  C8  UNL     1      -7.474   5.212  15.723  1.00  0.00     0.011 C 
BRANCH  24  26
HETATM   26  C6  UNL     1      -9.134   6.472  14.309  1.00  0.00     0.087 C 
BRANCH  26  27
HETATM   27  C5  UNL     1     -10.292   7.370  14.718  1.00  0.00     0.149 C 
HETATM   28  O1  UNL     1     -10.124   8.375  15.404  1.00  0.00    -0.293 OA
BRANCH  27  29
HETATM   29  C4  UNL     1     -11.656   6.963  14.261  1.00  0.00     0.052 C 
HETATM   30  C2  UNL     1     -12.367   7.585  13.304  1.00  0.00    -0.084 C 
HETATM   31  C1  UNL     1     -11.883   8.756  12.493  1.00  0.00     0.043 C 
HETATM   32  C3  UNL     1     -13.761   7.124  12.969  1.00  0.00     0.043 C 
ENDBRANCH  27  29
ENDBRANCH  26  27
ENDBRANCH  24  26
ENDBRANCH   1  24
TORSDOF 4
ENDMDL
MODEL 2
REMARK minimizedAffinity -9.00848484
REMARK CNNscore 0.402978152
REMARK CNNaffinity 7.01664495
REMARK  4 active torsions:
REMARK  status: ('A' for Active; 'I' for Inactive)
REMARK    1  A    between atoms: C4_4  and  C5_5 
REMARK    2  A    between atoms: C5_5  and  C6_7 
REMARK    3  A    between atoms: C6_7  and  C7_8 
REMARK    4  A    between atoms: C7_8  and  C9_10 
ROOT
HETATM    1  C9  UNL     1      -6.202   7.240  14.451  1.00  0.00    -0.001 C 
HETATM    2  C10 UNL     1      -5.902   8.619  15.112  1.00  0.00     0.007 C 
HETATM    3  C11 UNL     1      -4.401   8.917  14.903  1.00  0.00     0.015 C 
HETATM    4  C12 UNL     1      -3.941   7.874  13.869  1.00  0.00    -0.013 C 
HETATM    5  C13 UNL     1      -4.350   8.451  12.465  1.00  0.00     0.021 C 
HETATM    6  C14 UNL     1      -2.447   7.561  13.753  1.00  0.00    -0.070 C 
HETATM    7  C15 UNL     1      -1.535   8.551  13.766  1.00  0.00    -0.022 C 
HETATM    8  C16 UNL     1      -0.128   8.387  13.286  1.00  0.00     0.034 C 
HETATM    9  C17 UNL     1      -0.028   7.217  12.281  1.00  0.00     0.013 C 
HETATM   10  C18 UNL     1       1.351   7.153  11.527  1.00  0.00     0.018 C 
HETATM   11  C19 UNL     1       1.455   8.369  10.567  1.00  0.00     0.023 C 
HETATM   12  C20 UNL     1       2.601   7.183  12.421  1.00  0.00     0.023 C 
HETATM   13  C21 UNL     1       1.407   5.874  10.678  1.00  0.00     0.135 C 
HETATM   14  O2  UNL     1       1.878   5.856   9.538  1.00  0.00    -0.297 OA
HETATM   15  C22 UNL     1       0.953   4.587  11.323  1.00  0.00     0.080 C 
HETATM   16  C23 UNL     1      -0.444   4.750  11.898  1.00  0.00     0.017 C 
HETATM   17  C24 UNL     1      -0.561   5.894  12.935  1.00  0.00    -0.031 C 
HETATM   18  C25 UNL     1       0.249   5.487  14.201  1.00  0.00     0.016 C 
HETATM   19  C26 UNL     1      -2.068   6.104  13.436  1.00  0.00     0.024 C 
HETATM   20  C27 UNL     1      -3.186   5.416  12.618  1.00  0.00     0.010 C 
HETATM   21  C28 UNL     1      -4.607   5.516  13.243  1.00  0.00     0.011 C 
HETATM   22  C29 UNL     1      -4.771   6.618  14.317  1.00  0.00    -0.029 C 
HETATM   23  C30 UNL     1      -4.370   6.056  15.717  1.00  0.00     0.016 C 
ENDROOT
BRANCH   1  24
HETATM   24  C7  UNL     1      -7.325   6.460  15.193  1.00  0.00    -0.007 C 
HETATM   25  C8  UNL     1      -7.389   6.791  16.687  1.00  0.00     0.011 C 
BRANCH  24  26
HETATM   26  C6  UNL     1      -7.225   4.928  15.001  1.00  0.00     0.087 C 
BRANCH  26  27
HETATM   27  C5  UNL     1      -7.847   4.415  13.711  1.00  0.00     0.149 C 
HETATM   28  O1  UNL     1      -8.576   5.119  13.016  1.00  0.00    -0.293 OA
BRANCH  27  29
HETATM   29  C4  UNL     1      -7.549   3.000  13.333  1.00  0.00     0.052 C 
HETATM   30  C2  UNL     1      -6.822   2.623  12.266  1.00  0.00    -0.084 C 
HETATM   31  C1  UNL     1      -6.140   3.564  11.311  1.00  0.00     0.043 C 
HETATM   32  C3  UNL     1      -6.638   1.163  11.946  1.00  0.00     0.043 C 
ENDBRANCH  27  29
ENDBRANCH  26  27
ENDBRANCH  24  26
ENDBRANCH   1  24
TORSDOF 4
ENDMDL
MODEL 3
REMARK minimizedAffinity -8.15515518
REMARK CNNscore 0.333671421
REMARK CNNaffinity 6.83929825
REMARK  4 active torsions:
REMARK  status: ('A' for Active; 'I' for Inactive)
REMARK    1  A    between atoms: C4_4  and  C5_5 
REMARK    2  A    between atoms: C5_5  and  C6_7 
REMARK    3  A    between atoms: C6_7  and  C7_8 
REMARK    4  A    between atoms: C7_8  and  C9_10 
ROOT
HETATM    1  C9  UNL     1       1.314   6.550  13.308  1.00  0.00    -0.001 C 
HETATM    2  C10 UNL     1       1.585   7.481  14.529  1.00  0.00     0.007 C 
HETATM    3  C11 UNL     1       0.216   7.854  15.140  1.00  0.00     0.015 C 
HETATM    4  C12 UNL     1      -0.781   6.894  14.468  1.00  0.00    -0.013 C 
HETATM    5  C13 UNL     1      -0.684   5.543  15.267  1.00  0.00     0.021 C 
HETATM    6  C14 UNL     1      -2.268   7.254  14.473  1.00  0.00    -0.070 C 
HETATM    7  C15 UNL     1      -2.855   7.736  15.584  1.00  0.00    -0.022 C 
HETATM    8  C16 UNL     1      -4.335   7.754  15.799  1.00  0.00     0.034 C 
HETATM    9  C17 UNL     1      -5.024   6.676  14.932  1.00  0.00     0.013 C 
HETATM   10  C18 UNL     1      -6.535   6.446  15.301  1.00  0.00     0.018 C 
HETATM   11  C19 UNL     1      -6.615   5.784  16.702  1.00  0.00     0.023 C 
HETATM   12  C20 UNL     1      -7.408   7.711  15.354  1.00  0.00     0.023 C 
HETATM   13  C21 UNL     1      -7.165   5.481  14.284  1.00  0.00     0.135 C 
HETATM   14  O2  UNL     1      -7.946   4.586  14.618  1.00  0.00    -0.297 OA
HETATM   15  C22 UNL     1      -6.877   5.719  12.822  1.00  0.00     0.080 C 
HETATM   16  C23 UNL     1      -5.377   5.793  12.587  1.00  0.00     0.017 C 
HETATM   17  C24 UNL     1      -4.669   6.890  13.418  1.00  0.00    -0.031 C 
HETATM   18  C25 UNL     1      -5.134   8.278  12.888  1.00  0.00     0.016 C 
HETATM   19  C26 UNL     1      -3.079   6.865  13.224  1.00  0.00     0.024 C 
HETATM   20  C27 UNL     1      -2.470   5.613  12.548  1.00  0.00     0.010 C 
HETATM   21  C28 UNL     1      -0.950   5.715  12.236  1.00  0.00     0.011 C 
HETATM   22  C29 UNL     1      -0.198   6.824  13.011  1.00  0.00    -0.029 C 
HETATM   23  C30 UNL     1      -0.285   8.171  12.225  1.00  0.00     0.016 C 
ENDROOT
BRANCH   1  24
HETATM   24  C7  UNL     1       2.375   6.726  12.184  1.00  0.00    -0.007 C 
HETATM   25  C8  UNL     1       2.928   8.153  12.108  1.00  0.00     0.011 C 
BRANCH  24  26
HETATM   26  C6  UNL     1       1.858   6.292  10.792  1.00  0.00     0.087 C 
BRANCH  26  27
HETATM   27  C5  UNL     1       2.952   6.046   9.764  1.00  0.00     0.149 C 
HETATM   28  O1  UNL     1       4.123   5.867  10.092  1.00  0.00    -0.293 OA
BRANCH  27  29
HETATM   29  C4  UNL     1       2.542   6.051   8.327  1.00  0.00     0.052 C 
HETATM   30  C2  UNL     1       2.372   7.154   7.576  1.00  0.00    -0.084 C 
HETATM   31  C1  UNL     1       2.623   8.562   8.043  1.00  0.00     0.043 C 
HETATM   32  C3  UNL     1       1.894   7.041   6.152  1.00  0.00     0.043 C 
ENDBRANCH  27  29
ENDBRANCH  26  27
ENDBRANCH  24  26
ENDBRANCH   1  24
TORSDOF 4
ENDMDL
MODEL 4
REMARK minimizedAffinity -7.335042
REMARK CNNscore 0.330141038
REMARK CNNaffinity 6.38645744
REMARK  4 active torsions:
REMARK  status: ('A' for Active; 'I' for Inactive)
REMARK    1  A    between atoms: C4_4  and  C5_5 
REMARK    2  A    between atoms: C5_5  and  C6_7 
REMARK    3  A    between atoms: C6_7  and  C7_8 
REMARK    4  A    between atoms: C7_8  and  C9_10 
ROOT
HETATM    1  C9  UNL     1     -10.205   7.613  14.906  1.00  0.00    -0.001 C 
HETATM    2  C10 UNL     1      -9.918   9.138  14.763  1.00  0.00     0.007 C 
HETATM    3  C11 UNL     1     -11.237   9.819  14.333  1.00  0.00     0.015 C 
HETATM    4  C12 UNL     1     -12.314   8.740  14.540  1.00  0.00    -0.013 C 
HETATM    5  C13 UNL     1     -12.678   8.784  16.069  1.00  0.00     0.021 C 
HETATM    6  C14 UNL     1     -13.650   8.883  13.808  1.00  0.00    -0.070 C 
HETATM    7  C15 UNL     1     -14.274  10.074  13.742  1.00  0.00    -0.022 C 
HETATM    8  C16 UNL     1     -15.721  10.234  13.396  1.00  0.00     0.034 C 
HETATM    9  C17 UNL     1     -16.501   8.935  13.703  1.00  0.00     0.013 C 
HETATM   10  C18 UNL     1     -18.061   9.108  13.625  1.00  0.00     0.018 C 
HETATM   11  C19 UNL     1     -18.525  10.008  14.801  1.00  0.00     0.023 C 
HETATM   12  C20 UNL     1     -18.598   9.747  12.334  1.00  0.00     0.023 C 
HETATM   13  C21 UNL     1     -18.733   7.735  13.786  1.00  0.00     0.135 C 
HETATM   14  O2  UNL     1     -19.751   7.572  14.463  1.00  0.00    -0.297 OA
HETATM   15  C22 UNL     1     -18.162   6.581  12.999  1.00  0.00     0.080 C 
HETATM   16  C23 UNL     1     -16.672   6.448  13.265  1.00  0.00     0.017 C 
HETATM   17  C24 UNL     1     -15.863   7.726  12.931  1.00  0.00    -0.031 C 
HETATM   18  C25 UNL     1     -15.886   7.926  11.387  1.00  0.00     0.016 C 
HETATM   19  C26 UNL     1     -14.317   7.583  13.326  1.00  0.00     0.024 C 
HETATM   20  C27 UNL     1     -13.929   6.400  14.243  1.00  0.00     0.010 C 
HETATM   21  C28 UNL     1     -12.399   6.214  14.456  1.00  0.00     0.011 C 
HETATM   22  C29 UNL     1     -11.537   7.448  14.099  1.00  0.00    -0.029 C 
HETATM   23  C30 UNL     1     -11.166   7.415  12.583  1.00  0.00     0.016 C 
ENDROOT
BRANCH   1  24
HETATM   24  C7  UNL     1      -8.966   6.743  14.551  1.00  0.00    -0.007 C 
HETATM   25  C8  UNL     1      -7.641   7.482  14.762  1.00  0.00     0.011 C 
BRANCH  24  26
HETATM   26  C6  UNL     1      -9.020   6.170  13.114  1.00  0.00     0.087 C 
BRANCH  26  27
HETATM   27  C5  UNL     1      -8.315   4.834  12.943  1.00  0.00     0.149 C 
HETATM   28  O1  UNL     1      -8.935   3.773  12.887  1.00  0.00    -0.293 OA
BRANCH  27  29
HETATM   29  C4  UNL     1      -6.823   4.863  12.866  1.00  0.00     0.052 C 
HETATM   30  C2  UNL     1      -6.046   3.814  12.537  1.00  0.00    -0.084 C 
HETATM   31  C1  UNL     1      -6.554   2.457  12.136  1.00  0.00     0.043 C 
HETATM   32  C3  UNL     1      -4.545   3.943  12.553  1.00  0.00     0.043 C 
ENDBRANCH  27  29
ENDBRANCH  26  27
ENDBRANCH  24  26
ENDBRANCH   1  24
TORSDOF 4
ENDMDL
MODEL 5
REMARK minimizedAffinity -8.04910183
REMARK CNNscore 0.328902245
REMARK CNNaffinity 6.82010841
REMARK  4 active torsions:
REMARK  status: ('A' for Active; 'I' for Inactive)
REMARK    1  A    between atoms: C4_4  and  C5_5 
REMARK    2  A    between atoms: C5_5  and  C6_7 
REMARK    3  A    between atoms: C6_7  and  C7_8 
REMARK    4  A    between atoms: C7_8  and  C9_10 
ROOT
HETATM    1  C9  UNL     1      -6.084   4.459  12.460  1.00  0.00    -0.001 C 
HETATM    2  C10 UNL     1      -7.190   3.367  12.345  1.00  0.00     0.007 C 
HETATM    3  C11 UNL     1      -8.499   3.972  12.898  1.00  0.00     0.015 C 
HETATM    4  C12 UNL     1      -8.205   5.477  13.025  1.00  0.00    -0.013 C 
HETATM    5  C13 UNL     1      -8.420   6.080  11.590  1.00  0.00     0.021 C 
HETATM    6  C14 UNL     1      -9.083   6.324  13.950  1.00  0.00    -0.070 C 
HETATM    7  C15 UNL     1     -10.420   6.168  13.959  1.00  0.00    -0.022 C 
HETATM    8  C16 UNL     1     -11.367   7.180  14.523  1.00  0.00     0.034 C 
HETATM    9  C17 UNL     1     -10.723   8.584  14.532  1.00  0.00     0.013 C 
HETATM   10  C18 UNL     1     -11.741   9.739  14.851  1.00  0.00     0.018 C 
HETATM   11  C19 UNL     1     -12.727   9.882  13.662  1.00  0.00     0.023 C 
HETATM   12  C20 UNL     1     -12.592   9.547  16.117  1.00  0.00     0.023 C 
HETATM   13  C21 UNL     1     -10.977  11.065  14.994  1.00  0.00     0.135 C 
HETATM   14  O2  UNL     1     -11.401  12.126  14.529  1.00  0.00    -0.297 OA
HETATM   15  C22 UNL     1      -9.714  11.059  15.820  1.00  0.00     0.080 C 
HETATM   16  C23 UNL     1      -8.765   9.980  15.324  1.00  0.00     0.017 C 
HETATM   17  C24 UNL     1      -9.377   8.558  15.340  1.00  0.00    -0.031 C 
HETATM   18  C25 UNL     1      -9.580   8.132  16.823  1.00  0.00     0.016 C 
HETATM   19  C26 UNL     1      -8.387   7.467  14.709  1.00  0.00     0.024 C 
HETATM   20  C27 UNL     1      -7.174   7.994  13.907  1.00  0.00     0.010 C 
HETATM   21  C28 UNL     1      -6.161   6.901  13.463  1.00  0.00     0.011 C 
HETATM   22  C29 UNL     1      -6.707   5.454  13.497  1.00  0.00    -0.029 C 
HETATM   23  C30 UNL     1      -6.496   4.842  14.918  1.00  0.00     0.016 C 
ENDROOT
BRANCH   1  24
HETATM   24  C7  UNL     1      -4.675   3.850  12.712  1.00  0.00    -0.007 C 
HETATM   25  C8  UNL     1      -3.659   4.888  13.199  1.00  0.00     0.011 C 
BRANCH  24  26
HETATM   26  C6  UNL     1      -4.110   3.103  11.480  1.00  0.00     0.087 C 
BRANCH  26  27
HETATM   27  C5  UNL     1      -2.592   3.098  11.391  1.00  0.00     0.149 C 
HETATM   28  O1  UNL     1      -1.926   2.111  11.695  1.00  0.00    -0.293 OA
BRANCH  27  29
HETATM   29  C4  UNL     1      -1.938   4.362  10.933  1.00  0.00     0.052 C 
HETATM   30  C2  UNL     1      -0.711   4.774  11.301  1.00  0.00    -0.084 C 
HETATM   31  C1  UNL     1       0.228   4.002  12.187  1.00  0.00     0.043 C 
HETATM   32  C3  UNL     1      -0.178   6.100  10.825  1.00  0.00     0.043 C 
ENDBRANCH  27  29
ENDBRANCH  26  27
ENDBRANCH  24  26
ENDBRANCH   1  24
TORSDOF 4
ENDMDL
MODEL 6
REMARK minimizedAffinity -9.1562376
REMARK CNNscore 0.301067114
REMARK CNNaffinity 6.81167459
REMARK  4 active torsions:
REMARK  status: ('A' for Active; 'I' for Inactive)
REMARK    1  A    between atoms: C4_4  and  C5_5 
REMARK    2  A    between atoms: C5_5  and  C6_7 
REMARK    3  A    between atoms: C6_7  and  C7_8 
REMARK    4  A    between atoms: C7_8  and  C9_10 
ROOT
HETATM    1  C9  UNL     1       1.006   6.480  11.717  1.00  0.00    -0.001 C 
HETATM    2  C10 UNL     1       1.281   4.946  11.679  1.00  0.00     0.007 C 
HETATM    3  C11 UNL     1      -0.014   4.232  12.125  1.00  0.00     0.015 C 
HETATM    4  C12 UNL     1      -1.089   5.334  12.106  1.00  0.00    -0.013 C 
HETATM    5  C13 UNL     1      -1.556   5.454  10.609  1.00  0.00     0.021 C 
HETATM    6  C14 UNL     1      -2.374   5.123  12.909  1.00  0.00    -0.070 C 
HETATM    7  C15 UNL     1      -3.008   3.936  12.892  1.00  0.00    -0.022 C 
HETATM    8  C16 UNL     1      -4.430   3.750  13.318  1.00  0.00     0.034 C 
HETATM    9  C17 UNL     1      -5.212   5.078  13.203  1.00  0.00     0.013 C 
HETATM   10  C18 UNL     1      -6.766   4.908  13.368  1.00  0.00     0.018 C 
HETATM   11  C19 UNL     1      -7.320   4.140  12.139  1.00  0.00     0.023 C 
HETATM   12  C20 UNL     1      -7.223   4.140  14.619  1.00  0.00     0.023 C 
HETATM   13  C21 UNL     1      -7.428   6.295  13.398  1.00  0.00     0.135 C 
HETATM   14  O2  UNL     1      -8.487   6.534  12.813  1.00  0.00    -0.297 OA
HETATM   15  C22 UNL     1      -6.790   7.356  14.261  1.00  0.00     0.080 C 
HETATM   16  C23 UNL     1      -5.319   7.506  13.910  1.00  0.00     0.017 C 
HETATM   17  C24 UNL     1      -4.508   6.196  14.052  1.00  0.00    -0.031 C 
HETATM   18  C25 UNL     1      -4.429   5.834  15.563  1.00  0.00     0.016 C 
HETATM   19  C26 UNL     1      -2.989   6.369  13.569  1.00  0.00     0.024 C 
HETATM   20  C27 UNL     1      -2.648   7.640  12.756  1.00  0.00     0.010 C 
HETATM   21  C28 UNL     1      -1.134   7.838  12.460  1.00  0.00     0.011 C 
HETATM   22  C29 UNL     1      -0.267   6.567  12.625  1.00  0.00    -0.029 C 
HETATM   23  C30 UNL     1       0.206   6.438  14.108  1.00  0.00     0.016 C 
ENDROOT
BRANCH   1  24
HETATM   24  C7  UNL     1       2.278   7.300  12.076  1.00  0.00    -0.007 C 
HETATM   25  C8  UNL     1       1.981   8.476  13.012  1.00  0.00     0.011 C 
BRANCH  24  26
HETATM   26  C6  UNL     1       3.043   7.806  10.829  1.00  0.00     0.087 C 
BRANCH  26  27
HETATM   27  C5  UNL     1       3.570   6.702   9.926  1.00  0.00     0.149 C 
HETATM   28  O1  UNL     1       4.570   6.047  10.214  1.00  0.00    -0.293 OA
BRANCH  27  29
HETATM   29  C4  UNL     1       2.827   6.459   8.652  1.00  0.00     0.052 C 
HETATM   30  C2  UNL     1       2.564   7.393   7.720  1.00  0.00    -0.084 C 
HETATM   31  C1  UNL     1       3.028   8.823   7.779  1.00  0.00     0.043 C 
HETATM   32  C3  UNL     1       1.750   7.048   6.502  1.00  0.00     0.043 C 
ENDBRANCH  27  29
ENDBRANCH  26  27
ENDBRANCH  24  26
ENDBRANCH   1  24
TORSDOF 4
ENDMDL
MODEL 7
REMARK minimizedAffinity -6.78991556
REMARK CNNscore 0.299917132
REMARK CNNaffinity 5.96689272
REMARK  4 active torsions:
REMARK  status: ('A' for Active; 'I' for Inactive)
REMARK    1  A    between atoms: C4_4  and  C5_5 
REMARK    2  A    between atoms: C5_5  and  C6_7 
REMARK    3  A    between atoms: C6_7  and  C7_8 
REMARK    4  A    between atoms: C7_8  and  C9_10 
ROOT
HETATM    1  C9  UNL     1     -13.358   8.249  23.224  1.00  0.00    -0.001 C 
HETATM    2  C10 UNL     1     -13.888   8.655  24.632  1.00  0.00     0.007 C 
HETATM    3  C11 UNL     1     -13.272  10.028  24.981  1.00  0.00     0.015 C 
HETATM    4  C12 UNL     1     -12.662  10.525  23.658  1.00  0.00    -0.013 C 
HETATM    5  C13 UNL     1     -13.852  11.157  22.847  1.00  0.00     0.021 C 
HETATM    6  C14 UNL     1     -11.589  11.614  23.705  1.00  0.00    -0.070 C 
HETATM    7  C15 UNL     1     -11.726  12.680  24.515  1.00  0.00    -0.022 C 
HETATM    8  C16 UNL     1     -10.948  13.948  24.356  1.00  0.00     0.034 C 
HETATM    9  C17 UNL     1     -10.455  14.105  22.900  1.00  0.00     0.013 C 
HETATM   10  C18 UNL     1      -9.870  15.530  22.586  1.00  0.00     0.018 C 
HETATM   11  C19 UNL     1     -11.026  16.565  22.614  1.00  0.00     0.023 C 
HETATM   12  C20 UNL     1      -8.793  16.037  23.560  1.00  0.00     0.023 C 
HETATM   13  C21 UNL     1      -9.266  15.532  21.173  1.00  0.00     0.135 C 
HETATM   14  O2  UNL     1      -9.409  16.478  20.394  1.00  0.00    -0.297 OA
HETATM   15  C22 UNL     1      -8.392  14.365  20.784  1.00  0.00     0.080 C 
HETATM   16  C23 UNL     1      -9.127  13.056  21.018  1.00  0.00     0.017 C 
HETATM   17  C24 UNL     1      -9.599  12.858  22.479  1.00  0.00    -0.031 C 
HETATM   18  C25 UNL     1      -8.341  12.671  23.376  1.00  0.00     0.016 C 
HETATM   19  C26 UNL     1     -10.463  11.521  22.661  1.00  0.00     0.024 C 
HETATM   20  C27 UNL     1     -10.970  10.828  21.374  1.00  0.00     0.010 C 
HETATM   21  C28 UNL     1     -11.655   9.450  21.602  1.00  0.00     0.011 C 
HETATM   22  C29 UNL     1     -12.112   9.183  23.056  1.00  0.00    -0.029 C 
HETATM   23  C30 UNL     1     -10.940   8.552  23.872  1.00  0.00     0.016 C 
ENDROOT
BRANCH   1  24
HETATM   24  C7  UNL     1     -13.204   6.708  23.072  1.00  0.00    -0.007 C 
HETATM   25  C8  UNL     1     -13.868   6.169  21.801  1.00  0.00     0.011 C 
BRANCH  24  26
HETATM   26  C6  UNL     1     -13.718   5.925  24.303  1.00  0.00     0.087 C 
BRANCH  26  27
HETATM   27  C5  UNL     1     -14.134   4.492  24.007  1.00  0.00     0.149 C 
HETATM   28  O1  UNL     1     -15.313   4.169  23.881  1.00  0.00    -0.293 OA
BRANCH  27  29
HETATM   29  C4  UNL     1     -13.038   3.481  23.892  1.00  0.00     0.052 C 
HETATM   30  C2  UNL     1     -12.619   2.681  24.889  1.00  0.00    -0.084 C 
HETATM   31  C1  UNL     1     -13.223   2.629  26.266  1.00  0.00     0.043 C 
HETATM   32  C3  UNL     1     -11.461   1.741  24.677  1.00  0.00     0.043 C 
ENDBRANCH  27  29
ENDBRANCH  26  27
ENDBRANCH  24  26
ENDBRANCH   1  24
TORSDOF 4
ENDMDL
MODEL 8
REMARK minimizedAffinity -8.27308083
REMARK CNNscore 0.270036221
REMARK CNNaffinity 6.48524523
REMARK  4 active torsions:
REMARK  status: ('A' for Active; 'I' for Inactive)
REMARK    1  A    between atoms: C4_4  and  C5_5 
REMARK    2  A    between atoms: C5_5  and  C6_7 
REMARK    3  A    between atoms: C6_7  and  C7_8 
REMARK    4  A    between atoms: C7_8  and  C9_10 
ROOT
HETATM    1  C9  UNL     1      -2.332   6.693  13.322  1.00  0.00    -0.001 C 
HETATM    2  C10 UNL     1      -3.737   7.115  12.795  1.00  0.00     0.007 C 
HETATM    3  C11 UNL     1      -4.197   8.333  13.627  1.00  0.00     0.015 C 
HETATM    4  C12 UNL     1      -2.936   8.778  14.389  1.00  0.00    -0.013 C 
HETATM    5  C13 UNL     1      -2.111   9.657  13.379  1.00  0.00     0.021 C 
HETATM    6  C14 UNL     1      -3.099   9.650  15.636  1.00  0.00    -0.070 C 
HETATM    7  C15 UNL     1      -3.965  10.680  15.646  1.00  0.00    -0.022 C 
HETATM    8  C16 UNL     1      -3.920  11.791  16.647  1.00  0.00     0.034 C 
HETATM    9  C17 UNL     1      -2.500  11.932  17.241  1.00  0.00     0.013 C 
HETATM   10  C18 UNL     1      -2.302  13.240  18.089  1.00  0.00     0.018 C 
HETATM   11  C19 UNL     1      -2.339  14.466  17.138  1.00  0.00     0.023 C 
HETATM   12  C20 UNL     1      -3.353  13.491  19.183  1.00  0.00     0.023 C 
HETATM   13  C21 UNL     1      -0.920  13.205  18.762  1.00  0.00     0.135 C 
HETATM   14  O2  UNL     1      -0.195  14.200  18.835  1.00  0.00    -0.297 OA
HETATM   15  C22 UNL     1      -0.502  11.920  19.433  1.00  0.00     0.080 C 
HETATM   16  C23 UNL     1      -0.621  10.756  18.463  1.00  0.00     0.017 C 
HETATM   17  C24 UNL     1      -2.044  10.573  17.882  1.00  0.00    -0.031 C 
HETATM   18  C25 UNL     1      -2.984  10.113  19.034  1.00  0.00     0.016 C 
HETATM   19  C26 UNL     1      -2.104   9.407  16.784  1.00  0.00     0.024 C 
HETATM   20  C27 UNL     1      -0.755   8.886  16.234  1.00  0.00     0.010 C 
HETATM   21  C28 UNL     1      -0.866   7.646  15.302  1.00  0.00     0.011 C 
HETATM   22  C29 UNL     1      -2.279   7.391  14.723  1.00  0.00    -0.029 C 
HETATM   23  C30 UNL     1      -3.108   6.516  15.715  1.00  0.00     0.016 C 
ENDROOT
BRANCH   1  24
HETATM   24  C7  UNL     1      -2.093   5.160  13.206  1.00  0.00    -0.007 C 
HETATM   25  C8  UNL     1      -0.607   4.789  13.214  1.00  0.00     0.011 C 
BRANCH  24  26
HETATM   26  C6  UNL     1      -2.781   4.533  11.970  1.00  0.00     0.087 C 
BRANCH  26  27
HETATM   27  C5  UNL     1      -3.666   3.337  12.283  1.00  0.00     0.149 C 
HETATM   28  O1  UNL     1      -3.261   2.181  12.176  1.00  0.00    -0.293 OA
BRANCH  27  29
HETATM   29  C4  UNL     1      -5.069   3.628  12.711  1.00  0.00     0.052 C 
HETATM   30  C2  UNL     1      -6.159   2.963  12.288  1.00  0.00    -0.084 C 
HETATM   31  C1  UNL     1      -6.141   1.778  11.362  1.00  0.00     0.043 C 
HETATM   32  C3  UNL     1      -7.532   3.386  12.740  1.00  0.00     0.043 C 
ENDBRANCH  27  29
ENDBRANCH  26  27
ENDBRANCH  24  26
ENDBRANCH   1  24
TORSDOF 4
ENDMDL
MODEL 9
REMARK minimizedAffinity -6.34905815
REMARK CNNscore 0.260707945
REMARK CNNaffinity 5.0197835
REMARK  4 active torsions:
REMARK  status: ('A' for Active; 'I' for Inactive)
REMARK    1  A    between atoms: C4_4  and  C5_5 
REMARK    2  A    between atoms: C5_5  and  C6_7 
REMARK    3  A    between atoms: C6_7  and  C7_8 
REMARK    4  A    between atoms: C7_8  and  C9_10 
ROOT
HETATM    1  C9  UNL     1       7.098   8.156  14.157  1.00  0.00    -0.001 C 
HETATM    2  C10 UNL     1       8.428   7.935  13.374  1.00  0.00     0.007 C 
HETATM    3  C11 UNL     1       9.487   8.880  13.984  1.00  0.00     0.015 C 
HETATM    4  C12 UNL     1       8.847   9.386  15.288  1.00  0.00    -0.013 C 
HETATM    5  C13 UNL     1       9.097   8.260  16.356  1.00  0.00     0.021 C 
HETATM    6  C14 UNL     1       9.389  10.667  15.926  1.00  0.00    -0.070 C 
HETATM    7  C15 UNL     1      10.715  10.884  16.012  1.00  0.00    -0.022 C 
HETATM    8  C16 UNL     1      11.332  11.889  16.933  1.00  0.00     0.034 C 
HETATM    9  C17 UNL     1      10.391  12.189  18.121  1.00  0.00     0.013 C 
HETATM   10  C18 UNL     1      11.073  13.021  19.268  1.00  0.00     0.018 C 
HETATM   11  C19 UNL     1      12.142  12.135  19.962  1.00  0.00     0.023 C 
HETATM   12  C20 UNL     1      11.783  14.311  18.824  1.00  0.00     0.023 C 
HETATM   13  C21 UNL     1      10.018  13.400  20.318  1.00  0.00     0.135 C 
HETATM   14  O2  UNL     1      10.245  13.358  21.529  1.00  0.00    -0.297 OA
HETATM   15  C22 UNL     1       8.697  13.934  19.820  1.00  0.00     0.080 C 
HETATM   16  C23 UNL     1       8.086  12.972  18.815  1.00  0.00     0.017 C 
HETATM   17  C24 UNL     1       8.996  12.683  17.596  1.00  0.00    -0.031 C 
HETATM   18  C25 UNL     1       9.105  13.986  16.751  1.00  0.00     0.016 C 
HETATM   19  C26 UNL     1       8.364  11.584  16.616  1.00  0.00     0.024 C 
HETATM   20  C27 UNL     1       7.173  10.758  17.156  1.00  0.00     0.010 C 
HETATM   21  C28 UNL     1       6.496   9.829  16.109  1.00  0.00     0.011 C 
HETATM   22  C29 UNL     1       7.346   9.538  14.850  1.00  0.00    -0.029 C 
HETATM   23  C30 UNL     1       7.105  10.649  13.780  1.00  0.00     0.016 C 
ENDROOT
BRANCH   1  24
HETATM   24  C7  UNL     1       5.843   7.946  13.262  1.00  0.00    -0.007 C 
HETATM   25  C8  UNL     1       4.584   7.624  14.072  1.00  0.00     0.011 C 
BRANCH  24  26
HETATM   26  C6  UNL     1       6.052   6.868  12.171  1.00  0.00     0.087 C 
BRANCH  26  27
HETATM   27  C5  UNL     1       4.896   6.735  11.191  1.00  0.00     0.149 C 
HETATM   28  O1  UNL     1       4.932   5.950  10.246  1.00  0.00    -0.293 OA
BRANCH  27  29
HETATM   29  C4  UNL     1       3.713   7.620  11.417  1.00  0.00     0.052 C 
HETATM   30  C2  UNL     1       2.547   7.536  10.752  1.00  0.00    -0.084 C 
HETATM   31  C1  UNL     1       2.220   6.498   9.713  1.00  0.00     0.043 C 
HETATM   32  C3  UNL     1       1.443   8.524  11.020  1.00  0.00     0.043 C 
ENDBRANCH  27  29
ENDBRANCH  26  27
ENDBRANCH  24  26
ENDBRANCH   1  24
TORSDOF 4
ENDMDL
