MODEL 1
REMARK minimizedAffinity -9.57954693
REMARK  6 active torsions:
REMARK  status: ('A' for Active; 'I' for Inactive)
REMARK    1  A    between atoms: C4_4  and  C5_5 
REMARK    2  A    between atoms: C5_5  and  C6_6 
REMARK    3  A    between atoms: C6_6  and  C7_7 
REMARK    4  A    between atoms: C7_7  and  C9_9 
REMARK    5  A    between atoms: C24_24  and  O1_25 
REMARK    6  A    between atoms: C27_28  and  O2_29 
ROOT
HETATM    1  C9  UNL     1       1.284   6.475  12.836  1.00  0.00    -0.002 C 
HETATM    2  C10 UNL     1       0.607   7.789  13.324  1.00  0.00     0.007 C 
HETATM    3  C11 UNL     1      -0.912   7.539  13.365  1.00  0.00     0.015 C 
HETATM    4  C12 UNL     1      -1.061   6.013  13.259  1.00  0.00    -0.013 C 
HETATM    5  C13 UNL     1      -0.858   5.432  14.694  1.00  0.00     0.021 C 
HETATM    6  C14 UNL     1      -2.387   5.428  12.784  1.00  0.00    -0.065 C 
HETATM    7  C15 UNL     1      -2.409   4.220  12.164  1.00  0.00    -0.068 C 
HETATM    8  C16 UNL     1      -1.117   3.469  11.830  1.00  0.00     0.036 C 
HETATM    9  C17 UNL     1       0.222   4.154  12.180  1.00  0.00     0.015 C 
HETATM   10  C18 UNL     1       0.085   5.681  12.231  1.00  0.00    -0.029 C 
HETATM   11  C19 UNL     1      -0.206   6.202  10.789  1.00  0.00     0.016 C 
HETATM   12  C20 UNL     1      -3.733   3.567  11.708  1.00  0.00    -0.014 C 
HETATM   13  C21 UNL     1      -3.920   3.936  10.214  1.00  0.00     0.020 C 
HETATM   14  C22 UNL     1      -3.713   2.019  11.851  1.00  0.00     0.016 C 
HETATM   15  C23 UNL     1      -5.052   1.359  11.520  1.00  0.00     0.033 C 
HETATM   16  C24 UNL     1      -6.196   1.941  12.340  1.00  0.00     0.118 C 
HETATM   17  C25 UNL     1      -6.258   3.464  12.251  1.00  0.00     0.039 C 
HETATM   18  C26 UNL     1      -4.901   4.097  12.602  1.00  0.00     0.029 C 
HETATM   19  C27 UNL     1      -4.953   5.629  12.592  1.00  0.00     0.127 C 
HETATM   20  C28 UNL     1      -3.633   6.229  13.094  1.00  0.00     0.067 C 
ENDROOT
BRANCH   1  21
HETATM   21  C7  UNL     1       2.542   6.751  11.965  1.00  0.00    -0.014 C 
HETATM   22  C8  UNL     1       2.561   8.173  11.392  1.00  0.00     0.010 C 
BRANCH  21  23
HETATM   23  C6  UNL     1       2.722   5.725  10.815  1.00  0.00     0.008 C 
BRANCH  23  24
HETATM   24  C5  UNL     1       3.574   6.206   9.635  1.00  0.00     0.028 C 
BRANCH  24  25
HETATM   25  C4  UNL     1       2.762   6.237   8.368  1.00  0.00    -0.025 C 
HETATM   26  C2  UNL     1       2.468   7.302   7.596  1.00  0.00    -0.091 C 
HETATM   27  C1  UNL     1       1.621   7.140   6.361  1.00  0.00     0.042 C 
HETATM   28  C3  UNL     1       2.927   8.713   7.846  1.00  0.00     0.042 C 
ENDBRANCH  24  25
ENDBRANCH  23  24
ENDBRANCH  21  23
ENDBRANCH   1  21
BRANCH  19  29
HETATM   29  O2  UNL     1      -6.022   6.100  13.417  1.00  0.00    -0.395 OA
HETATM   30  H44 UNL     1      -5.890   5.742  14.311  1.00  0.00     0.210 HD
ENDBRANCH  19  29
BRANCH  16  31
HETATM   31  O1  UNL     1      -7.430   1.382  11.901  1.00  0.00    -0.396 OA
HETATM   32  H39 UNL     1      -7.558   1.632  10.970  1.00  0.00     0.210 HD
ENDBRANCH  16  31
TORSDOF 6
ENDMDL
MODEL 2
REMARK minimizedAffinity -8.83976555
REMARK  6 active torsions:
REMARK  status: ('A' for Active; 'I' for Inactive)
REMARK    1  A    between atoms: C4_4  and  C5_5 
REMARK    2  A    between atoms: C5_5  and  C6_6 
REMARK    3  A    between atoms: C6_6  and  C7_7 
REMARK    4  A    between atoms: C7_7  and  C9_9 
REMARK    5  A    between atoms: C24_24  and  O1_25 
REMARK    6  A    between atoms: C27_28  and  O2_29 
ROOT
HETATM    1  C9  UNL     1      -2.502   7.702  13.532  1.00  0.00    -0.002 C 
HETATM    2  C10 UNL     1      -2.940   6.366  12.863  1.00  0.00     0.007 C 
HETATM    3  C11 UNL     1      -1.698   5.759  12.185  1.00  0.00     0.015 C 
HETATM    4  C12 UNL     1      -0.511   6.542  12.768  1.00  0.00    -0.013 C 
HETATM    5  C13 UNL     1      -0.163   5.890  14.143  1.00  0.00     0.021 C 
HETATM    6  C14 UNL     1       0.808   6.569  12.002  1.00  0.00    -0.065 C 
HETATM    7  C15 UNL     1       1.653   7.623  12.148  1.00  0.00    -0.068 C 
HETATM    8  C16 UNL     1       1.267   8.846  12.985  1.00  0.00     0.036 C 
HETATM    9  C17 UNL     1      -0.139   8.865  13.624  1.00  0.00     0.015 C 
HETATM   10  C18 UNL     1      -1.130   7.989  12.847  1.00  0.00    -0.029 C 
HETATM   11  C19 UNL     1      -1.374   8.635  11.448  1.00  0.00     0.016 C 
HETATM   12  C20 UNL     1       3.019   7.671  11.430  1.00  0.00    -0.014 C 
HETATM   13  C21 UNL     1       2.808   8.481  10.126  1.00  0.00     0.020 C 
HETATM   14  C22 UNL     1       4.117   8.363  12.286  1.00  0.00     0.016 C 
HETATM   15  C23 UNL     1       5.506   8.318  11.650  1.00  0.00     0.033 C 
HETATM   16  C24 UNL     1       5.934   6.896  11.308  1.00  0.00     0.118 C 
HETATM   17  C25 UNL     1       4.886   6.158  10.478  1.00  0.00     0.039 C 
HETATM   18  C26 UNL     1       3.505   6.212  11.152  1.00  0.00     0.029 C 
HETATM   19  C27 UNL     1       2.448   5.416  10.377  1.00  0.00     0.127 C 
HETATM   20  C28 UNL     1       1.124   5.359  11.150  1.00  0.00     0.067 C 
ENDROOT
BRANCH   1  21
HETATM   21  C7  UNL     1      -3.624   8.777  13.485  1.00  0.00    -0.014 C 
HETATM   22  C8  UNL     1      -3.705   9.602  14.775  1.00  0.00     0.010 C 
BRANCH  21  23
HETATM   23  C6  UNL     1      -5.021   8.185  13.158  1.00  0.00     0.008 C 
BRANCH  23  24
HETATM   24  C5  UNL     1      -5.573   7.201  14.195  1.00  0.00     0.028 C 
BRANCH  24  25
HETATM   25  C4  UNL     1      -6.857   6.581  13.712  1.00  0.00    -0.025 C 
HETATM   26  C2  UNL     1      -7.054   5.327  13.257  1.00  0.00    -0.091 C 
HETATM   27  C1  UNL     1      -8.419   4.887  12.797  1.00  0.00     0.042 C 
HETATM   28  C3  UNL     1      -5.998   4.259  13.160  1.00  0.00     0.042 C 
ENDBRANCH  24  25
ENDBRANCH  23  24
ENDBRANCH  21  23
ENDBRANCH   1  21
BRANCH  19  29
HETATM   29  O2  UNL     1       2.902   4.082  10.134  1.00  0.00    -0.395 OA
HETATM   30  H44 UNL     1       3.113   3.676  10.992  1.00  0.00     0.210 HD
ENDBRANCH  19  29
BRANCH  16  31
HETATM   31  O1  UNL     1       7.171   6.927  10.605  1.00  0.00    -0.396 OA
HETATM   32  H39 UNL     1       7.034   7.416   9.776  1.00  0.00     0.210 HD
ENDBRANCH  16  31
TORSDOF 6
ENDMDL
MODEL 3
REMARK minimizedAffinity -8.76406479
REMARK  6 active torsions:
REMARK  status: ('A' for Active; 'I' for Inactive)
REMARK    1  A    between atoms: C4_4  and  C5_5 
REMARK    2  A    between atoms: C5_5  and  C6_6 
REMARK    3  A    between atoms: C6_6  and  C7_7 
REMARK    4  A    between atoms: C7_7  and  C9_9 
REMARK    5  A    between atoms: C24_24  and  O1_25 
REMARK    6  A    between atoms: C27_28  and  O2_29 
ROOT
HETATM    1  C9  UNL     1      -2.169   5.836  13.490  1.00  0.00    -0.002 C 
HETATM    2  C10 UNL     1      -2.428   5.227  12.081  1.00  0.00     0.007 C 
HETATM    3  C11 UNL     1      -1.102   5.291  11.298  1.00  0.00     0.015 C 
HETATM    4  C12 UNL     1      -0.033   5.589  12.362  1.00  0.00    -0.013 C 
HETATM    5  C13 UNL     1       0.345   4.227  13.024  1.00  0.00     0.021 C 
HETATM    6  C14 UNL     1       1.296   6.196  11.927  1.00  0.00    -0.065 C 
HETATM    7  C15 UNL     1       2.007   6.959  12.797  1.00  0.00    -0.068 C 
HETATM    8  C16 UNL     1       1.456   7.318  14.180  1.00  0.00     0.036 C 
HETATM    9  C17 UNL     1       0.038   6.821  14.539  1.00  0.00     0.015 C 
HETATM   10  C18 UNL     1      -0.819   6.592  13.288  1.00  0.00    -0.029 C 
HETATM   11  C19 UNL     1      -1.093   7.972  12.614  1.00  0.00     0.016 C 
HETATM   12  C20 UNL     1       3.380   7.556  12.417  1.00  0.00    -0.014 C 
HETATM   13  C21 UNL     1       3.117   9.001  11.923  1.00  0.00     0.020 C 
HETATM   14  C22 UNL     1       4.363   7.601  13.621  1.00  0.00     0.016 C 
HETATM   15  C23 UNL     1       5.767   8.076  13.246  1.00  0.00     0.033 C 
HETATM   16  C24 UNL     1       6.368   7.248  12.116  1.00  0.00     0.118 C 
HETATM   17  C25 UNL     1       5.440   7.154  10.908  1.00  0.00     0.039 C 
HETATM   18  C26 UNL     1       4.042   6.663  11.318  1.00  0.00     0.029 C 
HETATM   19  C27 UNL     1       3.109   6.489  10.114  1.00  0.00     0.127 C 
HETATM   20  C28 UNL     1       1.777   5.853  10.534  1.00  0.00     0.067 C 
ENDROOT
BRANCH   1  21
HETATM   21  C7  UNL     1      -3.407   6.605  14.032  1.00  0.00    -0.014 C 
HETATM   22  C8  UNL     1      -3.723   6.258  15.491  1.00  0.00     0.010 C 
BRANCH  21  23
HETATM   23  C6  UNL     1      -4.676   6.404  13.163  1.00  0.00     0.008 C 
BRANCH  23  24
HETATM   24  C5  UNL     1      -5.673   5.366  13.690  1.00  0.00     0.028 C 
BRANCH  24  25
HETATM   25  C4  UNL     1      -5.597   4.095  12.886  1.00  0.00    -0.025 C 
HETATM   26  C2  UNL     1      -6.599   3.252  12.570  1.00  0.00    -0.091 C 
HETATM   27  C1  UNL     1      -6.326   2.010  11.763  1.00  0.00     0.042 C 
HETATM   28  C3  UNL     1      -8.044   3.431  12.953  1.00  0.00     0.042 C 
ENDBRANCH  24  25
ENDBRANCH  23  24
ENDBRANCH  21  23
ENDBRANCH   1  21
BRANCH  19  29
HETATM   29  O2  UNL     1       3.723   5.665   9.118  1.00  0.00    -0.395 OA
HETATM   30  H44 UNL     1       3.953   4.816   9.532  1.00  0.00     0.210 HD
ENDBRANCH  19  29
BRANCH  16  31
HETATM   31  O1  UNL     1       7.615   7.812  11.723  1.00  0.00    -0.396 OA
HETATM   32  H39 UNL     1       7.447   8.711  11.393  1.00  0.00     0.210 HD
ENDBRANCH  16  31
TORSDOF 6
ENDMDL
MODEL 4
REMARK minimizedAffinity -8.65725994
REMARK  6 active torsions:
REMARK  status: ('A' for Active; 'I' for Inactive)
REMARK    1  A    between atoms: C4_4  and  C5_5 
REMARK    2  A    between atoms: C5_5  and  C6_6 
REMARK    3  A    between atoms: C6_6  and  C7_7 
REMARK    4  A    between atoms: C7_7  and  C9_9 
REMARK    5  A    between atoms: C24_24  and  O1_25 
REMARK    6  A    between atoms: C27_28  and  O2_29 
ROOT
HETATM    1  C9  UNL     1      -5.812   7.145  14.243  1.00  0.00    -0.002 C 
HETATM    2  C10 UNL     1      -5.553   8.389  15.143  1.00  0.00     0.007 C 
HETATM    3  C11 UNL     1      -4.048   8.708  15.068  1.00  0.00     0.015 C 
HETATM    4  C12 UNL     1      -3.534   7.896  13.869  1.00  0.00    -0.013 C 
HETATM    5  C13 UNL     1      -3.844   8.728  12.585  1.00  0.00     0.021 C 
HETATM    6  C14 UNL     1      -2.047   7.572  13.776  1.00  0.00    -0.065 C 
HETATM    7  C15 UNL     1      -1.638   6.462  13.107  1.00  0.00    -0.068 C 
HETATM    8  C16 UNL     1      -2.643   5.460  12.531  1.00  0.00     0.036 C 
HETATM    9  C17 UNL     1      -4.145   5.730  12.774  1.00  0.00     0.015 C 
HETATM   10  C18 UNL     1      -4.375   6.574  14.033  1.00  0.00    -0.029 C 
HETATM   11  C19 UNL     1      -3.966   5.731  15.280  1.00  0.00     0.016 C 
HETATM   12  C20 UNL     1      -0.141   6.118  12.947  1.00  0.00    -0.014 C 
HETATM   13  C21 UNL     1       0.213   5.127  14.084  1.00  0.00     0.020 C 
HETATM   14  C22 UNL     1       0.173   5.453  11.577  1.00  0.00     0.016 C 
HETATM   15  C23 UNL     1       1.665   5.212  11.343  1.00  0.00     0.033 C 
HETATM   16  C24 UNL     1       2.483   6.488  11.500  1.00  0.00     0.118 C 
HETATM   17  C25 UNL     1       2.205   7.196  12.824  1.00  0.00     0.039 C 
HETATM   18  C26 UNL     1       0.699   7.434  13.022  1.00  0.00     0.029 C 
HETATM   19  C27 UNL     1       0.397   8.209  14.310  1.00  0.00     0.127 C 
HETATM   20  C28 UNL     1      -1.094   8.565  14.402  1.00  0.00     0.067 C 
ENDROOT
BRANCH   1  21
HETATM   21  C7  UNL     1      -6.928   6.228  14.818  1.00  0.00    -0.014 C 
HETATM   22  C8  UNL     1      -7.022   6.301  16.346  1.00  0.00     0.010 C 
BRANCH  21  23
HETATM   23  C6  UNL     1      -6.784   4.747  14.376  1.00  0.00     0.008 C 
BRANCH  23  24
HETATM   24  C5  UNL     1      -7.284   4.434  12.961  1.00  0.00     0.028 C 
BRANCH  24  25
HETATM   25  C4  UNL     1      -6.993   3.003  12.597  1.00  0.00    -0.025 C 
HETATM   26  C2  UNL     1      -6.206   2.543  11.604  1.00  0.00    -0.091 C 
HETATM   27  C1  UNL     1      -6.046   1.062  11.379  1.00  0.00     0.042 C 
HETATM   28  C3  UNL     1      -5.420   3.398  10.647  1.00  0.00     0.042 C 
ENDBRANCH  24  25
ENDBRANCH  23  24
ENDBRANCH  21  23
ENDBRANCH   1  21
BRANCH  19  29
HETATM   29  O2  UNL     1       1.166   9.414  14.364  1.00  0.00    -0.395 OA
HETATM   30  H44 UNL     1       0.967   9.932  13.566  1.00  0.00     0.210 HD
ENDBRANCH  19  29
BRANCH  16  31
HETATM   31  O1  UNL     1       3.869   6.181  11.400  1.00  0.00    -0.396 OA
HETATM   32  H39 UNL     1       4.097   5.576  12.126  1.00  0.00     0.210 HD
ENDBRANCH  16  31
TORSDOF 6
ENDMDL
MODEL 5
REMARK minimizedAffinity -8.63587856
REMARK  6 active torsions:
REMARK  status: ('A' for Active; 'I' for Inactive)
REMARK    1  A    between atoms: C4_4  and  C5_5 
REMARK    2  A    between atoms: C5_5  and  C6_6 
REMARK    3  A    between atoms: C6_6  and  C7_7 
REMARK    4  A    between atoms: C7_7  and  C9_9 
REMARK    5  A    between atoms: C24_24  and  O1_25 
REMARK    6  A    between atoms: C27_28  and  O2_29 
ROOT
HETATM    1  C9  UNL     1       1.857   7.149  12.255  1.00  0.00    -0.002 C 
HETATM    2  C10 UNL     1       2.048   5.650  11.880  1.00  0.00     0.007 C 
HETATM    3  C11 UNL     1       0.672   4.967  11.993  1.00  0.00     0.015 C 
HETATM    4  C12 UNL     1      -0.336   6.125  12.069  1.00  0.00    -0.013 C 
HETATM    5  C13 UNL     1      -0.611   6.590  10.605  1.00  0.00     0.021 C 
HETATM    6  C14 UNL     1      -1.716   5.868  12.665  1.00  0.00    -0.065 C 
HETATM    7  C15 UNL     1      -2.401   6.886  13.248  1.00  0.00    -0.068 C 
HETATM    8  C16 UNL     1      -1.775   8.273  13.423  1.00  0.00     0.036 C 
HETATM    9  C17 UNL     1      -0.316   8.466  12.952  1.00  0.00     0.015 C 
HETATM   10  C18 UNL     1       0.465   7.147  12.961  1.00  0.00    -0.029 C 
HETATM   11  C19 UNL     1       0.635   6.678  14.439  1.00  0.00     0.016 C 
HETATM   12  C20 UNL     1      -3.820   6.684  13.823  1.00  0.00    -0.014 C 
HETATM   13  C21 UNL     1      -3.652   6.404  15.338  1.00  0.00     0.020 C 
HETATM   14  C22 UNL     1      -4.722   7.937  13.634  1.00  0.00     0.016 C 
HETATM   15  C23 UNL     1      -6.167   7.722  14.085  1.00  0.00     0.033 C 
HETATM   16  C24 UNL     1      -6.805   6.516  13.407  1.00  0.00     0.118 C 
HETATM   17  C25 UNL     1      -5.956   5.255  13.546  1.00  0.00     0.039 C 
HETATM   18  C26 UNL     1      -4.514   5.501  13.073  1.00  0.00     0.029 C 
HETATM   19  C27 UNL     1      -3.657   4.232  13.132  1.00  0.00     0.127 C 
HETATM   20  C28 UNL     1      -2.274   4.470  12.511  1.00  0.00     0.067 C 
ENDROOT
BRANCH   1  21
HETATM   21  C7  UNL     1       3.094   7.730  12.997  1.00  0.00    -0.014 C 
HETATM   22  C8  UNL     1       2.925   9.211  13.354  1.00  0.00     0.010 C 
BRANCH  21  23
HETATM   23  C6  UNL     1       4.420   7.532  12.215  1.00  0.00     0.008 C 
BRANCH  23  24
HETATM   24  C5  UNL     1       4.278   6.854  10.847  1.00  0.00     0.028 C 
BRANCH  24  25
HETATM   25  C4  UNL     1       3.968   7.868   9.779  1.00  0.00    -0.025 C 
HETATM   26  C2  UNL     1       3.165   7.724   8.706  1.00  0.00    -0.091 C 
HETATM   27  C1  UNL     1       2.987   8.855   7.727  1.00  0.00     0.042 C 
HETATM   28  C3  UNL     1       2.379   6.486   8.365  1.00  0.00     0.042 C 
ENDBRANCH  24  25
ENDBRANCH  23  24
ENDBRANCH  21  23
ENDBRANCH   1  21
BRANCH  19  29
HETATM   29  O2  UNL     1      -4.299   3.159  12.438  1.00  0.00    -0.395 OA
HETATM   30  H44 UNL     1      -4.464   3.449  11.525  1.00  0.00     0.210 HD
ENDBRANCH  19  29
BRANCH  16  31
HETATM   31  O1  UNL     1      -8.098   6.289  13.958  1.00  0.00    -0.396 OA
HETATM   32  H39 UNL     1      -7.992   6.092  14.904  1.00  0.00     0.210 HD
ENDBRANCH  16  31
TORSDOF 6
ENDMDL
MODEL 6
REMARK minimizedAffinity -8.57388496
REMARK  6 active torsions:
REMARK  status: ('A' for Active; 'I' for Inactive)
REMARK    1  A    between atoms: C4_4  and  C5_5 
REMARK    2  A    between atoms: C5_5  and  C6_6 
REMARK    3  A    between atoms: C6_6  and  C7_7 
REMARK    4  A    between atoms: C7_7  and  C9_9 
REMARK    5  A    between atoms: C24_24  and  O1_25 
REMARK    6  A    between atoms: C27_28  and  O2_29 
ROOT
HETATM    1  C9  UNL     1      -1.307   5.944  11.897  1.00  0.00    -0.002 C 
HETATM    2  C10 UNL     1      -1.930   7.113  12.715  1.00  0.00     0.007 C 
HETATM    3  C11 UNL     1      -0.834   8.178  12.907  1.00  0.00     0.015 C 
HETATM    4  C12 UNL     1       0.269   7.791  11.909  1.00  0.00    -0.013 C 
HETATM    5  C13 UNL     1      -0.146   8.369  10.520  1.00  0.00     0.021 C 
HETATM    6  C14 UNL     1       1.688   8.300  12.138  1.00  0.00    -0.065 C 
HETATM    7  C15 UNL     1       2.745   7.590  11.665  1.00  0.00    -0.068 C 
HETATM    8  C16 UNL     1       2.557   6.225  10.995  1.00  0.00     0.036 C 
HETATM    9  C17 UNL     1       1.122   5.657  10.916  1.00  0.00     0.015 C 
HETATM   10  C18 UNL     1       0.224   6.220  12.024  1.00  0.00    -0.029 C 
HETATM   11  C19 UNL     1       0.735   5.685  13.398  1.00  0.00     0.016 C 
HETATM   12  C20 UNL     1       4.197   8.090  11.831  1.00  0.00    -0.014 C 
HETATM   13  C21 UNL     1       4.762   7.403  13.101  1.00  0.00     0.020 C 
HETATM   14  C22 UNL     1       5.095   7.727  10.615  1.00  0.00     0.016 C 
HETATM   15  C23 UNL     1       6.504   8.313  10.700  1.00  0.00     0.033 C 
HETATM   16  C24 UNL     1       6.485   9.824  10.898  1.00  0.00     0.118 C 
HETATM   17  C25 UNL     1       5.605  10.244  12.073  1.00  0.00     0.039 C 
HETATM   18  C26 UNL     1       4.193   9.648  11.951  1.00  0.00     0.029 C 
HETATM   19  C27 UNL     1       3.265  10.113  13.079  1.00  0.00     0.127 C 
HETATM   20  C28 UNL     1       1.827   9.629  12.846  1.00  0.00     0.067 C 
ENDROOT
BRANCH   1  21
HETATM   21  C7  UNL     1      -1.876   4.561  12.323  1.00  0.00    -0.014 C 
HETATM   22  C8  UNL     1      -2.186   3.657  11.126  1.00  0.00     0.010 C 
BRANCH  21  23
HETATM   23  C6  UNL     1      -3.132   4.674  13.228  1.00  0.00     0.008 C 
BRANCH  23  24
HETATM   24  C5  UNL     1      -4.328   3.818  12.798  1.00  0.00     0.028 C 
BRANCH  24  25
HETATM   25  C4  UNL     1      -5.608   4.605  12.889  1.00  0.00    -0.025 C 
HETATM   26  C2  UNL     1      -6.872   4.137  12.885  1.00  0.00    -0.091 C 
HETATM   27  C1  UNL     1      -8.038   5.087  12.969  1.00  0.00     0.042 C 
HETATM   28  C3  UNL     1      -7.265   2.686  12.808  1.00  0.00     0.042 C 
ENDBRANCH  24  25
ENDBRANCH  23  24
ENDBRANCH  21  23
ENDBRANCH   1  21
BRANCH  19  29
HETATM   29  O2  UNL     1       3.265  11.540  13.174  1.00  0.00    -0.395 OA
HETATM   30  H44 UNL     1       3.001  11.898  12.309  1.00  0.00     0.210 HD
ENDBRANCH  19  29
BRANCH  16  31
HETATM   31  O1  UNL     1       7.813  10.295  11.098  1.00  0.00    -0.396 OA
HETATM   32  H39 UNL     1       8.160   9.882  11.906  1.00  0.00     0.210 HD
ENDBRANCH  16  31
TORSDOF 6
ENDMDL
MODEL 7
REMARK minimizedAffinity -8.49568081
REMARK  6 active torsions:
REMARK  status: ('A' for Active; 'I' for Inactive)
REMARK    1  A    between atoms: C4_4  and  C5_5 
REMARK    2  A    between atoms: C5_5  and  C6_6 
REMARK    3  A    between atoms: C6_6  and  C7_7 
REMARK    4  A    between atoms: C7_7  and  C9_9 
REMARK    5  A    between atoms: C24_24  and  O1_25 
REMARK    6  A    between atoms: C27_28  and  O2_29 
ROOT
HETATM    1  C9  UNL     1      -1.428   5.072  12.681  1.00  0.00    -0.002 C 
HETATM    2  C10 UNL     1      -0.781   5.897  11.531  1.00  0.00     0.007 C 
HETATM    3  C11 UNL     1      -0.770   7.374  11.970  1.00  0.00     0.015 C 
HETATM    4  C12 UNL     1      -1.064   7.336  13.478  1.00  0.00    -0.013 C 
HETATM    5  C13 UNL     1       0.288   7.040  14.201  1.00  0.00     0.021 C 
HETATM    6  C14 UNL     1      -1.607   8.587  14.159  1.00  0.00    -0.065 C 
HETATM    7  C15 UNL     1      -2.372   8.471  15.276  1.00  0.00    -0.068 C 
HETATM    8  C16 UNL     1      -2.797   7.102  15.815  1.00  0.00     0.036 C 
HETATM    9  C17 UNL     1      -2.365   5.851  15.017  1.00  0.00     0.015 C 
HETATM   10  C18 UNL     1      -2.126   6.174  13.537  1.00  0.00    -0.029 C 
HETATM   11  C19 UNL     1      -3.492   6.550  12.883  1.00  0.00     0.016 C 
HETATM   12  C20 UNL     1      -2.904   9.712  16.027  1.00  0.00    -0.014 C 
HETATM   13  C21 UNL     1      -4.340   9.966  15.503  1.00  0.00     0.020 C 
HETATM   14  C22 UNL     1      -2.954   9.499  17.566  1.00  0.00     0.016 C 
HETATM   15  C23 UNL     1      -3.363  10.752  18.342  1.00  0.00     0.033 C 
HETATM   16  C24 UNL     1      -2.476  11.946  18.010  1.00  0.00     0.118 C 
HETATM   17  C25 UNL     1      -2.376  12.196  16.508  1.00  0.00     0.039 C 
HETATM   18  C26 UNL     1      -1.951  10.921  15.760  1.00  0.00     0.029 C 
HETATM   19  C27 UNL     1      -1.771  11.161  14.256  1.00  0.00     0.127 C 
HETATM   20  C28 UNL     1      -1.199   9.917  13.563  1.00  0.00     0.067 C 
ENDROOT
BRANCH   1  21
HETATM   21  C7  UNL     1      -2.259   3.872  12.146  1.00  0.00    -0.014 C 
HETATM   22  C8  UNL     1      -2.540   3.973  10.643  1.00  0.00     0.010 C 
BRANCH  21  23
HETATM   23  C6  UNL     1      -3.594   3.668  12.912  1.00  0.00     0.008 C 
BRANCH  23  24
HETATM   24  C5  UNL     1      -4.773   3.194  12.056  1.00  0.00     0.028 C 
BRANCH  24  25
HETATM   25  C4  UNL     1      -5.987   4.051  12.299  1.00  0.00    -0.025 C 
HETATM   26  C2  UNL     1      -7.234   3.653  12.621  1.00  0.00    -0.091 C 
HETATM   27  C1  UNL     1      -8.334   4.664  12.810  1.00  0.00     0.042 C 
HETATM   28  C3  UNL     1      -7.667   2.227  12.829  1.00  0.00     0.042 C 
ENDBRANCH  24  25
ENDBRANCH  23  24
ENDBRANCH  21  23
ENDBRANCH   1  21
BRANCH  19  29
HETATM   29  O2  UNL     1      -0.892  12.266  14.025  1.00  0.00    -0.395 OA
HETATM   30  H44 UNL     1      -0.050  12.077  14.472  1.00  0.00     0.210 HD
ENDBRANCH  19  29
BRANCH  16  31
HETATM   31  O1  UNL     1      -2.980  13.108  18.659  1.00  0.00    -0.396 OA
HETATM   32  H39 UNL     1      -3.873  13.282  18.316  1.00  0.00     0.210 HD
ENDBRANCH  16  31
TORSDOF 6
ENDMDL
MODEL 8
REMARK minimizedAffinity -8.49368572
REMARK  6 active torsions:
REMARK  status: ('A' for Active; 'I' for Inactive)
REMARK    1  A    between atoms: C4_4  and  C5_5 
REMARK    2  A    between atoms: C5_5  and  C6_6 
REMARK    3  A    between atoms: C6_6  and  C7_7 
REMARK    4  A    between atoms: C7_7  and  C9_9 
REMARK    5  A    between atoms: C24_24  and  O1_25 
REMARK    6  A    between atoms: C27_28  and  O2_29 
ROOT
HETATM    1  C9  UNL     1      -1.433  10.210  14.988  1.00  0.00    -0.002 C 
HETATM    2  C10 UNL     1      -0.269   9.235  14.643  1.00  0.00     0.007 C 
HETATM    3  C11 UNL     1      -0.898   7.899  14.206  1.00  0.00     0.015 C 
HETATM    4  C12 UNL     1      -2.379   8.226  13.956  1.00  0.00    -0.013 C 
HETATM    5  C13 UNL     1      -2.480   8.822  12.517  1.00  0.00     0.021 C 
HETATM    6  C14 UNL     1      -3.403   7.096  13.986  1.00  0.00    -0.065 C 
HETATM    7  C15 UNL     1      -4.693   7.362  14.320  1.00  0.00    -0.068 C 
HETATM    8  C16 UNL     1      -5.129   8.757  14.776  1.00  0.00     0.036 C 
HETATM    9  C17 UNL     1      -4.041   9.848  14.889  1.00  0.00     0.015 C 
HETATM   10  C18 UNL     1      -2.652   9.245  15.126  1.00  0.00    -0.029 C 
HETATM   11  C19 UNL     1      -2.631   8.584  16.540  1.00  0.00     0.016 C 
HETATM   12  C20 UNL     1      -5.774   6.259  14.317  1.00  0.00    -0.014 C 
HETATM   13  C21 UNL     1      -5.881   5.736  15.773  1.00  0.00     0.020 C 
HETATM   14  C22 UNL     1      -7.164   6.790  13.865  1.00  0.00     0.016 C 
HETATM   15  C23 UNL     1      -8.223   5.695  13.738  1.00  0.00     0.033 C 
HETATM   16  C24 UNL     1      -7.774   4.566  12.818  1.00  0.00     0.118 C 
HETATM   17  C25 UNL     1      -6.405   4.013  13.205  1.00  0.00     0.039 C 
HETATM   18  C26 UNL     1      -5.361   5.137  13.311  1.00  0.00     0.029 C 
HETATM   19  C27 UNL     1      -3.959   4.602  13.626  1.00  0.00     0.127 C 
HETATM   20  C28 UNL     1      -2.915   5.725  13.574  1.00  0.00     0.067 C 
ENDROOT
BRANCH   1  21
HETATM   21  C7  UNL     1      -1.071  11.164  16.160  1.00  0.00    -0.014 C 
HETATM   22  C8  UNL     1       0.382  11.650  16.098  1.00  0.00     0.010 C 
BRANCH  21  23
HETATM   23  C6  UNL     1      -1.353  10.547  17.556  1.00  0.00     0.008 C 
BRANCH  23  24
HETATM   24  C5  UNL     1      -1.056  11.462  18.749  1.00  0.00     0.028 C 
BRANCH  24  25
HETATM   25  C4  UNL     1      -0.080  10.809  19.692  1.00  0.00    -0.025 C 
HETATM   26  C2  UNL     1       1.061  11.324  20.192  1.00  0.00    -0.091 C 
HETATM   27  C1  UNL     1       1.925  10.508  21.118  1.00  0.00     0.042 C 
HETATM   28  C3  UNL     1       1.589  12.706  19.916  1.00  0.00     0.042 C 
ENDBRANCH  24  25
ENDBRANCH  23  24
ENDBRANCH  21  23
ENDBRANCH   1  21
BRANCH  19  29
HETATM   29  O2  UNL     1      -3.590   3.580  12.696  1.00  0.00    -0.395 OA
HETATM   30  H44 UNL     1      -3.649   3.955  11.801  1.00  0.00     0.210 HD
ENDBRANCH  19  29
BRANCH  16  31
HETATM   31  O1  UNL     1      -8.740   3.521  12.840  1.00  0.00    -0.396 OA
HETATM   32  H39 UNL     1      -8.791   3.177  13.748  1.00  0.00     0.210 HD
ENDBRANCH  16  31
TORSDOF 6
ENDMDL
MODEL 9
REMARK minimizedAffinity -8.42418575
REMARK  6 active torsions:
REMARK  status: ('A' for Active; 'I' for Inactive)
REMARK    1  A    between atoms: C4_4  and  C5_5 
REMARK    2  A    between atoms: C5_5  and  C6_6 
REMARK    3  A    between atoms: C6_6  and  C7_7 
REMARK    4  A    between atoms: C7_7  and  C9_9 
REMARK    5  A    between atoms: C24_24  and  O1_25 
REMARK    6  A    between atoms: C27_28  and  O2_29 
ROOT
HETATM    1  C9  UNL     1      -2.210   5.806  13.474  1.00  0.00    -0.002 C 
HETATM    2  C10 UNL     1      -2.464   5.157  12.081  1.00  0.00     0.007 C 
HETATM    3  C11 UNL     1      -1.139   5.208  11.298  1.00  0.00     0.015 C 
HETATM    4  C12 UNL     1      -0.072   5.540  12.354  1.00  0.00    -0.013 C 
HETATM    5  C13 UNL     1       0.313   4.199  13.053  1.00  0.00     0.021 C 
HETATM    6  C14 UNL     1       1.254   6.143  11.903  1.00  0.00    -0.065 C 
HETATM    7  C15 UNL     1       1.960   6.933  12.754  1.00  0.00    -0.068 C 
HETATM    8  C16 UNL     1       1.407   7.326  14.126  1.00  0.00     0.036 C 
HETATM    9  C17 UNL     1      -0.009   6.831  14.497  1.00  0.00     0.015 C 
HETATM   10  C18 UNL     1      -0.864   6.563  13.253  1.00  0.00    -0.029 C 
HETATM   11  C19 UNL     1      -1.146   7.923  12.541  1.00  0.00     0.016 C 
HETATM   12  C20 UNL     1       3.330   7.527  12.358  1.00  0.00    -0.014 C 
HETATM   13  C21 UNL     1       3.059   8.957  11.826  1.00  0.00     0.020 C 
HETATM   14  C22 UNL     1       4.312   7.610  13.561  1.00  0.00     0.016 C 
HETATM   15  C23 UNL     1       5.713   8.082  13.174  1.00  0.00     0.033 C 
HETATM   16  C24 UNL     1       6.320   7.228  12.067  1.00  0.00     0.118 C 
HETATM   17  C25 UNL     1       5.393   7.097  10.861  1.00  0.00     0.039 C 
HETATM   18  C26 UNL     1       3.997   6.609  11.283  1.00  0.00     0.029 C 
HETATM   19  C27 UNL     1       3.067   6.397  10.084  1.00  0.00     0.127 C 
HETATM   20  C28 UNL     1       1.738   5.766  10.521  1.00  0.00     0.067 C 
ENDROOT
BRANCH   1  21
HETATM   21  C7  UNL     1      -3.452   6.582  13.995  1.00  0.00    -0.014 C 
HETATM   22  C8  UNL     1      -3.611   6.487  15.516  1.00  0.00     0.010 C 
BRANCH  21  23
HETATM   23  C6  UNL     1      -4.774   6.146  13.307  1.00  0.00     0.008 C 
BRANCH  23  24
HETATM   24  C5  UNL     1      -5.853   5.600  14.248  1.00  0.00     0.028 C 
BRANCH  24  25
HETATM   25  C4  UNL     1      -7.207   6.144  13.880  1.00  0.00    -0.025 C 
HETATM   26  C2  UNL     1      -8.218   5.504  13.258  1.00  0.00    -0.091 C 
HETATM   27  C1  UNL     1      -9.506   6.224  12.957  1.00  0.00     0.042 C 
HETATM   28  C3  UNL     1      -8.198   4.066  12.815  1.00  0.00     0.042 C 
ENDBRANCH  24  25
ENDBRANCH  23  24
ENDBRANCH  21  23
ENDBRANCH   1  21
BRANCH  19  29
HETATM   29  O2  UNL     1       3.685   5.551   9.111  1.00  0.00    -0.395 OA
HETATM   30  H44 UNL     1       3.920   4.714   9.547  1.00  0.00     0.210 HD
ENDBRANCH  19  29
BRANCH  16  31
HETATM   31  O1  UNL     1       7.563   7.788  11.660  1.00  0.00    -0.396 OA
HETATM   32  H39 UNL     1       7.391   8.677  11.305  1.00  0.00     0.210 HD
ENDBRANCH  16  31
TORSDOF 6
ENDMDL
