MODEL 1
REMARK minimizedAffinity -9.53421116
REMARK  9 active torsions:
REMARK  status: ('A' for Active; 'I' for Inactive)
REMARK    1  A    between atoms: C5_5  and  O1_6 
REMARK    2  A    between atoms: C8_9  and  C9_10 
REMARK    3  A    between atoms: C19_20  and  C20_21 
REMARK    4  A    between atoms: C20_21  and  C22_23 
REMARK    5  A    between atoms: C23_24  and  C24_25 
REMARK    6  A    between atoms: C24_25  and  O2_27 
REMARK    7  A    between atoms: C24_25  and  C26_28 
REMARK    8  A    between atoms: C26_28  and  C28_30 
REMARK    9  A    between atoms: C28_30  and  O3_31 
ROOT
HETATM    1  C9  UNL     1      -4.883  50.373 -20.251  1.00  0.00     0.004 C 
HETATM    2  C10 UNL     1      -3.687  49.966 -20.727  1.00  0.00    -0.075 C 
HETATM    3  C11 UNL     1      -3.414  48.647 -21.404  1.00  0.00     0.034 C 
HETATM    4  C12 UNL     1      -2.750  48.868 -22.759  1.00  0.00     0.005 C 
HETATM    5  C13 UNL     1      -1.425  49.605 -22.594  1.00  0.00     0.010 C 
HETATM    6  C14 UNL     1      -1.555  50.977 -21.878  1.00  0.00    -0.032 C 
HETATM    7  C15 UNL     1      -2.172  52.007 -22.844  1.00  0.00     0.016 C 
HETATM    8  C16 UNL     1      -2.492  50.899 -20.624  1.00  0.00     0.023 C 
HETATM    9  C17 UNL     1      -1.550  50.607 -19.464  1.00  0.00     0.010 C 
HETATM   10  C18 UNL     1      -0.405  51.564 -19.766  1.00  0.00     0.007 C 
HETATM   11  C19 UNL     1      -0.138  51.365 -21.273  1.00  0.00     0.002 C 
ENDROOT
BRANCH  11  12
HETATM   12  C20 UNL     1       0.671  52.506 -21.955  1.00  0.00     0.009 C 
HETATM   13  C21 UNL     1       0.725  53.753 -21.056  1.00  0.00     0.014 C 
BRANCH  12  14
HETATM   14  C22 UNL     1       0.142  52.820 -23.349  1.00  0.00    -0.023 C 
HETATM   15  C23 UNL     1       0.736  52.582 -24.533  1.00  0.00     0.007 C 
BRANCH  15  16
HETATM   16  C24 UNL     1       0.189  52.891 -25.921  1.00  0.00     0.077 C 
HETATM   17  C25 UNL     1      -1.263  52.445 -26.138  1.00  0.00     0.051 C 
BRANCH  16  18
HETATM   18  O2  UNL     1       0.149  54.329 -25.994  1.00  0.00    -0.386 OA
HETATM   19  H37 UNL     1       1.045  54.664 -25.833  1.00  0.00     0.211 HD
ENDBRANCH  16  18
BRANCH  16  20
HETATM   20  C26 UNL     1       1.181  52.380 -27.016  1.00  0.00     0.043 C 
HETATM   21  C27 UNL     1       0.468  51.683 -28.186  1.00  0.00     0.015 C 
BRANCH  20  22
HETATM   22  C28 UNL     1       2.317  51.492 -26.480  1.00  0.00     0.171 C 
BRANCH  22  23
HETATM   23  O3  UNL     1       3.438  51.482 -27.351  1.00  0.00    -0.400 OA
HETATM   24  H44 UNL     1       4.103  50.892 -26.958  1.00  0.00     0.209 HD
ENDBRANCH  22  23
ENDBRANCH  20  22
ENDBRANCH  16  20
ENDBRANCH  15  16
ENDBRANCH  12  14
ENDBRANCH  11  12
BRANCH   1  25
HETATM   25  C8  UNL     1      -6.140  49.649 -20.279  1.00  0.00     0.008 C 
HETATM   26  C7  UNL     1      -6.820  49.255 -21.375  1.00  0.00    -0.050 C 
HETATM   27  C2  UNL     1      -6.435  49.513 -22.758  1.00  0.00    -0.061 C 
HETATM   28  C6  UNL     1      -8.071  48.399 -21.245  1.00  0.00     0.070 C 
HETATM   29  C1  UNL     1      -6.308  50.755 -23.250  1.00  0.00     0.019 C 
HETATM   30  C3  UNL     1      -6.305  48.297 -23.647  1.00  0.00     0.041 C 
HETATM   31  C4  UNL     1      -6.842  47.013 -23.005  1.00  0.00     0.036 C 
HETATM   32  C5  UNL     1      -8.168  47.262 -22.283  1.00  0.00     0.122 C 
BRANCH  32  33
HETATM   33  O1  UNL     1      -9.180  47.581 -23.243  1.00  0.00    -0.395 OA
HETATM   34  H8  UNL     1      -9.237  46.839 -23.869  1.00  0.00     0.210 HD
ENDBRANCH  32  33
ENDBRANCH   1  25
TORSDOF 9
ENDMDL
MODEL 2
REMARK minimizedAffinity -9.33377361
REMARK  9 active torsions:
REMARK  status: ('A' for Active; 'I' for Inactive)
REMARK    1  A    between atoms: C5_5  and  O1_6 
REMARK    2  A    between atoms: C8_9  and  C9_10 
REMARK    3  A    between atoms: C19_20  and  C20_21 
REMARK    4  A    between atoms: C20_21  and  C22_23 
REMARK    5  A    between atoms: C23_24  and  C24_25 
REMARK    6  A    between atoms: C24_25  and  O2_27 
REMARK    7  A    between atoms: C24_25  and  C26_28 
REMARK    8  A    between atoms: C26_28  and  C28_30 
REMARK    9  A    between atoms: C28_30  and  O3_31 
ROOT
HETATM    1  C9  UNL     1      -0.840  51.041 -22.910  1.00  0.00     0.004 C 
HETATM    2  C10 UNL     1      -1.486  51.107 -21.726  1.00  0.00    -0.075 C 
HETATM    3  C11 UNL     1      -2.953  51.400 -21.540  1.00  0.00     0.034 C 
HETATM    4  C12 UNL     1      -3.613  50.312 -20.700  1.00  0.00     0.005 C 
HETATM    5  C13 UNL     1      -2.963  50.229 -19.322  1.00  0.00     0.010 C 
HETATM    6  C14 UNL     1      -1.434  49.960 -19.365  1.00  0.00    -0.032 C 
HETATM    7  C15 UNL     1      -1.179  48.485 -19.733  1.00  0.00     0.016 C 
HETATM    8  C16 UNL     1      -0.713  50.837 -20.446  1.00  0.00     0.023 C 
HETATM    9  C17 UNL     1      -0.272  52.084 -19.689  1.00  0.00     0.010 C 
HETATM   10  C18 UNL     1       0.276  51.471 -18.407  1.00  0.00     0.007 C 
HETATM   11  C19 UNL     1      -0.799  50.446 -17.992  1.00  0.00     0.002 C 
ENDROOT
BRANCH  11  12
HETATM   12  C20 UNL     1      -0.324  49.369 -16.974  1.00  0.00     0.009 C 
HETATM   13  C21 UNL     1      -1.525  48.695 -16.288  1.00  0.00     0.014 C 
BRANCH  12  14
HETATM   14  C22 UNL     1       0.671  49.939 -15.969  1.00  0.00    -0.023 C 
HETATM   15  C23 UNL     1       1.403  51.063 -16.076  1.00  0.00     0.007 C 
BRANCH  15  16
HETATM   16  C24 UNL     1       2.384  51.628 -15.057  1.00  0.00     0.077 C 
HETATM   17  C25 UNL     1       3.528  52.445 -15.672  1.00  0.00     0.051 C 
BRANCH  16  18
HETATM   18  O2  UNL     1       1.621  52.578 -14.290  1.00  0.00    -0.386 OA
HETATM   19  H37 UNL     1       0.864  52.113 -13.901  1.00  0.00     0.211 HD
ENDBRANCH  16  18
BRANCH  16  20
HETATM   20  C26 UNL     1       2.861  50.498 -14.086  1.00  0.00     0.043 C 
HETATM   21  C27 UNL     1       2.488  50.776 -12.621  1.00  0.00     0.015 C 
BRANCH  20  22
HETATM   22  C28 UNL     1       4.356  50.154 -14.199  1.00  0.00     0.171 C 
BRANCH  22  23
HETATM   23  O3  UNL     1       4.892  49.709 -12.962  1.00  0.00    -0.400 OA
HETATM   24  H44 UNL     1       5.837  49.528 -13.106  1.00  0.00     0.209 HD
ENDBRANCH  22  23
ENDBRANCH  20  22
ENDBRANCH  16  20
ENDBRANCH  15  16
ENDBRANCH  12  14
ENDBRANCH  11  12
BRANCH   1  25
HETATM   25  C8  UNL     1      -1.399  51.237 -24.235  1.00  0.00     0.008 C 
HETATM   26  C7  UNL     1      -0.834  51.913 -25.257  1.00  0.00    -0.050 C 
HETATM   27  C2  UNL     1       0.445  52.612 -25.216  1.00  0.00    -0.061 C 
HETATM   28  C6  UNL     1      -1.493  51.935 -26.628  1.00  0.00     0.070 C 
HETATM   29  C1  UNL     1       0.681  53.631 -24.375  1.00  0.00     0.019 C 
HETATM   30  C3  UNL     1       1.456  52.204 -26.262  1.00  0.00     0.041 C 
HETATM   31  C4  UNL     1       0.873  51.294 -27.350  1.00  0.00     0.036 C 
HETATM   32  C5  UNL     1      -0.505  51.778 -27.803  1.00  0.00     0.122 C 
BRANCH  32  33
HETATM   33  O1  UNL     1      -0.371  53.031 -28.480  1.00  0.00    -0.395 OA
HETATM   34  H8  UNL     1       0.235  52.898 -29.229  1.00  0.00     0.210 HD
ENDBRANCH  32  33
ENDBRANCH   1  25
TORSDOF 9
ENDMDL
MODEL 3
REMARK minimizedAffinity -9.27208138
REMARK  9 active torsions:
REMARK  status: ('A' for Active; 'I' for Inactive)
REMARK    1  A    between atoms: C5_5  and  O1_6 
REMARK    2  A    between atoms: C8_9  and  C9_10 
REMARK    3  A    between atoms: C19_20  and  C20_21 
REMARK    4  A    between atoms: C20_21  and  C22_23 
REMARK    5  A    between atoms: C23_24  and  C24_25 
REMARK    6  A    between atoms: C24_25  and  O2_27 
REMARK    7  A    between atoms: C24_25  and  C26_28 
REMARK    8  A    between atoms: C26_28  and  C28_30 
REMARK    9  A    between atoms: C28_30  and  O3_31 
ROOT
HETATM    1  C9  UNL     1      -0.399  50.520 -18.113  1.00  0.00     0.004 C 
HETATM    2  C10 UNL     1      -0.723  50.084 -19.349  1.00  0.00    -0.075 C 
HETATM    3  C11 UNL     1      -0.818  48.641 -19.776  1.00  0.00     0.034 C 
HETATM    4  C12 UNL     1      -2.175  48.360 -20.412  1.00  0.00     0.005 C 
HETATM    5  C13 UNL     1      -2.383  49.236 -21.643  1.00  0.00     0.010 C 
HETATM    6  C14 UNL     1      -2.281  50.759 -21.353  1.00  0.00    -0.032 C 
HETATM    7  C15 UNL     1      -3.552  51.233 -20.622  1.00  0.00     0.016 C 
HETATM    8  C16 UNL     1      -1.062  51.100 -20.428  1.00  0.00     0.023 C 
HETATM    9  C17 UNL     1       0.073  51.409 -21.395  1.00  0.00     0.010 C 
HETATM   10  C18 UNL     1      -0.643  52.276 -22.422  1.00  0.00     0.007 C 
HETATM   11  C19 UNL     1      -1.950  51.509 -22.714  1.00  0.00     0.002 C 
ENDROOT
BRANCH  11  12
HETATM   12  C20 UNL     1      -3.072  52.352 -23.386  1.00  0.00     0.009 C 
HETATM   13  C21 UNL     1      -4.448  52.002 -22.796  1.00  0.00     0.014 C 
BRANCH  12  14
HETATM   14  C22 UNL     1      -3.044  52.222 -24.905  1.00  0.00    -0.023 C 
HETATM   15  C23 UNL     1      -1.968  52.127 -25.708  1.00  0.00     0.007 C 
BRANCH  15  16
HETATM   16  C24 UNL     1      -1.957  51.986 -27.225  1.00  0.00     0.077 C 
HETATM   17  C25 UNL     1      -3.051  51.063 -27.779  1.00  0.00     0.051 C 
BRANCH  16  18
HETATM   18  O2  UNL     1      -2.290  53.296 -27.724  1.00  0.00    -0.386 OA
HETATM   19  H37 UNL     1      -1.640  53.926 -27.376  1.00  0.00     0.211 HD
ENDBRANCH  16  18
BRANCH  16  20
HETATM   20  C26 UNL     1      -0.517  51.634 -27.722  1.00  0.00     0.043 C 
HETATM   21  C27 UNL     1       0.298  50.852 -26.678  1.00  0.00     0.015 C 
BRANCH  20  22
HETATM   22  C28 UNL     1       0.291  52.839 -28.234  1.00  0.00     0.171 C 
BRANCH  22  23
HETATM   23  O3  UNL     1       0.615  53.742 -27.188  1.00  0.00    -0.400 OA
HETATM   24  H44 UNL     1       1.107  54.480 -27.586  1.00  0.00     0.209 HD
ENDBRANCH  22  23
ENDBRANCH  20  22
ENDBRANCH  16  20
ENDBRANCH  15  16
ENDBRANCH  12  14
ENDBRANCH  11  12
BRANCH   1  25
HETATM   25  C8  UNL     1      -0.074  49.717 -16.949  1.00  0.00     0.008 C 
HETATM   26  C7  UNL     1       0.563  50.134 -15.835  1.00  0.00    -0.050 C 
HETATM   27  C2  UNL     1       1.082  51.476 -15.598  1.00  0.00    -0.061 C 
HETATM   28  C6  UNL     1       0.733  49.201 -14.645  1.00  0.00     0.070 C 
HETATM   29  C1  UNL     1       2.023  52.032 -16.377  1.00  0.00     0.019 C 
HETATM   30  C3  UNL     1       0.587  52.166 -14.347  1.00  0.00     0.041 C 
HETATM   31  C4  UNL     1      -0.189  51.236 -13.407  1.00  0.00     0.036 C 
HETATM   32  C5  UNL     1       0.495  49.874 -13.278  1.00  0.00     0.122 C 
BRANCH  32  33
HETATM   33  O1  UNL     1       1.747  50.032 -12.603  1.00  0.00    -0.395 OA
HETATM   34  H8  UNL     1       1.565  50.434 -11.736  1.00  0.00     0.210 HD
ENDBRANCH  32  33
ENDBRANCH   1  25
TORSDOF 9
ENDMDL
MODEL 4
REMARK minimizedAffinity -9.19180202
REMARK  9 active torsions:
REMARK  status: ('A' for Active; 'I' for Inactive)
REMARK    1  A    between atoms: C5_5  and  O1_6 
REMARK    2  A    between atoms: C8_9  and  C9_10 
REMARK    3  A    between atoms: C19_20  and  C20_21 
REMARK    4  A    between atoms: C20_21  and  C22_23 
REMARK    5  A    between atoms: C23_24  and  C24_25 
REMARK    6  A    between atoms: C24_25  and  O2_27 
REMARK    7  A    between atoms: C24_25  and  C26_28 
REMARK    8  A    between atoms: C26_28  and  C28_30 
REMARK    9  A    between atoms: C28_30  and  O3_31 
ROOT
HETATM    1  C9  UNL     1      -0.523  51.158 -22.401  1.00  0.00     0.004 C 
HETATM    2  C10 UNL     1      -1.100  51.427 -21.211  1.00  0.00    -0.075 C 
HETATM    3  C11 UNL     1      -2.561  51.725 -20.990  1.00  0.00     0.034 C 
HETATM    4  C12 UNL     1      -3.142  50.797 -19.929  1.00  0.00     0.005 C 
HETATM    5  C13 UNL     1      -2.412  50.975 -18.601  1.00  0.00     0.010 C 
HETATM    6  C14 UNL     1      -0.880  50.727 -18.690  1.00  0.00    -0.032 C 
HETATM    7  C15 UNL     1      -0.608  49.214 -18.802  1.00  0.00     0.016 C 
HETATM    8  C16 UNL     1      -0.248  51.406 -19.953  1.00  0.00     0.023 C 
HETATM    9  C17 UNL     1       0.203  52.775 -19.461  1.00  0.00     0.010 C 
HETATM   10  C18 UNL     1       0.841  52.414 -18.127  1.00  0.00     0.007 C 
HETATM   11  C19 UNL     1      -0.181  51.463 -17.468  1.00  0.00     0.002 C 
ENDROOT
BRANCH  11  12
HETATM   12  C20 UNL     1       0.381  50.596 -16.305  1.00  0.00     0.009 C 
HETATM   13  C21 UNL     1      -0.108  49.142 -16.418  1.00  0.00     0.014 C 
BRANCH  12  14
HETATM   14  C22 UNL     1       0.071  51.206 -14.943  1.00  0.00    -0.023 C 
HETATM   15  C23 UNL     1      -1.001  50.983 -14.161  1.00  0.00     0.007 C 
BRANCH  15  16
HETATM   16  C24 UNL     1      -1.292  51.591 -12.794  1.00  0.00     0.077 C 
HETATM   17  C25 UNL     1      -0.567  50.901 -11.632  1.00  0.00     0.051 C 
BRANCH  16  18
HETATM   18  O2  UNL     1      -0.729  52.915 -12.848  1.00  0.00    -0.386 OA
HETATM   19  H37 UNL     1      -1.138  53.387 -13.591  1.00  0.00     0.211 HD
ENDBRANCH  16  18
BRANCH  16  20
HETATM   20  C26 UNL     1      -2.836  51.732 -12.586  1.00  0.00     0.043 C 
HETATM   21  C27 UNL     1      -3.531  50.380 -12.358  1.00  0.00     0.015 C 
BRANCH  20  22
HETATM   22  C28 UNL     1      -3.556  52.521 -13.692  1.00  0.00     0.171 C 
BRANCH  22  23
HETATM   23  O3  UNL     1      -4.202  53.678 -13.183  1.00  0.00    -0.400 OA
HETATM   24  H44 UNL     1      -4.647  54.113 -13.931  1.00  0.00     0.209 HD
ENDBRANCH  22  23
ENDBRANCH  20  22
ENDBRANCH  16  20
ENDBRANCH  15  16
ENDBRANCH  12  14
ENDBRANCH  11  12
BRANCH   1  25
HETATM   25  C8  UNL     1      -1.163  51.102 -23.702  1.00  0.00     0.008 C 
HETATM   26  C7  UNL     1      -0.732  51.687 -24.839  1.00  0.00    -0.050 C 
HETATM   27  C2  UNL     1       0.454  52.524 -24.973  1.00  0.00    -0.061 C 
HETATM   28  C6  UNL     1      -1.452  51.442 -26.157  1.00  0.00     0.070 C 
HETATM   29  C1  UNL     1       0.605  53.672 -24.292  1.00  0.00     0.019 C 
HETATM   30  C3  UNL     1       1.457  52.091 -26.017  1.00  0.00     0.041 C 
HETATM   31  C4  UNL     1       0.937  50.978 -26.934  1.00  0.00     0.036 C 
HETATM   32  C5  UNL     1      -0.509  51.235 -27.361  1.00  0.00     0.122 C 
BRANCH  32  33
HETATM   33  O1  UNL     1      -0.558  52.388 -28.206  1.00  0.00    -0.395 OA
HETATM   34  H8  UNL     1       0.024  52.220 -28.967  1.00  0.00     0.210 HD
ENDBRANCH  32  33
ENDBRANCH   1  25
TORSDOF 9
ENDMDL
MODEL 5
REMARK minimizedAffinity -8.96917629
REMARK  9 active torsions:
REMARK  status: ('A' for Active; 'I' for Inactive)
REMARK    1  A    between atoms: C5_5  and  O1_6 
REMARK    2  A    between atoms: C8_9  and  C9_10 
REMARK    3  A    between atoms: C19_20  and  C20_21 
REMARK    4  A    between atoms: C20_21  and  C22_23 
REMARK    5  A    between atoms: C23_24  and  C24_25 
REMARK    6  A    between atoms: C24_25  and  O2_27 
REMARK    7  A    between atoms: C24_25  and  C26_28 
REMARK    8  A    between atoms: C26_28  and  C28_30 
REMARK    9  A    between atoms: C28_30  and  O3_31 
ROOT
HETATM    1  C9  UNL     1      -4.880  48.521 -24.701  1.00  0.00     0.004 C 
HETATM    2  C10 UNL     1      -3.586  48.898 -24.617  1.00  0.00    -0.075 C 
HETATM    3  C11 UNL     1      -2.609  48.949 -25.763  1.00  0.00     0.034 C 
HETATM    4  C12 UNL     1      -1.962  50.327 -25.854  1.00  0.00     0.005 C 
HETATM    5  C13 UNL     1      -1.208  50.652 -24.569  1.00  0.00     0.010 C 
HETATM    6  C14 UNL     1      -2.094  50.606 -23.293  1.00  0.00    -0.032 C 
HETATM    7  C15 UNL     1      -3.000  51.853 -23.248  1.00  0.00     0.016 C 
HETATM    8  C16 UNL     1      -3.033  49.351 -23.275  1.00  0.00     0.023 C 
HETATM    9  C17 UNL     1      -2.238  48.293 -22.521  1.00  0.00     0.010 C 
HETATM   10  C18 UNL     1      -1.684  49.112 -21.363  1.00  0.00     0.007 C 
HETATM   11  C19 UNL     1      -1.150  50.396 -22.033  1.00  0.00     0.002 C 
ENDROOT
BRANCH  11  12
HETATM   12  C20 UNL     1      -0.923  51.596 -21.069  1.00  0.00     0.009 C 
HETATM   13  C21 UNL     1       0.439  52.260 -21.332  1.00  0.00     0.014 C 
BRANCH  12  14
HETATM   14  C22 UNL     1      -1.098  51.192 -19.610  1.00  0.00    -0.023 C 
HETATM   15  C23 UNL     1      -0.163  50.722 -18.763  1.00  0.00     0.007 C 
BRANCH  15  16
HETATM   16  C24 UNL     1      -0.350  50.334 -17.302  1.00  0.00     0.077 C 
HETATM   17  C25 UNL     1      -1.733  50.677 -16.733  1.00  0.00     0.051 C 
BRANCH  16  18
HETATM   18  O2  UNL     1      -0.291  48.895 -17.288  1.00  0.00    -0.386 OA
HETATM   19  H37 UNL     1       0.560  48.624 -17.669  1.00  0.00     0.211 HD
ENDBRANCH  16  18
BRANCH  16  20
HETATM   20  C26 UNL     1       0.842  50.873 -16.445  1.00  0.00     0.043 C 
HETATM   21  C27 UNL     1       0.480  51.039 -14.960  1.00  0.00     0.015 C 
BRANCH  20  22
HETATM   22  C28 UNL     1       1.479  52.165 -16.986  1.00  0.00     0.171 C 
BRANCH  22  23
HETATM   23  O3  UNL     1       1.361  53.239 -16.065  1.00  0.00    -0.400 OA
HETATM   24  H44 UNL     1       1.767  54.019 -16.479  1.00  0.00     0.209 HD
ENDBRANCH  22  23
ENDBRANCH  20  22
ENDBRANCH  16  20
ENDBRANCH  15  16
ENDBRANCH  12  14
ENDBRANCH  11  12
BRANCH   1  25
HETATM   25  C8  UNL     1      -5.599  48.086 -25.883  1.00  0.00     0.008 C 
HETATM   26  C7  UNL     1      -6.868  47.630 -25.933  1.00  0.00    -0.050 C 
HETATM   27  C2  UNL     1      -7.758  47.453 -24.792  1.00  0.00    -0.061 C 
HETATM   28  C6  UNL     1      -7.527  47.318 -27.268  1.00  0.00     0.070 C 
HETATM   29  C1  UNL     1      -7.470  46.622 -23.777  1.00  0.00     0.019 C 
HETATM   30  C3  UNL     1      -9.088  48.166 -24.872  1.00  0.00     0.041 C 
HETATM   31  C4  UNL     1      -9.378  48.758 -26.256  1.00  0.00     0.036 C 
HETATM   32  C5  UNL     1      -8.994  47.785 -27.372  1.00  0.00     0.122 C 
BRANCH  32  33
HETATM   33  O1  UNL     1      -9.859  46.646 -27.329  1.00  0.00    -0.395 OA
HETATM   34  H8  UNL     1     -10.772  46.966 -27.421  1.00  0.00     0.210 HD
ENDBRANCH  32  33
ENDBRANCH   1  25
TORSDOF 9
ENDMDL
MODEL 6
REMARK minimizedAffinity -8.5962162
REMARK  9 active torsions:
REMARK  status: ('A' for Active; 'I' for Inactive)
REMARK    1  A    between atoms: C5_5  and  O1_6 
REMARK    2  A    between atoms: C8_9  and  C9_10 
REMARK    3  A    between atoms: C19_20  and  C20_21 
REMARK    4  A    between atoms: C20_21  and  C22_23 
REMARK    5  A    between atoms: C23_24  and  C24_25 
REMARK    6  A    between atoms: C24_25  and  O2_27 
REMARK    7  A    between atoms: C24_25  and  C26_28 
REMARK    8  A    between atoms: C26_28  and  C28_30 
REMARK    9  A    between atoms: C28_30  and  O3_31 
ROOT
HETATM    1  C9  UNL     1      -0.994  50.828 -23.364  1.00  0.00     0.004 C 
HETATM    2  C10 UNL     1      -1.725  50.861 -22.230  1.00  0.00    -0.075 C 
HETATM    3  C11 UNL     1      -3.187  51.214 -22.137  1.00  0.00     0.034 C 
HETATM    4  C12 UNL     1      -3.959  50.116 -21.414  1.00  0.00     0.005 C 
HETATM    5  C13 UNL     1      -3.422  49.926 -19.999  1.00  0.00     0.010 C 
HETATM    6  C14 UNL     1      -1.908  49.584 -19.943  1.00  0.00    -0.032 C 
HETATM    7  C15 UNL     1      -1.692  48.121 -20.376  1.00  0.00     0.016 C 
HETATM    8  C16 UNL     1      -1.067  50.483 -20.913  1.00  0.00     0.023 C 
HETATM    9  C17 UNL     1      -0.630  51.663 -20.054  1.00  0.00     0.010 C 
HETATM   10  C18 UNL     1      -0.211  50.955 -18.773  1.00  0.00     0.007 C 
HETATM   11  C19 UNL     1      -1.360  49.962 -18.500  1.00  0.00     0.002 C 
ENDROOT
BRANCH  11  12
HETATM   12  C20 UNL     1      -1.015  48.809 -17.514  1.00  0.00     0.009 C 
HETATM   13  C21 UNL     1      -2.270  48.338 -16.759  1.00  0.00     0.014 C 
BRANCH  12  14
HETATM   14  C22 UNL     1       0.118  49.193 -16.569  1.00  0.00    -0.023 C 
HETATM   15  C23 UNL     1       0.038  49.889 -15.420  1.00  0.00     0.007 C 
BRANCH  15  16
HETATM   16  C24 UNL     1       1.179  50.255 -14.479  1.00  0.00     0.077 C 
HETATM   17  C25 UNL     1       0.723  50.712 -13.086  1.00  0.00     0.051 C 
BRANCH  16  18
HETATM   18  O2  UNL     1       1.884  49.019 -14.250  1.00  0.00    -0.386 OA
HETATM   19  H37 UNL     1       2.170  48.672 -15.109  1.00  0.00     0.211 HD
ENDBRANCH  16  18
BRANCH  16  20
HETATM   20  C26 UNL     1       2.161  51.246 -15.183  1.00  0.00     0.043 C 
HETATM   21  C27 UNL     1       3.346  51.647 -14.288  1.00  0.00     0.015 C 
BRANCH  20  22
HETATM   22  C28 UNL     1       1.487  52.500 -15.766  1.00  0.00     0.171 C 
BRANCH  22  23
HETATM   23  O3  UNL     1       2.394  53.285 -16.524  1.00  0.00    -0.400 OA
HETATM   24  H44 UNL     1       1.905  54.063 -16.844  1.00  0.00     0.209 HD
ENDBRANCH  22  23
ENDBRANCH  20  22
ENDBRANCH  16  20
ENDBRANCH  15  16
ENDBRANCH  12  14
ENDBRANCH  11  12
BRANCH   1  25
HETATM   25  C8  UNL     1      -1.439  51.123 -24.713  1.00  0.00     0.008 C 
HETATM   26  C7  UNL     1      -0.793  51.873 -25.630  1.00  0.00    -0.050 C 
HETATM   27  C2  UNL     1       0.475  52.565 -25.428  1.00  0.00    -0.061 C 
HETATM   28  C6  UNL     1      -1.332  51.999 -27.047  1.00  0.00     0.070 C 
HETATM   29  C1  UNL     1       0.634  53.518 -24.496  1.00  0.00     0.019 C 
HETATM   30  C3  UNL     1       1.573  52.236 -26.412  1.00  0.00     0.041 C 
HETATM   31  C4  UNL     1       1.089  51.411 -27.611  1.00  0.00     0.036 C 
HETATM   32  C5  UNL     1      -0.248  51.930 -28.142  1.00  0.00     0.122 C 
BRANCH  32  33
HETATM   33  O1  UNL     1      -0.063  53.230 -28.709  1.00  0.00    -0.395 OA
HETATM   34  H8  UNL     1       0.605  53.153 -29.412  1.00  0.00     0.210 HD
ENDBRANCH  32  33
ENDBRANCH   1  25
TORSDOF 9
ENDMDL
MODEL 7
REMARK minimizedAffinity -8.55791187
REMARK  9 active torsions:
REMARK  status: ('A' for Active; 'I' for Inactive)
REMARK    1  A    between atoms: C5_5  and  O1_6 
REMARK    2  A    between atoms: C8_9  and  C9_10 
REMARK    3  A    between atoms: C19_20  and  C20_21 
REMARK    4  A    between atoms: C20_21  and  C22_23 
REMARK    5  A    between atoms: C23_24  and  C24_25 
REMARK    6  A    between atoms: C24_25  and  O2_27 
REMARK    7  A    between atoms: C24_25  and  C26_28 
REMARK    8  A    between atoms: C26_28  and  C28_30 
REMARK    9  A    between atoms: C28_30  and  O3_31 
ROOT
HETATM    1  C9  UNL     1      -4.839  48.126 -22.762  1.00  0.00     0.004 C 
HETATM    2  C10 UNL     1      -4.373  49.063 -21.909  1.00  0.00    -0.075 C 
HETATM    3  C11 UNL     1      -4.772  49.214 -20.464  1.00  0.00     0.034 C 
HETATM    4  C12 UNL     1      -3.540  49.223 -19.566  1.00  0.00     0.005 C 
HETATM    5  C13 UNL     1      -2.619  50.383 -19.930  1.00  0.00     0.010 C 
HETATM    6  C14 UNL     1      -2.150  50.370 -21.411  1.00  0.00    -0.032 C 
HETATM    7  C15 UNL     1      -1.085  49.274 -21.607  1.00  0.00     0.016 C 
HETATM    8  C16 UNL     1      -3.327  50.053 -22.397  1.00  0.00     0.023 C 
HETATM    9  C17 UNL     1      -3.873  51.420 -22.788  1.00  0.00     0.010 C 
HETATM   10  C18 UNL     1      -2.584  52.194 -23.027  1.00  0.00     0.007 C 
HETATM   11  C19 UNL     1      -1.704  51.842 -21.809  1.00  0.00     0.002 C 
ENDROOT
BRANCH  11  12
HETATM   12  C20 UNL     1      -0.186  52.133 -21.988  1.00  0.00     0.009 C 
HETATM   13  C21 UNL     1       0.316  53.110 -20.912  1.00  0.00     0.014 C 
BRANCH  12  14
HETATM   14  C22 UNL     1       0.137  52.611 -23.399  1.00  0.00    -0.023 C 
HETATM   15  C23 UNL     1       0.318  51.865 -24.505  1.00  0.00     0.007 C 
BRANCH  15  16
HETATM   16  C24 UNL     1       0.628  52.359 -25.912  1.00  0.00     0.077 C 
HETATM   17  C25 UNL     1       0.075  53.755 -26.225  1.00  0.00     0.051 C 
BRANCH  16  18
HETATM   18  O2  UNL     1       2.060  52.512 -25.946  1.00  0.00    -0.386 OA
HETATM   19  H37 UNL     1       2.461  51.657 -25.725  1.00  0.00     0.211 HD
ENDBRANCH  16  18
BRANCH  16  20
HETATM   20  C26 UNL     1       0.236  51.270 -26.963  1.00  0.00     0.043 C 
HETATM   21  C27 UNL     1       0.663  51.641 -28.393  1.00  0.00     0.015 C 
BRANCH  20  22
HETATM   22  C28 UNL     1      -1.249  50.870 -26.938  1.00  0.00     0.171 C 
BRANCH  22  23
HETATM   23  O3  UNL     1      -1.945  51.344 -28.081  1.00  0.00    -0.400 OA
HETATM   24  H44 UNL     1      -2.873  51.069 -27.988  1.00  0.00     0.209 HD
ENDBRANCH  22  23
ENDBRANCH  20  22
ENDBRANCH  16  20
ENDBRANCH  15  16
ENDBRANCH  12  14
ENDBRANCH  11  12
BRANCH   1  25
HETATM   25  C8  UNL     1      -5.809  47.083 -22.485  1.00  0.00     0.008 C 
HETATM   26  C7  UNL     1      -7.028  46.946 -23.047  1.00  0.00    -0.050 C 
HETATM   27  C2  UNL     1      -7.625  47.848 -24.025  1.00  0.00    -0.061 C 
HETATM   28  C6  UNL     1      -7.890  45.731 -22.738  1.00  0.00     0.070 C 
HETATM   29  C1  UNL     1      -7.862  49.142 -23.759  1.00  0.00     0.019 C 
HETATM   30  C3  UNL     1      -8.077  47.214 -25.320  1.00  0.00     0.041 C 
HETATM   31  C4  UNL     1      -8.057  45.682 -25.287  1.00  0.00     0.036 C 
HETATM   32  C5  UNL     1      -8.614  45.144 -23.968  1.00  0.00     0.122 C 
BRANCH  32  33
HETATM   33  O1  UNL     1     -10.010  45.442 -23.884  1.00  0.00    -0.395 OA
HETATM   34  H8  UNL     1     -10.445  45.040 -24.656  1.00  0.00     0.210 HD
ENDBRANCH  32  33
ENDBRANCH   1  25
TORSDOF 9
ENDMDL
MODEL 8
REMARK minimizedAffinity -8.53892803
REMARK  9 active torsions:
REMARK  status: ('A' for Active; 'I' for Inactive)
REMARK    1  A    between atoms: C5_5  and  O1_6 
REMARK    2  A    between atoms: C8_9  and  C9_10 
REMARK    3  A    between atoms: C19_20  and  C20_21 
REMARK    4  A    between atoms: C20_21  and  C22_23 
REMARK    5  A    between atoms: C23_24  and  C24_25 
REMARK    6  A    between atoms: C24_25  and  O2_27 
REMARK    7  A    between atoms: C24_25  and  C26_28 
REMARK    8  A    between atoms: C26_28  and  C28_30 
REMARK    9  A    between atoms: C28_30  and  O3_31 
ROOT
HETATM    1  C9  UNL     1      -0.984  49.966 -21.721  1.00  0.00     0.004 C 
HETATM    2  C10 UNL     1      -1.909  50.497 -22.548  1.00  0.00    -0.075 C 
HETATM    3  C11 UNL     1      -2.450  51.902 -22.476  1.00  0.00     0.034 C 
HETATM    4  C12 UNL     1      -2.302  52.602 -23.822  1.00  0.00     0.005 C 
HETATM    5  C13 UNL     1      -3.067  51.850 -24.907  1.00  0.00     0.010 C 
HETATM    6  C14 UNL     1      -2.629  50.368 -25.070  1.00  0.00    -0.032 C 
HETATM    7  C15 UNL     1      -1.267  50.308 -25.788  1.00  0.00     0.016 C 
HETATM    8  C16 UNL     1      -2.455  49.651 -23.687  1.00  0.00     0.023 C 
HETATM    9  C17 UNL     1      -3.812  49.014 -23.417  1.00  0.00     0.010 C 
HETATM   10  C18 UNL     1      -4.139  48.428 -24.784  1.00  0.00     0.007 C 
HETATM   11  C19 UNL     1      -3.811  49.569 -25.770  1.00  0.00     0.002 C 
ENDROOT
BRANCH  11  12
HETATM   12  C20 UNL     1      -3.632  49.129 -27.251  1.00  0.00     0.009 C 
HETATM   13  C21 UNL     1      -3.181  50.313 -28.124  1.00  0.00     0.014 C 
BRANCH  12  14
HETATM   14  C22 UNL     1      -4.885  48.453 -27.797  1.00  0.00    -0.023 C 
HETATM   15  C23 UNL     1      -5.265  48.326 -29.081  1.00  0.00     0.007 C 
BRANCH  15  16
HETATM   16  C24 UNL     1      -6.514  47.636 -29.612  1.00  0.00     0.077 C 
HETATM   17  C25 UNL     1      -6.356  46.124 -29.821  1.00  0.00     0.051 C 
BRANCH  16  18
HETATM   18  O2  UNL     1      -7.488  47.764 -28.558  1.00  0.00    -0.386 OA
HETATM   19  H37 UNL     1      -7.603  48.709 -28.368  1.00  0.00     0.211 HD
ENDBRANCH  16  18
BRANCH  16  20
HETATM   20  C26 UNL     1      -7.058  48.397 -30.865  1.00  0.00     0.043 C 
HETATM   21  C27 UNL     1      -8.539  48.788 -30.728  1.00  0.00     0.015 C 
BRANCH  20  22
HETATM   22  C28 UNL     1      -6.821  47.671 -32.201  1.00  0.00     0.171 C 
BRANCH  22  23
HETATM   23  O3  UNL     1      -5.514  47.903 -32.705  1.00  0.00    -0.400 OA
HETATM   24  H44 UNL     1      -5.444  47.431 -33.552  1.00  0.00     0.209 HD
ENDBRANCH  22  23
ENDBRANCH  20  22
ENDBRANCH  16  20
ENDBRANCH  15  16
ENDBRANCH  12  14
ENDBRANCH  11  12
BRANCH   1  25
HETATM   25  C8  UNL     1      -0.324  50.612 -20.601  1.00  0.00     0.008 C 
HETATM   26  C7  UNL     1      -0.738  50.621 -19.317  1.00  0.00    -0.050 C 
HETATM   27  C2  UNL     1      -1.958  50.006 -18.808  1.00  0.00    -0.061 C 
HETATM   28  C6  UNL     1       0.123  51.247 -18.230  1.00  0.00     0.070 C 
HETATM   29  C1  UNL     1      -3.179  50.370 -19.233  1.00  0.00     0.019 C 
HETATM   30  C3  UNL     1      -1.780  49.016 -17.680  1.00  0.00     0.041 C 
HETATM   31  C4  UNL     1      -0.364  49.011 -17.093  1.00  0.00     0.036 C 
HETATM   32  C5  UNL     1       0.174  50.432 -16.921  1.00  0.00     0.122 C 
BRANCH  32  33
HETATM   33  O1  UNL     1      -0.582  51.109 -15.912  1.00  0.00    -0.395 OA
HETATM   34  H8  UNL     1      -0.512  50.589 -15.093  1.00  0.00     0.210 HD
ENDBRANCH  32  33
ENDBRANCH   1  25
TORSDOF 9
ENDMDL
MODEL 9
REMARK minimizedAffinity -8.24586487
REMARK  9 active torsions:
REMARK  status: ('A' for Active; 'I' for Inactive)
REMARK    1  A    between atoms: C5_5  and  O1_6 
REMARK    2  A    between atoms: C8_9  and  C9_10 
REMARK    3  A    between atoms: C19_20  and  C20_21 
REMARK    4  A    between atoms: C20_21  and  C22_23 
REMARK    5  A    between atoms: C23_24  and  C24_25 
REMARK    6  A    between atoms: C24_25  and  O2_27 
REMARK    7  A    between atoms: C24_25  and  C26_28 
REMARK    8  A    between atoms: C26_28  and  C28_30 
REMARK    9  A    between atoms: C28_30  and  O3_31 
ROOT
HETATM    1  C9  UNL     1      -2.493  51.854 -23.401  1.00  0.00     0.004 C 
HETATM    2  C10 UNL     1      -3.083  50.713 -22.984  1.00  0.00    -0.075 C 
HETATM    3  C11 UNL     1      -3.816  49.732 -23.862  1.00  0.00     0.034 C 
HETATM    4  C12 UNL     1      -3.255  48.326 -23.678  1.00  0.00     0.005 C 
HETATM    5  C13 UNL     1      -3.403  47.874 -22.228  1.00  0.00     0.010 C 
HETATM    6  C14 UNL     1      -2.715  48.818 -21.204  1.00  0.00    -0.032 C 
HETATM    7  C15 UNL     1      -1.188  48.619 -21.262  1.00  0.00     0.016 C 
HETATM    8  C16 UNL     1      -2.997  50.328 -21.517  1.00  0.00     0.023 C 
HETATM    9  C17 UNL     1      -4.234  50.661 -20.693  1.00  0.00     0.010 C 
HETATM   10  C18 UNL     1      -3.898  49.986 -19.371  1.00  0.00     0.007 C 
HETATM   11  C19 UNL     1      -3.385  48.590 -19.782  1.00  0.00     0.002 C 
ENDROOT
BRANCH  11  12
HETATM   12  C20 UNL     1      -2.568  47.841 -18.690  1.00  0.00     0.009 C 
HETATM   13  C21 UNL     1      -3.398  46.705 -18.067  1.00  0.00     0.014 C 
BRANCH  12  14
HETATM   14  C22 UNL     1      -2.016  48.797 -17.639  1.00  0.00    -0.023 C 
HETATM   15  C23 UNL     1      -0.821  49.415 -17.629  1.00  0.00     0.007 C 
BRANCH  15  16
HETATM   16  C24 UNL     1      -0.287  50.379 -16.577  1.00  0.00     0.077 C 
HETATM   17  C25 UNL     1      -1.223  50.583 -15.379  1.00  0.00     0.051 C 
BRANCH  16  18
HETATM   18  O2  UNL     1       0.876  49.729 -16.031  1.00  0.00    -0.386 OA
HETATM   19  H37 UNL     1       1.492  49.550 -16.759  1.00  0.00     0.211 HD
ENDBRANCH  16  18
BRANCH  16  20
HETATM   20  C26 UNL     1       0.179  51.710 -17.254  1.00  0.00     0.043 C 
HETATM   21  C27 UNL     1       0.043  51.678 -18.785  1.00  0.00     0.015 C 
BRANCH  20  22
HETATM   22  C28 UNL     1       1.593  52.164 -16.854  1.00  0.00     0.171 C 
BRANCH  22  23
HETATM   23  O3  UNL     1       1.567  53.336 -16.053  1.00  0.00    -0.400 OA
HETATM   24  H44 UNL     1       2.490  53.571 -15.855  1.00  0.00     0.209 HD
ENDBRANCH  22  23
ENDBRANCH  20  22
ENDBRANCH  16  20
ENDBRANCH  15  16
ENDBRANCH  12  14
ENDBRANCH  11  12
BRANCH   1  25
HETATM   25  C8  UNL     1      -2.438  52.379 -24.752  1.00  0.00     0.008 C 
HETATM   26  C7  UNL     1      -1.331  52.574 -25.498  1.00  0.00    -0.050 C 
HETATM   27  C2  UNL     1       0.041  52.323 -25.072  1.00  0.00    -0.061 C 
HETATM   28  C6  UNL     1      -1.442  53.027 -26.946  1.00  0.00     0.070 C 
HETATM   29  C1  UNL     1       0.598  52.958 -24.029  1.00  0.00     0.019 C 
HETATM   30  C3  UNL     1       0.847  51.394 -25.950  1.00  0.00     0.041 C 
HETATM   31  C4  UNL     1       0.160  51.065 -27.280  1.00  0.00     0.036 C 
HETATM   32  C5  UNL     1      -0.470  52.311 -27.906  1.00  0.00     0.122 C 
BRANCH  32  33
HETATM   33  O1  UNL     1       0.562  53.219 -28.301  1.00  0.00    -0.395 OA
HETATM   34  H8  UNL     1       1.145  52.751 -28.924  1.00  0.00     0.210 HD
ENDBRANCH  32  33
ENDBRANCH   1  25
TORSDOF 9
ENDMDL
