MODEL 1
REMARK minimizedAffinity -10.0066566
REMARK  9 active torsions:
REMARK  status: ('A' for Active; 'I' for Inactive)
REMARK    1  A    between atoms: C3_3  and  C4_4 
REMARK    2  A    between atoms: C3_3  and  C27_30 
REMARK    3  A    between atoms: C4_4  and  C5_5 
REMARK    4  A    between atoms: C5_5  and  C6_6 
REMARK    5  A    between atoms: C6_6  and  C8_8 
REMARK    6  A    between atoms: C15_15  and  O1_16 
REMARK    7  A    between atoms: C18_19  and  C19_20 
REMARK    8  A    between atoms: C19_20  and  O2_21 
REMARK    9  A    between atoms: C22_24  and  O3_25 
ROOT
HETATM    1  C8  UNL     1      -0.744  51.103 -23.612  1.00  0.00     0.001 C 
HETATM    2  C9  UNL     1      -0.020  52.473 -23.660  1.00  0.00     0.006 C 
HETATM    3  C10 UNL     1       0.393  52.802 -22.216  1.00  0.00     0.010 C 
HETATM    4  C11 UNL     1       0.148  51.506 -21.444  1.00  0.00     0.026 C 
HETATM    5  C12 UNL     1       0.096  51.494 -19.932  1.00  0.00    -0.072 C 
HETATM    6  C13 UNL     1      -0.550  50.490 -19.284  1.00  0.00    -0.064 C 
HETATM    7  C14 UNL     1      -1.312  49.411 -20.067  1.00  0.00     0.068 C 
HETATM    8  C15 UNL     1      -1.226  49.479 -21.613  1.00  0.00     0.131 C 
HETATM    9  C16 UNL     1      -1.133  50.936 -22.110  1.00  0.00    -0.006 C 
HETATM   10  C17 UNL     1      -2.412  51.732 -21.749  1.00  0.00     0.019 C 
HETATM   11  C18 UNL     1      -0.617  50.434 -17.727  1.00  0.00     0.009 C 
HETATM   12  C20 UNL     1      -0.514  48.977 -17.160  1.00  0.00     0.019 C 
HETATM   13  C21 UNL     1       0.440  48.778 -15.971  1.00  0.00     0.033 C 
HETATM   14  C22 UNL     1       0.431  49.915 -14.957  1.00  0.00     0.118 C 
HETATM   15  C23 UNL     1       0.621  51.293 -15.598  1.00  0.00     0.037 C 
HETATM   16  C24 UNL     1       0.579  51.251 -17.135  1.00  0.00     0.003 C 
HETATM   17  C25 UNL     1       0.655  52.660 -17.720  1.00  0.00     0.010 C 
HETATM   18  C26 UNL     1       0.844  52.604 -19.233  1.00  0.00     0.035 C 
ENDROOT
BRANCH   1  19
HETATM   19  C6  UNL     1      -1.834  50.866 -24.700  1.00  0.00    -0.013 C 
HETATM   20  C7  UNL     1      -2.513  52.207 -25.024  1.00  0.00     0.010 C 
BRANCH  19  21
HETATM   21  C5  UNL     1      -2.914  49.820 -24.334  1.00  0.00     0.009 C 
BRANCH  21  22
HETATM   22  C4  UNL     1      -2.949  48.547 -25.200  1.00  0.00     0.034 C 
BRANCH  22  23
HETATM   23  C3  UNL     1      -4.155  48.418 -26.118  1.00  0.00    -0.081 C 
HETATM   24  C2  UNL     1      -5.409  48.254 -25.646  1.00  0.00    -0.028 C 
HETATM   25  C1  UNL     1      -5.814  48.133 -24.211  1.00  0.00     0.036 C 
BRANCH  23  26
HETATM   26  C27 UNL     1      -3.857  48.589 -27.610  1.00  0.00     0.006 C 
HETATM   27  C28 UNL     1      -4.994  48.163 -28.544  1.00  0.00     0.014 C 
HETATM   28  C29 UNL     1      -3.446  50.034 -27.911  1.00  0.00     0.014 C 
ENDBRANCH  23  26
ENDBRANCH  22  23
ENDBRANCH  21  22
ENDBRANCH  19  21
ENDBRANCH   1  19
BRANCH   8  29
HETATM   29  O1  UNL     1      -2.320  48.771 -22.189  1.00  0.00    -0.394 OA
HETATM   30  H22 UNL     1      -3.147  49.217 -21.939  1.00  0.00     0.210 HD
ENDBRANCH   8  29
BRANCH  11  31
HETATM   31  C19 UNL     1      -2.017  51.039 -17.369  1.00  0.00     0.178 C 
BRANCH  31  32
HETATM   32  O2  UNL     1      -2.589  51.814 -18.415  1.00  0.00    -0.400 OA
HETATM   33  H28 UNL     1      -3.481  52.070 -18.113  1.00  0.00     0.209 HD
ENDBRANCH  31  32
ENDBRANCH  11  31
BRANCH  14  34
HETATM   34  O3  UNL     1      -0.780  49.873 -14.209  1.00  0.00    -0.396 OA
HETATM   35  H34 UNL     1      -1.482  50.238 -14.792  1.00  0.00     0.210 HD
ENDBRANCH  14  34
TORSDOF 9
ENDMDL
MODEL 2
REMARK minimizedAffinity -9.82664585
REMARK  9 active torsions:
REMARK  status: ('A' for Active; 'I' for Inactive)
REMARK    1  A    between atoms: C3_3  and  C4_4 
REMARK    2  A    between atoms: C3_3  and  C27_30 
REMARK    3  A    between atoms: C4_4  and  C5_5 
REMARK    4  A    between atoms: C5_5  and  C6_6 
REMARK    5  A    between atoms: C6_6  and  C8_8 
REMARK    6  A    between atoms: C15_15  and  O1_16 
REMARK    7  A    between atoms: C18_19  and  C19_20 
REMARK    8  A    between atoms: C19_20  and  O2_21 
REMARK    9  A    between atoms: C22_24  and  O3_25 
ROOT
HETATM    1  C8  UNL     1      -0.385  50.484 -19.288  1.00  0.00     0.001 C 
HETATM    2  C9  UNL     1      -1.057  49.122 -18.973  1.00  0.00     0.006 C 
HETATM    3  C10 UNL     1      -1.711  48.643 -20.279  1.00  0.00     0.010 C 
HETATM    4  C11 UNL     1      -1.165  49.587 -21.349  1.00  0.00     0.026 C 
HETATM    5  C12 UNL     1      -1.814  49.685 -22.711  1.00  0.00    -0.072 C 
HETATM    6  C13 UNL     1      -1.636  50.798 -23.469  1.00  0.00    -0.064 C 
HETATM    7  C14 UNL     1      -0.857  52.004 -22.923  1.00  0.00     0.068 C 
HETATM    8  C15 UNL     1      -0.220  51.846 -21.520  1.00  0.00     0.131 C 
HETATM    9  C16 UNL     1      -1.079  50.948 -20.607  1.00  0.00    -0.006 C 
HETATM   10  C17 UNL     1      -2.465  51.585 -20.341  1.00  0.00     0.019 C 
HETATM   11  C18 UNL     1      -2.278  50.934 -24.884  1.00  0.00     0.009 C 
HETATM   12  C20 UNL     1      -1.352  51.671 -25.910  1.00  0.00     0.019 C 
HETATM   13  C21 UNL     1      -1.231  51.025 -27.299  1.00  0.00     0.033 C 
HETATM   14  C22 UNL     1      -2.528  50.436 -27.838  1.00  0.00     0.118 C 
HETATM   15  C23 UNL     1      -3.219  49.496 -26.845  1.00  0.00     0.037 C 
HETATM   16  C24 UNL     1      -2.563  49.506 -25.454  1.00  0.00     0.003 C 
HETATM   17  C25 UNL     1      -3.358  48.646 -24.472  1.00  0.00     0.010 C 
HETATM   18  C26 UNL     1      -2.589  48.471 -23.167  1.00  0.00     0.035 C 
ENDROOT
BRANCH   1  19
HETATM   19  C6  UNL     1      -0.283  51.488 -18.101  1.00  0.00    -0.013 C 
HETATM   20  C7  UNL     1       0.182  52.851 -18.641  1.00  0.00     0.010 C 
BRANCH  19  21
HETATM   21  C5  UNL     1       0.648  51.051 -16.945  1.00  0.00     0.009 C 
BRANCH  21  22
HETATM   22  C4  UNL     1       1.391  52.180 -16.207  1.00  0.00     0.034 C 
BRANCH  22  23
HETATM   23  C3  UNL     1       2.269  51.731 -15.048  1.00  0.00    -0.081 C 
HETATM   24  C2  UNL     1       3.616  51.806 -15.092  1.00  0.00    -0.028 C 
HETATM   25  C1  UNL     1       4.448  52.278 -16.244  1.00  0.00     0.036 C 
BRANCH  23  26
HETATM   26  C27 UNL     1       1.514  51.287 -13.794  1.00  0.00     0.006 C 
HETATM   27  C28 UNL     1       2.395  51.063 -12.560  1.00  0.00     0.014 C 
HETATM   28  C29 UNL     1       0.393  52.278 -13.464  1.00  0.00     0.014 C 
ENDBRANCH  23  26
ENDBRANCH  22  23
ENDBRANCH  21  22
ENDBRANCH  19  21
ENDBRANCH   1  19
BRANCH   8  29
HETATM   29  O1  UNL     1       0.026  53.130 -20.953  1.00  0.00    -0.394 OA
HETATM   30  H22 UNL     1      -0.825  53.580 -20.820  1.00  0.00     0.210 HD
ENDBRANCH   8  29
BRANCH  11  31
HETATM   31  C19 UNL     1      -3.577  51.777 -24.648  1.00  0.00     0.178 C 
BRANCH  31  32
HETATM   32  O2  UNL     1      -4.779  51.046 -24.854  1.00  0.00    -0.400 OA
HETATM   33  H28 UNL     1      -5.511  51.641 -24.605  1.00  0.00     0.209 HD
ENDBRANCH  31  32
ENDBRANCH  11  31
BRANCH  14  34
HETATM   34  O3  UNL     1      -3.404  51.492 -28.221  1.00  0.00    -0.396 OA
HETATM   35  H34 UNL     1      -3.783  51.857 -27.391  1.00  0.00     0.210 HD
ENDBRANCH  14  34
TORSDOF 9
ENDMDL
MODEL 3
REMARK minimizedAffinity -9.68490982
REMARK  9 active torsions:
REMARK  status: ('A' for Active; 'I' for Inactive)
REMARK    1  A    between atoms: C3_3  and  C4_4 
REMARK    2  A    between atoms: C3_3  and  C27_30 
REMARK    3  A    between atoms: C4_4  and  C5_5 
REMARK    4  A    between atoms: C5_5  and  C6_6 
REMARK    5  A    between atoms: C6_6  and  C8_8 
REMARK    6  A    between atoms: C15_15  and  O1_16 
REMARK    7  A    between atoms: C18_19  and  C19_20 
REMARK    8  A    between atoms: C19_20  and  O2_21 
REMARK    9  A    between atoms: C22_24  and  O3_25 
ROOT
HETATM    1  C8  UNL     1      -1.253  50.837 -24.805  1.00  0.00     0.001 C 
HETATM    2  C9  UNL     1      -0.453  52.132 -25.099  1.00  0.00     0.006 C 
HETATM    3  C10 UNL     1       0.070  52.641 -23.746  1.00  0.00     0.010 C 
HETATM    4  C11 UNL     1      -0.201  51.493 -22.774  1.00  0.00     0.026 C 
HETATM    5  C12 UNL     1      -0.156  51.708 -21.278  1.00  0.00    -0.072 C 
HETATM    6  C13 UNL     1      -0.818  50.858 -20.451  1.00  0.00    -0.064 C 
HETATM    7  C14 UNL     1      -1.692  49.729 -21.019  1.00  0.00     0.068 C 
HETATM    8  C15 UNL     1      -1.702  49.563 -22.559  1.00  0.00     0.131 C 
HETATM    9  C16 UNL     1      -1.554  50.921 -23.275  1.00  0.00    -0.006 C 
HETATM   10  C17 UNL     1      -2.758  51.847 -22.970  1.00  0.00     0.019 C 
HETATM   11  C18 UNL     1      -0.787  51.036 -18.902  1.00  0.00     0.009 C 
HETATM   12  C20 UNL     1      -0.735  49.676 -18.128  1.00  0.00     0.019 C 
HETATM   13  C21 UNL     1       0.280  49.589 -16.976  1.00  0.00     0.033 C 
HETATM   14  C22 UNL     1       0.404  50.861 -16.147  1.00  0.00     0.118 C 
HETATM   15  C23 UNL     1       0.634  52.113 -16.999  1.00  0.00     0.037 C 
HETATM   16  C24 UNL     1       0.491  51.848 -18.507  1.00  0.00     0.003 C 
HETATM   17  C25 UNL     1       0.612  53.147 -19.302  1.00  0.00     0.010 C 
HETATM   18  C26 UNL     1       0.700  52.856 -20.797  1.00  0.00     0.035 C 
ENDROOT
BRANCH   1  19
HETATM   19  C6  UNL     1      -2.423  50.517 -25.783  1.00  0.00    -0.013 C 
HETATM   20  C7  UNL     1      -3.474  51.637 -25.684  1.00  0.00     0.010 C 
BRANCH  19  21
HETATM   21  C5  UNL     1      -3.111  49.149 -25.563  1.00  0.00     0.009 C 
BRANCH  21  22
HETATM   22  C4  UNL     1      -3.519  48.381 -26.834  1.00  0.00     0.034 C 
BRANCH  22  23
HETATM   23  C3  UNL     1      -5.000  48.053 -26.949  1.00  0.00    -0.081 C 
HETATM   24  C2  UNL     1      -5.837  48.113 -25.892  1.00  0.00    -0.028 C 
HETATM   25  C1  UNL     1      -5.472  48.454 -24.481  1.00  0.00     0.036 C 
BRANCH  23  26
HETATM   26  C27 UNL     1      -5.490  47.749 -28.367  1.00  0.00     0.006 C 
HETATM   27  C28 UNL     1      -7.007  47.860 -28.558  1.00  0.00     0.014 C 
HETATM   28  C29 UNL     1      -4.768  48.638 -29.385  1.00  0.00     0.014 C 
ENDBRANCH  23  26
ENDBRANCH  22  23
ENDBRANCH  21  22
ENDBRANCH  19  21
ENDBRANCH   1  19
BRANCH   8  29
HETATM   29  O1  UNL     1      -2.871  48.854 -22.961  1.00  0.00    -0.394 OA
HETATM   30  H22 UNL     1      -3.652  49.387 -22.736  1.00  0.00     0.210 HD
ENDBRANCH   8  29
BRANCH  11  31
HETATM   31  C19 UNL     1      -2.123  51.782 -18.564  1.00  0.00     0.178 C 
BRANCH  31  32
HETATM   32  O2  UNL     1      -2.826  51.225 -17.460  1.00  0.00    -0.400 OA
HETATM   33  H28 UNL     1      -3.589  51.811 -17.295  1.00  0.00     0.209 HD
ENDBRANCH  31  32
ENDBRANCH  11  31
BRANCH  14  34
HETATM   34  O3  UNL     1      -0.757  51.013 -15.336  1.00  0.00    -0.396 OA
HETATM   35  H34 UNL     1      -1.472  51.335 -15.928  1.00  0.00     0.210 HD
ENDBRANCH  14  34
TORSDOF 9
ENDMDL
MODEL 4
REMARK minimizedAffinity -9.63532639
REMARK  9 active torsions:
REMARK  status: ('A' for Active; 'I' for Inactive)
REMARK    1  A    between atoms: C3_3  and  C4_4 
REMARK    2  A    between atoms: C3_3  and  C27_30 
REMARK    3  A    between atoms: C4_4  and  C5_5 
REMARK    4  A    between atoms: C5_5  and  C6_6 
REMARK    5  A    between atoms: C6_6  and  C8_8 
REMARK    6  A    between atoms: C15_15  and  O1_16 
REMARK    7  A    between atoms: C18_19  and  C19_20 
REMARK    8  A    between atoms: C19_20  and  O2_21 
REMARK    9  A    between atoms: C22_24  and  O3_25 
ROOT
HETATM    1  C8  UNL     1      -1.038  50.939 -24.778  1.00  0.00     0.001 C 
HETATM    2  C9  UNL     1      -0.215  52.224 -25.051  1.00  0.00     0.006 C 
HETATM    3  C10 UNL     1       0.284  52.724 -23.686  1.00  0.00     0.010 C 
HETATM    4  C11 UNL     1      -0.023  51.578 -22.724  1.00  0.00     0.026 C 
HETATM    5  C12 UNL     1      -0.007  51.788 -21.226  1.00  0.00    -0.072 C 
HETATM    6  C13 UNL     1      -0.698  50.945 -20.416  1.00  0.00    -0.064 C 
HETATM    7  C14 UNL     1      -1.573  49.829 -21.006  1.00  0.00     0.068 C 
HETATM    8  C15 UNL     1      -1.551  49.666 -22.546  1.00  0.00     0.131 C 
HETATM    9  C16 UNL     1      -1.371  51.023 -23.256  1.00  0.00    -0.006 C 
HETATM   10  C17 UNL     1      -2.569  51.963 -22.974  1.00  0.00     0.019 C 
HETATM   11  C18 UNL     1      -0.699  51.119 -18.866  1.00  0.00     0.009 C 
HETATM   12  C20 UNL     1      -0.681  49.756 -18.094  1.00  0.00     0.019 C 
HETATM   13  C21 UNL     1       0.307  49.655 -16.921  1.00  0.00     0.033 C 
HETATM   14  C22 UNL     1       0.429  50.923 -16.086  1.00  0.00     0.118 C 
HETATM   15  C23 UNL     1       0.693  52.174 -16.929  1.00  0.00     0.037 C 
HETATM   16  C24 UNL     1       0.580  51.914 -18.441  1.00  0.00     0.003 C 
HETATM   17  C25 UNL     1       0.735  53.213 -19.230  1.00  0.00     0.010 C 
HETATM   18  C26 UNL     1       0.852  52.924 -20.723  1.00  0.00     0.035 C 
ENDROOT
BRANCH   1  19
HETATM   19  C6  UNL     1      -2.190  50.636 -25.782  1.00  0.00    -0.013 C 
HETATM   20  C7  UNL     1      -2.732  51.966 -26.332  1.00  0.00     0.010 C 
BRANCH  19  21
HETATM   21  C5  UNL     1      -3.361  49.803 -25.210  1.00  0.00     0.009 C 
BRANCH  21  22
HETATM   22  C4  UNL     1      -3.655  48.467 -25.917  1.00  0.00     0.034 C 
BRANCH  22  23
HETATM   23  C3  UNL     1      -5.124  48.181 -26.184  1.00  0.00    -0.081 C 
HETATM   24  C2  UNL     1      -5.620  48.057 -27.434  1.00  0.00    -0.028 C 
HETATM   25  C1  UNL     1      -4.863  48.213 -28.715  1.00  0.00     0.036 C 
BRANCH  23  26
HETATM   26  C27 UNL     1      -5.978  47.943 -24.937  1.00  0.00     0.006 C 
HETATM   27  C28 UNL     1      -6.313  49.207 -24.138  1.00  0.00     0.014 C 
HETATM   28  C29 UNL     1      -7.266  47.199 -25.303  1.00  0.00     0.014 C 
ENDBRANCH  23  26
ENDBRANCH  22  23
ENDBRANCH  21  22
ENDBRANCH  19  21
ENDBRANCH   1  19
BRANCH   8  29
HETATM   29  O1  UNL     1      -2.720  48.973 -22.975  1.00  0.00    -0.394 OA
HETATM   30  H22 UNL     1      -3.499  49.515 -22.767  1.00  0.00     0.210 HD
ENDBRANCH   8  29
BRANCH  11  31
HETATM   31  C19 UNL     1      -2.032  51.881 -18.555  1.00  0.00     0.178 C 
BRANCH  31  32
HETATM   32  O2  UNL     1      -2.800  51.290 -17.515  1.00  0.00    -0.400 OA
HETATM   33  H28 UNL     1      -3.557  51.886 -17.358  1.00  0.00     0.209 HD
ENDBRANCH  31  32
ENDBRANCH  11  31
BRANCH  14  34
HETATM   34  O3  UNL     1      -0.747  51.088 -15.301  1.00  0.00    -0.396 OA
HETATM   35  H34 UNL     1      -1.446  51.420 -15.907  1.00  0.00     0.210 HD
ENDBRANCH  14  34
TORSDOF 9
ENDMDL
MODEL 5
REMARK minimizedAffinity -9.54078197
REMARK  9 active torsions:
REMARK  status: ('A' for Active; 'I' for Inactive)
REMARK    1  A    between atoms: C3_3  and  C4_4 
REMARK    2  A    between atoms: C3_3  and  C27_30 
REMARK    3  A    between atoms: C4_4  and  C5_5 
REMARK    4  A    between atoms: C5_5  and  C6_6 
REMARK    5  A    between atoms: C6_6  and  C8_8 
REMARK    6  A    between atoms: C15_15  and  O1_16 
REMARK    7  A    between atoms: C18_19  and  C19_20 
REMARK    8  A    between atoms: C19_20  and  O2_21 
REMARK    9  A    between atoms: C22_24  and  O3_25 
ROOT
HETATM    1  C8  UNL     1      -1.125  49.180 -19.135  1.00  0.00     0.001 C 
HETATM    2  C9  UNL     1      -2.085  47.969 -19.269  1.00  0.00     0.006 C 
HETATM    3  C10 UNL     1      -2.526  47.921 -20.741  1.00  0.00     0.010 C 
HETATM    4  C11 UNL     1      -1.605  48.913 -21.449  1.00  0.00     0.026 C 
HETATM    5  C12 UNL     1      -1.925  49.425 -22.837  1.00  0.00    -0.072 C 
HETATM    6  C13 UNL     1      -1.392  50.598 -23.266  1.00  0.00    -0.064 C 
HETATM    7  C14 UNL     1      -0.538  51.464 -22.327  1.00  0.00     0.068 C 
HETATM    8  C15 UNL     1      -0.249  50.889 -20.918  1.00  0.00     0.131 C 
HETATM    9  C16 UNL     1      -1.429  50.043 -20.399  1.00  0.00    -0.006 C 
HETATM   10  C17 UNL     1      -2.701  50.909 -20.220  1.00  0.00     0.019 C 
HETATM   11  C18 UNL     1      -1.686  51.155 -24.692  1.00  0.00     0.009 C 
HETATM   12  C20 UNL     1      -0.447  51.855 -25.346  1.00  0.00     0.019 C 
HETATM   13  C21 UNL     1      -0.157  51.489 -26.811  1.00  0.00     0.033 C 
HETATM   14  C22 UNL     1      -1.397  51.328 -27.679  1.00  0.00     0.118 C 
HETATM   15  C23 UNL     1      -2.441  50.388 -27.068  1.00  0.00     0.037 C 
HETATM   16  C24 UNL     1      -2.102  49.971 -25.626  1.00  0.00     0.003 C 
HETATM   17  C25 UNL     1      -3.227  49.133 -25.023  1.00  0.00     0.010 C 
HETATM   18  C26 UNL     1      -2.795  48.532 -23.690  1.00  0.00     0.035 C 
ENDROOT
BRANCH   1  19
HETATM   19  C6  UNL     1      -1.093  49.877 -17.742  1.00  0.00    -0.013 C 
HETATM   20  C7  UNL     1      -1.860  51.208 -17.834  1.00  0.00     0.010 C 
BRANCH  19  21
HETATM   21  C5  UNL     1       0.320  50.139 -17.168  1.00  0.00     0.009 C 
BRANCH  21  22
HETATM   22  C4  UNL     1       0.416  51.199 -16.055  1.00  0.00     0.034 C 
BRANCH  22  23
HETATM   23  C3  UNL     1       1.777  51.321 -15.388  1.00  0.00    -0.081 C 
HETATM   24  C2  UNL     1       2.205  50.446 -14.455  1.00  0.00    -0.028 C 
HETATM   25  C1  UNL     1       1.442  49.282 -13.904  1.00  0.00     0.036 C 
BRANCH  23  26
HETATM   26  C27 UNL     1       2.665  52.446 -15.925  1.00  0.00     0.006 C 
HETATM   27  C28 UNL     1       4.164  52.128 -15.940  1.00  0.00     0.014 C 
HETATM   28  C29 UNL     1       2.206  52.870 -17.324  1.00  0.00     0.014 C 
ENDBRANCH  23  26
ENDBRANCH  22  23
ENDBRANCH  21  22
ENDBRANCH  19  21
ENDBRANCH   1  19
BRANCH   8  29
HETATM   29  O1  UNL     1       0.102  51.944 -20.028  1.00  0.00    -0.394 OA
HETATM   30  H22 UNL     1      -0.660  52.538 -19.932  1.00  0.00     0.210 HD
ENDBRANCH   8  29
BRANCH  11  31
HETATM   31  C19 UNL     1      -2.830  52.204 -24.478  1.00  0.00     0.178 C 
BRANCH  31  32
HETATM   32  O2  UNL     1      -3.307  52.786 -25.684  1.00  0.00    -0.400 OA
HETATM   33  H28 UNL     1      -4.059  53.356 -25.438  1.00  0.00     0.209 HD
ENDBRANCH  31  32
ENDBRANCH  11  31
BRANCH  14  34
HETATM   34  O3  UNL     1      -1.965  52.608 -27.936  1.00  0.00    -0.396 OA
HETATM   35  H34 UNL     1      -2.438  52.875 -27.117  1.00  0.00     0.210 HD
ENDBRANCH  14  34
TORSDOF 9
ENDMDL
MODEL 6
REMARK minimizedAffinity -9.26002598
REMARK  9 active torsions:
REMARK  status: ('A' for Active; 'I' for Inactive)
REMARK    1  A    between atoms: C3_3  and  C4_4 
REMARK    2  A    between atoms: C3_3  and  C27_30 
REMARK    3  A    between atoms: C4_4  and  C5_5 
REMARK    4  A    between atoms: C5_5  and  C6_6 
REMARK    5  A    between atoms: C6_6  and  C8_8 
REMARK    6  A    between atoms: C15_15  and  O1_16 
REMARK    7  A    between atoms: C18_19  and  C19_20 
REMARK    8  A    between atoms: C19_20  and  O2_21 
REMARK    9  A    between atoms: C22_24  and  O3_25 
ROOT
HETATM    1  C8  UNL     1      -1.150  49.179 -19.226  1.00  0.00     0.001 C 
HETATM    2  C9  UNL     1      -2.179  48.026 -19.356  1.00  0.00     0.006 C 
HETATM    3  C10 UNL     1      -2.635  48.009 -20.824  1.00  0.00     0.010 C 
HETATM    4  C11 UNL     1      -1.664  48.949 -21.537  1.00  0.00     0.026 C 
HETATM    5  C12 UNL     1      -1.966  49.484 -22.919  1.00  0.00    -0.072 C 
HETATM    6  C13 UNL     1      -1.369  50.626 -23.349  1.00  0.00    -0.064 C 
HETATM    7  C14 UNL     1      -0.459  51.438 -22.415  1.00  0.00     0.068 C 
HETATM    8  C15 UNL     1      -0.192  50.841 -21.010  1.00  0.00     0.131 C 
HETATM    9  C16 UNL     1      -1.415  50.063 -20.485  1.00  0.00    -0.006 C 
HETATM   10  C17 UNL     1      -2.632  51.000 -20.291  1.00  0.00     0.019 C 
HETATM   11  C18 UNL     1      -1.644  51.205 -24.771  1.00  0.00     0.009 C 
HETATM   12  C20 UNL     1      -0.372  51.835 -25.433  1.00  0.00     0.019 C 
HETATM   13  C21 UNL     1      -0.116  51.459 -26.902  1.00  0.00     0.033 C 
HETATM   14  C22 UNL     1      -1.371  51.373 -27.760  1.00  0.00     0.118 C 
HETATM   15  C23 UNL     1      -2.462  50.493 -27.142  1.00  0.00     0.037 C 
HETATM   16  C24 UNL     1      -2.134  50.051 -25.705  1.00  0.00     0.003 C 
HETATM   17  C25 UNL     1      -3.302  49.277 -25.095  1.00  0.00     0.010 C 
HETATM   18  C26 UNL     1      -2.893  48.647 -23.768  1.00  0.00     0.035 C 
ENDROOT
BRANCH   1  19
HETATM   19  C6  UNL     1      -1.066  49.867 -17.830  1.00  0.00    -0.013 C 
HETATM   20  C7  UNL     1      -2.023  51.072 -17.812  1.00  0.00     0.010 C 
BRANCH  19  21
HETATM   21  C5  UNL     1       0.349  50.331 -17.408  1.00  0.00     0.009 C 
BRANCH  21  22
HETATM   22  C4  UNL     1       0.411  51.441 -16.342  1.00  0.00     0.034 C 
BRANCH  22  23
HETATM   23  C3  UNL     1       1.464  51.247 -15.262  1.00  0.00    -0.081 C 
HETATM   24  C2  UNL     1       2.684  51.818 -15.332  1.00  0.00    -0.028 C 
HETATM   25  C1  UNL     1       3.210  52.667 -16.447  1.00  0.00     0.036 C 
BRANCH  23  26
HETATM   26  C27 UNL     1       1.005  50.442 -14.043  1.00  0.00     0.006 C 
HETATM   27  C28 UNL     1      -0.514  50.383 -13.849  1.00  0.00     0.014 C 
HETATM   28  C29 UNL     1       1.582  49.024 -14.089  1.00  0.00     0.014 C 
ENDBRANCH  23  26
ENDBRANCH  22  23
ENDBRANCH  21  22
ENDBRANCH  19  21
ENDBRANCH   1  19
BRANCH   8  29
HETATM   29  O1  UNL     1       0.227  51.871 -20.119  1.00  0.00    -0.394 OA
HETATM   30  H22 UNL     1      -0.499  52.508 -20.015  1.00  0.00     0.210 HD
ENDBRANCH   8  29
BRANCH  11  31
HETATM   31  C19 UNL     1      -2.723  52.318 -24.543  1.00  0.00     0.178 C 
BRANCH  31  32
HETATM   32  O2  UNL     1      -3.333  52.778 -25.742  1.00  0.00    -0.400 OA
HETATM   33  H28 UNL     1      -4.033  53.402 -25.473  1.00  0.00     0.209 HD
ENDBRANCH  31  32
ENDBRANCH  11  31
BRANCH  14  34
HETATM   34  O3  UNL     1      -1.866  52.685 -28.007  1.00  0.00    -0.396 OA
HETATM   35  H34 UNL     1      -2.315  52.976 -27.183  1.00  0.00     0.210 HD
ENDBRANCH  14  34
TORSDOF 9
ENDMDL
MODEL 7
REMARK minimizedAffinity -8.90435219
REMARK  9 active torsions:
REMARK  status: ('A' for Active; 'I' for Inactive)
REMARK    1  A    between atoms: C3_3  and  C4_4 
REMARK    2  A    between atoms: C3_3  and  C27_30 
REMARK    3  A    between atoms: C4_4  and  C5_5 
REMARK    4  A    between atoms: C5_5  and  C6_6 
REMARK    5  A    between atoms: C6_6  and  C8_8 
REMARK    6  A    between atoms: C15_15  and  O1_16 
REMARK    7  A    between atoms: C18_19  and  C19_20 
REMARK    8  A    between atoms: C19_20  and  O2_21 
REMARK    9  A    between atoms: C22_24  and  O3_25 
ROOT
HETATM    1  C8  UNL     1      -1.277  49.759 -22.249  1.00  0.00     0.001 C 
HETATM    2  C9  UNL     1      -1.316  48.983 -20.908  1.00  0.00     0.006 C 
HETATM    3  C10 UNL     1      -2.621  48.170 -20.909  1.00  0.00     0.010 C 
HETATM    4  C11 UNL     1      -3.140  48.284 -22.342  1.00  0.00     0.026 C 
HETATM    5  C12 UNL     1      -4.567  47.921 -22.688  1.00  0.00    -0.072 C 
HETATM    6  C13 UNL     1      -5.145  48.433 -23.805  1.00  0.00    -0.064 C 
HETATM    7  C14 UNL     1      -4.399  49.453 -24.679  1.00  0.00     0.068 C 
HETATM    8  C15 UNL     1      -2.943  49.788 -24.271  1.00  0.00     0.131 C 
HETATM    9  C16 UNL     1      -2.758  49.734 -22.741  1.00  0.00    -0.006 C 
HETATM   10  C17 UNL     1      -3.623  50.808 -22.036  1.00  0.00     0.019 C 
HETATM   11  C18 UNL     1      -6.610  48.075 -24.205  1.00  0.00     0.009 C 
HETATM   12  C20 UNL     1      -6.805  47.922 -25.751  1.00  0.00     0.019 C 
HETATM   13  C21 UNL     1      -7.607  46.696 -26.215  1.00  0.00     0.033 C 
HETATM   14  C22 UNL     1      -8.798  46.349 -25.331  1.00  0.00     0.118 C 
HETATM   15  C23 UNL     1      -8.435  46.247 -23.847  1.00  0.00     0.037 C 
HETATM   16  C24 UNL     1      -6.998  46.710 -23.547  1.00  0.00     0.003 C 
HETATM   17  C25 UNL     1      -6.726  46.700 -22.044  1.00  0.00     0.010 C 
HETATM   18  C26 UNL     1      -5.245  46.936 -21.765  1.00  0.00     0.035 C 
ENDROOT
BRANCH   1  19
HETATM   19  C6  UNL     1      -0.516  51.119 -22.232  1.00  0.00    -0.013 C 
HETATM   20  C7  UNL     1      -0.992  51.940 -21.021  1.00  0.00     0.010 C 
BRANCH  19  21
HETATM   21  C5  UNL     1      -0.658  51.971 -23.515  1.00  0.00     0.009 C 
BRANCH  21  22
HETATM   22  C4  UNL     1       0.654  52.463 -24.154  1.00  0.00     0.034 C 
BRANCH  22  23
HETATM   23  C3  UNL     1       0.594  52.713 -25.653  1.00  0.00    -0.081 C 
HETATM   24  C2  UNL     1       0.338  53.933 -26.172  1.00  0.00    -0.028 C 
HETATM   25  C1  UNL     1       0.040  55.184 -25.408  1.00  0.00     0.036 C 
BRANCH  23  26
HETATM   26  C27 UNL     1       0.946  51.508 -26.527  1.00  0.00     0.006 C 
HETATM   27  C28 UNL     1       0.501  51.624 -27.989  1.00  0.00     0.014 C 
HETATM   28  C29 UNL     1       2.449  51.217 -26.460  1.00  0.00     0.014 C 
ENDBRANCH  23  26
ENDBRANCH  22  23
ENDBRANCH  21  22
ENDBRANCH  19  21
ENDBRANCH   1  19
BRANCH   8  29
HETATM   29  O1  UNL     1      -2.562  51.044 -24.826  1.00  0.00    -0.394 OA
HETATM   30  H22 UNL     1      -3.123  51.738 -24.441  1.00  0.00     0.210 HD
ENDBRANCH   8  29
BRANCH  11  31
HETATM   31  C19 UNL     1      -7.466  49.279 -23.684  1.00  0.00     0.178 C 
BRANCH  31  32
HETATM   32  O2  UNL     1      -8.370  49.799 -24.650  1.00  0.00    -0.400 OA
HETATM   33  H28 UNL     1      -8.898  50.482 -24.196  1.00  0.00     0.209 HD
ENDBRANCH  31  32
ENDBRANCH  11  31
BRANCH  14  34
HETATM   34  O3  UNL     1      -9.831  47.310 -25.529  1.00  0.00    -0.396 OA
HETATM   35  H34 UNL     1      -9.560  48.117 -25.039  1.00  0.00     0.210 HD
ENDBRANCH  14  34
TORSDOF 9
ENDMDL
MODEL 8
REMARK minimizedAffinity -8.89118767
REMARK  9 active torsions:
REMARK  status: ('A' for Active; 'I' for Inactive)
REMARK    1  A    between atoms: C3_3  and  C4_4 
REMARK    2  A    between atoms: C3_3  and  C27_30 
REMARK    3  A    between atoms: C4_4  and  C5_5 
REMARK    4  A    between atoms: C5_5  and  C6_6 
REMARK    5  A    between atoms: C6_6  and  C8_8 
REMARK    6  A    between atoms: C15_15  and  O1_16 
REMARK    7  A    between atoms: C18_19  and  C19_20 
REMARK    8  A    between atoms: C19_20  and  O2_21 
REMARK    9  A    between atoms: C22_24  and  O3_25 
ROOT
HETATM    1  C8  UNL     1      -0.290  52.003 -21.237  1.00  0.00     0.001 C 
HETATM    2  C9  UNL     1       0.265  53.414 -20.912  1.00  0.00     0.006 C 
HETATM    3  C10 UNL     1       0.685  53.390 -19.434  1.00  0.00     0.010 C 
HETATM    4  C11 UNL     1       0.623  51.914 -19.042  1.00  0.00     0.026 C 
HETATM    5  C12 UNL     1       0.626  51.489 -17.590  1.00  0.00    -0.072 C 
HETATM    6  C13 UNL     1       0.125  50.277 -17.238  1.00  0.00    -0.064 C 
HETATM    7  C14 UNL     1      -0.530  49.363 -18.284  1.00  0.00     0.068 C 
HETATM    8  C15 UNL     1      -0.507  49.854 -19.753  1.00  0.00     0.131 C 
HETATM    9  C16 UNL     1      -0.604  51.391 -19.836  1.00  0.00    -0.006 C 
HETATM   10  C17 UNL     1      -1.955  51.896 -19.271  1.00  0.00     0.019 C 
HETATM   11  C18 UNL     1       0.120  49.795 -15.755  1.00  0.00     0.009 C 
HETATM   12  C20 UNL     1       0.415  48.264 -15.605  1.00  0.00     0.019 C 
HETATM   13  C21 UNL     1       1.426  47.872 -14.516  1.00  0.00     0.033 C 
HETATM   14  C22 UNL     1       1.318  48.683 -13.232  1.00  0.00     0.118 C 
HETATM   15  C23 UNL     1       1.321  50.196 -13.475  1.00  0.00     0.037 C 
HETATM   16  C24 UNL     1       1.231  50.564 -14.966  1.00  0.00     0.003 C 
HETATM   17  C25 UNL     1       1.119  52.077 -15.146  1.00  0.00     0.010 C 
HETATM   18  C26 UNL     1       1.260  52.454 -16.617  1.00  0.00     0.035 C 
ENDROOT
BRANCH   1  19
HETATM   19  C6  UNL     1      -1.382  51.935 -22.347  1.00  0.00    -0.013 C 
HETATM   20  C7  UNL     1      -2.701  51.455 -21.718  1.00  0.00     0.010 C 
BRANCH  19  21
HETATM   21  C5  UNL     1      -1.036  51.037 -23.558  1.00  0.00     0.009 C 
BRANCH  21  22
HETATM   22  C4  UNL     1      -0.563  51.764 -24.831  1.00  0.00     0.034 C 
BRANCH  22  23
HETATM   23  C3  UNL     1      -0.655  50.954 -26.115  1.00  0.00    -0.081 C 
HETATM   24  C2  UNL     1      -1.778  50.296 -26.475  1.00  0.00    -0.028 C 
HETATM   25  C1  UNL     1      -3.053  50.214 -25.697  1.00  0.00     0.036 C 
BRANCH  23  26
HETATM   26  C27 UNL     1       0.579  51.022 -27.017  1.00  0.00     0.006 C 
HETATM   27  C28 UNL     1       0.416  51.901 -28.262  1.00  0.00     0.014 C 
HETATM   28  C29 UNL     1       1.804  51.473 -26.215  1.00  0.00     0.014 C 
ENDBRANCH  23  26
ENDBRANCH  22  23
ENDBRANCH  21  22
ENDBRANCH  19  21
ENDBRANCH   1  19
BRANCH   8  29
HETATM   29  O1  UNL     1      -1.529  49.199 -20.498  1.00  0.00    -0.394 OA
HETATM   30  H22 UNL     1      -2.393  49.455 -20.136  1.00  0.00     0.210 HD
ENDBRANCH   8  29
BRANCH  11  31
HETATM   31  C19 UNL     1      -1.328  50.104 -15.244  1.00  0.00     0.178 C 
BRANCH  31  32
HETATM   32  O2  UNL     1      -1.946  49.010 -14.579  1.00  0.00    -0.400 OA
HETATM   33  H28 UNL     1      -2.800  49.339 -14.241  1.00  0.00     0.209 HD
ENDBRANCH  31  32
ENDBRANCH  11  31
BRANCH  14  34
HETATM   34  O3  UNL     1       0.147  48.293 -12.521  1.00  0.00    -0.396 OA
HETATM   35  H34 UNL     1      -0.613  48.711 -12.982  1.00  0.00     0.210 HD
ENDBRANCH  14  34
TORSDOF 9
ENDMDL
MODEL 9
REMARK minimizedAffinity -8.75956917
REMARK  9 active torsions:
REMARK  status: ('A' for Active; 'I' for Inactive)
REMARK    1  A    between atoms: C3_3  and  C4_4 
REMARK    2  A    between atoms: C3_3  and  C27_30 
REMARK    3  A    between atoms: C4_4  and  C5_5 
REMARK    4  A    between atoms: C5_5  and  C6_6 
REMARK    5  A    between atoms: C6_6  and  C8_8 
REMARK    6  A    between atoms: C15_15  and  O1_16 
REMARK    7  A    between atoms: C18_19  and  C19_20 
REMARK    8  A    between atoms: C19_20  and  O2_21 
REMARK    9  A    between atoms: C22_24  and  O3_25 
ROOT
HETATM    1  C8  UNL     1      -0.937  50.939 -21.742  1.00  0.00     0.001 C 
HETATM    2  C9  UNL     1      -0.302  52.350 -21.832  1.00  0.00     0.006 C 
HETATM    3  C10 UNL     1       0.284  52.656 -20.444  1.00  0.00     0.010 C 
HETATM    4  C11 UNL     1       0.216  51.324 -19.698  1.00  0.00     0.026 C 
HETATM    5  C12 UNL     1       0.370  51.261 -18.194  1.00  0.00    -0.072 C 
HETATM    6  C13 UNL     1      -0.127  50.201 -17.506  1.00  0.00    -0.064 C 
HETATM    7  C14 UNL     1      -0.929  49.104 -18.223  1.00  0.00     0.068 C 
HETATM    8  C15 UNL     1      -1.056  49.226 -19.762  1.00  0.00     0.131 C 
HETATM    9  C16 UNL     1      -1.110  50.701 -20.209  1.00  0.00    -0.006 C 
HETATM   10  C17 UNL     1      -2.370  51.409 -19.650  1.00  0.00     0.019 C 
HETATM   11  C18 UNL     1       0.021  50.091 -15.958  1.00  0.00     0.009 C 
HETATM   12  C20 UNL     1       0.278  48.625 -15.468  1.00  0.00     0.019 C 
HETATM   13  C21 UNL     1       1.393  48.445 -14.425  1.00  0.00     0.033 C 
HETATM   14  C22 UNL     1       1.460  49.546 -13.375  1.00  0.00     0.118 C 
HETATM   15  C23 UNL     1       1.486  50.953 -13.980  1.00  0.00     0.037 C 
HETATM   16  C24 UNL     1       1.239  50.957 -15.499  1.00  0.00     0.003 C 
HETATM   17  C25 UNL     1       1.159  52.386 -16.032  1.00  0.00     0.010 C 
HETATM   18  C26 UNL     1       1.144  52.391 -17.558  1.00  0.00     0.035 C 
ENDROOT
BRANCH   1  19
HETATM   19  C6  UNL     1      -2.150  50.673 -22.684  1.00  0.00    -0.013 C 
HETATM   20  C7  UNL     1      -2.409  49.158 -22.746  1.00  0.00     0.010 C 
BRANCH  19  21
HETATM   21  C5  UNL     1      -2.003  51.226 -24.121  1.00  0.00     0.009 C 
BRANCH  21  22
HETATM   22  C4  UNL     1      -0.728  50.814 -24.881  1.00  0.00     0.034 C 
BRANCH  22  23
HETATM   23  C3  UNL     1      -0.846  50.814 -26.398  1.00  0.00    -0.081 C 
HETATM   24  C2  UNL     1       0.167  51.201 -27.201  1.00  0.00    -0.028 C 
HETATM   25  C1  UNL     1       1.505  51.713 -26.768  1.00  0.00     0.036 C 
BRANCH  23  26
HETATM   26  C27 UNL     1      -2.158  50.248 -26.948  1.00  0.00     0.006 C 
HETATM   27  C28 UNL     1      -2.594  48.919 -26.324  1.00  0.00     0.014 C 
HETATM   28  C29 UNL     1      -3.282  51.281 -26.818  1.00  0.00     0.014 C 
ENDBRANCH  23  26
ENDBRANCH  22  23
ENDBRANCH  21  22
ENDBRANCH  19  21
ENDBRANCH   1  19
BRANCH   8  29
HETATM   29  O1  UNL     1      -2.178  48.474 -20.216  1.00  0.00    -0.394 OA
HETATM   30  H22 UNL     1      -2.986  48.862 -19.840  1.00  0.00     0.210 HD
ENDBRANCH   8  29
BRANCH  11  31
HETATM   31  C19 UNL     1      -1.349  50.601 -15.393  1.00  0.00     0.178 C 
BRANCH  31  32
HETATM   32  O2  UNL     1      -1.328  50.866 -13.996  1.00  0.00    -0.400 OA
HETATM   33  H28 UNL     1      -2.199  51.247 -13.775  1.00  0.00     0.209 HD
ENDBRANCH  31  32
ENDBRANCH  11  31
BRANCH  14  34
HETATM   34  O3  UNL     1       0.365  49.409 -12.475  1.00  0.00    -0.396 OA
HETATM   35  H34 UNL     1      -0.428  49.750 -12.943  1.00  0.00     0.210 HD
ENDBRANCH  14  34
TORSDOF 9
ENDMDL
