MODEL 1
REMARK minimizedAffinity -8.30063534
REMARK CNNscore 0.551171362
REMARK CNNaffinity 7.30237198
REMARK  7 active torsions:
REMARK  status: ('A' for Active; 'I' for Inactive)
REMARK    1  A    between atoms: C3_3  and  C5_5 
REMARK    2  A    between atoms: C24_26  and  O3_27 
REMARK    3  A    between atoms: C30_35  and  O6_36 
REMARK    4  A    between atoms: C31_38  and  O8_39 
REMARK    5  A    between atoms: C32_40  and  O9_41 
REMARK    6  A    between atoms: O9_41  and  C33_42 
REMARK    7  A    between atoms: C33_42  and  C34_44 
ROOT
HETATM    1  C5  UNL     1      13.908  -7.737   4.784  1.00  0.00     0.160 C 
HETATM    2  O1  UNL     1      13.221  -6.530   4.441  1.00  0.00    -0.342 OA
HETATM    3  C6  UNL     1      14.109  -5.478   4.021  1.00  0.00     0.196 C 
HETATM    4  C7  UNL     1      13.270  -4.177   4.145  1.00  0.00     0.104 C 
HETATM    5  C8  UNL     1      13.608  -3.147   3.070  1.00  0.00     0.139 C 
HETATM    6  C9  UNL     1      13.562  -3.749   1.659  1.00  0.00     0.065 C 
HETATM    7  C10 UNL     1      13.531  -5.281   1.710  1.00  0.00     0.131 C 
HETATM    8  C11 UNL     1      13.761  -5.981   0.358  1.00  0.00     0.059 C 
HETATM    9  C12 UNL     1      14.979  -5.553  -0.423  1.00  0.00    -0.022 C 
HETATM   10  C13 UNL     1      16.150  -6.208  -0.570  1.00  0.00    -0.087 C 
HETATM   11  C14 UNL     1      16.447  -7.505   0.147  1.00  0.00     0.043 C 
HETATM   12  C15 UNL     1      17.327  -5.731  -1.423  1.00  0.00     0.041 C 
HETATM   13  C16 UNL     1      17.281  -4.397  -2.222  1.00  0.00     0.008 C 
HETATM   14  C17 UNL     1      16.358  -4.500  -3.444  1.00  0.00     0.014 C 
HETATM   15  C18 UNL     1      16.963  -3.173  -1.385  1.00  0.00    -0.022 C 
HETATM   16  C19 UNL     1      17.591  -2.863  -0.239  1.00  0.00    -0.003 C 
HETATM   17  C20 UNL     1      17.162  -1.780   0.611  1.00  0.00     0.008 C 
HETATM   18  C21 UNL     1      17.768  -1.422   1.754  1.00  0.00    -0.019 C 
HETATM   19  C22 UNL     1      19.078  -1.928   2.291  1.00  0.00     0.206 C 
HETATM   20  O2  UNL     1      19.436  -1.032   3.375  1.00  0.00    -0.375 OA
HETATM   21  C23 UNL     1      18.657   0.169   3.138  1.00  0.00     0.194 C 
HETATM   22  C24 UNL     1      18.608   1.083   4.376  1.00  0.00     0.179 C 
HETATM   23  C25 UNL     1      17.506   0.785   5.370  1.00  0.00    -0.056 C 
HETATM   24  C26 UNL     1      17.494   1.630   6.615  1.00  0.00     0.046 C 
HETATM   25  C27 UNL     1      16.567  -0.152   5.143  1.00  0.00    -0.004 C 
HETATM   26  C28 UNL     1      16.539  -1.001   3.892  1.00  0.00     0.150 C 
HETATM   27  C29 UNL     1      15.103  -1.310   3.495  1.00  0.00     0.270 C 
HETATM   28  O4  UNL     1      14.232  -0.461   3.363  1.00  0.00    -0.264 OA
HETATM   29  O5  UNL     1      14.939  -2.653   3.342  1.00  0.00    -0.315 OA
HETATM   30  C30 UNL     1      17.290  -0.353   2.701  1.00  0.00     0.128 C 
HETATM   31  O7  UNL     1      14.501  -5.713   2.659  1.00  0.00    -0.347 OA
HETATM   32  C31 UNL     1      15.392  -5.428   4.932  1.00  0.00     0.210 C 
HETATM   33  C32 UNL     1      15.110  -6.068   6.305  1.00  0.00     0.172 C 
HETATM   34  C37 UNL     1      14.598  -7.527   6.155  1.00  0.00     0.047 C 
HETATM   35  C38 UNL     1      15.739  -8.525   6.378  1.00  0.00     0.015 C 
ENDROOT
BRANCH  32  36
HETATM   36  O8  UNL     1      16.507  -6.132   4.345  1.00  0.00    -0.387 OA
HETATM   37  H42 UNL     1      17.305  -5.881   4.840  1.00  0.00     0.210 HD
ENDBRANCH  32  36
BRANCH   1  38
HETATM   38  C3  UNL     1      12.890  -8.883   4.800  1.00  0.00    -0.059 C 
HETATM   39  C2  UNL     1      11.826  -8.916   3.966  1.00  0.00    -0.026 C 
HETATM   40  C1  UNL     1      10.765  -9.967   3.888  1.00  0.00     0.036 C 
HETATM   41  C4  UNL     1      13.190 -10.001   5.764  1.00  0.00     0.046 C 
ENDBRANCH   1  38
BRANCH  33  42
HETATM   42  O9  UNL     1      14.126  -5.270   7.001  1.00  0.00    -0.312 OA
BRANCH  42  43
HETATM   43  C33 UNL     1      13.748  -5.726   8.228  1.00  0.00     0.262 C 
HETATM   44  O10 UNL     1      14.480  -5.787   9.208  1.00  0.00    -0.265 OA
BRANCH  43  45
HETATM   45  C34 UNL     1      12.312  -6.210   8.224  1.00  0.00     0.077 C 
HETATM   46  C35 UNL     1      11.690  -6.148   9.616  1.00  0.00     0.020 C 
HETATM   47  C36 UNL     1      11.502  -5.413   7.209  1.00  0.00     0.020 C 
ENDBRANCH  43  45
ENDBRANCH  42  43
ENDBRANCH  33  42
BRANCH  30  48
HETATM   48  O6  UNL     1      16.574   0.673   2.021  1.00  0.00    -0.381 OA
HETATM   49  H40 UNL     1      15.747   0.867   2.503  1.00  0.00     0.211 HD
ENDBRANCH  30  48
BRANCH  22  50
HETATM   50  O3  UNL     1      19.864   1.026   5.056  1.00  0.00    -0.389 OA
HETATM   51  H34 UNL     1      20.201   0.123   4.893  1.00  0.00     0.210 HD
ENDBRANCH  22  50
TORSDOF 7
ENDMDL
MODEL 2
REMARK minimizedAffinity -7.49998713
REMARK CNNscore 0.488585055
REMARK CNNaffinity 7.10699463
REMARK  7 active torsions:
REMARK  status: ('A' for Active; 'I' for Inactive)
REMARK    1  A    between atoms: C3_3  and  C5_5 
REMARK    2  A    between atoms: C24_26  and  O3_27 
REMARK    3  A    between atoms: C30_35  and  O6_36 
REMARK    4  A    between atoms: C31_38  and  O8_39 
REMARK    5  A    between atoms: C32_40  and  O9_41 
REMARK    6  A    between atoms: O9_41  and  C33_42 
REMARK    7  A    between atoms: C33_42  and  C34_44 
ROOT
HETATM    1  C5  UNL     1      -5.003 -11.418   2.783  1.00  0.00     0.160 C 
HETATM    2  O1  UNL     1      -6.341 -11.907   2.906  1.00  0.00    -0.342 OA
HETATM    3  C6  UNL     1      -7.333 -10.917   2.580  1.00  0.00     0.196 C 
HETATM    4  C7  UNL     1      -8.651 -11.455   3.201  1.00  0.00     0.104 C 
HETATM    5  C8  UNL     1      -9.884 -11.112   2.368  1.00  0.00     0.139 C 
HETATM    6  C9  UNL     1      -9.716 -11.513   0.896  1.00  0.00     0.065 C 
HETATM    7  C10 UNL     1      -8.252 -11.831   0.570  1.00  0.00     0.131 C 
HETATM    8  C11 UNL     1      -7.935 -11.972  -0.930  1.00  0.00     0.059 C 
HETATM    9  C12 UNL     1      -8.391 -10.845  -1.824  1.00  0.00    -0.022 C 
HETATM   10  C13 UNL     1      -7.647  -9.866  -2.377  1.00  0.00    -0.087 C 
HETATM   11  C14 UNL     1      -6.172  -9.707  -2.086  1.00  0.00     0.043 C 
HETATM   12  C15 UNL     1      -8.175  -8.781  -3.319  1.00  0.00     0.041 C 
HETATM   13  C16 UNL     1      -9.673  -8.704  -3.731  1.00  0.00     0.008 C 
HETATM   14  C17 UNL     1     -10.048  -9.823  -4.713  1.00  0.00     0.014 C 
HETATM   15  C18 UNL     1     -10.643  -8.632  -2.569  1.00  0.00    -0.022 C 
HETATM   16  C19 UNL     1     -10.528  -7.771  -1.545  1.00  0.00    -0.003 C 
HETATM   17  C20 UNL     1     -11.376  -7.832  -0.381  1.00  0.00     0.008 C 
HETATM   18  C21 UNL     1     -11.309  -6.984   0.657  1.00  0.00    -0.019 C 
HETATM   19  C22 UNL     1     -10.494  -5.724   0.756  1.00  0.00     0.206 C 
HETATM   20  O2  UNL     1     -10.989  -5.021   1.925  1.00  0.00    -0.375 OA
HETATM   21  C23 UNL     1     -12.305  -5.582   2.168  1.00  0.00     0.194 C 
HETATM   22  C24 UNL     1     -12.831  -5.243   3.574  1.00  0.00     0.179 C 
HETATM   23  C25 UNL     1     -12.423  -6.196   4.676  1.00  0.00    -0.056 C 
HETATM   24  C26 UNL     1     -12.876  -5.834   6.065  1.00  0.00     0.046 C 
HETATM   25  C27 UNL     1     -11.729  -7.324   4.432  1.00  0.00    -0.004 C 
HETATM   26  C28 UNL     1     -11.279  -7.726   3.046  1.00  0.00     0.150 C 
HETATM   27  C29 UNL     1     -11.298  -9.241   2.904  1.00  0.00     0.270 C 
HETATM   28  O4  UNL     1     -12.264  -9.941   3.177  1.00  0.00    -0.264 OA
HETATM   29  O5  UNL     1     -10.090  -9.685   2.461  1.00  0.00    -0.315 OA
HETATM   30  C30 UNL     1     -12.124  -7.078   1.919  1.00  0.00     0.128 C 
HETATM   31  O7  UNL     1      -7.439 -10.815   1.150  1.00  0.00    -0.347 OA
HETATM   32  C31 UNL     1      -6.944  -9.513   3.176  1.00  0.00     0.210 C 
HETATM   33  C32 UNL     1      -5.990  -9.676   4.375  1.00  0.00     0.172 C 
HETATM   34  C37 UNL     1      -4.719 -10.477   3.981  1.00  0.00     0.047 C 
HETATM   35  C38 UNL     1      -3.549  -9.530   3.698  1.00  0.00     0.015 C 
ENDROOT
BRANCH  32  36
HETATM   36  O8  UNL     1      -6.285  -8.671   2.206  1.00  0.00    -0.387 OA
HETATM   37  H42 UNL     1      -6.272  -7.767   2.564  1.00  0.00     0.210 HD
ENDBRANCH  32  36
BRANCH   1  38
HETATM   38  C3  UNL     1      -4.053 -12.621   2.732  1.00  0.00    -0.059 C 
HETATM   39  C2  UNL     1      -2.747 -12.524   3.067  1.00  0.00    -0.026 C 
HETATM   40  C1  UNL     1      -1.722 -13.614   3.053  1.00  0.00     0.036 C 
HETATM   41  C4  UNL     1      -4.688 -13.931   2.345  1.00  0.00     0.046 C 
ENDBRANCH   1  38
BRANCH  33  42
HETATM   42  O9  UNL     1      -6.689 -10.354   5.442  1.00  0.00    -0.312 OA
BRANCH  42  43
HETATM   43  C33 UNL     1      -5.910 -11.040   6.324  1.00  0.00     0.262 C 
HETATM   44  O10 UNL     1      -5.549 -12.202   6.182  1.00  0.00    -0.265 OA
BRANCH  43  45
HETATM   45  C34 UNL     1      -5.584 -10.206   7.546  1.00  0.00     0.077 C 
HETATM   46  C35 UNL     1      -4.116 -10.332   7.943  1.00  0.00     0.020 C 
HETATM   47  C36 UNL     1      -5.978  -8.755   7.300  1.00  0.00     0.020 C 
ENDBRANCH  43  45
ENDBRANCH  42  43
ENDBRANCH  33  42
BRANCH  30  48
HETATM   48  O6  UNL     1     -13.390  -7.687   1.686  1.00  0.00    -0.381 OA
HETATM   49  H40 UNL     1     -13.554  -8.367   2.368  1.00  0.00     0.211 HD
ENDBRANCH  30  48
BRANCH  22  50
HETATM   50  O3  UNL     1     -12.410  -3.925   3.931  1.00  0.00    -0.389 OA
HETATM   51  H34 UNL     1     -11.551  -3.801   3.481  1.00  0.00     0.210 HD
ENDBRANCH  22  50
TORSDOF 7
ENDMDL
MODEL 3
REMARK minimizedAffinity -6.50527573
REMARK CNNscore 0.421988428
REMARK CNNaffinity 6.77406073
REMARK  7 active torsions:
REMARK  status: ('A' for Active; 'I' for Inactive)
REMARK    1  A    between atoms: C3_3  and  C5_5 
REMARK    2  A    between atoms: C24_26  and  O3_27 
REMARK    3  A    between atoms: C30_35  and  O6_36 
REMARK    4  A    between atoms: C31_38  and  O8_39 
REMARK    5  A    between atoms: C32_40  and  O9_41 
REMARK    6  A    between atoms: O9_41  and  C33_42 
REMARK    7  A    between atoms: C33_42  and  C34_44 
ROOT
HETATM    1  C5  UNL     1       2.185  16.693   3.703  1.00  0.00     0.160 C 
HETATM    2  O1  UNL     1       2.768  15.515   3.139  1.00  0.00    -0.342 OA
HETATM    3  C6  UNL     1       3.060  15.648   1.736  1.00  0.00     0.196 C 
HETATM    4  C7  UNL     1       3.229  14.191   1.225  1.00  0.00     0.104 C 
HETATM    5  C8  UNL     1       4.279  14.066   0.125  1.00  0.00     0.139 C 
HETATM    6  C9  UNL     1       5.613  14.713   0.523  1.00  0.00     0.065 C 
HETATM    7  C10 UNL     1       5.450  15.607   1.757  1.00  0.00     0.131 C 
HETATM    8  C11 UNL     1       6.657  16.511   2.070  1.00  0.00     0.059 C 
HETATM    9  C12 UNL     1       7.177  17.356   0.933  1.00  0.00    -0.022 C 
HETATM   10  C13 UNL     1       7.007  18.678   0.729  1.00  0.00    -0.087 C 
HETATM   11  C14 UNL     1       6.141  19.531   1.630  1.00  0.00     0.043 C 
HETATM   12  C15 UNL     1       7.610  19.479  -0.427  1.00  0.00     0.041 C 
HETATM   13  C16 UNL     1       8.502  18.814  -1.514  1.00  0.00     0.008 C 
HETATM   14  C17 UNL     1       9.887  18.447  -0.965  1.00  0.00     0.014 C 
HETATM   15  C18 UNL     1       7.857  17.641  -2.227  1.00  0.00    -0.022 C 
HETATM   16  C19 UNL     1       6.628  17.674  -2.767  1.00  0.00    -0.003 C 
HETATM   17  C20 UNL     1       5.983  16.500  -3.299  1.00  0.00     0.008 C 
HETATM   18  C21 UNL     1       4.766  16.488  -3.864  1.00  0.00    -0.019 C 
HETATM   19  C22 UNL     1       3.911  17.673  -4.218  1.00  0.00     0.206 C 
HETATM   20  O2  UNL     1       2.849  17.159  -5.063  1.00  0.00    -0.375 OA
HETATM   21  C23 UNL     1       3.348  15.890  -5.558  1.00  0.00     0.194 C 
HETATM   22  C24 UNL     1       2.228  15.020  -6.158  1.00  0.00     0.179 C 
HETATM   23  C25 UNL     1       1.485  14.137  -5.179  1.00  0.00    -0.056 C 
HETATM   24  C26 UNL     1       0.345  13.335  -5.746  1.00  0.00     0.046 C 
HETATM   25  C27 UNL     1       1.841  14.040  -3.884  1.00  0.00    -0.004 C 
HETATM   26  C28 UNL     1       2.996  14.815  -3.291  1.00  0.00     0.150 C 
HETATM   27  C29 UNL     1       3.678  13.996  -2.204  1.00  0.00     0.270 C 
HETATM   28  O4  UNL     1       4.068  12.847  -2.357  1.00  0.00    -0.264 OA
HETATM   29  O5  UNL     1       3.758  14.720  -1.053  1.00  0.00    -0.315 OA
HETATM   30  C30 UNL     1       4.037  15.262  -4.348  1.00  0.00     0.128 C 
HETATM   31  O7  UNL     1       4.277  16.396   1.581  1.00  0.00    -0.347 OA
HETATM   32  C31 UNL     1       1.893  16.392   0.987  1.00  0.00     0.210 C 
HETATM   33  C32 UNL     1       0.571  16.256   1.768  1.00  0.00     0.172 C 
HETATM   34  C37 UNL     1       0.716  16.784   3.221  1.00  0.00     0.047 C 
HETATM   35  C38 UNL     1       0.165  18.210   3.335  1.00  0.00     0.015 C 
ENDROOT
BRANCH  32  36
HETATM   36  O8  UNL     1       2.158  17.801   0.823  1.00  0.00    -0.387 OA
HETATM   37  H42 UNL     1       1.519  18.146   0.177  1.00  0.00     0.210 HD
ENDBRANCH  32  36
BRANCH   1  38
HETATM   38  C3  UNL     1       2.307  16.608   5.229  1.00  0.00    -0.059 C 
HETATM   39  C2  UNL     1       1.234  16.423   6.030  1.00  0.00    -0.026 C 
HETATM   40  C1  UNL     1       1.220  16.331   7.523  1.00  0.00     0.036 C 
HETATM   41  C4  UNL     1       3.711  16.683   5.771  1.00  0.00     0.046 C 
ENDBRANCH   1  38
BRANCH  33  42
HETATM   42  O9  UNL     1       0.177  14.866   1.786  1.00  0.00    -0.312 OA
BRANCH  42  43
HETATM   43  C33 UNL     1      -1.026  14.579   1.216  1.00  0.00     0.262 C 
HETATM   44  O10 UNL     1      -1.396  14.984   0.121  1.00  0.00    -0.265 OA
BRANCH  43  45
HETATM   45  C34 UNL     1      -1.889  13.734   2.131  1.00  0.00     0.077 C 
HETATM   46  C35 UNL     1      -1.098  12.592   2.761  1.00  0.00     0.020 C 
HETATM   47  C36 UNL     1      -2.541  14.618   3.187  1.00  0.00     0.020 C 
ENDBRANCH  43  45
ENDBRANCH  42  43
ENDBRANCH  33  42
BRANCH  30  48
HETATM   48  O6  UNL     1       4.938  14.247  -4.777  1.00  0.00    -0.381 OA
HETATM   49  H40 UNL     1       4.669  13.390  -4.392  1.00  0.00     0.211 HD
ENDBRANCH  30  48
BRANCH  22  50
HETATM   50  O3  UNL     1       1.283  15.860  -6.825  1.00  0.00    -0.389 OA
HETATM   51  H34 UNL     1       1.294  16.701  -6.327  1.00  0.00     0.210 HD
ENDBRANCH  22  50
TORSDOF 7
ENDMDL
MODEL 4
REMARK minimizedAffinity -7.08326578
REMARK CNNscore 0.358179092
REMARK CNNaffinity 6.70770979
REMARK  7 active torsions:
REMARK  status: ('A' for Active; 'I' for Inactive)
REMARK    1  A    between atoms: C3_3  and  C5_5 
REMARK    2  A    between atoms: C24_26  and  O3_27 
REMARK    3  A    between atoms: C30_35  and  O6_36 
REMARK    4  A    between atoms: C31_38  and  O8_39 
REMARK    5  A    between atoms: C32_40  and  O9_41 
REMARK    6  A    between atoms: O9_41  and  C33_42 
REMARK    7  A    between atoms: C33_42  and  C34_44 
ROOT
HETATM    1  C5  UNL     1       3.203  14.621  22.784  1.00  0.00     0.160 C 
HETATM    2  O1  UNL     1       4.375  13.943  23.245  1.00  0.00    -0.342 OA
HETATM    3  C6  UNL     1       5.428  13.911  22.264  1.00  0.00     0.196 C 
HETATM    4  C7  UNL     1       6.382  12.782  22.742  1.00  0.00     0.104 C 
HETATM    5  C8  UNL     1       7.848  13.075  22.436  1.00  0.00     0.139 C 
HETATM    6  C9  UNL     1       8.276  14.462  22.935  1.00  0.00     0.065 C 
HETATM    7  C10 UNL     1       7.060  15.323  23.294  1.00  0.00     0.131 C 
HETATM    8  C11 UNL     1       7.365  16.812  23.539  1.00  0.00     0.059 C 
HETATM    9  C12 UNL     1       8.154  17.522  22.466  1.00  0.00    -0.022 C 
HETATM   10  C13 UNL     1       7.705  18.390  21.536  1.00  0.00    -0.087 C 
HETATM   11  C14 UNL     1       6.238  18.722  21.380  1.00  0.00     0.043 C 
HETATM   12  C15 UNL     1       8.578  19.112  20.507  1.00  0.00     0.041 C 
HETATM   13  C16 UNL     1      10.118  18.898  20.436  1.00  0.00     0.008 C 
HETATM   14  C17 UNL     1      10.838  19.572  21.611  1.00  0.00     0.014 C 
HETATM   15  C18 UNL     1      10.545  17.452  20.275  1.00  0.00    -0.022 C 
HETATM   16  C19 UNL     1      10.042  16.619  19.350  1.00  0.00    -0.003 C 
HETATM   17  C20 UNL     1      10.355  15.212  19.322  1.00  0.00     0.008 C 
HETATM   18  C21 UNL     1       9.892  14.345  18.409  1.00  0.00    -0.019 C 
HETATM   19  C22 UNL     1       9.121  14.661  17.157  1.00  0.00     0.206 C 
HETATM   20  O2  UNL     1       9.118  13.441  16.372  1.00  0.00    -0.375 OA
HETATM   21  C23 UNL     1      10.221  12.658  16.897  1.00  0.00     0.194 C 
HETATM   22  C24 UNL     1      10.148  11.184  16.459  1.00  0.00     0.179 C 
HETATM   23  C25 UNL     1       9.321  10.276  17.343  1.00  0.00    -0.056 C 
HETATM   24  C26 UNL     1       9.188   8.849  16.884  1.00  0.00     0.046 C 
HETATM   25  C27 UNL     1       8.767  10.702  18.494  1.00  0.00    -0.004 C 
HETATM   26  C28 UNL     1       8.902  12.122  18.993  1.00  0.00     0.150 C 
HETATM   27  C29 UNL     1       8.957  12.145  20.514  1.00  0.00     0.270 C 
HETATM   28  O4  UNL     1       9.724  11.464  21.181  1.00  0.00    -0.264 OA
HETATM   29  O5  UNL     1       8.020  13.002  21.004  1.00  0.00    -0.315 OA
HETATM   30  C30 UNL     1      10.135  12.858  18.409  1.00  0.00     0.128 C 
HETATM   31  O7  UNL     1       6.096  15.183  22.254  1.00  0.00    -0.347 OA
HETATM   32  C31 UNL     1       4.852  13.613  20.830  1.00  0.00     0.210 C 
HETATM   33  C32 UNL     1       3.497  12.886  20.928  1.00  0.00     0.172 C 
HETATM   34  C37 UNL     1       2.478  13.700  21.771  1.00  0.00     0.047 C 
HETATM   35  C38 UNL     1       1.530  14.488  20.861  1.00  0.00     0.015 C 
ENDROOT
BRANCH  32  36
HETATM   36  O8  UNL     1       4.645  14.818  20.062  1.00  0.00    -0.387 OA
HETATM   37  H42 UNL     1       4.502  14.556  19.137  1.00  0.00     0.210 HD
ENDBRANCH  32  36
BRANCH   1  38
HETATM   38  C3  UNL     1       2.337  14.966  24.001  1.00  0.00    -0.059 C 
HETATM   39  C2  UNL     1       1.865  16.214  24.221  1.00  0.00    -0.026 C 
HETATM   40  C1  UNL     1       1.022  16.677  25.366  1.00  0.00     0.036 C 
HETATM   41  C4  UNL     1       1.994  13.807  24.900  1.00  0.00     0.046 C 
ENDBRANCH   1  38
BRANCH  33  42
HETATM   42  O9  UNL     1       3.704  11.586  21.524  1.00  0.00    -0.312 OA
BRANCH  42  43
HETATM   43  C33 UNL     1       2.746  10.653  21.267  1.00  0.00     0.262 C 
HETATM   44  O10 UNL     1       2.201  10.490  20.182  1.00  0.00    -0.265 OA
BRANCH  43  45
HETATM   45  C34 UNL     1       2.387   9.864  22.510  1.00  0.00     0.077 C 
HETATM   46  C35 UNL     1       2.691   8.378  22.346  1.00  0.00     0.020 C 
HETATM   47  C36 UNL     1       3.102  10.455  23.720  1.00  0.00     0.020 C 
ENDBRANCH  43  45
ENDBRANCH  42  43
ENDBRANCH  33  42
BRANCH  30  48
HETATM   48  O6  UNL     1      11.380  12.527  19.013  1.00  0.00    -0.381 OA
HETATM   49  H40 UNL     1      11.250  11.793  19.645  1.00  0.00     0.211 HD
ENDBRANCH  30  48
BRANCH  22  50
HETATM   50  O3  UNL     1       9.636  11.112  15.126  1.00  0.00    -0.389 OA
HETATM   51  H34 UNL     1       9.029  11.875  15.044  1.00  0.00     0.210 HD
ENDBRANCH  22  50
TORSDOF 7
ENDMDL
MODEL 5
REMARK minimizedAffinity -7.99300718
REMARK CNNscore 0.336114943
REMARK CNNaffinity 6.57915163
REMARK  7 active torsions:
REMARK  status: ('A' for Active; 'I' for Inactive)
REMARK    1  A    between atoms: C3_3  and  C5_5 
REMARK    2  A    between atoms: C24_26  and  O3_27 
REMARK    3  A    between atoms: C30_35  and  O6_36 
REMARK    4  A    between atoms: C31_38  and  O8_39 
REMARK    5  A    between atoms: C32_40  and  O9_41 
REMARK    6  A    between atoms: O9_41  and  C33_42 
REMARK    7  A    between atoms: C33_42  and  C34_44 
ROOT
HETATM    1  C5  UNL     1       4.286  14.074  21.898  1.00  0.00     0.160 C 
HETATM    2  O1  UNL     1       5.500  13.400  22.241  1.00  0.00    -0.342 OA
HETATM    3  C6  UNL     1       6.396  13.254  21.124  1.00  0.00     0.196 C 
HETATM    4  C7  UNL     1       7.389  12.140  21.554  1.00  0.00     0.104 C 
HETATM    5  C8  UNL     1       8.800  12.360  21.016  1.00  0.00     0.139 C 
HETATM    6  C9  UNL     1       9.322  13.770  21.326  1.00  0.00     0.065 C 
HETATM    7  C10 UNL     1       8.188  14.695  21.782  1.00  0.00     0.131 C 
HETATM    8  C11 UNL     1       8.554  16.189  21.850  1.00  0.00     0.059 C 
HETATM    9  C12 UNL     1       9.190  16.783  20.617  1.00  0.00    -0.022 C 
HETATM   10  C13 UNL     1       8.626  17.585  19.691  1.00  0.00    -0.087 C 
HETATM   11  C14 UNL     1       7.159  17.948  19.721  1.00  0.00     0.043 C 
HETATM   12  C15 UNL     1       9.352  18.192  18.488  1.00  0.00     0.041 C 
HETATM   13  C16 UNL     1      10.860  17.924  18.213  1.00  0.00     0.008 C 
HETATM   14  C17 UNL     1      11.758  18.670  19.210  1.00  0.00     0.014 C 
HETATM   15  C18 UNL     1      11.232  16.458  18.117  1.00  0.00    -0.022 C 
HETATM   16  C19 UNL     1      10.582  15.567  17.350  1.00  0.00    -0.003 C 
HETATM   17  C20 UNL     1      10.861  14.153  17.399  1.00  0.00     0.008 C 
HETATM   18  C21 UNL     1      10.253  13.229  16.640  1.00  0.00    -0.019 C 
HETATM   19  C22 UNL     1       9.312  13.465  15.490  1.00  0.00     0.206 C 
HETATM   20  O2  UNL     1       9.171  12.185  14.823  1.00  0.00    -0.375 OA
HETATM   21  C23 UNL     1      10.324  11.414  15.248  1.00  0.00     0.194 C 
HETATM   22  C24 UNL     1      10.159   9.912  14.954  1.00  0.00     0.179 C 
HETATM   23  C25 UNL     1       9.455   9.106  16.023  1.00  0.00    -0.056 C 
HETATM   24  C26 UNL     1       9.229   7.650  15.713  1.00  0.00     0.046 C 
HETATM   25  C27 UNL     1       9.084   9.642  17.201  1.00  0.00    -0.004 C 
HETATM   26  C28 UNL     1       9.318  11.094  17.551  1.00  0.00     0.150 C 
HETATM   27  C29 UNL     1       9.596  11.240  19.040  1.00  0.00     0.270 C 
HETATM   28  O4  UNL     1      10.440  10.593  19.645  1.00  0.00    -0.264 OA
HETATM   29  O5  UNL     1       8.757  12.164  19.585  1.00  0.00    -0.315 OA
HETATM   30  C30 UNL     1      10.465  11.741  16.733  1.00  0.00     0.128 C 
HETATM   31  O7  UNL     1       7.079  14.500  20.908  1.00  0.00    -0.347 OA
HETATM   32  C31 UNL     1       5.610  12.858  19.820  1.00  0.00     0.210 C 
HETATM   33  C32 UNL     1       4.271  12.184  20.175  1.00  0.00     0.172 C 
HETATM   34  C37 UNL     1       3.403  13.096  21.084  1.00  0.00     0.047 C 
HETATM   35  C38 UNL     1       2.346  13.835  20.256  1.00  0.00     0.015 C 
ENDROOT
BRANCH  32  36
HETATM   36  O8  UNL     1       5.315  14.001  18.989  1.00  0.00    -0.387 OA
HETATM   37  H42 UNL     1       5.034  13.668  18.121  1.00  0.00     0.210 HD
ENDBRANCH  32  36
BRANCH   1  38
HETATM   38  C3  UNL     1       3.614  14.546  23.193  1.00  0.00    -0.059 C 
HETATM   39  C2  UNL     1       2.669  13.814  23.825  1.00  0.00    -0.026 C 
HETATM   40  C1  UNL     1       1.938  14.164  25.081  1.00  0.00     0.036 C 
HETATM   41  C4  UNL     1       4.123  15.851  23.747  1.00  0.00     0.046 C 
ENDBRANCH   1  38
BRANCH  33  42
HETATM   42  O9  UNL     1       4.538  10.932  20.845  1.00  0.00    -0.312 OA
BRANCH  42  43
HETATM   43  C33 UNL     1       3.462  10.124  21.053  1.00  0.00     0.262 C 
HETATM   44  O10 UNL     1       2.756   9.657  20.167  1.00  0.00    -0.265 OA
BRANCH  43  45
HETATM   45  C34 UNL     1       3.199   9.914  22.530  1.00  0.00     0.077 C 
HETATM   46  C35 UNL     1       2.630   8.527  22.814  1.00  0.00     0.020 C 
HETATM   47  C36 UNL     1       4.475  10.172  23.323  1.00  0.00     0.020 C 
ENDBRANCH  43  45
ENDBRANCH  42  43
ENDBRANCH  33  42
BRANCH  30  48
HETATM   48  O6  UNL     1      11.779  11.422  17.177  1.00  0.00    -0.381 OA
HETATM   49  H40 UNL     1      11.729  10.747  17.882  1.00  0.00     0.211 HD
ENDBRANCH  30  48
BRANCH  22  50
HETATM   50  O3  UNL     1       9.456   9.746  13.720  1.00  0.00    -0.389 OA
HETATM   51  H34 UNL     1       8.859  10.518  13.662  1.00  0.00     0.210 HD
ENDBRANCH  22  50
TORSDOF 7
ENDMDL
MODEL 6
REMARK minimizedAffinity -7.48670053
REMARK CNNscore 0.306957901
REMARK CNNaffinity 6.30678129
REMARK  7 active torsions:
REMARK  status: ('A' for Active; 'I' for Inactive)
REMARK    1  A    between atoms: C3_3  and  C5_5 
REMARK    2  A    between atoms: C24_26  and  O3_27 
REMARK    3  A    between atoms: C30_35  and  O6_36 
REMARK    4  A    between atoms: C31_38  and  O8_39 
REMARK    5  A    between atoms: C32_40  and  O9_41 
REMARK    6  A    between atoms: O9_41  and  C33_42 
REMARK    7  A    between atoms: C33_42  and  C34_44 
ROOT
HETATM    1  C5  UNL     1       6.555  12.853  20.576  1.00  0.00     0.160 C 
HETATM    2  O1  UNL     1       6.092  12.200  19.391  1.00  0.00    -0.342 OA
HETATM    3  C6  UNL     1       4.759  12.593  19.018  1.00  0.00     0.196 C 
HETATM    4  C7  UNL     1       4.277  11.486  18.040  1.00  0.00     0.104 C 
HETATM    5  C8  UNL     1       3.368  12.021  16.937  1.00  0.00     0.139 C 
HETATM    6  C9  UNL     1       3.987  13.223  16.211  1.00  0.00     0.065 C 
HETATM    7  C10 UNL     1       5.181  13.788  16.990  1.00  0.00     0.131 C 
HETATM    8  C11 UNL     1       5.695  15.152  16.493  1.00  0.00     0.059 C 
HETATM    9  C12 UNL     1       4.666  16.244  16.338  1.00  0.00    -0.022 C 
HETATM   10  C13 UNL     1       4.442  17.301  17.145  1.00  0.00    -0.087 C 
HETATM   11  C14 UNL     1       5.188  17.499  18.445  1.00  0.00     0.043 C 
HETATM   12  C15 UNL     1       3.407  18.400  16.894  1.00  0.00     0.041 C 
HETATM   13  C16 UNL     1       2.482  18.392  15.643  1.00  0.00     0.008 C 
HETATM   14  C17 UNL     1       3.255  18.744  14.364  1.00  0.00     0.014 C 
HETATM   15  C18 UNL     1       1.666  17.126  15.471  1.00  0.00    -0.022 C 
HETATM   16  C19 UNL     1       0.928  16.570  16.445  1.00  0.00    -0.003 C 
HETATM   17  C20 UNL     1       0.290  15.286  16.298  1.00  0.00     0.008 C 
HETATM   18  C21 UNL     1      -0.472  14.700  17.234  1.00  0.00    -0.019 C 
HETATM   19  C22 UNL     1      -0.960  15.302  18.524  1.00  0.00     0.206 C 
HETATM   20  O2  UNL     1      -1.972  14.394  19.028  1.00  0.00    -0.375 OA
HETATM   21  C23 UNL     1      -2.382  13.615  17.874  1.00  0.00     0.194 C 
HETATM   22  C24 UNL     1      -3.166  12.352  18.275  1.00  0.00     0.179 C 
HETATM   23  C25 UNL     1      -2.329  11.127  18.576  1.00  0.00    -0.056 C 
HETATM   24  C26 UNL     1      -3.083   9.908  19.035  1.00  0.00     0.046 C 
HETATM   25  C27 UNL     1      -0.993  11.109  18.408  1.00  0.00    -0.004 C 
HETATM   26  C28 UNL     1      -0.211  12.310  17.927  1.00  0.00     0.150 C 
HETATM   27  C29 UNL     1       0.971  11.865  17.079  1.00  0.00     0.270 C 
HETATM   28  O4  UNL     1       0.881  11.101  16.127  1.00  0.00    -0.264 OA
HETATM   29  O5  UNL     1       2.122  12.417  17.552  1.00  0.00    -0.315 OA
HETATM   30  C30 UNL     1      -1.077  13.324  17.137  1.00  0.00     0.128 C 
HETATM   31  O7  UNL     1       4.814  13.871  18.364  1.00  0.00    -0.347 OA
HETATM   32  C31 UNL     1       3.827  12.693  20.282  1.00  0.00     0.210 C 
HETATM   33  C32 UNL     1       4.374  11.825  21.432  1.00  0.00     0.172 C 
HETATM   34  C37 UNL     1       5.834  12.217  21.791  1.00  0.00     0.047 C 
HETATM   35  C38 UNL     1       5.860  13.138  23.016  1.00  0.00     0.015 C 
ENDROOT
BRANCH  32  36
HETATM   36  O8  UNL     1       3.716  14.046  20.774  1.00  0.00    -0.387 OA
HETATM   37  H42 UNL     1       2.974  14.070  21.400  1.00  0.00     0.210 HD
ENDBRANCH  32  36
BRANCH   1  38
HETATM   38  C3  UNL     1       8.080  12.704  20.644  1.00  0.00    -0.059 C 
HETATM   39  C2  UNL     1       8.744  11.752  19.951  1.00  0.00    -0.026 C 
HETATM   40  C1  UNL     1      10.218  11.500  19.939  1.00  0.00     0.036 C 
HETATM   41  C4  UNL     1       8.793  13.729  21.487  1.00  0.00     0.046 C 
ENDBRANCH   1  38
BRANCH  33  42
HETATM   42  O9  UNL     1       4.320  10.436  21.037  1.00  0.00    -0.312 OA
BRANCH  42  43
HETATM   43  C33 UNL     1       3.148   9.790  21.289  1.00  0.00     0.262 C 
HETATM   44  O10 UNL     1       2.157   9.834  20.570  1.00  0.00    -0.265 OA
BRANCH  43  45
HETATM   45  C34 UNL     1       3.193   9.045  22.608  1.00  0.00     0.077 C 
HETATM   46  C35 UNL     1       3.156   9.998  23.798  1.00  0.00     0.020 C 
HETATM   47  C36 UNL     1       2.061   8.028  22.665  1.00  0.00     0.020 C 
ENDBRANCH  43  45
ENDBRANCH  42  43
ENDBRANCH  33  42
BRANCH  30  48
HETATM   48  O6  UNL     1      -1.353  12.963  15.788  1.00  0.00    -0.381 OA
HETATM   49  H40 UNL     1      -1.021  12.059  15.620  1.00  0.00     0.211 HD
ENDBRANCH  30  48
BRANCH  22  50
HETATM   50  O3  UNL     1      -3.978  12.641  19.416  1.00  0.00    -0.389 OA
HETATM   51  H34 UNL     1      -3.482  13.318  19.917  1.00  0.00     0.210 HD
ENDBRANCH  22  50
TORSDOF 7
ENDMDL
MODEL 7
REMARK minimizedAffinity -8.2637949
REMARK CNNscore 0.248733029
REMARK CNNaffinity 5.7282176
REMARK  7 active torsions:
REMARK  status: ('A' for Active; 'I' for Inactive)
REMARK    1  A    between atoms: C3_3  and  C5_5 
REMARK    2  A    between atoms: C24_26  and  O3_27 
REMARK    3  A    between atoms: C30_35  and  O6_36 
REMARK    4  A    between atoms: C31_38  and  O8_39 
REMARK    5  A    between atoms: C32_40  and  O9_41 
REMARK    6  A    between atoms: O9_41  and  C33_42 
REMARK    7  A    between atoms: C33_42  and  C34_44 
ROOT
HETATM    1  C5  UNL     1      12.627  13.160  11.358  1.00  0.00     0.160 C 
HETATM    2  O1  UNL     1      11.319  13.735  11.410  1.00  0.00    -0.342 OA
HETATM    3  C6  UNL     1      10.322  12.820  11.901  1.00  0.00     0.196 C 
HETATM    4  C7  UNL     1       8.966  13.433  11.456  1.00  0.00     0.104 C 
HETATM    5  C8  UNL     1       7.845  13.189  12.463  1.00  0.00     0.139 C 
HETATM    6  C9  UNL     1       8.246  13.605  13.885  1.00  0.00     0.065 C 
HETATM    7  C10 UNL     1       9.758  13.831  13.993  1.00  0.00     0.131 C 
HETATM    8  C11 UNL     1      10.294  13.980  15.429  1.00  0.00     0.059 C 
HETATM    9  C12 UNL     1       9.899  12.903  16.410  1.00  0.00    -0.022 C 
HETATM   10  C13 UNL     1      10.651  11.887  16.881  1.00  0.00    -0.087 C 
HETATM   11  C14 UNL     1      12.057  11.626  16.389  1.00  0.00     0.043 C 
HETATM   12  C15 UNL     1      10.196  10.858  17.917  1.00  0.00     0.041 C 
HETATM   13  C16 UNL     1       8.770  10.889  18.539  1.00  0.00     0.008 C 
HETATM   14  C17 UNL     1       8.609  12.049  19.531  1.00  0.00     0.014 C 
HETATM   15  C18 UNL     1       7.641  10.860  17.527  1.00  0.00    -0.022 C 
HETATM   16  C19 UNL     1       7.555   9.974  16.522  1.00  0.00    -0.003 C 
HETATM   17  C20 UNL     1       6.556  10.068  15.488  1.00  0.00     0.008 C 
HETATM   18  C21 UNL     1       6.420   9.198  14.476  1.00  0.00    -0.019 C 
HETATM   19  C22 UNL     1       7.132   7.884  14.298  1.00  0.00     0.206 C 
HETATM   20  O2  UNL     1       6.432   7.194  13.231  1.00  0.00    -0.375 OA
HETATM   21  C23 UNL     1       5.133   7.837  13.161  1.00  0.00     0.194 C 
HETATM   22  C24 UNL     1       4.391   7.506  11.853  1.00  0.00     0.179 C 
HETATM   23  C25 UNL     1       4.698   8.408  10.677  1.00  0.00    -0.056 C 
HETATM   24  C26 UNL     1       4.030   8.051   9.377  1.00  0.00     0.046 C 
HETATM   25  C27 UNL     1       5.490   9.492  10.789  1.00  0.00    -0.004 C 
HETATM   26  C28 UNL     1       6.157   9.890  12.086  1.00  0.00     0.150 C 
HETATM   27  C29 UNL     1       6.253  11.406  12.186  1.00  0.00     0.270 C 
HETATM   28  O4  UNL     1       5.305  12.163  12.032  1.00  0.00    -0.264 OA
HETATM   29  O5  UNL     1       7.538  11.777  12.442  1.00  0.00    -0.315 OA
HETATM   30  C30 UNL     1       5.441   9.322  13.338  1.00  0.00     0.128 C 
HETATM   31  O7  UNL     1      10.415  12.752  13.333  1.00  0.00    -0.347 OA
HETATM   32  C31 UNL     1      10.533  11.382  11.296  1.00  0.00     0.210 C 
HETATM   33  C32 UNL     1      11.315  11.458   9.971  1.00  0.00     0.172 C 
HETATM   34  C37 UNL     1      12.677  12.180  10.159  1.00  0.00     0.047 C 
HETATM   35  C38 UNL     1      13.814  11.162  10.301  1.00  0.00     0.015 C 
ENDROOT
BRANCH  32  36
HETATM   36  O8  UNL     1      11.269  10.516  12.187  1.00  0.00    -0.387 OA
HETATM   37  H42 UNL     1      11.174   9.607  11.857  1.00  0.00     0.210 HD
ENDBRANCH  32  36
BRANCH   1  38
HETATM   38  C3  UNL     1      13.649  14.298  11.239  1.00  0.00    -0.059 C 
HETATM   39  C2  UNL     1      14.581  14.533  12.189  1.00  0.00    -0.026 C 
HETATM   40  C1  UNL     1      15.621  15.608  12.195  1.00  0.00     0.036 C 
HETATM   41  C4  UNL     1      13.583  15.096   9.963  1.00  0.00     0.046 C 
ENDBRANCH   1  38
BRANCH  33  42
HETATM   42  O9  UNL     1      10.516  12.161   8.994  1.00  0.00    -0.312 OA
BRANCH  42  43
HETATM   43  C33 UNL     1      10.117  11.432   7.914  1.00  0.00     0.262 C 
HETATM   44  O10 UNL     1       9.645  10.303   7.967  1.00  0.00    -0.265 OA
BRANCH  43  45
HETATM   45  C34 UNL     1      10.383  12.168   6.616  1.00  0.00     0.077 C 
HETATM   46  C35 UNL     1      11.745  11.811   6.030  1.00  0.00     0.020 C 
HETATM   47  C36 UNL     1       9.255  11.894   5.628  1.00  0.00     0.020 C 
ENDBRANCH  43  45
ENDBRANCH  42  43
ENDBRANCH  33  42
BRANCH  30  48
HETATM   48  O6  UNL     1       4.262  10.018  13.730  1.00  0.00    -0.381 OA
HETATM   49  H40 UNL     1       4.047  10.694  13.058  1.00  0.00     0.211 HD
ENDBRANCH  30  48
BRANCH  22  50
HETATM   50  O3  UNL     1       4.673   6.156  11.478  1.00  0.00    -0.389 OA
HETATM   51  H34 UNL     1       5.578   5.984  11.806  1.00  0.00     0.210 HD
ENDBRANCH  22  50
TORSDOF 7
ENDMDL
MODEL 8
REMARK minimizedAffinity -7.55006218
REMARK CNNscore 0.246836871
REMARK CNNaffinity 6.40989161
REMARK  7 active torsions:
REMARK  status: ('A' for Active; 'I' for Inactive)
REMARK    1  A    between atoms: C3_3  and  C5_5 
REMARK    2  A    between atoms: C24_26  and  O3_27 
REMARK    3  A    between atoms: C30_35  and  O6_36 
REMARK    4  A    between atoms: C31_38  and  O8_39 
REMARK    5  A    between atoms: C32_40  and  O9_41 
REMARK    6  A    between atoms: O9_41  and  C33_42 
REMARK    7  A    between atoms: C33_42  and  C34_44 
ROOT
HETATM    1  C5  UNL     1      -8.164 -10.384   7.450  1.00  0.00     0.160 C 
HETATM    2  O1  UNL     1      -8.992 -11.288   8.188  1.00  0.00    -0.342 OA
HETATM    3  C6  UNL     1      -9.730 -10.642   9.240  1.00  0.00     0.196 C 
HETATM    4  C7  UNL     1     -10.174 -11.796  10.181  1.00  0.00     0.104 C 
HETATM    5  C8  UNL     1     -11.541 -11.553  10.815  1.00  0.00     0.139 C 
HETATM    6  C9  UNL     1     -12.607 -11.198   9.769  1.00  0.00     0.065 C 
HETATM    7  C10 UNL     1     -11.968 -10.842   8.423  1.00  0.00     0.131 C 
HETATM    8  C11 UNL     1     -12.924 -10.208   7.395  1.00  0.00     0.059 C 
HETATM    9  C12 UNL     1     -13.733  -9.025   7.868  1.00  0.00    -0.022 C 
HETATM   10  C13 UNL     1     -13.541  -7.719   7.593  1.00  0.00    -0.087 C 
HETATM   11  C14 UNL     1     -12.359  -7.227   6.789  1.00  0.00     0.043 C 
HETATM   12  C15 UNL     1     -14.437  -6.574   8.071  1.00  0.00     0.041 C 
HETATM   13  C16 UNL     1     -15.692  -6.823   8.956  1.00  0.00     0.008 C 
HETATM   14  C17 UNL     1     -16.833  -7.462   8.152  1.00  0.00     0.014 C 
HETATM   15  C18 UNL     1     -15.418  -7.585  10.237  1.00  0.00    -0.022 C 
HETATM   16  C19 UNL     1     -14.446  -7.267  11.107  1.00  0.00    -0.003 C 
HETATM   17  C20 UNL     1     -14.112  -8.100  12.235  1.00  0.00     0.008 C 
HETATM   18  C21 UNL     1     -13.163  -7.815  13.140  1.00  0.00    -0.019 C 
HETATM   19  C22 UNL     1     -12.390  -6.532  13.281  1.00  0.00     0.206 C 
HETATM   20  O2  UNL     1     -11.719  -6.611  14.565  1.00  0.00    -0.375 OA
HETATM   21  C23 UNL     1     -12.452  -7.619  15.307  1.00  0.00     0.194 C 
HETATM   22  C24 UNL     1     -11.673  -8.116  16.538  1.00  0.00     0.179 C 
HETATM   23  C25 UNL     1     -10.711  -9.258  16.291  1.00  0.00    -0.056 C 
HETATM   24  C26 UNL     1      -9.896  -9.704  17.475  1.00  0.00     0.046 C 
HETATM   25  C27 UNL     1     -10.615  -9.871  15.096  1.00  0.00    -0.004 C 
HETATM   26  C28 UNL     1     -11.437  -9.462  13.895  1.00  0.00     0.150 C 
HETATM   27  C29 UNL     1     -11.771 -10.679  13.044  1.00  0.00     0.270 C 
HETATM   28  O4  UNL     1     -12.277 -11.702  13.484  1.00  0.00    -0.264 OA
HETATM   29  O5  UNL     1     -11.401 -10.463  11.752  1.00  0.00    -0.315 OA
HETATM   30  C30 UNL     1     -12.737  -8.709  14.275  1.00  0.00     0.128 C 
HETATM   31  O7  UNL     1     -10.867  -9.973   8.671  1.00  0.00    -0.347 OA
HETATM   32  C31 UNL     1      -8.833  -9.593   9.996  1.00  0.00     0.210 C 
HETATM   33  C32 UNL     1      -7.339  -9.935   9.829  1.00  0.00     0.172 C 
HETATM   34  C37 UNL     1      -6.943 -10.020   8.330  1.00  0.00     0.047 C 
HETATM   35  C38 UNL     1      -6.278  -8.717   7.873  1.00  0.00     0.015 C 
ENDROOT
BRANCH  32  36
HETATM   36  O8  UNL     1      -9.029  -8.250   9.505  1.00  0.00    -0.387 OA
HETATM   37  H42 UNL     1      -8.622  -7.642  10.144  1.00  0.00     0.210 HD
ENDBRANCH  32  36
BRANCH   1  38
HETATM   38  C3  UNL     1      -7.768 -11.060   6.132  1.00  0.00    -0.059 C 
HETATM   39  C2  UNL     1      -6.492 -11.081   5.686  1.00  0.00    -0.026 C 
HETATM   40  C1  UNL     1      -5.982 -11.696   4.422  1.00  0.00     0.036 C 
HETATM   41  C4  UNL     1      -8.887 -11.754   5.399  1.00  0.00     0.046 C 
ENDBRANCH   1  38
BRANCH  33  42
HETATM   42  O9  UNL     1      -7.071 -11.196  10.482  1.00  0.00    -0.312 OA
BRANCH  42  43
HETATM   43  C33 UNL     1      -6.146 -11.165  11.482  1.00  0.00     0.262 C 
HETATM   44  O10 UNL     1      -5.020 -10.696  11.379  1.00  0.00    -0.265 OA
BRANCH  43  45
HETATM   45  C34 UNL     1      -6.660 -11.839  12.738  1.00  0.00     0.077 C 
HETATM   46  C35 UNL     1      -7.983 -11.237  13.204  1.00  0.00     0.020 C 
HETATM   47  C36 UNL     1      -6.775 -13.341  12.507  1.00  0.00     0.020 C 
ENDBRANCH  43  45
ENDBRANCH  42  43
ENDBRANCH  33  42
BRANCH  30  48
HETATM   48  O6  UNL     1     -13.805  -9.535  14.725  1.00  0.00    -0.381 OA
HETATM   49  H40 UNL     1     -13.488 -10.455  14.816  1.00  0.00     0.211 HD
ENDBRANCH  30  48
BRANCH  22  50
HETATM   50  O3  UNL     1     -10.947  -7.025  17.110  1.00  0.00    -0.389 OA
HETATM   51  H34 UNL     1     -10.725  -6.444  16.355  1.00  0.00     0.210 HD
ENDBRANCH  22  50
TORSDOF 7
ENDMDL
MODEL 9
REMARK minimizedAffinity -7.36044884
REMARK CNNscore 0.234101713
REMARK CNNaffinity 6.15302134
REMARK  7 active torsions:
REMARK  status: ('A' for Active; 'I' for Inactive)
REMARK    1  A    between atoms: C3_3  and  C5_5 
REMARK    2  A    between atoms: C24_26  and  O3_27 
REMARK    3  A    between atoms: C30_35  and  O6_36 
REMARK    4  A    between atoms: C31_38  and  O8_39 
REMARK    5  A    between atoms: C32_40  and  O9_41 
REMARK    6  A    between atoms: O9_41  and  C33_42 
REMARK    7  A    between atoms: C33_42  and  C34_44 
ROOT
HETATM    1  C5  UNL     1       3.947  13.350  20.652  1.00  0.00     0.160 C 
HETATM    2  O1  UNL     1       4.185  12.633  19.438  1.00  0.00    -0.342 OA
HETATM    3  C6  UNL     1       3.007  12.508  18.619  1.00  0.00     0.196 C 
HETATM    4  C7  UNL     1       3.330  11.353  17.632  1.00  0.00     0.104 C 
HETATM    5  C8  UNL     1       2.708  11.559  16.253  1.00  0.00     0.139 C 
HETATM    6  C9  UNL     1       3.035  12.942  15.674  1.00  0.00     0.065 C 
HETATM    7  C10 UNL     1       3.598  13.877  16.750  1.00  0.00     0.131 C 
HETATM    8  C11 UNL     1       3.698  15.358  16.340  1.00  0.00     0.059 C 
HETATM    9  C12 UNL     1       2.449  15.983  15.768  1.00  0.00    -0.022 C 
HETATM   10  C13 UNL     1       1.591  16.833  16.369  1.00  0.00    -0.087 C 
HETATM   11  C14 UNL     1       1.730  17.232  17.821  1.00  0.00     0.043 C 
HETATM   12  C15 UNL     1       0.367  17.468  15.706  1.00  0.00     0.041 C 
HETATM   13  C16 UNL     1      -0.016  17.174  14.227  1.00  0.00     0.008 C 
HETATM   14  C17 UNL     1       0.946  17.859  13.246  1.00  0.00     0.014 C 
HETATM   15  C18 UNL     1      -0.190  15.704  13.902  1.00  0.00    -0.022 C 
HETATM   16  C19 UNL     1      -0.945  14.859  14.624  1.00  0.00    -0.003 C 
HETATM   17  C20 UNL     1      -0.967  13.439  14.381  1.00  0.00     0.008 C 
HETATM   18  C21 UNL     1      -1.718  12.559  15.063  1.00  0.00    -0.019 C 
HETATM   19  C22 UNL     1      -2.794  12.863  16.069  1.00  0.00     0.206 C 
HETATM   20  O2  UNL     1      -3.498  11.614  16.287  1.00  0.00    -0.375 OA
HETATM   21  C23 UNL     1      -3.178  10.798  15.130  1.00  0.00     0.194 C 
HETATM   22  C24 UNL     1      -3.516   9.313  15.355  1.00  0.00     0.179 C 
HETATM   23  C25 UNL     1      -2.433   8.484  16.011  1.00  0.00    -0.056 C 
HETATM   24  C26 UNL     1      -2.781   7.048  16.296  1.00  0.00     0.046 C 
HETATM   25  C27 UNL     1      -1.214   8.984  16.290  1.00  0.00    -0.004 C 
HETATM   26  C28 UNL     1      -0.827  10.415  15.994  1.00  0.00     0.150 C 
HETATM   27  C29 UNL     1       0.645  10.497  15.617  1.00  0.00     0.270 C 
HETATM   28  O4  UNL     1       1.169   9.806  14.754  1.00  0.00    -0.264 OA
HETATM   29  O5  UNL     1       1.277  11.420  16.393  1.00  0.00    -0.315 OA
HETATM   30  C30 UNL     1      -1.694  11.064  14.885  1.00  0.00     0.128 C 
HETATM   31  O7  UNL     1       2.793  13.744  17.918  1.00  0.00    -0.347 OA
HETATM   32  C31 UNL     1       1.743  12.182  19.498  1.00  0.00     0.210 C 
HETATM   33  C32 UNL     1       2.160  11.528  20.830  1.00  0.00     0.172 C 
HETATM   34  C37 UNL     1       3.157  12.426  21.612  1.00  0.00     0.047 C 
HETATM   35  C38 UNL     1       2.428  13.222  22.700  1.00  0.00     0.015 C 
ENDROOT
BRANCH  32  36
HETATM   36  O8  UNL     1       0.977  13.363  19.815  1.00  0.00    -0.387 OA
HETATM   37  H42 UNL     1       0.117  13.071  20.161  1.00  0.00     0.210 HD
ENDBRANCH  32  36
BRANCH   1  38
HETATM   38  C3  UNL     1       5.300  13.787  21.226  1.00  0.00    -0.059 C 
HETATM   39  C2  UNL     1       5.404  14.479  22.383  1.00  0.00    -0.026 C 
HETATM   40  C1  UNL     1       6.656  14.967  23.039  1.00  0.00     0.036 C 
HETATM   41  C4  UNL     1       6.509  13.340  20.445  1.00  0.00     0.046 C 
ENDBRANCH   1  38
BRANCH  33  42
HETATM   42  O9  UNL     1       2.765  10.245  20.554  1.00  0.00    -0.312 OA
BRANCH  42  43
HETATM   43  C33 UNL     1       3.803   9.889  21.360  1.00  0.00     0.262 C 
HETATM   44  O10 UNL     1       4.979  10.156  21.145  1.00  0.00    -0.265 OA
BRANCH  43  45
HETATM   45  C34 UNL     1       3.335   9.064  22.542  1.00  0.00     0.077 C 
HETATM   46  C35 UNL     1       3.353   9.868  23.838  1.00  0.00     0.020 C 
HETATM   47  C36 UNL     1       1.953   8.489  22.254  1.00  0.00     0.020 C 
ENDBRANCH  43  45
ENDBRANCH  42  43
ENDBRANCH  33  42
BRANCH  30  48
HETATM   48  O6  UNL     1      -1.349  10.696  13.554  1.00  0.00    -0.381 OA
HETATM   49  H40 UNL     1      -0.668   9.996  13.577  1.00  0.00     0.211 HD
ENDBRANCH  30  48
BRANCH  22  50
HETATM   50  O3  UNL     1      -4.706   9.213  16.141  1.00  0.00    -0.389 OA
HETATM   51  H34 UNL     1      -4.696  10.001  16.719  1.00  0.00     0.210 HD
ENDBRANCH  22  50
TORSDOF 7
ENDMDL
