MODEL 1
REMARK minimizedAffinity -8.34063816
REMARK CNNscore 0.814296722
REMARK CNNaffinity 7.39375877
REMARK  19 active torsions:
REMARK  status: ('A' for Active; 'I' for Inactive)
REMARK    1  A    between atoms: C19_20  and  O2_21 
REMARK    2  A    between atoms: C19_20  and  C20_22 
REMARK    3  A    between atoms: C20_22  and  C21_24 
REMARK    4  A    between atoms: C21_24  and  O4_25 
REMARK    5  A    between atoms: O4_25  and  C22_26 
REMARK    6  A    between atoms: C22_26  and  C23_28 
REMARK    7  A    between atoms: C23_28  and  C24_29 
REMARK    8  A    between atoms: C24_29  and  C25_30 
REMARK       I    between atoms: C25_30  and  N1_32 
REMARK    9  A    between atoms: N1_32  and  C26_33 
REMARK   10  A    between atoms: C26_33  and  C27_34 
REMARK   11  A    between atoms: C27_34  and  C28_35 
REMARK   12  A    between atoms: C28_35  and  C29_36 
REMARK   13  A    between atoms: C29_36  and  C30_37 
REMARK   14  A    between atoms: C30_37  and  C31_38 
REMARK       I    between atoms: C31_38  and  N2_40 
REMARK   15  A    between atoms: N2_40  and  C32_41 
REMARK   16  A    between atoms: C32_41  and  C33_42 
REMARK   17  A    between atoms: C33_42  and  C34_43 
REMARK   18  A    between atoms: C37_46  and  O8_47 
REMARK   19  A    between atoms: C38_48  and  O9_49 
ROOT
HETATM    1  C22 UNL     1      -4.852  48.068 -28.985  1.00  0.00     0.259 C 
HETATM    2  O5  UNL     1      -4.884  47.858 -30.190  1.00  0.00    -0.265 OA
ENDROOT
BRANCH   1   3
HETATM    3  O4  UNL     1      -3.825  48.672 -28.332  1.00  0.00    -0.314 OA
BRANCH   3   4
HETATM    4  C21 UNL     1      -3.815  50.093 -28.358  1.00  0.00     0.260 C 
BRANCH   4   5
HETATM    5  C20 UNL     1      -3.039  50.955 -27.348  1.00  0.00     0.185 C 
HETATM    6  O3  UNL     1      -2.374  51.915 -27.755  1.00  0.00    -0.292 OA
BRANCH   5   7
HETATM    7  C19 UNL     1      -3.226  50.675 -25.835  1.00  0.00     0.128 C 
HETATM    8  C14 UNL     1      -1.973  51.017 -24.965  1.00  0.00    -0.002 C 
HETATM    9  C13 UNL     1      -1.794  52.489 -24.546  1.00  0.00     0.013 C 
HETATM   10  C15 UNL     1      -0.678  50.536 -25.681  1.00  0.00     0.019 C 
HETATM   11  C16 UNL     1      -2.307  50.206 -23.680  1.00  0.00     0.002 C 
HETATM   12  C12 UNL     1      -0.721  52.657 -23.449  1.00  0.00     0.007 C 
HETATM   13  C11 UNL     1      -0.987  51.762 -22.217  1.00  0.00     0.002 C 
HETATM   14  C2  UNL     1       0.058  51.882 -21.056  1.00  0.00    -0.016 C 
HETATM   15  C10 UNL     1      -1.189  50.270 -22.633  1.00  0.00    -0.004 C 
HETATM   16  C1  UNL     1       1.423  51.265 -21.449  1.00  0.00     0.020 C 
HETATM   17  C3  UNL     1       0.270  53.364 -20.649  1.00  0.00     0.022 C 
HETATM   18  C7  UNL     1      -0.505  51.139 -19.841  1.00  0.00    -0.068 C 
HETATM   19  C4  UNL     1       1.133  53.530 -19.399  1.00  0.00     0.084 C 
HETATM   20  C5  UNL     1       0.739  52.593 -18.283  1.00  0.00     0.149 C 
HETATM   21  O1  UNL     1       1.174  52.731 -17.140  1.00  0.00    -0.293 OA
HETATM   22  C6  UNL     1      -0.173  51.465 -18.578  1.00  0.00     0.053 C 
HETATM   23  C8  UNL     1      -1.556  50.079 -20.087  1.00  0.00     0.035 C 
HETATM   24  C9  UNL     1      -1.405  49.345 -21.417  1.00  0.00     0.010 C 
HETATM   25  C17 UNL     1      -2.723  48.844 -24.222  1.00  0.00     0.009 C 
HETATM   26  C18 UNL     1      -3.440  49.157 -25.549  1.00  0.00     0.047 C 
BRANCH   7  27
HETATM   27  O2  UNL     1      -4.373  51.359 -25.326  1.00  0.00    -0.381 OA
HETATM   28  H27 UNL     1      -5.151  50.972 -25.776  1.00  0.00     0.211 HD
ENDBRANCH   7  27
ENDBRANCH   5   7
ENDBRANCH   4   5
ENDBRANCH   3   4
ENDBRANCH   1   3
BRANCH   1  29
HETATM   29  C23 UNL     1      -5.964  47.719 -28.031  1.00  0.00     0.120 C 
BRANCH  29  30
HETATM   30  C24 UNL     1      -7.015  46.898 -28.767  1.00  0.00     0.112 C 
BRANCH  30  31
HETATM   31  C25 UNL     1      -8.375  46.988 -28.097  1.00  0.00     0.217 C 
HETATM   32  O6  UNL     1      -8.635  46.425 -27.040  1.00  0.00    -0.274 OA
HETATM   33  N1  UNL     1      -9.256  47.819 -28.758  1.00  0.00    -0.361 N 
HETATM   34  H34 UNL     1      -9.052  48.054 -29.722  1.00  0.00     0.162 HD
BRANCH  33  35
HETATM   35  C26 UNL     1     -10.635  47.931 -28.323  1.00  0.00     0.122 C 
BRANCH  35  36
HETATM   36  C27 UNL     1     -11.623  47.544 -29.425  1.00  0.00     0.020 C 
BRANCH  36  37
HETATM   37  C28 UNL     1     -12.459  46.291 -29.126  1.00  0.00     0.002 C 
BRANCH  37  38
HETATM   38  C29 UNL     1     -13.773  46.533 -28.372  1.00  0.00     0.009 C 
BRANCH  38  39
HETATM   39  C30 UNL     1     -14.806  45.415 -28.521  1.00  0.00     0.103 C 
BRANCH  39  40
HETATM   40  C31 UNL     1     -15.310  44.882 -27.192  1.00  0.00     0.217 C 
HETATM   41  O7  UNL     1     -14.676  44.945 -26.145  1.00  0.00    -0.274 OA
HETATM   42  N2  UNL     1     -16.552  44.290 -27.288  1.00  0.00    -0.361 N 
HETATM   43  H45 UNL     1     -17.106  44.465 -28.117  1.00  0.00     0.162 HD
BRANCH  42  44
HETATM   44  C32 UNL     1     -17.244  43.792 -26.112  1.00  0.00     0.127 C 
BRANCH  44  45
HETATM   45  C33 UNL     1     -18.772  43.808 -26.252  1.00  0.00     0.058 C 
BRANCH  45  46
HETATM   46  C34 UNL     1     -19.485  43.618 -24.931  1.00  0.00    -0.054 A 
HETATM   47  C35 UNL     1     -19.326  44.571 -23.909  1.00  0.00     0.010 A 
HETATM   48  C36 UNL     1     -20.004  44.434 -22.697  1.00  0.00     0.040 A 
HETATM   49  C37 UNL     1     -20.840  43.344 -22.510  1.00  0.00     0.098 A 
HETATM   50  C38 UNL     1     -21.002  42.388 -23.510  1.00  0.00     0.099 A 
HETATM   51  C39 UNL     1     -20.331  42.517 -24.723  1.00  0.00     0.046 A 
BRANCH  49  52
HETATM   52  O8  UNL     1     -21.512  43.217 -21.328  1.00  0.00    -0.358 OA
HETATM   53  H52 UNL     1     -22.018  42.386 -21.422  1.00  0.00     0.217 HD
ENDBRANCH  49  52
BRANCH  50  54
HETATM   54  O9  UNL     1     -21.841  41.340 -23.253  1.00  0.00    -0.358 OA
HETATM   55  H53 UNL     1     -21.829  40.746 -24.023  1.00  0.00     0.217 HD
ENDBRANCH  50  54
ENDBRANCH  45  46
ENDBRANCH  44  45
ENDBRANCH  42  44
ENDBRANCH  39  40
ENDBRANCH  38  39
ENDBRANCH  37  38
ENDBRANCH  36  37
ENDBRANCH  35  36
ENDBRANCH  33  35
ENDBRANCH  30  31
ENDBRANCH  29  30
ENDBRANCH   1  29
TORSDOF 19
ENDMDL
MODEL 2
REMARK minimizedAffinity -8.31849861
REMARK CNNscore 0.778316855
REMARK CNNaffinity 7.52187109
REMARK  19 active torsions:
REMARK  status: ('A' for Active; 'I' for Inactive)
REMARK    1  A    between atoms: C19_20  and  O2_21 
REMARK    2  A    between atoms: C19_20  and  C20_22 
REMARK    3  A    between atoms: C20_22  and  C21_24 
REMARK    4  A    between atoms: C21_24  and  O4_25 
REMARK    5  A    between atoms: O4_25  and  C22_26 
REMARK    6  A    between atoms: C22_26  and  C23_28 
REMARK    7  A    between atoms: C23_28  and  C24_29 
REMARK    8  A    between atoms: C24_29  and  C25_30 
REMARK       I    between atoms: C25_30  and  N1_32 
REMARK    9  A    between atoms: N1_32  and  C26_33 
REMARK   10  A    between atoms: C26_33  and  C27_34 
REMARK   11  A    between atoms: C27_34  and  C28_35 
REMARK   12  A    between atoms: C28_35  and  C29_36 
REMARK   13  A    between atoms: C29_36  and  C30_37 
REMARK   14  A    between atoms: C30_37  and  C31_38 
REMARK       I    between atoms: C31_38  and  N2_40 
REMARK   15  A    between atoms: N2_40  and  C32_41 
REMARK   16  A    between atoms: C32_41  and  C33_42 
REMARK   17  A    between atoms: C33_42  and  C34_43 
REMARK   18  A    between atoms: C37_46  and  O8_47 
REMARK   19  A    between atoms: C38_48  and  O9_49 
ROOT
HETATM    1  C22 UNL     1      -4.905  48.066 -28.930  1.00  0.00     0.259 C 
HETATM    2  O5  UNL     1      -5.022  47.867 -30.132  1.00  0.00    -0.265 OA
ENDROOT
BRANCH   1   3
HETATM    3  O4  UNL     1      -3.829  48.657 -28.346  1.00  0.00    -0.314 OA
BRANCH   3   4
HETATM    4  C21 UNL     1      -3.817  50.077 -28.347  1.00  0.00     0.260 C 
BRANCH   4   5
HETATM    5  C20 UNL     1      -3.035  50.921 -27.325  1.00  0.00     0.185 C 
HETATM    6  O3  UNL     1      -2.362  51.880 -27.720  1.00  0.00    -0.292 OA
BRANCH   5   7
HETATM    7  C19 UNL     1      -3.227  50.624 -25.816  1.00  0.00     0.128 C 
HETATM    8  C14 UNL     1      -1.981  50.971 -24.937  1.00  0.00    -0.002 C 
HETATM    9  C13 UNL     1      -1.821  52.440 -24.502  1.00  0.00     0.013 C 
HETATM   10  C15 UNL     1      -0.677  50.511 -25.651  1.00  0.00     0.019 C 
HETATM   11  C16 UNL     1      -2.312  50.144 -23.662  1.00  0.00     0.002 C 
HETATM   12  C12 UNL     1      -0.755  52.610 -23.399  1.00  0.00     0.007 C 
HETATM   13  C11 UNL     1      -1.016  51.699 -22.177  1.00  0.00     0.002 C 
HETATM   14  C2  UNL     1       0.021  51.820 -21.009  1.00  0.00    -0.016 C 
HETATM   15  C10 UNL     1      -1.200  50.210 -22.608  1.00  0.00    -0.004 C 
HETATM   16  C1  UNL     1       1.395  51.222 -21.402  1.00  0.00     0.020 C 
HETATM   17  C3  UNL     1       0.214  53.300 -20.587  1.00  0.00     0.022 C 
HETATM   18  C7  UNL     1      -0.539  51.059 -19.805  1.00  0.00    -0.068 C 
HETATM   19  C4  UNL     1       1.070  53.463 -19.331  1.00  0.00     0.084 C 
HETATM   20  C5  UNL     1       0.681  52.511 -18.226  1.00  0.00     0.149 C 
HETATM   21  O1  UNL     1       1.109  52.642 -17.080  1.00  0.00    -0.293 OA
HETATM   22  C6  UNL     1      -0.217  51.375 -18.537  1.00  0.00     0.053 C 
HETATM   23  C8  UNL     1      -1.578  49.989 -20.067  1.00  0.00     0.035 C 
HETATM   24  C9  UNL     1      -1.412  49.270 -21.403  1.00  0.00     0.010 C 
HETATM   25  C17 UNL     1      -2.711  48.783 -24.219  1.00  0.00     0.009 C 
HETATM   26  C18 UNL     1      -3.425  49.101 -25.546  1.00  0.00     0.047 C 
BRANCH   7  27
HETATM   27  O2  UNL     1      -4.383  51.290 -25.306  1.00  0.00    -0.381 OA
HETATM   28  H27 UNL     1      -5.154  50.899 -25.764  1.00  0.00     0.211 HD
ENDBRANCH   7  27
ENDBRANCH   5   7
ENDBRANCH   4   5
ENDBRANCH   3   4
ENDBRANCH   1   3
BRANCH   1  29
HETATM   29  C23 UNL     1      -5.950  47.718 -27.904  1.00  0.00     0.120 C 
BRANCH  29  30
HETATM   30  C24 UNL     1      -7.184  47.175 -28.611  1.00  0.00     0.112 C 
BRANCH  30  31
HETATM   31  C25 UNL     1      -8.382  47.099 -27.682  1.00  0.00     0.217 C 
HETATM   32  O6  UNL     1      -8.450  46.312 -26.745  1.00  0.00    -0.274 OA
HETATM   33  N1  UNL     1      -9.347  48.046 -27.956  1.00  0.00    -0.361 N 
HETATM   34  H34 UNL     1      -9.328  48.492 -28.865  1.00  0.00     0.162 HD
BRANCH  33  35
HETATM   35  C26 UNL     1     -10.610  48.044 -27.242  1.00  0.00     0.122 C 
BRANCH  35  36
HETATM   36  C27 UNL     1     -11.795  47.751 -28.163  1.00  0.00     0.020 C 
BRANCH  36  37
HETATM   37  C28 UNL     1     -12.643  46.538 -27.751  1.00  0.00     0.002 C 
BRANCH  37  38
HETATM   38  C29 UNL     1     -13.826  46.211 -28.671  1.00  0.00     0.009 C 
BRANCH  38  39
HETATM   39  C30 UNL     1     -14.315  44.765 -28.588  1.00  0.00     0.103 C 
BRANCH  39  40
HETATM   40  C31 UNL     1     -15.670  44.626 -27.918  1.00  0.00     0.217 C 
HETATM   41  O7  UNL     1     -16.161  45.477 -27.185  1.00  0.00    -0.274 OA
HETATM   42  N2  UNL     1     -16.287  43.424 -28.198  1.00  0.00    -0.361 N 
HETATM   43  H45 UNL     1     -15.936  42.872 -28.971  1.00  0.00     0.162 HD
BRANCH  42  44
HETATM   44  C32 UNL     1     -17.626  43.132 -27.719  1.00  0.00     0.127 C 
BRANCH  44  45
HETATM   45  C33 UNL     1     -18.337  42.040 -28.527  1.00  0.00     0.058 C 
BRANCH  45  46
HETATM   46  C34 UNL     1     -19.242  42.600 -29.604  1.00  0.00    -0.054 A 
HETATM   47  C35 UNL     1     -18.682  43.276 -30.703  1.00  0.00     0.010 A 
HETATM   48  C36 UNL     1     -19.496  43.767 -31.725  1.00  0.00     0.040 A 
HETATM   49  C37 UNL     1     -20.867  43.582 -31.646  1.00  0.00     0.098 A 
HETATM   50  C38 UNL     1     -21.437  42.922 -30.559  1.00  0.00     0.099 A 
HETATM   51  C39 UNL     1     -20.633  42.427 -29.535  1.00  0.00     0.046 A 
BRANCH  49  52
HETATM   52  O8  UNL     1     -21.660  44.053 -32.651  1.00  0.00    -0.358 OA
HETATM   53  H52 UNL     1     -22.569  43.821 -32.376  1.00  0.00     0.217 HD
ENDBRANCH  49  52
BRANCH  50  54
HETATM   54  O9  UNL     1     -22.797  42.779 -30.548  1.00  0.00    -0.358 OA
HETATM   55  H53 UNL     1     -23.047  42.331 -29.723  1.00  0.00     0.217 HD
ENDBRANCH  50  54
ENDBRANCH  45  46
ENDBRANCH  44  45
ENDBRANCH  42  44
ENDBRANCH  39  40
ENDBRANCH  38  39
ENDBRANCH  37  38
ENDBRANCH  36  37
ENDBRANCH  35  36
ENDBRANCH  33  35
ENDBRANCH  30  31
ENDBRANCH  29  30
ENDBRANCH   1  29
TORSDOF 19
ENDMDL
MODEL 3
REMARK minimizedAffinity -8.76386642
REMARK CNNscore 0.511425972
REMARK CNNaffinity 7.18957567
REMARK  19 active torsions:
REMARK  status: ('A' for Active; 'I' for Inactive)
REMARK    1  A    between atoms: C19_20  and  O2_21 
REMARK    2  A    between atoms: C19_20  and  C20_22 
REMARK    3  A    between atoms: C20_22  and  C21_24 
REMARK    4  A    between atoms: C21_24  and  O4_25 
REMARK    5  A    between atoms: O4_25  and  C22_26 
REMARK    6  A    between atoms: C22_26  and  C23_28 
REMARK    7  A    between atoms: C23_28  and  C24_29 
REMARK    8  A    between atoms: C24_29  and  C25_30 
REMARK       I    between atoms: C25_30  and  N1_32 
REMARK    9  A    between atoms: N1_32  and  C26_33 
REMARK   10  A    between atoms: C26_33  and  C27_34 
REMARK   11  A    between atoms: C27_34  and  C28_35 
REMARK   12  A    between atoms: C28_35  and  C29_36 
REMARK   13  A    between atoms: C29_36  and  C30_37 
REMARK   14  A    between atoms: C30_37  and  C31_38 
REMARK       I    between atoms: C31_38  and  N2_40 
REMARK   15  A    between atoms: N2_40  and  C32_41 
REMARK   16  A    between atoms: C32_41  and  C33_42 
REMARK   17  A    between atoms: C33_42  and  C34_43 
REMARK   18  A    between atoms: C37_46  and  O8_47 
REMARK   19  A    between atoms: C38_48  and  O9_49 
ROOT
HETATM    1  C22 UNL     1      -4.797  48.094 -28.867  1.00  0.00     0.259 C 
HETATM    2  O5  UNL     1      -4.665  47.707 -30.020  1.00  0.00    -0.265 OA
ENDROOT
BRANCH   1   3
HETATM    3  O4  UNL     1      -3.822  48.696 -28.137  1.00  0.00    -0.314 OA
BRANCH   3   4
HETATM    4  C21 UNL     1      -3.602  50.074 -28.400  1.00  0.00     0.260 C 
BRANCH   4   5
HETATM    5  C20 UNL     1      -3.062  51.063 -27.353  1.00  0.00     0.185 C 
HETATM    6  O3  UNL     1      -2.607  52.151 -27.725  1.00  0.00    -0.292 OA
BRANCH   5   7
HETATM    7  C19 UNL     1      -3.232  50.721 -25.851  1.00  0.00     0.128 C 
HETATM    8  C14 UNL     1      -1.988  51.076 -24.973  1.00  0.00    -0.002 C 
HETATM    9  C13 UNL     1      -1.863  52.537 -24.499  1.00  0.00     0.013 C 
HETATM   10  C15 UNL     1      -0.679  50.671 -25.710  1.00  0.00     0.019 C 
HETATM   11  C16 UNL     1      -2.286  50.206 -23.718  1.00  0.00     0.002 C 
HETATM   12  C12 UNL     1      -0.792  52.705 -23.400  1.00  0.00     0.007 C 
HETATM   13  C11 UNL     1      -1.018  51.754 -22.202  1.00  0.00     0.002 C 
HETATM   14  C2  UNL     1       0.026  51.871 -21.040  1.00  0.00    -0.016 C 
HETATM   15  C10 UNL     1      -1.166  50.273 -22.672  1.00  0.00    -0.004 C 
HETATM   16  C1  UNL     1       1.411  51.321 -21.460  1.00  0.00     0.020 C 
HETATM   17  C3  UNL     1       0.184  53.343 -20.579  1.00  0.00     0.022 C 
HETATM   18  C7  UNL     1      -0.503  51.063 -19.852  1.00  0.00    -0.068 C 
HETATM   19  C4  UNL     1       1.046  53.495 -19.326  1.00  0.00     0.084 C 
HETATM   20  C5  UNL     1       0.692  52.503 -18.245  1.00  0.00     0.149 C 
HETATM   21  O1  UNL     1       1.127  52.614 -17.098  1.00  0.00    -0.293 OA
HETATM   22  C6  UNL     1      -0.178  51.353 -18.579  1.00  0.00     0.053 C 
HETATM   23  C8  UNL     1      -1.515  49.974 -20.135  1.00  0.00     0.035 C 
HETATM   24  C9  UNL     1      -1.343  49.296 -21.491  1.00  0.00     0.010 C 
HETATM   25  C17 UNL     1      -2.654  48.851 -24.309  1.00  0.00     0.009 C 
HETATM   26  C18 UNL     1      -3.388  49.186 -25.621  1.00  0.00     0.047 C 
BRANCH   7  27
HETATM   27  O2  UNL     1      -4.401  51.342 -25.314  1.00  0.00    -0.381 OA
HETATM   28  H27 UNL     1      -5.166  50.943 -25.775  1.00  0.00     0.211 HD
ENDBRANCH   7  27
ENDBRANCH   5   7
ENDBRANCH   4   5
ENDBRANCH   3   4
ENDBRANCH   1   3
BRANCH   1  29
HETATM   29  C23 UNL     1      -6.077  47.996 -28.079  1.00  0.00     0.120 C 
BRANCH  29  30
HETATM   30  C24 UNL     1      -7.103  47.212 -28.886  1.00  0.00     0.112 C 
BRANCH  30  31
HETATM   31  C25 UNL     1      -8.474  47.862 -28.841  1.00  0.00     0.217 C 
HETATM   32  O6  UNL     1      -8.856  48.547 -27.901  1.00  0.00    -0.274 OA
HETATM   33  N1  UNL     1      -9.211  47.661 -29.990  1.00  0.00    -0.361 N 
HETATM   34  H34 UNL     1      -8.930  46.909 -30.607  1.00  0.00     0.162 HD
BRANCH  33  35
HETATM   35  C26 UNL     1     -10.587  48.112 -30.074  1.00  0.00     0.122 C 
BRANCH  35  36
HETATM   36  C27 UNL     1     -11.562  47.121 -29.434  1.00  0.00     0.020 C 
BRANCH  36  37
HETATM   37  C28 UNL     1     -12.240  47.627 -28.153  1.00  0.00     0.002 C 
BRANCH  37  38
HETATM   38  C29 UNL     1     -12.838  46.543 -27.246  1.00  0.00     0.009 C 
BRANCH  38  39
HETATM   39  C30 UNL     1     -13.018  46.964 -25.787  1.00  0.00     0.103 C 
BRANCH  39  40
HETATM   40  C31 UNL     1     -14.459  46.887 -25.312  1.00  0.00     0.217 C 
HETATM   41  O7  UNL     1     -15.050  47.813 -24.769  1.00  0.00    -0.274 OA
HETATM   42  N2  UNL     1     -15.031  45.652 -25.532  1.00  0.00    -0.361 N 
HETATM   43  H45 UNL     1     -14.571  45.015 -26.171  1.00  0.00     0.162 HD
BRANCH  42  44
HETATM   44  C32 UNL     1     -16.428  45.401 -25.225  1.00  0.00     0.127 C 
BRANCH  44  45
HETATM   45  C33 UNL     1     -17.082  46.523 -24.408  1.00  0.00     0.058 C 
BRANCH  45  46
HETATM   46  C34 UNL     1     -17.291  46.148 -22.956  1.00  0.00    -0.054 A 
HETATM   47  C35 UNL     1     -16.211  46.211 -22.058  1.00  0.00     0.010 A 
HETATM   48  C36 UNL     1     -16.390  45.905 -20.708  1.00  0.00     0.040 A 
HETATM   49  C37 UNL     1     -17.649  45.539 -20.260  1.00  0.00     0.098 A 
HETATM   50  C38 UNL     1     -18.727  45.465 -21.139  1.00  0.00     0.099 A 
HETATM   51  C39 UNL     1     -18.559  45.768 -22.487  1.00  0.00     0.046 A 
BRANCH  49  52
HETATM   52  O8  UNL     1     -17.826  45.251 -18.937  1.00  0.00    -0.358 OA
HETATM   53  H52 UNL     1     -18.771  45.014 -18.862  1.00  0.00     0.217 HD
ENDBRANCH  49  52
BRANCH  50  54
HETATM   54  O9  UNL     1     -19.939  45.094 -20.625  1.00  0.00    -0.358 OA
HETATM   55  H53 UNL     1     -20.579  45.057 -21.355  1.00  0.00     0.217 HD
ENDBRANCH  50  54
ENDBRANCH  45  46
ENDBRANCH  44  45
ENDBRANCH  42  44
ENDBRANCH  39  40
ENDBRANCH  38  39
ENDBRANCH  37  38
ENDBRANCH  36  37
ENDBRANCH  35  36
ENDBRANCH  33  35
ENDBRANCH  30  31
ENDBRANCH  29  30
ENDBRANCH   1  29
TORSDOF 19
ENDMDL
MODEL 4
REMARK minimizedAffinity -9.19935703
REMARK CNNscore 0.349314243
REMARK CNNaffinity 7.16552496
REMARK  19 active torsions:
REMARK  status: ('A' for Active; 'I' for Inactive)
REMARK    1  A    between atoms: C19_20  and  O2_21 
REMARK    2  A    between atoms: C19_20  and  C20_22 
REMARK    3  A    between atoms: C20_22  and  C21_24 
REMARK    4  A    between atoms: C21_24  and  O4_25 
REMARK    5  A    between atoms: O4_25  and  C22_26 
REMARK    6  A    between atoms: C22_26  and  C23_28 
REMARK    7  A    between atoms: C23_28  and  C24_29 
REMARK    8  A    between atoms: C24_29  and  C25_30 
REMARK       I    between atoms: C25_30  and  N1_32 
REMARK    9  A    between atoms: N1_32  and  C26_33 
REMARK   10  A    between atoms: C26_33  and  C27_34 
REMARK   11  A    between atoms: C27_34  and  C28_35 
REMARK   12  A    between atoms: C28_35  and  C29_36 
REMARK   13  A    between atoms: C29_36  and  C30_37 
REMARK   14  A    between atoms: C30_37  and  C31_38 
REMARK       I    between atoms: C31_38  and  N2_40 
REMARK   15  A    between atoms: N2_40  and  C32_41 
REMARK   16  A    between atoms: C32_41  and  C33_42 
REMARK   17  A    between atoms: C33_42  and  C34_43 
REMARK   18  A    between atoms: C37_46  and  O8_47 
REMARK   19  A    between atoms: C38_48  and  O9_49 
ROOT
HETATM    1  C22 UNL     1       0.380  53.002 -20.538  1.00  0.00     0.259 C 
HETATM    2  O5  UNL     1      -0.783  52.623 -20.508  1.00  0.00    -0.265 OA
ENDROOT
BRANCH   1   3
HETATM    3  O4  UNL     1       1.007  53.487 -21.642  1.00  0.00    -0.314 OA
BRANCH   3   4
HETATM    4  C21 UNL     1       0.815  52.756 -22.845  1.00  0.00     0.260 C 
BRANCH   4   5
HETATM    5  C20 UNL     1       0.407  53.405 -24.178  1.00  0.00     0.185 C 
HETATM    6  O3  UNL     1       0.884  54.503 -24.488  1.00  0.00    -0.292 OA
BRANCH   5   7
HETATM    7  C19 UNL     1      -0.484  52.598 -25.155  1.00  0.00     0.128 C 
HETATM    8  C14 UNL     1      -1.491  51.633 -24.448  1.00  0.00    -0.002 C 
HETATM    9  C13 UNL     1      -2.811  52.248 -23.945  1.00  0.00     0.013 C 
HETATM   10  C15 UNL     1      -0.792  50.904 -23.264  1.00  0.00     0.019 C 
HETATM   11  C16 UNL     1      -1.841  50.690 -25.634  1.00  0.00     0.002 C 
HETATM   12  C12 UNL     1      -3.846  51.171 -23.555  1.00  0.00     0.007 C 
HETATM   13  C11 UNL     1      -4.108  50.160 -24.695  1.00  0.00     0.002 C 
HETATM   14  C2  UNL     1      -5.154  49.038 -24.376  1.00  0.00    -0.016 C 
HETATM   15  C10 UNL     1      -2.775  49.545 -25.225  1.00  0.00    -0.004 C 
HETATM   16  C1  UNL     1      -4.607  48.023 -23.343  1.00  0.00     0.020 C 
HETATM   17  C3  UNL     1      -6.476  49.646 -23.838  1.00  0.00     0.022 C 
HETATM   18  C7  UNL     1      -5.473  48.310 -25.685  1.00  0.00    -0.068 C 
HETATM   19  C4  UNL     1      -7.597  48.618 -23.687  1.00  0.00     0.084 C 
HETATM   20  C5  UNL     1      -7.731  47.714 -24.890  1.00  0.00     0.149 C 
HETATM   21  O1  UNL     1      -8.706  46.979 -25.039  1.00  0.00    -0.293 OA
HETATM   22  C6  UNL     1      -6.650  47.695 -25.901  1.00  0.00     0.053 C 
HETATM   23  C8  UNL     1      -4.457  48.393 -26.804  1.00  0.00     0.035 C 
HETATM   24  C9  UNL     1      -3.010  48.493 -26.329  1.00  0.00     0.010 C 
HETATM   25  C17 UNL     1      -0.479  50.347 -26.224  1.00  0.00     0.009 C 
HETATM   26  C18 UNL     1       0.358  51.628 -26.039  1.00  0.00     0.047 C 
BRANCH   7  27
HETATM   27  O2  UNL     1      -1.186  53.467 -26.045  1.00  0.00    -0.381 OA
HETATM   28  H27 UNL     1      -0.509  53.911 -26.593  1.00  0.00     0.211 HD
ENDBRANCH   7  27
ENDBRANCH   5   7
ENDBRANCH   4   5
ENDBRANCH   3   4
ENDBRANCH   1   3
BRANCH   1  29
HETATM   29  C23 UNL     1       1.299  53.023 -19.345  1.00  0.00     0.120 C 
BRANCH  29  30
HETATM   30  C24 UNL     1       0.465  53.013 -18.071  1.00  0.00     0.112 C 
BRANCH  30  31
HETATM   31  C25 UNL     1       1.010  52.035 -17.046  1.00  0.00     0.217 C 
HETATM   32  O6  UNL     1       0.935  50.819 -17.178  1.00  0.00    -0.274 OA
HETATM   33  N1  UNL     1       1.656  52.650 -15.994  1.00  0.00    -0.361 N 
HETATM   34  H34 UNL     1       1.476  53.635 -15.839  1.00  0.00     0.162 HD
BRANCH  33  35
HETATM   35  C26 UNL     1       2.136  51.876 -14.865  1.00  0.00     0.122 C 
BRANCH  35  36
HETATM   36  C27 UNL     1       0.995  51.380 -13.976  1.00  0.00     0.020 C 
BRANCH  36  37
HETATM   37  C28 UNL     1       0.230  52.487 -13.236  1.00  0.00     0.002 C 
BRANCH  37  38
HETATM   38  C29 UNL     1       0.233  52.388 -11.705  1.00  0.00     0.009 C 
BRANCH  38  39
HETATM   39  C30 UNL     1      -0.979  53.025 -11.025  1.00  0.00     0.103 C 
BRANCH  39  40
HETATM   40  C31 UNL     1      -0.616  54.177 -10.105  1.00  0.00     0.217 C 
HETATM   41  O7  UNL     1      -0.973  55.335 -10.287  1.00  0.00    -0.274 OA
HETATM   42  N2  UNL     1       0.183  53.790  -9.050  1.00  0.00    -0.361 N 
HETATM   43  H45 UNL     1       0.256  52.802  -8.839  1.00  0.00     0.162 HD
BRANCH  42  44
HETATM   44  C32 UNL     1       0.571  54.728  -8.012  1.00  0.00     0.127 C 
BRANCH  44  45
HETATM   45  C33 UNL     1       1.305  55.962  -8.551  1.00  0.00     0.058 C 
BRANCH  45  46
HETATM   46  C34 UNL     1       2.772  55.703  -8.820  1.00  0.00    -0.054 A 
HETATM   47  C35 UNL     1       3.208  55.462 -10.135  1.00  0.00     0.010 A 
HETATM   48  C36 UNL     1       4.562  55.258 -10.409  1.00  0.00     0.040 A 
HETATM   49  C37 UNL     1       5.475  55.295  -9.368  1.00  0.00     0.098 A 
HETATM   50  C38 UNL     1       5.058  55.525  -8.059  1.00  0.00     0.099 A 
HETATM   51  C39 UNL     1       3.710  55.731  -7.775  1.00  0.00     0.046 A 
BRANCH  49  52
HETATM   52  O8  UNL     1       6.800  55.107  -9.639  1.00  0.00    -0.358 OA
HETATM   53  H52 UNL     1       7.239  55.164  -8.767  1.00  0.00     0.217 HD
ENDBRANCH  49  52
BRANCH  50  54
HETATM   54  O9  UNL     1       6.016  55.546  -7.083  1.00  0.00    -0.358 OA
HETATM   55  H53 UNL     1       5.574  55.684  -6.228  1.00  0.00     0.217 HD
ENDBRANCH  50  54
ENDBRANCH  45  46
ENDBRANCH  44  45
ENDBRANCH  42  44
ENDBRANCH  39  40
ENDBRANCH  38  39
ENDBRANCH  37  38
ENDBRANCH  36  37
ENDBRANCH  35  36
ENDBRANCH  33  35
ENDBRANCH  30  31
ENDBRANCH  29  30
ENDBRANCH   1  29
TORSDOF 19
ENDMDL
MODEL 5
REMARK minimizedAffinity -9.79786968
REMARK CNNscore 0.332499325
REMARK CNNaffinity 7.01134348
REMARK  19 active torsions:
REMARK  status: ('A' for Active; 'I' for Inactive)
REMARK    1  A    between atoms: C19_20  and  O2_21 
REMARK    2  A    between atoms: C19_20  and  C20_22 
REMARK    3  A    between atoms: C20_22  and  C21_24 
REMARK    4  A    between atoms: C21_24  and  O4_25 
REMARK    5  A    between atoms: O4_25  and  C22_26 
REMARK    6  A    between atoms: C22_26  and  C23_28 
REMARK    7  A    between atoms: C23_28  and  C24_29 
REMARK    8  A    between atoms: C24_29  and  C25_30 
REMARK       I    between atoms: C25_30  and  N1_32 
REMARK    9  A    between atoms: N1_32  and  C26_33 
REMARK   10  A    between atoms: C26_33  and  C27_34 
REMARK   11  A    between atoms: C27_34  and  C28_35 
REMARK   12  A    between atoms: C28_35  and  C29_36 
REMARK   13  A    between atoms: C29_36  and  C30_37 
REMARK   14  A    between atoms: C30_37  and  C31_38 
REMARK       I    between atoms: C31_38  and  N2_40 
REMARK   15  A    between atoms: N2_40  and  C32_41 
REMARK   16  A    between atoms: C32_41  and  C33_42 
REMARK   17  A    between atoms: C33_42  and  C34_43 
REMARK   18  A    between atoms: C37_46  and  O8_47 
REMARK   19  A    between atoms: C38_48  and  O9_49 
ROOT
HETATM    1  C22 UNL     1       1.223  53.400 -20.645  1.00  0.00     0.259 C 
HETATM    2  O5  UNL     1       2.177  52.665 -20.424  1.00  0.00    -0.265 OA
ENDROOT
BRANCH   1   3
HETATM    3  O4  UNL     1       1.016  54.069 -21.810  1.00  0.00    -0.314 OA
BRANCH   3   4
HETATM    4  C21 UNL     1       0.981  53.279 -22.990  1.00  0.00     0.260 C 
BRANCH   4   5
HETATM    5  C20 UNL     1       0.502  53.808 -24.352  1.00  0.00     0.185 C 
HETATM    6  O3  UNL     1       0.895  54.912 -24.746  1.00  0.00    -0.292 OA
BRANCH   5   7
HETATM    7  C19 UNL     1      -0.349  52.877 -25.252  1.00  0.00     0.128 C 
HETATM    8  C14 UNL     1      -1.346  51.967 -24.463  1.00  0.00    -0.002 C 
HETATM    9  C13 UNL     1      -2.691  52.598 -24.053  1.00  0.00     0.013 C 
HETATM   10  C15 UNL     1      -0.654  51.388 -23.196  1.00  0.00     0.019 C 
HETATM   11  C16 UNL     1      -1.650  50.894 -25.548  1.00  0.00     0.002 C 
HETATM   12  C12 UNL     1      -3.707  51.542 -23.567  1.00  0.00     0.007 C 
HETATM   13  C11 UNL     1      -3.921  50.408 -24.596  1.00  0.00     0.002 C 
HETATM   14  C2  UNL     1      -4.946  49.299 -24.177  1.00  0.00    -0.016 C 
HETATM   15  C10 UNL     1      -2.563  49.774 -25.033  1.00  0.00    -0.004 C 
HETATM   16  C1  UNL     1      -4.395  48.415 -23.031  1.00  0.00     0.020 C 
HETATM   17  C3  UNL     1      -6.292  49.926 -23.730  1.00  0.00     0.022 C 
HETATM   18  C7  UNL     1      -5.221  48.427 -25.405  1.00  0.00    -0.068 C 
HETATM   19  C4  UNL     1      -7.391  48.891 -23.489  1.00  0.00     0.084 C 
HETATM   20  C5  UNL     1      -7.479  47.861 -24.590  1.00  0.00     0.149 C 
HETATM   21  O1  UNL     1      -8.433  47.088 -24.676  1.00  0.00    -0.293 OA
HETATM   22  C6  UNL     1      -6.378  47.762 -25.574  1.00  0.00     0.053 C 
HETATM   23  C8  UNL     1      -4.185  48.417 -26.509  1.00  0.00     0.035 C 
HETATM   24  C9  UNL     1      -2.750  48.605 -26.022  1.00  0.00     0.010 C 
HETATM   25  C17 UNL     1      -0.268  50.526 -26.073  1.00  0.00     0.009 C 
HETATM   26  C18 UNL     1       0.533  51.840 -26.012  1.00  0.00     0.047 C 
BRANCH   7  27
HETATM   27  O2  UNL     1      -1.054  53.627 -26.243  1.00  0.00    -0.381 OA
HETATM   28  H27 UNL     1      -0.377  54.028 -26.824  1.00  0.00     0.211 HD
ENDBRANCH   7  27
ENDBRANCH   5   7
ENDBRANCH   4   5
ENDBRANCH   3   4
ENDBRANCH   1   3
BRANCH   1  29
HETATM   29  C23 UNL     1       0.103  53.656 -19.672  1.00  0.00     0.120 C 
BRANCH  29  30
HETATM   30  C24 UNL     1      -0.635  52.351 -19.403  1.00  0.00     0.112 C 
BRANCH  30  31
HETATM   31  C25 UNL     1      -0.389  51.842 -17.994  1.00  0.00     0.217 C 
HETATM   32  O6  UNL     1      -1.136  51.048 -17.433  1.00  0.00    -0.274 OA
HETATM   33  N1  UNL     1       0.787  52.305 -17.443  1.00  0.00    -0.361 N 
HETATM   34  H34 UNL     1       1.219  53.119 -17.864  1.00  0.00     0.162 HD
BRANCH  33  35
HETATM   35  C26 UNL     1       1.123  52.013 -16.063  1.00  0.00     0.122 C 
BRANCH  35  36
HETATM   36  C27 UNL     1       1.208  50.510 -15.792  1.00  0.00     0.020 C 
BRANCH  36  37
HETATM   37  C28 UNL     1       1.696  50.138 -14.384  1.00  0.00     0.002 C 
BRANCH  37  38
HETATM   38  C29 UNL     1       2.544  51.201 -13.673  1.00  0.00     0.009 C 
BRANCH  38  39
HETATM   39  C30 UNL     1       2.216  51.389 -12.191  1.00  0.00     0.103 C 
BRANCH  39  40
HETATM   40  C31 UNL     1       1.561  52.723 -11.885  1.00  0.00     0.217 C 
HETATM   41  O7  UNL     1       0.429  53.028 -12.244  1.00  0.00    -0.274 OA
HETATM   42  N2  UNL     1       2.383  53.575 -11.178  1.00  0.00    -0.361 N 
HETATM   43  H45 UNL     1       3.205  53.189 -10.730  1.00  0.00     0.162 HD
BRANCH  42  44
HETATM   44  C32 UNL     1       1.913  54.869 -10.715  1.00  0.00     0.127 C 
BRANCH  44  45
HETATM   45  C33 UNL     1       2.941  55.992 -10.899  1.00  0.00     0.058 C 
BRANCH  45  46
HETATM   46  C34 UNL     1       4.033  55.966  -9.850  1.00  0.00    -0.054 A 
HETATM   47  C35 UNL     1       3.820  56.588  -8.607  1.00  0.00     0.010 A 
HETATM   48  C36 UNL     1       4.800  56.543  -7.613  1.00  0.00     0.040 A 
HETATM   49  C37 UNL     1       5.989  55.878  -7.866  1.00  0.00     0.098 A 
HETATM   50  C38 UNL     1       6.217  55.265  -9.095  1.00  0.00     0.099 A 
HETATM   51  C39 UNL     1       5.246  55.302 -10.093  1.00  0.00     0.046 A 
BRANCH  49  52
HETATM   52  O8  UNL     1       6.941  55.826  -6.889  1.00  0.00    -0.358 OA
HETATM   53  H52 UNL     1       7.679  55.326  -7.292  1.00  0.00     0.217 HD
ENDBRANCH  49  52
BRANCH  50  54
HETATM   54  O9  UNL     1       7.415  54.629  -9.273  1.00  0.00    -0.358 OA
HETATM   55  H53 UNL     1       7.441  54.280 -10.180  1.00  0.00     0.217 HD
ENDBRANCH  50  54
ENDBRANCH  45  46
ENDBRANCH  44  45
ENDBRANCH  42  44
ENDBRANCH  39  40
ENDBRANCH  38  39
ENDBRANCH  37  38
ENDBRANCH  36  37
ENDBRANCH  35  36
ENDBRANCH  33  35
ENDBRANCH  30  31
ENDBRANCH  29  30
ENDBRANCH   1  29
TORSDOF 19
ENDMDL
MODEL 6
REMARK minimizedAffinity -8.740942
REMARK CNNscore 0.317682862
REMARK CNNaffinity 7.16776848
REMARK  19 active torsions:
REMARK  status: ('A' for Active; 'I' for Inactive)
REMARK    1  A    between atoms: C19_20  and  O2_21 
REMARK    2  A    between atoms: C19_20  and  C20_22 
REMARK    3  A    between atoms: C20_22  and  C21_24 
REMARK    4  A    between atoms: C21_24  and  O4_25 
REMARK    5  A    between atoms: O4_25  and  C22_26 
REMARK    6  A    between atoms: C22_26  and  C23_28 
REMARK    7  A    between atoms: C23_28  and  C24_29 
REMARK    8  A    between atoms: C24_29  and  C25_30 
REMARK       I    between atoms: C25_30  and  N1_32 
REMARK    9  A    between atoms: N1_32  and  C26_33 
REMARK   10  A    between atoms: C26_33  and  C27_34 
REMARK   11  A    between atoms: C27_34  and  C28_35 
REMARK   12  A    between atoms: C28_35  and  C29_36 
REMARK   13  A    between atoms: C29_36  and  C30_37 
REMARK   14  A    between atoms: C30_37  and  C31_38 
REMARK       I    between atoms: C31_38  and  N2_40 
REMARK   15  A    between atoms: N2_40  and  C32_41 
REMARK   16  A    between atoms: C32_41  and  C33_42 
REMARK   17  A    between atoms: C33_42  and  C34_43 
REMARK   18  A    between atoms: C37_46  and  O8_47 
REMARK   19  A    between atoms: C38_48  and  O9_49 
ROOT
HETATM    1  C22 UNL     1       0.207  52.913 -22.415  1.00  0.00     0.259 C 
HETATM    2  O5  UNL     1      -0.802  52.290 -22.115  1.00  0.00    -0.265 OA
ENDROOT
BRANCH   1   3
HETATM    3  O4  UNL     1       0.511  53.333 -23.671  1.00  0.00    -0.314 OA
BRANCH   3   4
HETATM    4  C21 UNL     1      -0.554  53.322 -24.611  1.00  0.00     0.260 C 
BRANCH   4   5
HETATM    5  C20 UNL     1      -0.682  52.282 -25.737  1.00  0.00     0.185 C 
HETATM    6  O3  UNL     1       0.340  51.855 -26.287  1.00  0.00    -0.292 OA
BRANCH   5   7
HETATM    7  C19 UNL     1      -2.083  51.699 -26.052  1.00  0.00     0.128 C 
HETATM    8  C14 UNL     1      -2.666  50.797 -24.916  1.00  0.00    -0.002 C 
HETATM    9  C13 UNL     1      -3.364  51.513 -23.744  1.00  0.00     0.013 C 
HETATM   10  C15 UNL     1      -1.556  49.866 -24.349  1.00  0.00     0.019 C 
HETATM   11  C16 UNL     1      -3.764  50.035 -25.713  1.00  0.00     0.002 C 
HETATM   12  C12 UNL     1      -4.164  50.537 -22.856  1.00  0.00     0.007 C 
HETATM   13  C11 UNL     1      -5.175  49.692 -23.664  1.00  0.00     0.002 C 
HETATM   14  C2  UNL     1      -6.032  48.681 -22.829  1.00  0.00    -0.016 C 
HETATM   15  C10 UNL     1      -4.483  48.977 -24.867  1.00  0.00    -0.004 C 
HETATM   16  C1  UNL     1      -5.175  47.502 -22.305  1.00  0.00     0.020 C 
HETATM   17  C3  UNL     1      -6.712  49.387 -21.627  1.00  0.00     0.022 C 
HETATM   18  C7  UNL     1      -7.138  48.140 -23.740  1.00  0.00    -0.068 C 
HETATM   19  C4  UNL     1      -7.708  48.496 -20.887  1.00  0.00     0.084 C 
HETATM   20  C5  UNL     1      -8.633  47.748 -21.817  1.00  0.00     0.149 C 
HETATM   21  O1  UNL     1      -9.629  47.158 -21.401  1.00  0.00    -0.293 OA
HETATM   22  C6  UNL     1      -8.317  47.702 -23.263  1.00  0.00     0.053 C 
HETATM   23  C8  UNL     1      -6.919  48.215 -25.236  1.00  0.00     0.035 C 
HETATM   24  C9  UNL     1      -5.459  48.085 -25.662  1.00  0.00     0.010 C 
HETATM   25  C17 UNL     1      -3.038  49.591 -26.976  1.00  0.00     0.009 C 
HETATM   26  C18 UNL     1      -2.046  50.731 -27.274  1.00  0.00     0.047 C 
BRANCH   7  27
HETATM   27  O2  UNL     1      -3.010  52.738 -26.373  1.00  0.00    -0.381 OA
HETATM   28  H27 UNL     1      -2.690  53.150 -27.200  1.00  0.00     0.211 HD
ENDBRANCH   7  27
ENDBRANCH   5   7
ENDBRANCH   4   5
ENDBRANCH   3   4
ENDBRANCH   1   3
BRANCH   1  29
HETATM   29  C23 UNL     1       1.264  53.345 -21.433  1.00  0.00     0.120 C 
BRANCH  29  30
HETATM   30  C24 UNL     1       0.592  53.996 -20.231  1.00  0.00     0.112 C 
BRANCH  30  31
HETATM   31  C25 UNL     1       0.629  53.098 -19.007  1.00  0.00     0.217 C 
HETATM   32  O6  UNL     1      -0.268  52.310 -18.731  1.00  0.00    -0.274 OA
HETATM   33  N1  UNL     1       1.798  53.208 -18.283  1.00  0.00    -0.361 N 
HETATM   34  H34 UNL     1       2.374  54.028 -18.436  1.00  0.00     0.162 HD
BRANCH  33  35
HETATM   35  C26 UNL     1       1.956  52.511 -17.021  1.00  0.00     0.122 C 
BRANCH  35  36
HETATM   36  C27 UNL     1       3.355  52.691 -16.430  1.00  0.00     0.020 C 
BRANCH  36  37
HETATM   37  C28 UNL     1       3.609  51.912 -15.131  1.00  0.00     0.002 C 
BRANCH  37  38
HETATM   38  C29 UNL     1       2.366  51.301 -14.470  1.00  0.00     0.009 C 
BRANCH  38  39
HETATM   39  C30 UNL     1       2.574  50.848 -13.025  1.00  0.00     0.103 C 
BRANCH  39  40
HETATM   40  C31 UNL     1       2.215  51.912 -12.003  1.00  0.00     0.217 C 
HETATM   41  O7  UNL     1       1.168  52.549 -12.018  1.00  0.00    -0.274 OA
HETATM   42  N2  UNL     1       3.205  52.109 -11.064  1.00  0.00    -0.361 N 
HETATM   43  H45 UNL     1       3.933  51.410 -10.978  1.00  0.00     0.162 HD
BRANCH  42  44
HETATM   44  C32 UNL     1       3.021  53.025  -9.952  1.00  0.00     0.127 C 
BRANCH  44  45
HETATM   45  C33 UNL     1       2.747  54.469 -10.393  1.00  0.00     0.058 C 
BRANCH  45  46
HETATM   46  C34 UNL     1       1.880  55.228  -9.411  1.00  0.00    -0.054 A 
HETATM   47  C35 UNL     1       0.481  55.092  -9.466  1.00  0.00     0.010 A 
HETATM   48  C36 UNL     1      -0.334  55.754  -8.547  1.00  0.00     0.040 A 
HETATM   49  C37 UNL     1       0.251  56.551  -7.575  1.00  0.00     0.098 A 
HETATM   50  C38 UNL     1       1.635  56.702  -7.513  1.00  0.00     0.099 A 
HETATM   51  C39 UNL     1       2.457  56.044  -8.425  1.00  0.00     0.046 A 
BRANCH  49  52
HETATM   52  O8  UNL     1      -0.546  57.189  -6.670  1.00  0.00    -0.358 OA
HETATM   53  H52 UNL     1       0.075  57.688  -6.104  1.00  0.00     0.217 HD
ENDBRANCH  49  52
BRANCH  50  54
HETATM   54  O9  UNL     1       2.140  57.505  -6.529  1.00  0.00    -0.358 OA
HETATM   55  H53 UNL     1       3.106  57.537  -6.631  1.00  0.00     0.217 HD
ENDBRANCH  50  54
ENDBRANCH  45  46
ENDBRANCH  44  45
ENDBRANCH  42  44
ENDBRANCH  39  40
ENDBRANCH  38  39
ENDBRANCH  37  38
ENDBRANCH  36  37
ENDBRANCH  35  36
ENDBRANCH  33  35
ENDBRANCH  30  31
ENDBRANCH  29  30
ENDBRANCH   1  29
TORSDOF 19
ENDMDL
MODEL 7
REMARK minimizedAffinity -8.18828583
REMARK CNNscore 0.307925165
REMARK CNNaffinity 6.6850605
REMARK  19 active torsions:
REMARK  status: ('A' for Active; 'I' for Inactive)
REMARK    1  A    between atoms: C19_20  and  O2_21 
REMARK    2  A    between atoms: C19_20  and  C20_22 
REMARK    3  A    between atoms: C20_22  and  C21_24 
REMARK    4  A    between atoms: C21_24  and  O4_25 
REMARK    5  A    between atoms: O4_25  and  C22_26 
REMARK    6  A    between atoms: C22_26  and  C23_28 
REMARK    7  A    between atoms: C23_28  and  C24_29 
REMARK    8  A    between atoms: C24_29  and  C25_30 
REMARK       I    between atoms: C25_30  and  N1_32 
REMARK    9  A    between atoms: N1_32  and  C26_33 
REMARK   10  A    between atoms: C26_33  and  C27_34 
REMARK   11  A    between atoms: C27_34  and  C28_35 
REMARK   12  A    between atoms: C28_35  and  C29_36 
REMARK   13  A    between atoms: C29_36  and  C30_37 
REMARK   14  A    between atoms: C30_37  and  C31_38 
REMARK       I    between atoms: C31_38  and  N2_40 
REMARK   15  A    between atoms: N2_40  and  C32_41 
REMARK   16  A    between atoms: C32_41  and  C33_42 
REMARK   17  A    between atoms: C33_42  and  C34_43 
REMARK   18  A    between atoms: C37_46  and  O8_47 
REMARK   19  A    between atoms: C38_48  and  O9_49 
ROOT
HETATM    1  C22 UNL     1      -6.962  47.517 -28.955  1.00  0.00     0.259 C 
HETATM    2  O5  UNL     1      -6.790  46.338 -29.233  1.00  0.00    -0.265 OA
ENDROOT
BRANCH   1   3
HETATM    3  O4  UNL     1      -5.969  48.437 -28.835  1.00  0.00    -0.314 OA
BRANCH   3   4
HETATM    4  C21 UNL     1      -4.868  48.068 -28.016  1.00  0.00     0.260 C 
BRANCH   4   5
HETATM    5  C20 UNL     1      -4.781  48.389 -26.515  1.00  0.00     0.185 C 
HETATM    6  O3  UNL     1      -5.649  47.951 -25.750  1.00  0.00    -0.292 OA
BRANCH   5   7
HETATM    7  C19 UNL     1      -3.532  49.139 -25.987  1.00  0.00     0.128 C 
HETATM    8  C14 UNL     1      -3.584  49.464 -24.459  1.00  0.00    -0.002 C 
HETATM    9  C13 UNL     1      -3.167  48.340 -23.491  1.00  0.00     0.013 C 
HETATM   10  C15 UNL     1      -5.004  49.967 -24.067  1.00  0.00     0.019 C 
HETATM   11  C16 UNL     1      -2.493  50.570 -24.381  1.00  0.00     0.002 C 
HETATM   12  C12 UNL     1      -2.956  48.857 -22.052  1.00  0.00     0.007 C 
HETATM   13  C11 UNL     1      -1.961  50.038 -21.986  1.00  0.00     0.002 C 
HETATM   14  C2  UNL     1      -1.688  50.614 -20.554  1.00  0.00    -0.016 C 
HETATM   15  C10 UNL     1      -2.362  51.175 -22.977  1.00  0.00    -0.004 C 
HETATM   16  C1  UNL     1      -2.919  51.373 -20.000  1.00  0.00     0.020 C 
HETATM   17  C3  UNL     1      -1.300  49.486 -19.565  1.00  0.00     0.022 C 
HETATM   18  C7  UNL     1      -0.501  51.576 -20.655  1.00  0.00    -0.068 C 
HETATM   19  C4  UNL     1      -0.842  50.006 -18.203  1.00  0.00     0.084 C 
HETATM   20  C5  UNL     1       0.138  51.150 -18.311  1.00  0.00     0.149 C 
HETATM   21  O1  UNL     1       0.775  51.549 -17.336  1.00  0.00    -0.293 OA
HETATM   22  C6  UNL     1       0.318  51.824 -19.617  1.00  0.00     0.053 C 
HETATM   23  C8  UNL     1      -0.189  52.172 -22.011  1.00  0.00     0.035 C 
HETATM   24  C9  UNL     1      -1.413  52.389 -22.896  1.00  0.00     0.010 C 
HETATM   25  C17 UNL     1      -2.843  51.491 -25.543  1.00  0.00     0.009 C 
HETATM   26  C18 UNL     1      -3.386  50.549 -26.634  1.00  0.00     0.047 C 
BRANCH   7  27
HETATM   27  O2  UNL     1      -2.336  48.417 -26.290  1.00  0.00    -0.381 OA
HETATM   28  H27 UNL     1      -2.259  48.404 -27.265  1.00  0.00     0.211 HD
ENDBRANCH   7  27
ENDBRANCH   5   7
ENDBRANCH   4   5
ENDBRANCH   3   4
ENDBRANCH   1   3
BRANCH   1  29
HETATM   29  C23 UNL     1      -8.310  48.150 -28.730  1.00  0.00     0.120 C 
BRANCH  29  30
HETATM   30  C24 UNL     1      -8.779  47.840 -27.315  1.00  0.00     0.112 C 
BRANCH  30  31
HETATM   31  C25 UNL     1     -10.269  48.081 -27.147  1.00  0.00     0.217 C 
HETATM   32  O6  UNL     1     -10.737  48.742 -26.227  1.00  0.00    -0.274 OA
HETATM   33  N1  UNL     1     -11.028  47.544 -28.166  1.00  0.00    -0.361 N 
HETATM   34  H34 UNL     1     -10.603  46.831 -28.747  1.00  0.00     0.162 HD
BRANCH  33  35
HETATM   35  C26 UNL     1     -12.476  47.579 -28.107  1.00  0.00     0.122 C 
BRANCH  35  36
HETATM   36  C27 UNL     1     -13.108  46.278 -28.606  1.00  0.00     0.020 C 
BRANCH  36  37
HETATM   37  C28 UNL     1     -14.470  45.944 -27.979  1.00  0.00     0.002 C 
BRANCH  37  38
HETATM   38  C29 UNL     1     -14.443  45.578 -26.489  1.00  0.00     0.009 C 
BRANCH  38  39
HETATM   39  C30 UNL     1     -14.971  46.669 -25.557  1.00  0.00     0.103 C 
BRANCH  39  40
HETATM   40  C31 UNL     1     -16.342  46.358 -24.983  1.00  0.00     0.217 C 
HETATM   41  O7  UNL     1     -17.273  45.908 -25.642  1.00  0.00    -0.274 OA
HETATM   42  N2  UNL     1     -16.444  46.662 -23.642  1.00  0.00    -0.361 N 
HETATM   43  H45 UNL     1     -15.592  46.819 -23.118  1.00  0.00     0.162 HD
BRANCH  42  44
HETATM   44  C32 UNL     1     -17.649  46.361 -22.889  1.00  0.00     0.127 C 
BRANCH  44  45
HETATM   45  C33 UNL     1     -17.532  45.092 -22.035  1.00  0.00     0.058 C 
BRANCH  45  46
HETATM   46  C34 UNL     1     -18.343  45.165 -20.759  1.00  0.00    -0.054 A 
HETATM   47  C35 UNL     1     -18.752  46.416 -20.264  1.00  0.00     0.010 A 
HETATM   48  C36 UNL     1     -19.531  46.503 -19.109  1.00  0.00     0.040 A 
HETATM   49  C37 UNL     1     -19.899  45.339 -18.452  1.00  0.00     0.098 A 
HETATM   50  C38 UNL     1     -19.495  44.093 -18.926  1.00  0.00     0.099 A 
HETATM   51  C39 UNL     1     -18.718  43.996 -20.078  1.00  0.00     0.046 A 
BRANCH  49  52
HETATM   52  O8  UNL     1     -20.670  45.425 -17.329  1.00  0.00    -0.358 OA
HETATM   53  H52 UNL     1     -20.789  44.498 -17.042  1.00  0.00     0.217 HD
ENDBRANCH  49  52
BRANCH  50  54
HETATM   54  O9  UNL     1     -19.894  42.989 -18.225  1.00  0.00    -0.358 OA
HETATM   55  H53 UNL     1     -19.513  42.204 -18.654  1.00  0.00     0.217 HD
ENDBRANCH  50  54
ENDBRANCH  45  46
ENDBRANCH  44  45
ENDBRANCH  42  44
ENDBRANCH  39  40
ENDBRANCH  38  39
ENDBRANCH  37  38
ENDBRANCH  36  37
ENDBRANCH  35  36
ENDBRANCH  33  35
ENDBRANCH  30  31
ENDBRANCH  29  30
ENDBRANCH   1  29
TORSDOF 19
ENDMDL
MODEL 8
REMARK minimizedAffinity -9.19652367
REMARK CNNscore 0.300023913
REMARK CNNaffinity 6.45087576
REMARK  19 active torsions:
REMARK  status: ('A' for Active; 'I' for Inactive)
REMARK    1  A    between atoms: C19_20  and  O2_21 
REMARK    2  A    between atoms: C19_20  and  C20_22 
REMARK    3  A    between atoms: C20_22  and  C21_24 
REMARK    4  A    between atoms: C21_24  and  O4_25 
REMARK    5  A    between atoms: O4_25  and  C22_26 
REMARK    6  A    between atoms: C22_26  and  C23_28 
REMARK    7  A    between atoms: C23_28  and  C24_29 
REMARK    8  A    between atoms: C24_29  and  C25_30 
REMARK       I    between atoms: C25_30  and  N1_32 
REMARK    9  A    between atoms: N1_32  and  C26_33 
REMARK   10  A    between atoms: C26_33  and  C27_34 
REMARK   11  A    between atoms: C27_34  and  C28_35 
REMARK   12  A    between atoms: C28_35  and  C29_36 
REMARK   13  A    between atoms: C29_36  and  C30_37 
REMARK   14  A    between atoms: C30_37  and  C31_38 
REMARK       I    between atoms: C31_38  and  N2_40 
REMARK   15  A    between atoms: N2_40  and  C32_41 
REMARK   16  A    between atoms: C32_41  and  C33_42 
REMARK   17  A    between atoms: C33_42  and  C34_43 
REMARK   18  A    between atoms: C37_46  and  O8_47 
REMARK   19  A    between atoms: C38_48  and  O9_49 
ROOT
HETATM    1  C22 UNL     1      -8.576  48.014 -26.913  1.00  0.00     0.259 C 
HETATM    2  O5  UNL     1      -8.945  48.707 -27.852  1.00  0.00    -0.265 OA
ENDROOT
BRANCH   1   3
HETATM    3  O4  UNL     1      -9.385  47.570 -25.915  1.00  0.00    -0.314 OA
BRANCH   3   4
HETATM    4  C21 UNL     1     -10.135  46.396 -26.191  1.00  0.00     0.260 C 
BRANCH   4   5
HETATM    5  C20 UNL     1     -11.139  46.282 -27.350  1.00  0.00     0.185 C 
HETATM    6  O3  UNL     1     -10.785  45.747 -28.408  1.00  0.00    -0.292 OA
BRANCH   5   7
HETATM    7  C19 UNL     1     -12.606  46.719 -27.108  1.00  0.00     0.128 C 
HETATM    8  C14 UNL     1     -13.260  46.076 -25.842  1.00  0.00    -0.002 C 
HETATM    9  C13 UNL     1     -12.965  46.748 -24.487  1.00  0.00     0.013 C 
HETATM   10  C15 UNL     1     -12.881  44.569 -25.751  1.00  0.00     0.019 C 
HETATM   11  C16 UNL     1     -14.763  46.319 -26.161  1.00  0.00     0.002 C 
HETATM   12  C12 UNL     1     -13.894  46.235 -23.366  1.00  0.00     0.007 C 
HETATM   13  C11 UNL     1     -15.391  46.364 -23.731  1.00  0.00     0.002 C 
HETATM   14  C2  UNL     1     -16.399  45.870 -22.638  1.00  0.00    -0.016 C 
HETATM   15  C10 UNL     1     -15.698  45.704 -25.112  1.00  0.00    -0.004 C 
HETATM   16  C1  UNL     1     -16.372  44.329 -22.492  1.00  0.00     0.020 C 
HETATM   17  C3  UNL     1     -16.089  46.515 -21.263  1.00  0.00     0.022 C 
HETATM   18  C7  UNL     1     -17.802  46.316 -23.059  1.00  0.00    -0.068 C 
HETATM   19  C4  UNL     1     -17.149  46.218 -20.203  1.00  0.00     0.084 C 
HETATM   20  C5  UNL     1     -18.559  46.403 -20.713  1.00  0.00     0.149 C 
HETATM   21  O1  UNL     1     -19.524  46.421 -19.950  1.00  0.00    -0.293 OA
HETATM   22  C6  UNL     1     -18.785  46.542 -22.169  1.00  0.00     0.053 C 
HETATM   23  C8  UNL     1     -18.037  46.617 -24.524  1.00  0.00     0.035 C 
HETATM   24  C9  UNL     1     -17.195  45.774 -25.479  1.00  0.00     0.010 C 
HETATM   25  C17 UNL     1     -14.892  45.864 -27.610  1.00  0.00     0.009 C 
HETATM   26  C18 UNL     1     -13.548  46.248 -28.258  1.00  0.00     0.047 C 
BRANCH   7  27
HETATM   27  O2  UNL     1     -12.711  48.142 -27.041  1.00  0.00    -0.381 OA
HETATM   28  H27 UNL     1     -12.465  48.482 -27.925  1.00  0.00     0.211 HD
ENDBRANCH   7  27
ENDBRANCH   5   7
ENDBRANCH   4   5
ENDBRANCH   3   4
ENDBRANCH   1   3
BRANCH   1  29
HETATM   29  C23 UNL     1      -7.169  47.512 -26.728  1.00  0.00     0.120 C 
BRANCH  29  30
HETATM   30  C24 UNL     1      -6.455  47.516 -28.073  1.00  0.00     0.112 C 
BRANCH  30  31
HETATM   31  C25 UNL     1      -5.047  48.073 -27.965  1.00  0.00     0.217 C 
HETATM   32  O6  UNL     1      -4.215  47.958 -28.857  1.00  0.00    -0.274 OA
HETATM   33  N1  UNL     1      -4.825  48.776 -26.799  1.00  0.00    -0.361 N 
HETATM   34  H34 UNL     1      -5.467  48.630 -26.029  1.00  0.00     0.162 HD
BRANCH  33  35
HETATM   35  C26 UNL     1      -3.503  49.277 -26.477  1.00  0.00     0.122 C 
BRANCH  35  36
HETATM   36  C27 UNL     1      -3.316  50.734 -26.904  1.00  0.00     0.020 C 
BRANCH  36  37
HETATM   37  C28 UNL     1      -3.064  51.714 -25.749  1.00  0.00     0.002 C 
BRANCH  37  38
HETATM   38  C29 UNL     1      -4.243  51.929 -24.791  1.00  0.00     0.009 C 
BRANCH  38  39
HETATM   39  C30 UNL     1      -3.971  51.515 -23.345  1.00  0.00     0.103 C 
BRANCH  39  40
HETATM   40  C31 UNL     1      -2.550  51.030 -23.115  1.00  0.00     0.217 C 
HETATM   41  O7  UNL     1      -2.181  49.878 -23.310  1.00  0.00    -0.274 OA
HETATM   42  N2  UNL     1      -1.717  52.019 -22.637  1.00  0.00    -0.361 N 
HETATM   43  H45 UNL     1      -2.022  52.982 -22.708  1.00  0.00     0.162 HD
BRANCH  42  44
HETATM   44  C32 UNL     1      -0.300  51.779 -22.431  1.00  0.00     0.127 C 
BRANCH  44  45
HETATM   45  C33 UNL     1       0.600  52.796 -23.145  1.00  0.00     0.058 C 
BRANCH  45  46
HETATM   46  C34 UNL     1       0.466  52.744 -24.652  1.00  0.00    -0.054 A 
HETATM   47  C35 UNL     1       0.670  51.529 -25.329  1.00  0.00     0.010 A 
HETATM   48  C36 UNL     1       0.514  51.452 -26.714  1.00  0.00     0.040 A 
HETATM   49  C37 UNL     1       0.155  52.590 -27.418  1.00  0.00     0.098 A 
HETATM   50  C38 UNL     1      -0.043  53.803 -26.762  1.00  0.00     0.099 A 
HETATM   51  C39 UNL     1       0.109  53.890 -25.381  1.00  0.00     0.046 A 
BRANCH  49  52
HETATM   52  O8  UNL     1      -0.008  52.511 -28.771  1.00  0.00    -0.358 OA
HETATM   53  H52 UNL     1      -0.245  53.419 -29.043  1.00  0.00     0.217 HD
ENDBRANCH  49  52
BRANCH  50  54
HETATM   54  O9  UNL     1      -0.394  54.884 -27.523  1.00  0.00    -0.358 OA
HETATM   55  H53 UNL     1      -0.465  55.656 -26.937  1.00  0.00     0.217 HD
ENDBRANCH  50  54
ENDBRANCH  45  46
ENDBRANCH  44  45
ENDBRANCH  42  44
ENDBRANCH  39  40
ENDBRANCH  38  39
ENDBRANCH  37  38
ENDBRANCH  36  37
ENDBRANCH  35  36
ENDBRANCH  33  35
ENDBRANCH  30  31
ENDBRANCH  29  30
ENDBRANCH   1  29
TORSDOF 19
ENDMDL
MODEL 9
REMARK minimizedAffinity -8.35824108
REMARK CNNscore 0.295400828
REMARK CNNaffinity 7.04509115
REMARK  19 active torsions:
REMARK  status: ('A' for Active; 'I' for Inactive)
REMARK    1  A    between atoms: C19_20  and  O2_21 
REMARK    2  A    between atoms: C19_20  and  C20_22 
REMARK    3  A    between atoms: C20_22  and  C21_24 
REMARK    4  A    between atoms: C21_24  and  O4_25 
REMARK    5  A    between atoms: O4_25  and  C22_26 
REMARK    6  A    between atoms: C22_26  and  C23_28 
REMARK    7  A    between atoms: C23_28  and  C24_29 
REMARK    8  A    between atoms: C24_29  and  C25_30 
REMARK       I    between atoms: C25_30  and  N1_32 
REMARK    9  A    between atoms: N1_32  and  C26_33 
REMARK   10  A    between atoms: C26_33  and  C27_34 
REMARK   11  A    between atoms: C27_34  and  C28_35 
REMARK   12  A    between atoms: C28_35  and  C29_36 
REMARK   13  A    between atoms: C29_36  and  C30_37 
REMARK   14  A    between atoms: C30_37  and  C31_38 
REMARK       I    between atoms: C31_38  and  N2_40 
REMARK   15  A    between atoms: N2_40  and  C32_41 
REMARK   16  A    between atoms: C32_41  and  C33_42 
REMARK   17  A    between atoms: C33_42  and  C34_43 
REMARK   18  A    between atoms: C37_46  and  O8_47 
REMARK   19  A    between atoms: C38_48  and  O9_49 
ROOT
HETATM    1  C22 UNL     1       0.732  51.822 -16.289  1.00  0.00     0.259 C 
HETATM    2  O5  UNL     1       1.214  52.945 -16.238  1.00  0.00    -0.265 OA
ENDROOT
BRANCH   1   3
HETATM    3  O4  UNL     1       0.338  51.099 -15.207  1.00  0.00    -0.314 OA
BRANCH   3   4
HETATM    4  C21 UNL     1       1.377  50.559 -14.403  1.00  0.00     0.260 C 
BRANCH   4   5
HETATM    5  C20 UNL     1       1.409  50.672 -12.869  1.00  0.00     0.185 C 
HETATM    6  O3  UNL     1       2.013  49.816 -12.211  1.00  0.00    -0.292 OA
BRANCH   5   7
HETATM    7  C19 UNL     1       0.800  51.932 -12.204  1.00  0.00     0.128 C 
HETATM    8  C14 UNL     1       1.591  52.437 -10.954  1.00  0.00    -0.002 C 
HETATM    9  C13 UNL     1       2.823  53.323 -11.219  1.00  0.00     0.013 C 
HETATM   10  C15 UNL     1       2.017  51.231 -10.068  1.00  0.00     0.019 C 
HETATM   11  C16 UNL     1       0.507  53.336 -10.294  1.00  0.00     0.002 C 
HETATM   12  C12 UNL     1       3.333  54.012  -9.935  1.00  0.00     0.007 C 
HETATM   13  C11 UNL     1       2.226  54.811  -9.211  1.00  0.00     0.002 C 
HETATM   14  C2  UNL     1       2.669  55.547  -7.900  1.00  0.00    -0.016 C 
HETATM   15  C10 UNL     1       0.964  53.929  -8.955  1.00  0.00    -0.004 C 
HETATM   16  C1  UNL     1       2.962  54.546  -6.755  1.00  0.00     0.020 C 
HETATM   17  C3  UNL     1       3.930  56.415  -8.149  1.00  0.00     0.022 C 
HETATM   18  C7  UNL     1       1.532  56.482  -7.480  1.00  0.00    -0.068 C 
HETATM   19  C4  UNL     1       4.298  57.301  -6.959  1.00  0.00     0.084 C 
HETATM   20  C5  UNL     1       3.109  58.023  -6.373  1.00  0.00     0.149 C 
HETATM   21  O1  UNL     1       3.244  58.935  -5.558  1.00  0.00    -0.293 OA
HETATM   22  C6  UNL     1       1.745  57.603  -6.769  1.00  0.00     0.053 C 
HETATM   23  C8  UNL     1       0.141  56.174  -7.991  1.00  0.00     0.035 C 
HETATM   24  C9  UNL     1      -0.139  54.686  -8.187  1.00  0.00     0.010 C 
HETATM   25  C17 UNL     1      -0.739  52.460 -10.317  1.00  0.00     0.009 C 
HETATM   26  C18 UNL     1      -0.619  51.651 -11.623  1.00  0.00     0.047 C 
BRANCH   7  27
HETATM   27  O2  UNL     1       0.658  52.992 -13.151  1.00  0.00    -0.381 OA
HETATM   28  H27 UNL     1       0.006  52.688 -13.815  1.00  0.00     0.211 HD
ENDBRANCH   7  27
ENDBRANCH   5   7
ENDBRANCH   4   5
ENDBRANCH   3   4
ENDBRANCH   1   3
BRANCH   1  29
HETATM   29  C23 UNL     1       0.464  51.068 -17.565  1.00  0.00     0.120 C 
BRANCH  29  30
HETATM   30  C24 UNL     1      -0.373  51.938 -18.494  1.00  0.00     0.112 C 
BRANCH  30  31
HETATM   31  C25 UNL     1      -1.750  51.346 -18.735  1.00  0.00     0.217 C 
HETATM   32  O6  UNL     1      -2.784  51.992 -18.613  1.00  0.00    -0.274 OA
HETATM   33  N1  UNL     1      -1.714  50.037 -19.171  1.00  0.00    -0.361 N 
HETATM   34  H34 UNL     1      -0.859  49.513 -19.025  1.00  0.00     0.162 HD
BRANCH  33  35
HETATM   35  C26 UNL     1      -2.938  49.279 -19.339  1.00  0.00     0.122 C 
BRANCH  35  36
HETATM   36  C27 UNL     1      -3.440  49.302 -20.784  1.00  0.00     0.020 C 
BRANCH  36  37
HETATM   37  C28 UNL     1      -4.820  49.951 -20.973  1.00  0.00     0.002 C 
BRANCH  37  38
HETATM   38  C29 UNL     1      -4.952  50.890 -22.179  1.00  0.00     0.009 C 
BRANCH  38  39
HETATM   39  C30 UNL     1      -5.784  50.329 -23.333  1.00  0.00     0.103 C 
BRANCH  39  40
HETATM   40  C31 UNL     1      -4.994  49.418 -24.256  1.00  0.00     0.217 C 
HETATM   41  O7  UNL     1      -4.786  48.231 -24.032  1.00  0.00    -0.274 OA
HETATM   42  N2  UNL     1      -4.508  50.073 -25.368  1.00  0.00    -0.361 N 
HETATM   43  H45 UNL     1      -4.894  50.980 -25.600  1.00  0.00     0.162 HD
BRANCH  42  44
HETATM   44  C32 UNL     1      -3.797  49.360 -26.415  1.00  0.00     0.127 C 
BRANCH  44  45
HETATM   45  C33 UNL     1      -2.281  49.299 -26.188  1.00  0.00     0.058 C 
BRANCH  45  46
HETATM   46  C34 UNL     1      -1.610  50.648 -26.337  1.00  0.00    -0.054 A 
HETATM   47  C35 UNL     1      -0.444  50.932 -25.602  1.00  0.00     0.010 A 
HETATM   48  C36 UNL     1       0.211  52.155 -25.753  1.00  0.00     0.040 A 
HETATM   49  C37 UNL     1      -0.301  53.091 -26.637  1.00  0.00     0.098 A 
HETATM   50  C38 UNL     1      -1.459  52.828 -27.366  1.00  0.00     0.099 A 
HETATM   51  C39 UNL     1      -2.119  51.610 -27.223  1.00  0.00     0.046 A 
BRANCH  49  52
HETATM   52  O8  UNL     1       0.346  54.283 -26.792  1.00  0.00    -0.358 OA
HETATM   53  H52 UNL     1      -0.194  54.773 -27.443  1.00  0.00     0.217 HD
ENDBRANCH  49  52
BRANCH  50  54
HETATM   54  O9  UNL     1      -1.907  53.800 -28.217  1.00  0.00    -0.358 OA
HETATM   55  H53 UNL     1      -2.731  53.488 -28.627  1.00  0.00     0.217 HD
ENDBRANCH  50  54
ENDBRANCH  45  46
ENDBRANCH  44  45
ENDBRANCH  42  44
ENDBRANCH  39  40
ENDBRANCH  38  39
ENDBRANCH  37  38
ENDBRANCH  36  37
ENDBRANCH  35  36
ENDBRANCH  33  35
ENDBRANCH  30  31
ENDBRANCH  29  30
ENDBRANCH   1  29
TORSDOF 19
ENDMDL
