MODEL 1
REMARK minimizedAffinity -7.34880161
REMARK CNNscore 0.532222688
REMARK CNNaffinity 6.75121737
REMARK  11 active torsions:
REMARK  status: ('A' for Active; 'I' for Inactive)
REMARK    1  A    between atoms: C19_20  and  O2_21 
REMARK    2  A    between atoms: C19_20  and  C20_22 
REMARK    3  A    between atoms: C20_22  and  C21_24 
REMARK    4  A    between atoms: C21_24  and  O4_25 
REMARK    5  A    between atoms: O4_25  and  C22_26 
REMARK    6  A    between atoms: C22_26  and  C23_28 
REMARK    7  A    between atoms: C23_28  and  C24_29 
REMARK    8  A    between atoms: C24_29  and  C25_30 
REMARK       I    between atoms: C25_30  and  N1_32 
REMARK    9  A    between atoms: N1_32  and  C26_33 
REMARK   10  A    between atoms: C26_33  and  C27_34 
REMARK   11  A    between atoms: C27_34  and  C28_35 
ROOT
HETATM    1  C1  UNL     1      -7.472   4.991  15.484  1.00  0.00     0.020 C 
HETATM    2  C2  UNL     1      -7.618   5.820  14.176  1.00  0.00    -0.016 C 
HETATM    3  C3  UNL     1      -7.123   4.933  12.999  1.00  0.00     0.022 C 
HETATM    4  C4  UNL     1      -5.647   4.558  13.113  1.00  0.00     0.084 C 
HETATM    5  C5  UNL     1      -4.788   5.781  13.334  1.00  0.00     0.149 C 
HETATM    6  O1  UNL     1      -3.578   5.772  13.122  1.00  0.00    -0.293 OA
HETATM    7  C6  UNL     1      -5.422   7.015  13.861  1.00  0.00     0.053 C 
HETATM    8  C7  UNL     1      -6.713   7.047  14.244  1.00  0.00    -0.068 C 
HETATM    9  C8  UNL     1      -7.311   8.333  14.751  1.00  0.00     0.035 C 
HETATM   10  C9  UNL     1      -8.457   8.086  15.722  1.00  0.00     0.010 C 
HETATM   11  C10 UNL     1      -9.608   7.278  15.085  1.00  0.00    -0.004 C 
HETATM   12  C11 UNL     1      -9.133   6.222  14.014  1.00  0.00     0.002 C 
HETATM   13  C12 UNL     1      -9.543   6.657  12.586  1.00  0.00     0.007 C 
HETATM   14  C13 UNL     1     -11.056   6.891  12.409  1.00  0.00     0.013 C 
HETATM   15  C14 UNL     1     -11.739   7.525  13.639  1.00  0.00    -0.002 C 
HETATM   16  C15 UNL     1     -12.478   6.408  14.425  1.00  0.00     0.019 C 
HETATM   17  C16 UNL     1     -10.665   8.234  14.493  1.00  0.00     0.002 C 
HETATM   18  C17 UNL     1     -11.482   9.067  15.482  1.00  0.00     0.009 C 
HETATM   19  C18 UNL     1     -12.752   9.477  14.707  1.00  0.00     0.047 C 
HETATM   20  C19 UNL     1     -12.702   8.723  13.358  1.00  0.00     0.128 C 
ENDROOT
BRANCH  20  21
HETATM   21  O2  UNL     1     -12.109   9.643  12.428  1.00  0.00    -0.381 OA
HETATM   22  H27 UNL     1     -12.198   9.252  11.537  1.00  0.00     0.211 HD
ENDBRANCH  20  21
BRANCH  20  23
HETATM   23  C20 UNL     1     -14.045   8.293  12.734  1.00  0.00     0.185 C 
HETATM   24  O3  UNL     1     -14.282   7.088  12.580  1.00  0.00    -0.292 OA
BRANCH  23  25
HETATM   25  C21 UNL     1     -15.045   9.374  12.336  1.00  0.00     0.260 C 
BRANCH  25  26
HETATM   26  O4  UNL     1     -15.687   9.168  11.080  1.00  0.00    -0.314 OA
BRANCH  26  27
HETATM   27  C22 UNL     1     -17.001   9.534  11.023  1.00  0.00     0.259 C 
HETATM   28  O5  UNL     1     -17.410  10.635  10.690  1.00  0.00    -0.265 OA
BRANCH  27  29
HETATM   29  C23 UNL     1     -17.854   8.386  11.515  1.00  0.00     0.120 C 
BRANCH  29  30
HETATM   30  C24 UNL     1     -19.328   8.764  11.576  1.00  0.00     0.112 C 
BRANCH  30  31
HETATM   31  C25 UNL     1     -20.108   8.147  10.436  1.00  0.00     0.218 C 
HETATM   32  O6  UNL     1     -19.785   8.256   9.261  1.00  0.00    -0.274 OA
HETATM   33  N1  UNL     1     -21.208   7.435  10.857  1.00  0.00    -0.361 N 
HETATM   34  H34 UNL     1     -21.561   7.629  11.789  1.00  0.00     0.162 HD
BRANCH  33  35
HETATM   35  C26 UNL     1     -22.181   6.935   9.899  1.00  0.00     0.128 C 
BRANCH  35  36
HETATM   36  C27 UNL     1     -21.974   5.457   9.538  1.00  0.00     0.078 C 
BRANCH  36  37
HETATM   37  C28 UNL     1     -22.115   5.196   8.078  1.00  0.00     0.027 A 
HETATM   38  C29 UNL     1     -21.368   5.582   6.987  1.00  0.00     0.114 A 
HETATM   39  N2  UNL     1     -21.902   5.082   5.827  1.00  0.00    -0.360 N 
HETATM   40  C30 UNL     1     -22.973   4.414   6.195  1.00  0.00     0.180 A 
ATOM     41  H2  UNL     1     -21.544   5.203   4.880  1.00  0.00     0.166 HD
HETATM   42  N3  UNL     1     -23.134   4.433   7.552  1.00  0.00    -0.355 N 
HETATM   43  H41 UNL     1     -23.856   3.938   8.066  1.00  0.00     0.166 HD
ENDBRANCH  36  37
ENDBRANCH  35  36
ENDBRANCH  33  35
ENDBRANCH  30  31
ENDBRANCH  29  30
ENDBRANCH  27  29
ENDBRANCH  26  27
ENDBRANCH  25  26
ENDBRANCH  23  25
ENDBRANCH  20  23
TORSDOF 11
ENDMDL
MODEL 2
REMARK minimizedAffinity -8.89095688
REMARK CNNscore 0.483809471
REMARK CNNaffinity 7.53112936
REMARK  11 active torsions:
REMARK  status: ('A' for Active; 'I' for Inactive)
REMARK    1  A    between atoms: C19_20  and  O2_21 
REMARK    2  A    between atoms: C19_20  and  C20_22 
REMARK    3  A    between atoms: C20_22  and  C21_24 
REMARK    4  A    between atoms: C21_24  and  O4_25 
REMARK    5  A    between atoms: O4_25  and  C22_26 
REMARK    6  A    between atoms: C22_26  and  C23_28 
REMARK    7  A    between atoms: C23_28  and  C24_29 
REMARK    8  A    between atoms: C24_29  and  C25_30 
REMARK       I    between atoms: C25_30  and  N1_32 
REMARK    9  A    between atoms: N1_32  and  C26_33 
REMARK   10  A    between atoms: C26_33  and  C27_34 
REMARK   11  A    between atoms: C27_34  and  C28_35 
ROOT
HETATM    1  C1  UNL     1      -7.514   5.326  15.876  1.00  0.00     0.020 C 
HETATM    2  C2  UNL     1      -7.188   6.049  14.537  1.00  0.00    -0.016 C 
HETATM    3  C3  UNL     1      -7.400   7.573  14.762  1.00  0.00     0.022 C 
HETATM    4  C4  UNL     1      -8.843   7.932  15.108  1.00  0.00     0.084 C 
HETATM    5  C5  UNL     1      -9.808   7.342  14.107  1.00  0.00     0.149 C 
HETATM    6  O1  UNL     1     -10.956   7.764  13.986  1.00  0.00    -0.293 OA
HETATM    7  C6  UNL     1      -9.366   6.195  13.277  1.00  0.00     0.053 C 
HETATM    8  C7  UNL     1      -8.172   5.599  13.460  1.00  0.00    -0.068 C 
HETATM    9  C8  UNL     1      -7.764   4.451  12.574  1.00  0.00     0.035 C 
HETATM   10  C9  UNL     1      -6.801   3.504  13.272  1.00  0.00     0.010 C 
HETATM   11  C10 UNL     1      -5.501   4.205  13.721  1.00  0.00    -0.004 C 
HETATM   12  C11 UNL     1      -5.700   5.711  14.145  1.00  0.00     0.002 C 
HETATM   13  C12 UNL     1      -5.067   6.669  13.106  1.00  0.00     0.007 C 
HETATM   14  C13 UNL     1      -3.566   6.422  12.856  1.00  0.00     0.013 C 
HETATM   15  C14 UNL     1      -3.164   4.933  12.884  1.00  0.00    -0.002 C 
HETATM   16  C15 UNL     1      -2.506   4.624  14.258  1.00  0.00     0.019 C 
HETATM   17  C16 UNL     1      -4.420   4.073  12.627  1.00  0.00     0.002 C 
HETATM   18  C17 UNL     1      -3.856   2.675  12.371  1.00  0.00     0.009 C 
HETATM   19  C18 UNL     1      -2.496   2.912  11.681  1.00  0.00     0.047 C 
HETATM   20  C19 UNL     1      -2.248   4.439  11.718  1.00  0.00     0.128 C 
ENDROOT
BRANCH  20  21
HETATM   21  O2  UNL     1      -2.722   4.935  10.457  1.00  0.00    -0.381 OA
HETATM   22  H27 UNL     1      -2.446   5.869  10.390  1.00  0.00     0.211 HD
ENDBRANCH  20  21
BRANCH  20  23
HETATM   23  C20 UNL     1      -0.788   4.918  11.843  1.00  0.00     0.185 C 
HETATM   24  O3  UNL     1       0.096   4.099  12.127  1.00  0.00    -0.292 OA
BRANCH  23  25
HETATM   25  C21 UNL     1      -0.480   6.393  11.602  1.00  0.00     0.260 C 
BRANCH  25  26
HETATM   26  O4  UNL     1       0.507   6.647  10.606  1.00  0.00    -0.314 OA
BRANCH  26  27
HETATM   27  C22 UNL     1       0.645   7.953  10.234  1.00  0.00     0.259 C 
HETATM   28  O5  UNL     1       0.923   8.872  10.988  1.00  0.00    -0.265 OA
BRANCH  27  29
HETATM   29  C23 UNL     1       0.320   8.083   8.763  1.00  0.00     0.120 C 
BRANCH  29  30
HETATM   30  C24 UNL     1       1.566   7.958   7.896  1.00  0.00     0.112 C 
BRANCH  30  31
HETATM   31  C25 UNL     1       2.544   6.958   8.471  1.00  0.00     0.218 C 
HETATM   32  O6  UNL     1       2.555   5.773   8.166  1.00  0.00    -0.274 OA
HETATM   33  N1  UNL     1       3.434   7.520   9.359  1.00  0.00    -0.361 N 
HETATM   34  H34 UNL     1       3.183   8.415   9.767  1.00  0.00     0.162 HD
BRANCH  33  35
HETATM   35  C26 UNL     1       4.320   6.684  10.153  1.00  0.00     0.128 C 
BRANCH  35  36
HETATM   36  C27 UNL     1       4.160   6.898  11.666  1.00  0.00     0.078 C 
BRANCH  36  37
HETATM   37  C28 UNL     1       5.426   7.330  12.322  1.00  0.00     0.027 A 
HETATM   38  C29 UNL     1       6.409   8.223  11.952  1.00  0.00     0.114 A 
HETATM   39  N2  UNL     1       7.394   8.288  12.903  1.00  0.00    -0.360 N 
HETATM   40  C30 UNL     1       7.035   7.434  13.838  1.00  0.00     0.180 A 
ATOM     41  H2  UNL     1       8.229   8.873  12.890  1.00  0.00     0.166 HD
HETATM   42  N3  UNL     1       5.837   6.846  13.544  1.00  0.00    -0.355 N 
HETATM   43  H41 UNL     1       5.337   6.198  14.145  1.00  0.00     0.166 HD
ENDBRANCH  36  37
ENDBRANCH  35  36
ENDBRANCH  33  35
ENDBRANCH  30  31
ENDBRANCH  29  30
ENDBRANCH  27  29
ENDBRANCH  26  27
ENDBRANCH  25  26
ENDBRANCH  23  25
ENDBRANCH  20  23
TORSDOF 11
ENDMDL
MODEL 3
REMARK minimizedAffinity -7.23238802
REMARK CNNscore 0.441686928
REMARK CNNaffinity 6.78434515
REMARK  11 active torsions:
REMARK  status: ('A' for Active; 'I' for Inactive)
REMARK    1  A    between atoms: C19_20  and  O2_21 
REMARK    2  A    between atoms: C19_20  and  C20_22 
REMARK    3  A    between atoms: C20_22  and  C21_24 
REMARK    4  A    between atoms: C21_24  and  O4_25 
REMARK    5  A    between atoms: O4_25  and  C22_26 
REMARK    6  A    between atoms: C22_26  and  C23_28 
REMARK    7  A    between atoms: C23_28  and  C24_29 
REMARK    8  A    between atoms: C24_29  and  C25_30 
REMARK       I    between atoms: C25_30  and  N1_32 
REMARK    9  A    between atoms: N1_32  and  C26_33 
REMARK   10  A    between atoms: C26_33  and  C27_34 
REMARK   11  A    between atoms: C27_34  and  C28_35 
ROOT
HETATM    1  C1  UNL     1      -7.522   4.947  15.563  1.00  0.00     0.020 C 
HETATM    2  C2  UNL     1      -7.633   5.740  14.229  1.00  0.00    -0.016 C 
HETATM    3  C3  UNL     1      -7.200   4.789  13.078  1.00  0.00     0.022 C 
HETATM    4  C4  UNL     1      -5.746   4.335  13.193  1.00  0.00     0.084 C 
HETATM    5  C5  UNL     1      -4.818   5.514  13.367  1.00  0.00     0.149 C 
HETATM    6  O1  UNL     1      -3.612   5.429  13.146  1.00  0.00    -0.293 OA
HETATM    7  C6  UNL     1      -5.376   6.798  13.858  1.00  0.00     0.053 C 
HETATM    8  C7  UNL     1      -6.659   6.915  14.249  1.00  0.00    -0.068 C 
HETATM    9  C8  UNL     1      -7.180   8.249  14.719  1.00  0.00     0.035 C 
HETATM   10  C9  UNL     1      -8.328   8.099  15.705  1.00  0.00     0.010 C 
HETATM   11  C10 UNL     1      -9.529   7.337  15.105  1.00  0.00    -0.004 C 
HETATM   12  C11 UNL     1      -9.124   6.222  14.066  1.00  0.00     0.002 C 
HETATM   13  C12 UNL     1      -9.522   6.633  12.627  1.00  0.00     0.007 C 
HETATM   14  C13 UNL     1     -11.021   6.946  12.454  1.00  0.00     0.013 C 
HETATM   15  C14 UNL     1     -11.656   7.658  13.668  1.00  0.00    -0.002 C 
HETATM   16  C15 UNL     1     -12.450   6.610  14.496  1.00  0.00     0.019 C 
HETATM   17  C16 UNL     1     -10.536   8.332  14.490  1.00  0.00     0.002 C 
HETATM   18  C17 UNL     1     -11.296   9.242  15.457  1.00  0.00     0.009 C 
HETATM   19  C18 UNL     1     -12.548   9.697  14.679  1.00  0.00     0.047 C 
HETATM   20  C19 UNL     1     -12.553   8.898  13.354  1.00  0.00     0.128 C 
ENDROOT
BRANCH  20  21
HETATM   21  O2  UNL     1     -11.918   9.752  12.390  1.00  0.00    -0.381 OA
HETATM   22  H27 UNL     1     -12.038   9.339  11.513  1.00  0.00     0.211 HD
ENDBRANCH  20  21
BRANCH  20  23
HETATM   23  C20 UNL     1     -13.924   8.525  12.755  1.00  0.00     0.185 C 
HETATM   24  O3  UNL     1     -14.117   7.368  12.360  1.00  0.00    -0.292 OA
BRANCH  23  25
HETATM   25  C21 UNL     1     -15.005   9.599  12.680  1.00  0.00     0.260 C 
BRANCH  25  26
HETATM   26  O4  UNL     1     -15.588   9.777  11.391  1.00  0.00    -0.314 OA
BRANCH  26  27
HETATM   27  C22 UNL     1     -16.937   9.580  11.324  1.00  0.00     0.259 C 
HETATM   28  O5  UNL     1     -17.487   8.699  10.680  1.00  0.00    -0.265 OA
BRANCH  27  29
HETATM   29  C23 UNL     1     -17.635  10.671  12.104  1.00  0.00     0.120 C 
BRANCH  29  30
HETATM   30  C24 UNL     1     -17.766  11.951  11.290  1.00  0.00     0.112 C 
BRANCH  30  31
HETATM   31  C25 UNL     1     -18.920  11.873  10.313  1.00  0.00     0.218 C 
HETATM   32  O6  UNL     1     -20.088  11.760  10.658  1.00  0.00    -0.274 OA
HETATM   33  N1  UNL     1     -18.522  11.962   8.999  1.00  0.00    -0.361 N 
HETATM   34  H34 UNL     1     -17.548  11.766   8.792  1.00  0.00     0.162 HD
BRANCH  33  35
HETATM   35  C26 UNL     1     -19.464  11.714   7.919  1.00  0.00     0.128 C 
BRANCH  35  36
HETATM   36  C27 UNL     1     -18.784  11.494   6.559  1.00  0.00     0.078 C 
BRANCH  36  37
HETATM   37  C28 UNL     1     -18.614  12.759   5.790  1.00  0.00     0.027 A 
HETATM   38  C29 UNL     1     -17.999  13.043   4.590  1.00  0.00     0.114 A 
HETATM   39  N2  UNL     1     -18.110  14.375   4.287  1.00  0.00    -0.360 N 
HETATM   40  C30 UNL     1     -18.767  14.909   5.294  1.00  0.00     0.180 A 
ATOM     41  H2  UNL     1     -17.759  14.852   3.457  1.00  0.00     0.166 HD
HETATM   42  N3  UNL     1     -19.115  13.967   6.220  1.00  0.00    -0.355 N 
HETATM   43  H41 UNL     1     -19.674  14.137   7.051  1.00  0.00     0.166 HD
ENDBRANCH  36  37
ENDBRANCH  35  36
ENDBRANCH  33  35
ENDBRANCH  30  31
ENDBRANCH  29  30
ENDBRANCH  27  29
ENDBRANCH  26  27
ENDBRANCH  25  26
ENDBRANCH  23  25
ENDBRANCH  20  23
TORSDOF 11
ENDMDL
MODEL 4
REMARK minimizedAffinity -8.2880106
REMARK CNNscore 0.41901207
REMARK CNNaffinity 7.49086761
REMARK  11 active torsions:
REMARK  status: ('A' for Active; 'I' for Inactive)
REMARK    1  A    between atoms: C19_20  and  O2_21 
REMARK    2  A    between atoms: C19_20  and  C20_22 
REMARK    3  A    between atoms: C20_22  and  C21_24 
REMARK    4  A    between atoms: C21_24  and  O4_25 
REMARK    5  A    between atoms: O4_25  and  C22_26 
REMARK    6  A    between atoms: C22_26  and  C23_28 
REMARK    7  A    between atoms: C23_28  and  C24_29 
REMARK    8  A    between atoms: C24_29  and  C25_30 
REMARK       I    between atoms: C25_30  and  N1_32 
REMARK    9  A    between atoms: N1_32  and  C26_33 
REMARK   10  A    between atoms: C26_33  and  C27_34 
REMARK   11  A    between atoms: C27_34  and  C28_35 
ROOT
HETATM    1  C1  UNL     1      -7.467   4.548  15.198  1.00  0.00     0.020 C 
HETATM    2  C2  UNL     1      -7.537   5.470  13.947  1.00  0.00    -0.016 C 
HETATM    3  C3  UNL     1      -7.166   4.609  12.707  1.00  0.00     0.022 C 
HETATM    4  C4  UNL     1      -5.741   4.062  12.763  1.00  0.00     0.084 C 
HETATM    5  C5  UNL     1      -4.744   5.163  13.040  1.00  0.00     0.149 C 
HETATM    6  O1  UNL     1      -3.546   5.029  12.800  1.00  0.00    -0.293 OA
HETATM    7  C6  UNL     1      -5.224   6.425  13.656  1.00  0.00     0.053 C 
HETATM    8  C7  UNL     1      -6.496   6.579  14.069  1.00  0.00    -0.068 C 
HETATM    9  C8  UNL     1      -6.934   7.890  14.668  1.00  0.00     0.035 C 
HETATM   10  C9  UNL     1      -8.085   7.714  15.647  1.00  0.00     0.010 C 
HETATM   11  C10 UNL     1      -9.332   7.084  14.989  1.00  0.00    -0.004 C 
HETATM   12  C11 UNL     1      -8.998   6.051  13.845  1.00  0.00     0.002 C 
HETATM   13  C12 UNL     1      -9.377   6.620  12.455  1.00  0.00     0.007 C 
HETATM   14  C13 UNL     1     -10.856   7.036  12.328  1.00  0.00     0.013 C 
HETATM   15  C14 UNL     1     -11.442   7.664  13.610  1.00  0.00    -0.002 C 
HETATM   16  C15 UNL     1     -12.293   6.590  14.343  1.00  0.00     0.019 C 
HETATM   17  C16 UNL     1     -10.281   8.190  14.481  1.00  0.00     0.002 C 
HETATM   18  C17 UNL     1     -10.981   9.046  15.538  1.00  0.00     0.009 C 
HETATM   19  C18 UNL     1     -12.208   9.646  14.819  1.00  0.00     0.047 C 
HETATM   20  C19 UNL     1     -12.266   8.979  13.425  1.00  0.00     0.128 C 
ENDROOT
BRANCH  20  21
HETATM   21  O2  UNL     1     -11.586   9.882  12.539  1.00  0.00    -0.381 OA
HETATM   22  H27 UNL     1     -11.733   9.562  11.629  1.00  0.00     0.211 HD
ENDBRANCH  20  21
BRANCH  20  23
HETATM   23  C20 UNL     1     -13.659   8.745  12.807  1.00  0.00     0.185 C 
HETATM   24  O3  UNL     1     -14.062   9.507  11.918  1.00  0.00    -0.292 OA
BRANCH  23  25
HETATM   25  C21 UNL     1     -14.493   7.569  13.308  1.00  0.00     0.260 C 
BRANCH  25  26
HETATM   26  O4  UNL     1     -15.317   6.952  12.322  1.00  0.00    -0.314 OA
BRANCH  26  27
HETATM   27  C22 UNL     1     -16.367   6.226  12.805  1.00  0.00     0.259 C 
HETATM   28  O5  UNL     1     -17.474   6.165  12.292  1.00  0.00    -0.265 OA
BRANCH  27  29
HETATM   29  C23 UNL     1     -15.962   5.580  14.111  1.00  0.00     0.120 C 
BRANCH  29  30
HETATM   30  C24 UNL     1     -17.149   4.939  14.816  1.00  0.00     0.112 C 
BRANCH  30  31
HETATM   31  C25 UNL     1     -16.986   3.438  14.927  1.00  0.00     0.218 C 
HETATM   32  O6  UNL     1     -17.568   2.756  15.759  1.00  0.00    -0.274 OA
HETATM   33  N1  UNL     1     -16.131   2.917  13.983  1.00  0.00    -0.361 N 
HETATM   34  H34 UNL     1     -15.485   3.558  13.533  1.00  0.00     0.162 HD
BRANCH  33  35
HETATM   35  C26 UNL     1     -15.703   1.529  14.054  1.00  0.00     0.128 C 
BRANCH  35  36
HETATM   36  C27 UNL     1     -16.197   0.681  12.872  1.00  0.00     0.078 C 
BRANCH  36  37
HETATM   37  C28 UNL     1     -15.634  -0.699  12.880  1.00  0.00     0.027 A 
HETATM   38  C29 UNL     1     -15.723  -1.736  13.783  1.00  0.00     0.114 A 
HETATM   39  N2  UNL     1     -15.027  -2.831  13.340  1.00  0.00    -0.360 N 
HETATM   40  C30 UNL     1     -14.500  -2.470  12.191  1.00  0.00     0.180 A 
ATOM     41  H2  UNL     1     -14.936  -3.734  13.805  1.00  0.00     0.166 HD
HETATM   42  N3  UNL     1     -14.858  -1.194  11.856  1.00  0.00    -0.355 N 
HETATM   43  H41 UNL     1     -14.617  -0.724  10.988  1.00  0.00     0.166 HD
ENDBRANCH  36  37
ENDBRANCH  35  36
ENDBRANCH  33  35
ENDBRANCH  30  31
ENDBRANCH  29  30
ENDBRANCH  27  29
ENDBRANCH  26  27
ENDBRANCH  25  26
ENDBRANCH  23  25
ENDBRANCH  20  23
TORSDOF 11
ENDMDL
MODEL 5
REMARK minimizedAffinity -7.07782555
REMARK CNNscore 0.390799373
REMARK CNNaffinity 6.27511072
REMARK  11 active torsions:
REMARK  status: ('A' for Active; 'I' for Inactive)
REMARK    1  A    between atoms: C19_20  and  O2_21 
REMARK    2  A    between atoms: C19_20  and  C20_22 
REMARK    3  A    between atoms: C20_22  and  C21_24 
REMARK    4  A    between atoms: C21_24  and  O4_25 
REMARK    5  A    between atoms: O4_25  and  C22_26 
REMARK    6  A    between atoms: C22_26  and  C23_28 
REMARK    7  A    between atoms: C23_28  and  C24_29 
REMARK    8  A    between atoms: C24_29  and  C25_30 
REMARK       I    between atoms: C25_30  and  N1_32 
REMARK    9  A    between atoms: N1_32  and  C26_33 
REMARK   10  A    between atoms: C26_33  and  C27_34 
REMARK   11  A    between atoms: C27_34  and  C28_35 
ROOT
HETATM    1  C1  UNL     1       0.365   7.678   9.501  1.00  0.00     0.020 C 
HETATM    2  C2  UNL     1       1.203   7.315  10.761  1.00  0.00    -0.016 C 
HETATM    3  C3  UNL     1       2.645   7.852  10.537  1.00  0.00     0.022 C 
HETATM    4  C4  UNL     1       3.347   7.200   9.347  1.00  0.00     0.084 C 
HETATM    5  C5  UNL     1       3.282   5.693   9.433  1.00  0.00     0.149 C 
HETATM    6  O1  UNL     1       4.045   4.974   8.792  1.00  0.00    -0.293 OA
HETATM    7  C6  UNL     1       2.240   5.069  10.284  1.00  0.00     0.053 C 
HETATM    8  C7  UNL     1       1.289   5.798  10.899  1.00  0.00    -0.068 C 
HETATM    9  C8  UNL     1       0.268   5.114  11.770  1.00  0.00     0.035 C 
HETATM   10  C9  UNL     1      -1.043   5.883  11.827  1.00  0.00     0.010 C 
HETATM   11  C10 UNL     1      -0.866   7.313  12.383  1.00  0.00    -0.004 C 
HETATM   12  C11 UNL     1       0.517   7.976  12.016  1.00  0.00     0.002 C 
HETATM   13  C12 UNL     1       1.423   8.098  13.266  1.00  0.00     0.007 C 
HETATM   14  C13 UNL     1       0.790   8.889  14.427  1.00  0.00     0.013 C 
HETATM   15  C14 UNL     1      -0.727   8.657  14.589  1.00  0.00    -0.002 C 
HETATM   16  C15 UNL     1      -1.481   9.867  13.972  1.00  0.00     0.019 C 
HETATM   17  C16 UNL     1      -1.101   7.322  13.909  1.00  0.00     0.002 C 
HETATM   18  C17 UNL     1      -2.526   7.055  14.396  1.00  0.00     0.009 C 
HETATM   19  C18 UNL     1      -2.579   7.643  15.821  1.00  0.00     0.047 C 
HETATM   20  C19 UNL     1      -1.236   8.379  16.040  1.00  0.00     0.128 C 
ENDROOT
BRANCH  20  21
HETATM   21  O2  UNL     1      -0.384   7.432  16.703  1.00  0.00    -0.381 OA
HETATM   22  H27 UNL     1       0.418   7.912  16.987  1.00  0.00     0.211 HD
ENDBRANCH  20  21
BRANCH  20  23
HETATM   23  C20 UNL     1      -1.253   9.636  16.933  1.00  0.00     0.185 C 
HETATM   24  O3  UNL     1      -0.187  10.211  17.187  1.00  0.00    -0.292 OA
BRANCH  23  25
HETATM   25  C21 UNL     1      -2.592  10.136  17.466  1.00  0.00     0.260 C 
BRANCH  25  26
HETATM   26  O4  UNL     1      -3.103  11.298  16.819  1.00  0.00    -0.314 OA
BRANCH  26  27
HETATM   27  C22 UNL     1      -2.757  12.489  17.389  1.00  0.00     0.259 C 
HETATM   28  O5  UNL     1      -1.804  13.176  17.056  1.00  0.00    -0.265 OA
BRANCH  27  29
HETATM   29  C23 UNL     1      -3.693  12.774  18.542  1.00  0.00     0.120 C 
BRANCH  29  30
HETATM   30  C24 UNL     1      -3.469  14.165  19.120  1.00  0.00     0.112 C 
BRANCH  30  31
HETATM   31  C25 UNL     1      -4.400  14.442  20.280  1.00  0.00     0.218 C 
HETATM   32  O6  UNL     1      -4.270  15.394  21.037  1.00  0.00    -0.274 OA
HETATM   33  N1  UNL     1      -5.419  13.523  20.386  1.00  0.00    -0.361 N 
HETATM   34  H34 UNL     1      -5.294  12.631  19.918  1.00  0.00     0.162 HD
BRANCH  33  35
HETATM   35  C26 UNL     1      -6.295  13.515  21.547  1.00  0.00     0.128 C 
BRANCH  35  36
HETATM   36  C27 UNL     1      -7.785  13.441  21.182  1.00  0.00     0.078 C 
BRANCH  36  37
HETATM   37  C28 UNL     1      -8.610  12.821  22.256  1.00  0.00     0.027 A 
HETATM   38  C29 UNL     1      -8.519  12.844  23.631  1.00  0.00     0.114 A 
HETATM   39  N2  UNL     1      -9.529  12.113  24.201  1.00  0.00    -0.360 N 
HETATM   40  C30 UNL     1     -10.223  11.630  23.193  1.00  0.00     0.180 A 
ATOM     41  H2  UNL     1      -9.705  11.973  25.195  1.00  0.00     0.166 HD
HETATM   42  N3  UNL     1      -9.720  12.049  21.994  1.00  0.00    -0.355 N 
HETATM   43  H41 UNL     1     -10.126  11.850  21.084  1.00  0.00     0.166 HD
ENDBRANCH  36  37
ENDBRANCH  35  36
ENDBRANCH  33  35
ENDBRANCH  30  31
ENDBRANCH  29  30
ENDBRANCH  27  29
ENDBRANCH  26  27
ENDBRANCH  25  26
ENDBRANCH  23  25
ENDBRANCH  20  23
TORSDOF 11
ENDMDL
MODEL 6
REMARK minimizedAffinity -8.98839092
REMARK CNNscore 0.387993634
REMARK CNNaffinity 7.12859964
REMARK  11 active torsions:
REMARK  status: ('A' for Active; 'I' for Inactive)
REMARK    1  A    between atoms: C19_20  and  O2_21 
REMARK    2  A    between atoms: C19_20  and  C20_22 
REMARK    3  A    between atoms: C20_22  and  C21_24 
REMARK    4  A    between atoms: C21_24  and  O4_25 
REMARK    5  A    between atoms: O4_25  and  C22_26 
REMARK    6  A    between atoms: C22_26  and  C23_28 
REMARK    7  A    between atoms: C23_28  and  C24_29 
REMARK    8  A    between atoms: C24_29  and  C25_30 
REMARK       I    between atoms: C25_30  and  N1_32 
REMARK    9  A    between atoms: N1_32  and  C26_33 
REMARK   10  A    between atoms: C26_33  and  C27_34 
REMARK   11  A    between atoms: C27_34  and  C28_35 
ROOT
HETATM    1  C1  UNL     1      -7.659   5.243  15.708  1.00  0.00     0.020 C 
HETATM    2  C2  UNL     1      -7.259   6.092  14.467  1.00  0.00    -0.016 C 
HETATM    3  C3  UNL     1      -7.679   7.562  14.747  1.00  0.00     0.022 C 
HETATM    4  C4  UNL     1      -9.187   7.731  14.920  1.00  0.00     0.084 C 
HETATM    5  C5  UNL     1      -9.942   7.108  13.768  1.00  0.00     0.149 C 
HETATM    6  O1  UNL     1     -11.109   7.405  13.521  1.00  0.00    -0.293 OA
HETATM    7  C6  UNL     1      -9.264   6.080  12.941  1.00  0.00     0.053 C 
HETATM    8  C7  UNL     1      -8.039   5.612  13.246  1.00  0.00    -0.068 C 
HETATM    9  C8  UNL     1      -7.388   4.584  12.358  1.00  0.00     0.035 C 
HETATM   10  C9  UNL     1      -6.412   3.703  13.123  1.00  0.00     0.010 C 
HETATM   11  C10 UNL     1      -5.272   4.514  13.778  1.00  0.00    -0.004 C 
HETATM   12  C11 UNL     1      -5.704   5.954  14.256  1.00  0.00     0.002 C 
HETATM   13  C12 UNL     1      -5.067   7.048  13.365  1.00  0.00     0.007 C 
HETATM   14  C13 UNL     1      -3.528   6.991  13.301  1.00  0.00     0.013 C 
HETATM   15  C14 UNL     1      -2.955   5.558  13.298  1.00  0.00    -0.002 C 
HETATM   16  C15 UNL     1      -2.440   5.229  14.727  1.00  0.00     0.019 C 
HETATM   17  C16 UNL     1      -4.056   4.583  12.830  1.00  0.00     0.002 C 
HETATM   18  C17 UNL     1      -3.299   3.279  12.572  1.00  0.00     0.009 C 
HETATM   19  C18 UNL     1      -1.903   3.717  12.082  1.00  0.00     0.047 C 
HETATM   20  C19 UNL     1      -1.848   5.255  12.237  1.00  0.00     0.128 C 
ENDROOT
BRANCH  20  21
HETATM   21  O2  UNL     1      -2.219   5.783  10.954  1.00  0.00    -0.381 OA
HETATM   22  H27 UNL     1      -2.051   6.745  10.977  1.00  0.00     0.211 HD
ENDBRANCH  20  21
BRANCH  20  23
HETATM   23  C20 UNL     1      -0.484   5.886  12.580  1.00  0.00     0.185 C 
HETATM   24  O3  UNL     1      -0.452   6.970  13.178  1.00  0.00    -0.292 OA
BRANCH  23  25
HETATM   25  C21 UNL     1       0.787   5.144  12.178  1.00  0.00     0.260 C 
BRANCH  25  26
HETATM   26  O4  UNL     1       1.046   5.108  10.776  1.00  0.00    -0.314 OA
BRANCH  26  27
HETATM   27  C22 UNL     1       2.364   5.088  10.422  1.00  0.00     0.259 C 
HETATM   28  O5  UNL     1       2.896   4.222   9.746  1.00  0.00    -0.265 OA
BRANCH  27  29
HETATM   29  C23 UNL     1       3.065   6.262  11.067  1.00  0.00     0.120 C 
BRANCH  29  30
HETATM   30  C24 UNL     1       4.213   6.775  10.207  1.00  0.00     0.112 C 
BRANCH  30  31
HETATM   31  C25 UNL     1       5.498   6.878  10.999  1.00  0.00     0.218 C 
HETATM   32  O6  UNL     1       6.609   6.872  10.486  1.00  0.00    -0.274 OA
HETATM   33  N1  UNL     1       5.290   6.997  12.355  1.00  0.00    -0.361 N 
HETATM   34  H34 UNL     1       4.386   6.710  12.715  1.00  0.00     0.162 HD
BRANCH  33  35
HETATM   35  C26 UNL     1       6.402   6.915  13.288  1.00  0.00     0.128 C 
BRANCH  35  36
HETATM   36  C27 UNL     1       7.425   8.047  13.114  1.00  0.00     0.078 C 
BRANCH  36  37
HETATM   37  C28 UNL     1       8.328   8.193  14.290  1.00  0.00     0.027 A 
HETATM   38  C29 UNL     1       9.359   9.062  14.570  1.00  0.00     0.114 A 
HETATM   39  N2  UNL     1       9.896   8.803  15.805  1.00  0.00    -0.360 N 
HETATM   40  C30 UNL     1       9.219   7.776  16.272  1.00  0.00     0.180 A 
ATOM     41  H2  UNL     1      10.659   9.300  16.264  1.00  0.00     0.166 HD
HETATM   42  N3  UNL     1       8.242   7.384  15.401  1.00  0.00    -0.355 N 
HETATM   43  H41 UNL     1       7.560   6.651  15.573  1.00  0.00     0.166 HD
ENDBRANCH  36  37
ENDBRANCH  35  36
ENDBRANCH  33  35
ENDBRANCH  30  31
ENDBRANCH  29  30
ENDBRANCH  27  29
ENDBRANCH  26  27
ENDBRANCH  25  26
ENDBRANCH  23  25
ENDBRANCH  20  23
TORSDOF 11
ENDMDL
MODEL 7
REMARK minimizedAffinity -8.66832447
REMARK CNNscore 0.365628153
REMARK CNNaffinity 7.25102091
REMARK  11 active torsions:
REMARK  status: ('A' for Active; 'I' for Inactive)
REMARK    1  A    between atoms: C19_20  and  O2_21 
REMARK    2  A    between atoms: C19_20  and  C20_22 
REMARK    3  A    between atoms: C20_22  and  C21_24 
REMARK    4  A    between atoms: C21_24  and  O4_25 
REMARK    5  A    between atoms: O4_25  and  C22_26 
REMARK    6  A    between atoms: C22_26  and  C23_28 
REMARK    7  A    between atoms: C23_28  and  C24_29 
REMARK    8  A    between atoms: C24_29  and  C25_30 
REMARK       I    between atoms: C25_30  and  N1_32 
REMARK    9  A    between atoms: N1_32  and  C26_33 
REMARK   10  A    between atoms: C26_33  and  C27_34 
REMARK   11  A    between atoms: C27_34  and  C28_35 
ROOT
HETATM    1  C1  UNL     1      -8.174   5.453  15.893  1.00  0.00     0.020 C 
HETATM    2  C2  UNL     1      -7.794   6.542  14.849  1.00  0.00    -0.016 C 
HETATM    3  C3  UNL     1      -8.438   7.880  15.310  1.00  0.00     0.022 C 
HETATM    4  C4  UNL     1      -9.964   7.828  15.348  1.00  0.00     0.084 C 
HETATM    5  C5  UNL     1     -10.526   7.320  14.041  1.00  0.00     0.149 C 
HETATM    6  O1  UNL     1     -11.698   7.507  13.722  1.00  0.00    -0.293 OA
HETATM    7  C6  UNL     1      -9.645   6.539  13.138  1.00  0.00     0.053 C 
HETATM    8  C7  UNL     1      -8.396   6.182  13.493  1.00  0.00    -0.068 C 
HETATM    9  C8  UNL     1      -7.537   5.407  12.528  1.00  0.00     0.035 C 
HETATM   10  C9  UNL     1      -6.514   4.539  13.244  1.00  0.00     0.010 C 
HETATM   11  C10 UNL     1      -5.557   5.362  14.134  1.00  0.00    -0.004 C 
HETATM   12  C11 UNL     1      -6.223   6.635  14.783  1.00  0.00     0.002 C 
HETATM   13  C12 UNL     1      -5.674   7.936  14.146  1.00  0.00     0.007 C 
HETATM   14  C13 UNL     1      -4.142   8.081  14.235  1.00  0.00     0.013 C 
HETATM   15  C14 UNL     1      -3.376   6.752  14.069  1.00  0.00    -0.002 C 
HETATM   16  C15 UNL     1      -2.941   6.252  15.474  1.00  0.00     0.019 C 
HETATM   17  C16 UNL     1      -4.288   5.741  13.341  1.00  0.00     0.002 C 
HETATM   18  C17 UNL     1      -3.337   4.604  12.963  1.00  0.00     0.009 C 
HETATM   19  C18 UNL     1      -1.980   5.288  12.696  1.00  0.00     0.047 C 
HETATM   20  C19 UNL     1      -2.154   6.772  13.095  1.00  0.00     0.128 C 
ENDROOT
BRANCH  20  21
HETATM   21  O2  UNL     1      -2.487   7.459  11.879  1.00  0.00    -0.381 OA
HETATM   22  H27 UNL     1      -2.457   8.417  12.069  1.00  0.00     0.211 HD
ENDBRANCH  20  21
BRANCH  20  23
HETATM   23  C20 UNL     1      -0.924   7.501  13.674  1.00  0.00     0.185 C 
HETATM   24  O3  UNL     1      -1.051   8.178  14.703  1.00  0.00    -0.292 OA
BRANCH  23  25
HETATM   25  C21 UNL     1       0.416   7.353  12.960  1.00  0.00     0.260 C 
BRANCH  25  26
HETATM   26  O4  UNL     1       0.881   6.013  12.823  1.00  0.00    -0.314 OA
BRANCH  26  27
HETATM   27  C22 UNL     1       1.571   5.744  11.676  1.00  0.00     0.259 C 
HETATM   28  O5  UNL     1       1.273   4.883  10.863  1.00  0.00    -0.265 OA
BRANCH  27  29
HETATM   29  C23 UNL     1       2.799   6.625  11.621  1.00  0.00     0.120 C 
BRANCH  29  30
HETATM   30  C24 UNL     1       3.784   6.154  10.560  1.00  0.00     0.112 C 
BRANCH  30  31
HETATM   31  C25 UNL     1       5.216   6.297  11.028  1.00  0.00     0.218 C 
HETATM   32  O6  UNL     1       6.182   5.969  10.352  1.00  0.00    -0.274 OA
HETATM   33  N1  UNL     1       5.321   6.850  12.283  1.00  0.00    -0.361 N 
HETATM   34  H34 UNL     1       4.497   6.824  12.875  1.00  0.00     0.162 HD
BRANCH  33  35
HETATM   35  C26 UNL     1       6.600   6.887  12.974  1.00  0.00     0.128 C 
BRANCH  35  36
HETATM   36  C27 UNL     1       6.951   8.277  13.527  1.00  0.00     0.078 C 
BRANCH  36  37
HETATM   37  C28 UNL     1       7.696   8.211  14.816  1.00  0.00     0.027 A 
HETATM   38  C29 UNL     1       7.362   8.571  16.103  1.00  0.00     0.114 A 
HETATM   39  N2  UNL     1       8.394   8.311  16.967  1.00  0.00    -0.360 N 
HETATM   40  C30 UNL     1       9.358   7.816  16.222  1.00  0.00     0.180 A 
ATOM     41  H2  UNL     1       8.412   8.468  17.975  1.00  0.00     0.166 HD
HETATM   42  N3  UNL     1       8.976   7.713  14.914  1.00  0.00    -0.355 N 
HETATM   43  H41 UNL     1       9.533   7.307  14.168  1.00  0.00     0.166 HD
ENDBRANCH  36  37
ENDBRANCH  35  36
ENDBRANCH  33  35
ENDBRANCH  30  31
ENDBRANCH  29  30
ENDBRANCH  27  29
ENDBRANCH  26  27
ENDBRANCH  25  26
ENDBRANCH  23  25
ENDBRANCH  20  23
TORSDOF 11
ENDMDL
MODEL 8
REMARK minimizedAffinity -7.61265087
REMARK CNNscore 0.340855062
REMARK CNNaffinity 6.62541962
REMARK  11 active torsions:
REMARK  status: ('A' for Active; 'I' for Inactive)
REMARK    1  A    between atoms: C19_20  and  O2_21 
REMARK    2  A    between atoms: C19_20  and  C20_22 
REMARK    3  A    between atoms: C20_22  and  C21_24 
REMARK    4  A    between atoms: C21_24  and  O4_25 
REMARK    5  A    between atoms: O4_25  and  C22_26 
REMARK    6  A    between atoms: C22_26  and  C23_28 
REMARK    7  A    between atoms: C23_28  and  C24_29 
REMARK    8  A    between atoms: C24_29  and  C25_30 
REMARK       I    between atoms: C25_30  and  N1_32 
REMARK    9  A    between atoms: N1_32  and  C26_33 
REMARK   10  A    between atoms: C26_33  and  C27_34 
REMARK   11  A    between atoms: C27_34  and  C28_35 
ROOT
HETATM    1  C1  UNL     1      -7.368   4.629  15.286  1.00  0.00     0.020 C 
HETATM    2  C2  UNL     1      -7.491   5.482  13.990  1.00  0.00    -0.016 C 
HETATM    3  C3  UNL     1      -7.141   4.561  12.787  1.00  0.00     0.022 C 
HETATM    4  C4  UNL     1      -5.706   4.041  12.829  1.00  0.00     0.084 C 
HETATM    5  C5  UNL     1      -4.720   5.171  13.017  1.00  0.00     0.149 C 
HETATM    6  O1  UNL     1      -3.528   5.043  12.749  1.00  0.00    -0.293 OA
HETATM    7  C6  UNL     1      -5.204   6.456  13.579  1.00  0.00     0.053 C 
HETATM    8  C7  UNL     1      -6.466   6.612  14.022  1.00  0.00    -0.068 C 
HETATM    9  C8  UNL     1      -6.910   7.946  14.563  1.00  0.00     0.035 C 
HETATM   10  C9  UNL     1      -8.028   7.805  15.584  1.00  0.00     0.010 C 
HETATM   11  C10 UNL     1      -9.282   7.121  14.998  1.00  0.00    -0.004 C 
HETATM   12  C11 UNL     1      -8.964   6.034  13.901  1.00  0.00     0.002 C 
HETATM   13  C12 UNL     1      -9.393   6.521  12.495  1.00  0.00     0.007 C 
HETATM   14  C13 UNL     1     -10.882   6.905  12.391  1.00  0.00     0.013 C 
HETATM   15  C14 UNL     1     -11.442   7.592  13.654  1.00  0.00    -0.002 C 
HETATM   16  C15 UNL     1     -12.252   6.546  14.468  1.00  0.00     0.019 C 
HETATM   17  C16 UNL     1     -10.265   8.183  14.461  1.00  0.00     0.002 C 
HETATM   18  C17 UNL     1     -10.949   9.083  15.491  1.00  0.00     0.009 C 
HETATM   19  C18 UNL     1     -12.206   9.624  14.778  1.00  0.00     0.047 C 
HETATM   20  C19 UNL     1     -12.293   8.882  13.424  1.00  0.00     0.128 C 
ENDROOT
BRANCH  20  21
HETATM   21  O2  UNL     1     -11.655   9.748  12.472  1.00  0.00    -0.381 OA
HETATM   22  H27 UNL     1     -11.823   9.377  11.584  1.00  0.00     0.211 HD
ENDBRANCH  20  21
BRANCH  20  23
HETATM   23  C20 UNL     1     -13.699   8.593  12.862  1.00  0.00     0.185 C 
HETATM   24  O3  UNL     1     -14.049   7.420  12.681  1.00  0.00    -0.292 OA
BRANCH  23  25
HETATM   25  C21 UNL     1     -14.620   9.771  12.555  1.00  0.00     0.260 C 
BRANCH  25  26
HETATM   26  O4  UNL     1     -15.311   9.688  11.311  1.00  0.00    -0.314 OA
BRANCH  26  27
HETATM   27  C22 UNL     1     -16.622   9.317  11.389  1.00  0.00     0.259 C 
HETATM   28  O5  UNL     1     -17.075   8.253  10.998  1.00  0.00    -0.265 OA
BRANCH  27  29
HETATM   29  C23 UNL     1     -17.425  10.464  11.961  1.00  0.00     0.120 C 
BRANCH  29  30
HETATM   30  C24 UNL     1     -18.789  10.584  11.296  1.00  0.00     0.112 C 
BRANCH  30  31
HETATM   31  C25 UNL     1     -18.671  11.074   9.869  1.00  0.00     0.218 C 
HETATM   32  O6  UNL     1     -18.396  12.229   9.573  1.00  0.00    -0.274 OA
HETATM   33  N1  UNL     1     -18.885  10.084   8.938  1.00  0.00    -0.361 N 
HETATM   34  H34 UNL     1     -19.378   9.252   9.247  1.00  0.00     0.162 HD
BRANCH  33  35
HETATM   35  C26 UNL     1     -19.002  10.405   7.525  1.00  0.00     0.128 C 
BRANCH  35  36
HETATM   36  C27 UNL     1     -20.424  10.810   7.110  1.00  0.00     0.078 C 
BRANCH  36  37
HETATM   37  C28 UNL     1     -21.177   9.694   6.471  1.00  0.00     0.027 A 
HETATM   38  C29 UNL     1     -21.204   8.336   6.703  1.00  0.00     0.114 A 
HETATM   39  N2  UNL     1     -22.072   7.710   5.846  1.00  0.00    -0.360 N 
HETATM   40  C30 UNL     1     -22.559   8.665   5.083  1.00  0.00     0.180 A 
ATOM     41  H2  UNL     1     -22.292   6.715   5.807  1.00  0.00     0.166 HD
HETATM   42  N3  UNL     1     -22.065   9.888   5.437  1.00  0.00    -0.355 N 
HETATM   43  H41 UNL     1     -22.342  10.775   5.027  1.00  0.00     0.166 HD
ENDBRANCH  36  37
ENDBRANCH  35  36
ENDBRANCH  33  35
ENDBRANCH  30  31
ENDBRANCH  29  30
ENDBRANCH  27  29
ENDBRANCH  26  27
ENDBRANCH  25  26
ENDBRANCH  23  25
ENDBRANCH  20  23
TORSDOF 11
ENDMDL
MODEL 9
REMARK minimizedAffinity -8.76162243
REMARK CNNscore 0.338959843
REMARK CNNaffinity 6.83679008
REMARK  11 active torsions:
REMARK  status: ('A' for Active; 'I' for Inactive)
REMARK    1  A    between atoms: C19_20  and  O2_21 
REMARK    2  A    between atoms: C19_20  and  C20_22 
REMARK    3  A    between atoms: C20_22  and  C21_24 
REMARK    4  A    between atoms: C21_24  and  O4_25 
REMARK    5  A    between atoms: O4_25  and  C22_26 
REMARK    6  A    between atoms: C22_26  and  C23_28 
REMARK    7  A    between atoms: C23_28  and  C24_29 
REMARK    8  A    between atoms: C24_29  and  C25_30 
REMARK       I    between atoms: C25_30  and  N1_32 
REMARK    9  A    between atoms: N1_32  and  C26_33 
REMARK   10  A    between atoms: C26_33  and  C27_34 
REMARK   11  A    between atoms: C27_34  and  C28_35 
ROOT
HETATM    1  C1  UNL     1       1.348   7.901   9.452  1.00  0.00     0.020 C 
HETATM    2  C2  UNL     1       1.683   7.580  10.937  1.00  0.00    -0.016 C 
HETATM    3  C3  UNL     1       2.790   8.571  11.394  1.00  0.00     0.022 C 
HETATM    4  C4  UNL     1       4.093   8.415  10.612  1.00  0.00     0.084 C 
HETATM    5  C5  UNL     1       4.554   6.976  10.600  1.00  0.00     0.149 C 
HETATM    6  O1  UNL     1       5.714   6.669  10.334  1.00  0.00    -0.293 OA
HETATM    7  C6  UNL     1       3.566   5.906  10.879  1.00  0.00     0.053 C 
HETATM    8  C7  UNL     1       2.255   6.168  11.039  1.00  0.00    -0.068 C 
HETATM    9  C8  UNL     1       1.298   5.045  11.341  1.00  0.00     0.035 C 
HETATM   10  C9  UNL     1      -0.108   5.341  10.843  1.00  0.00     0.010 C 
HETATM   11  C10 UNL     1      -0.703   6.618  11.476  1.00  0.00    -0.004 C 
HETATM   12  C11 UNL     1       0.365   7.737  11.784  1.00  0.00     0.002 C 
HETATM   13  C12 UNL     1       0.585   7.889  13.310  1.00  0.00     0.007 C 
HETATM   14  C13 UNL     1      -0.700   8.202  14.102  1.00  0.00     0.013 C 
HETATM   15  C14 UNL     1      -1.956   7.483  13.568  1.00  0.00    -0.002 C 
HETATM   16  C15 UNL     1      -2.786   8.494  12.730  1.00  0.00     0.019 C 
HETATM   17  C16 UNL     1      -1.512   6.257  12.740  1.00  0.00     0.002 C 
HETATM   18  C17 UNL     1      -2.808   5.470  12.536  1.00  0.00     0.009 C 
HETATM   19  C18 UNL     1      -3.635   5.723  13.814  1.00  0.00     0.047 C 
HETATM   20  C19 UNL     1      -2.861   6.783  14.632  1.00  0.00     0.128 C 
ENDROOT
BRANCH  20  21
HETATM   21  O2  UNL     1      -2.063   6.039  15.565  1.00  0.00    -0.381 OA
HETATM   22  H27 UNL     1      -1.677   6.680  16.193  1.00  0.00     0.211 HD
ENDBRANCH  20  21
BRANCH  20  23
HETATM   23  C20 UNL     1      -3.690   7.774  15.474  1.00  0.00     0.185 C 
HETATM   24  O3  UNL     1      -3.104   8.605  16.181  1.00  0.00    -0.292 OA
BRANCH  23  25
HETATM   25  C21 UNL     1      -5.212   7.703  15.400  1.00  0.00     0.260 C 
BRANCH  25  26
HETATM   26  O4  UNL     1      -5.730   6.536  14.766  1.00  0.00    -0.314 OA
BRANCH  26  27
HETATM   27  C22 UNL     1      -6.735   5.899  15.436  1.00  0.00     0.259 C 
HETATM   28  O5  UNL     1      -7.061   6.124  16.591  1.00  0.00    -0.265 OA
BRANCH  27  29
HETATM   29  C23 UNL     1      -7.318   4.825  14.545  1.00  0.00     0.120 C 
BRANCH  29  30
HETATM   30  C24 UNL     1      -7.297   5.235  13.079  1.00  0.00     0.112 C 
BRANCH  30  31
HETATM   31  C25 UNL     1      -8.634   5.788  12.637  1.00  0.00     0.218 C 
HETATM   32  O6  UNL     1      -8.951   5.928  11.463  1.00  0.00    -0.274 OA
HETATM   33  N1  UNL     1      -9.465   6.100  13.689  1.00  0.00    -0.361 N 
HETATM   34  H34 UNL     1      -9.036   6.226  14.600  1.00  0.00     0.162 HD
BRANCH  33  35
HETATM   35  C26 UNL     1     -10.709   6.818  13.466  1.00  0.00     0.128 C 
BRANCH  35  36
HETATM   36  C27 UNL     1     -11.187   7.601  14.698  1.00  0.00     0.078 C 
BRANCH  36  37
HETATM   37  C28 UNL     1     -10.493   8.909  14.853  1.00  0.00     0.027 A 
HETATM   38  C29 UNL     1      -9.216   9.245  15.247  1.00  0.00     0.114 A 
HETATM   39  N2  UNL     1      -9.039  10.605  15.228  1.00  0.00    -0.360 N 
HETATM   40  C30 UNL     1     -10.195  11.102  14.845  1.00  0.00     0.180 A 
ATOM     41  H2  UNL     1      -8.191  11.121  15.460  1.00  0.00     0.166 HD
HETATM   42  N3  UNL     1     -11.102  10.115  14.584  1.00  0.00    -0.355 N 
HETATM   43  H41 UNL     1     -12.040  10.259  14.221  1.00  0.00     0.166 HD
ENDBRANCH  36  37
ENDBRANCH  35  36
ENDBRANCH  33  35
ENDBRANCH  30  31
ENDBRANCH  29  30
ENDBRANCH  27  29
ENDBRANCH  26  27
ENDBRANCH  25  26
ENDBRANCH  23  25
ENDBRANCH  20  23
TORSDOF 11
ENDMDL
