MODEL 1
REMARK minimizedAffinity -9.05975723
REMARK  2 active torsions:
REMARK  status: ('A' for Active; 'I' for Inactive)
REMARK    1  A    between atoms: C1_2  and  C2_3 
REMARK       I    between atoms: C1_2  and  N2_16 
REMARK    2  A    between atoms: C10_14  and  O2_15 
ROOT
HETATM    1  O1  UNL     1      12.708  36.407  15.856  1.00  0.00    -0.267 OA
HETATM    2  C1  UNL     1      13.073  35.986  16.954  1.00  0.00     0.258 C 
HETATM    3  N2  UNL     1      14.380  35.555  17.224  1.00  0.00    -0.339 N 
HETATM    4  C11 UNL     1      14.537  34.224  17.820  1.00  0.00     0.127 C 
HETATM    5  C12 UNL     1      15.913  34.031  18.437  1.00  0.00     0.024 C 
HETATM    6  C13 UNL     1      16.994  34.224  17.385  1.00  0.00     0.037 C 
HETATM    7  C14 UNL     1      16.837  35.565  16.730  1.00  0.00    -0.060 C 
HETATM    8  C15 UNL     1      17.868  36.473  16.662  1.00  0.00    -0.015 C 
HETATM    9  C16 UNL     1      17.773  37.829  15.877  1.00  0.00     0.031 C 
HETATM   10  C17 UNL     1      16.630  37.578  14.938  1.00  0.00     0.019 C 
HETATM   11  C18 UNL     1      15.517  37.410  15.990  1.00  0.00     0.031 C 
HETATM   12  C19 UNL     1      14.838  38.743  16.055  1.00  0.00     0.124 C 
HETATM   13  N3  UNL     1      15.926  39.691  16.507  1.00  0.00    -0.407 N 
HETATM   14  C20 UNL     1      15.783  41.049  15.997  1.00  0.00     0.117 C 
HETATM   15  C21 UNL     1      16.654  41.300  14.771  1.00  0.00     0.019 C 
HETATM   16  C22 UNL     1      18.125  40.943  14.998  1.00  0.00     0.004 C 
HETATM   17  C23 UNL     1      18.372  40.298  16.359  1.00  0.00     0.026 C 
HETATM   18  C24 UNL     1      17.358  39.177  16.668  1.00  0.00     0.086 C 
HETATM   19  C25 UNL     1      15.372  35.913  16.204  1.00  0.00     0.122 C 
ENDROOT
BRANCH   2  20
HETATM   20  C2  UNL     1      12.074  35.987  18.045  1.00  0.00     0.081 A 
HETATM   21  C3  UNL     1      12.455  36.148  19.365  1.00  0.00     0.108 A 
HETATM   22  N1  UNL     1      11.588  36.165  20.408  1.00  0.00    -0.364 N 
HETATM   23  C4  UNL     1      10.274  36.054  20.144  1.00  0.00     0.046 A 
ATOM     24  H1  UNL     1      11.924  36.261  21.366  1.00  0.00     0.165 HD
HETATM   25  C5  UNL     1       9.380  36.079  21.203  1.00  0.00     0.054 A 
HETATM   26  C9  UNL     1       9.772  35.923  18.831  1.00  0.00     0.025 A 
HETATM   27  C6  UNL     1       8.006  35.985  20.990  1.00  0.00     0.036 A 
HETATM   28 CL1  UNL     1       6.927  36.031  22.330  1.00  0.00    -0.084 Cl
HETATM   29  C7  UNL     1       7.498  35.858  19.704  1.00  0.00     0.025 A 
HETATM   30  C8  UNL     1       8.379  35.826  18.626  1.00  0.00     0.018 A 
HETATM   31  C10 UNL     1      10.708  35.907  17.778  1.00  0.00     0.095 A 
BRANCH  31  32
HETATM   32  O2  UNL     1      10.234  35.820  16.487  1.00  0.00    -0.359 OA
HETATM   33  H5  UNL     1      10.961  36.078  15.878  1.00  0.00     0.217 HD
ENDBRANCH  31  32
ENDBRANCH   2  20
TORSDOF 2
ENDMDL
MODEL 2
REMARK minimizedAffinity -8.77248669
REMARK  2 active torsions:
REMARK  status: ('A' for Active; 'I' for Inactive)
REMARK    1  A    between atoms: C1_2  and  C2_3 
REMARK       I    between atoms: C1_2  and  N2_16 
REMARK    2  A    between atoms: C10_14  and  O2_15 
ROOT
HETATM    1  O1  UNL     1      14.538  37.569  17.389  1.00  0.00    -0.267 OA
HETATM    2  C1  UNL     1      15.068  36.483  17.626  1.00  0.00     0.258 C 
HETATM    3  N2  UNL     1      14.984  35.833  18.866  1.00  0.00    -0.339 N 
HETATM    4  C11 UNL     1      16.245  35.414  19.490  1.00  0.00     0.127 C 
HETATM    5  C12 UNL     1      16.026  34.385  20.588  1.00  0.00     0.024 C 
HETATM    6  C13 UNL     1      15.114  34.950  21.666  1.00  0.00     0.037 C 
HETATM    7  C14 UNL     1      13.829  35.422  21.051  1.00  0.00    -0.060 C 
HETATM    8  C15 UNL     1      12.601  34.994  21.500  1.00  0.00    -0.015 C 
HETATM    9  C16 UNL     1      11.240  35.562  20.964  1.00  0.00     0.031 C 
HETATM   10  C17 UNL     1      11.654  36.869  20.355  1.00  0.00     0.019 C 
HETATM   11  C18 UNL     1      12.558  36.312  19.238  1.00  0.00     0.031 C 
HETATM   12  C19 UNL     1      11.700  36.303  18.011  1.00  0.00     0.124 C 
HETATM   13  N3  UNL     1      10.564  35.368  18.359  1.00  0.00    -0.407 N 
HETATM   14  C20 UNL     1       9.301  35.699  17.713  1.00  0.00     0.117 C 
HETATM   15  C21 UNL     1       8.374  36.491  18.630  1.00  0.00     0.019 C 
HETATM   16  C22 UNL     1       8.146  35.812  19.983  1.00  0.00     0.004 C 
HETATM   17  C23 UNL     1       8.996  34.557  20.163  1.00  0.00     0.026 C 
HETATM   18  C24 UNL     1      10.470  34.787  19.772  1.00  0.00     0.086 C 
HETATM   19  C25 UNL     1      13.975  36.376  19.782  1.00  0.00     0.122 C 
ENDROOT
BRANCH   2  20
HETATM   20  C2  UNL     1      15.790  35.826  16.515  1.00  0.00     0.081 A 
HETATM   21  C3  UNL     1      17.062  35.310  16.692  1.00  0.00     0.108 A 
HETATM   22  N1  UNL     1      17.772  34.691  15.717  1.00  0.00    -0.364 N 
HETATM   23  C4  UNL     1      17.196  34.537  14.512  1.00  0.00     0.046 A 
ATOM     24  H1  UNL     1      18.717  34.351  15.893  1.00  0.00     0.165 HD
HETATM   25  C5  UNL     1      17.910  33.898  13.510  1.00  0.00     0.054 A 
HETATM   26  C9  UNL     1      15.888  34.992  14.231  1.00  0.00     0.025 A 
HETATM   27  C6  UNL     1      17.359  33.694  12.246  1.00  0.00     0.036 A 
HETATM   28 CL1  UNL     1      18.275  32.887  11.034  1.00  0.00    -0.084 Cl
HETATM   29  C7  UNL     1      16.074  34.134  11.958  1.00  0.00     0.025 A 
HETATM   30  C8  UNL     1      15.340  34.783  12.947  1.00  0.00     0.018 A 
HETATM   31  C10 UNL     1      15.188  35.631  15.273  1.00  0.00     0.095 A 
BRANCH  31  32
HETATM   32  O2  UNL     1      13.897  36.047  15.029  1.00  0.00    -0.359 OA
HETATM   33  H5  UNL     1      13.467  36.227  15.895  1.00  0.00     0.217 HD
ENDBRANCH  31  32
ENDBRANCH   2  20
TORSDOF 2
ENDMDL
MODEL 3
REMARK minimizedAffinity -8.60861588
REMARK  2 active torsions:
REMARK  status: ('A' for Active; 'I' for Inactive)
REMARK    1  A    between atoms: C1_2  and  C2_3 
REMARK       I    between atoms: C1_2  and  N2_16 
REMARK    2  A    between atoms: C10_14  and  O2_15 
ROOT
HETATM    1  O1  UNL     1      15.736  35.330  17.399  1.00  0.00    -0.267 OA
HETATM    2  C1  UNL     1      15.042  36.307  17.115  1.00  0.00     0.258 C 
HETATM    3  N2  UNL     1      15.552  37.480  16.540  1.00  0.00    -0.339 N 
HETATM    4  C11 UNL     1      15.231  38.748  17.206  1.00  0.00     0.127 C 
HETATM    5  C12 UNL     1      15.471  39.947  16.303  1.00  0.00     0.024 C 
HETATM    6  C13 UNL     1      16.924  39.987  15.855  1.00  0.00     0.037 C 
HETATM    7  C14 UNL     1      17.293  38.688  15.202  1.00  0.00    -0.060 C 
HETATM    8  C15 UNL     1      17.844  38.631  13.944  1.00  0.00    -0.015 C 
HETATM    9  C16 UNL     1      18.356  37.301  13.284  1.00  0.00     0.031 C 
HETATM   10  C17 UNL     1      18.543  36.405  14.472  1.00  0.00     0.019 C 
HETATM   11  C18 UNL     1      17.071  36.328  14.921  1.00  0.00     0.031 C 
HETATM   12  C19 UNL     1      16.556  35.042  14.352  1.00  0.00     0.124 C 
HETATM   13  N3  UNL     1      16.699  35.216  12.857  1.00  0.00    -0.407 N 
HETATM   14  C20 UNL     1      16.954  33.976  12.135  1.00  0.00     0.117 C 
HETATM   15  C21 UNL     1      18.436  33.779  11.831  1.00  0.00     0.019 C 
HETATM   16  C22 UNL     1      19.065  34.978  11.118  1.00  0.00     0.004 C 
HETATM   17  C23 UNL     1      18.103  36.155  10.980  1.00  0.00     0.026 C 
HETATM   18  C24 UNL     1      17.375  36.472  12.302  1.00  0.00     0.086 C 
HETATM   19  C25 UNL     1      16.918  37.369  16.018  1.00  0.00     0.122 C 
ENDROOT
BRANCH   2  20
HETATM   20  C2  UNL     1      13.587  36.197  17.359  1.00  0.00     0.081 A 
HETATM   21  C3  UNL     1      12.687  36.125  16.311  1.00  0.00     0.108 A 
HETATM   22  N1  UNL     1      11.345  36.016  16.469  1.00  0.00    -0.364 N 
HETATM   23  C4  UNL     1      10.857  35.939  17.720  1.00  0.00     0.046 A 
ATOM     24  H1  UNL     1      10.723  35.993  15.661  1.00  0.00     0.165 HD
HETATM   25  C5  UNL     1       9.486  35.819  17.892  1.00  0.00     0.054 A 
HETATM   26  C9  UNL     1      11.687  35.966  18.862  1.00  0.00     0.025 A 
HETATM   27  C6  UNL     1       8.924  35.718  19.163  1.00  0.00     0.036 A 
HETATM   28 CL1  UNL     1       7.219  35.560  19.334  1.00  0.00    -0.084 Cl
HETATM   29  C7  UNL     1       9.729  35.740  20.294  1.00  0.00     0.025 A 
HETATM   30  C8  UNL     1      11.108  35.865  20.145  1.00  0.00     0.018 A 
HETATM   31  C10 UNL     1      13.075  36.082  18.651  1.00  0.00     0.095 A 
BRANCH  31  32
HETATM   32  O2  UNL     1      13.903  36.069  19.752  1.00  0.00    -0.359 OA
HETATM   33  H5  UNL     1      14.821  35.898  19.441  1.00  0.00     0.217 HD
ENDBRANCH  31  32
ENDBRANCH   2  20
TORSDOF 2
ENDMDL
MODEL 4
REMARK minimizedAffinity -8.43878937
REMARK  2 active torsions:
REMARK  status: ('A' for Active; 'I' for Inactive)
REMARK    1  A    between atoms: C1_2  and  C2_3 
REMARK       I    between atoms: C1_2  and  N2_16 
REMARK    2  A    between atoms: C10_14  and  O2_15 
ROOT
HETATM    1  O1  UNL     1      14.083  34.039  17.814  1.00  0.00    -0.267 OA
HETATM    2  C1  UNL     1      13.807  34.538  18.906  1.00  0.00     0.258 C 
HETATM    3  N2  UNL     1      14.753  35.154  19.739  1.00  0.00    -0.339 N 
HETATM    4  C11 UNL     1      14.821  34.694  21.131  1.00  0.00     0.127 C 
HETATM    5  C12 UNL     1      15.560  35.679  22.023  1.00  0.00     0.024 C 
HETATM    6  C13 UNL     1      16.976  35.894  21.511  1.00  0.00     0.037 C 
HETATM    7  C14 UNL     1      16.940  36.329  20.076  1.00  0.00    -0.060 C 
HETATM    8  C15 UNL     1      17.571  37.471  19.641  1.00  0.00    -0.015 C 
HETATM    9  C16 UNL     1      17.658  37.887  18.129  1.00  0.00     0.031 C 
HETATM   10  C17 UNL     1      17.390  36.590  17.423  1.00  0.00     0.019 C 
HETATM   11  C18 UNL     1      15.944  36.373  17.908  1.00  0.00     0.031 C 
HETATM   12  C19 UNL     1      15.080  36.866  16.789  1.00  0.00     0.124 C 
HETATM   13  N3  UNL     1      15.437  38.330  16.664  1.00  0.00    -0.407 N 
HETATM   14  C20 UNL     1      15.322  38.858  15.310  1.00  0.00     0.117 C 
HETATM   15  C21 UNL     1      16.667  38.900  14.592  1.00  0.00     0.019 C 
HETATM   16  C22 UNL     1      17.747  39.637  15.387  1.00  0.00     0.004 C 
HETATM   17  C23 UNL     1      17.275  40.057  16.776  1.00  0.00     0.026 C 
HETATM   18  C24 UNL     1      16.563  38.910  17.523  1.00  0.00     0.086 C 
HETATM   19  C25 UNL     1      16.043  35.439  19.103  1.00  0.00     0.122 C 
ENDROOT
BRANCH   2  20
HETATM   20  C2  UNL     1      12.388  34.514  19.321  1.00  0.00     0.081 A 
HETATM   21  C3  UNL     1      11.954  33.691  20.345  1.00  0.00     0.108 A 
HETATM   22  N1  UNL     1      10.670  33.629  20.777  1.00  0.00    -0.364 N 
HETATM   23  C4  UNL     1       9.766  34.439  20.199  1.00  0.00     0.046 A 
ATOM     24  H1  UNL     1      10.398  32.985  21.519  1.00  0.00     0.165 HD
HETATM   25  C5  UNL     1       8.452  34.389  20.639  1.00  0.00     0.054 A 
HETATM   26  C9  UNL     1      10.106  35.345  19.171  1.00  0.00     0.025 A 
HETATM   27  C6  UNL     1       7.474  35.217  20.090  1.00  0.00     0.036 A 
HETATM   28 CL1  UNL     1       5.857  35.132  20.671  1.00  0.00    -0.084 Cl
HETATM   29  C7  UNL     1       7.795  36.114  19.080  1.00  0.00     0.025 A 
HETATM   30  C8  UNL     1       9.108  36.178  18.620  1.00  0.00     0.018 A 
HETATM   31  C10 UNL     1      11.450  35.375  18.752  1.00  0.00     0.095 A 
BRANCH  31  32
HETATM   32  O2  UNL     1      11.808  36.281  17.777  1.00  0.00    -0.359 OA
HETATM   33  H5  UNL     1      12.789  36.361  17.782  1.00  0.00     0.217 HD
ENDBRANCH  31  32
ENDBRANCH   2  20
TORSDOF 2
ENDMDL
MODEL 5
REMARK minimizedAffinity -8.26781178
REMARK  2 active torsions:
REMARK  status: ('A' for Active; 'I' for Inactive)
REMARK    1  A    between atoms: C1_2  and  C2_3 
REMARK       I    between atoms: C1_2  and  N2_16 
REMARK    2  A    between atoms: C10_14  and  O2_15 
ROOT
HETATM    1  O1  UNL     1       5.532  65.305  -4.244  1.00  0.00    -0.267 OA
HETATM    2  C1  UNL     1       4.723  65.340  -5.172  1.00  0.00     0.258 C 
HETATM    3  N2  UNL     1       5.094  65.430  -6.522  1.00  0.00    -0.339 N 
HETATM    4  C11 UNL     1       4.479  66.499  -7.316  1.00  0.00     0.127 C 
HETATM    5  C12 UNL     1       4.623  66.259  -8.810  1.00  0.00     0.024 C 
HETATM    6  C13 UNL     1       6.093  66.155  -9.188  1.00  0.00     0.037 C 
HETATM    7  C14 UNL     1       6.759  65.093  -8.364  1.00  0.00    -0.060 C 
HETATM    8  C15 UNL     1       7.467  64.060  -8.933  1.00  0.00    -0.015 C 
HETATM    9  C16 UNL     1       8.277  63.006  -8.099  1.00  0.00     0.031 C 
HETATM   10  C17 UNL     1       8.463  63.708  -6.787  1.00  0.00     0.019 C 
HETATM   11  C18 UNL     1       6.981  63.794  -6.374  1.00  0.00     0.031 C 
HETATM   12  C19 UNL     1       6.769  62.644  -5.439  1.00  0.00     0.124 C 
HETATM   13  N3  UNL     1       7.069  61.423  -6.279  1.00  0.00    -0.407 N 
HETATM   14  C20 UNL     1       7.621  60.304  -5.527  1.00  0.00     0.117 C 
HETATM   15  C21 UNL     1       9.141  60.232  -5.633  1.00  0.00     0.019 C 
HETATM   16  C22 UNL     1       9.642  60.233  -7.079  1.00  0.00     0.004 C 
HETATM   17  C23 UNL     1       8.518  60.432  -8.093  1.00  0.00     0.026 C 
HETATM   18  C24 UNL     1       7.585  61.598  -7.710  1.00  0.00     0.086 C 
HETATM   19  C25 UNL     1       6.514  65.179  -6.790  1.00  0.00     0.122 C 
ENDROOT
BRANCH   2  20
HETATM   20  C2  UNL     1       3.290  65.234  -4.824  1.00  0.00     0.081 A 
HETATM   21  C3  UNL     1       2.311  65.256  -5.801  1.00  0.00     0.108 A 
HETATM   22  N1  UNL     1       0.983  65.155  -5.548  1.00  0.00    -0.364 N 
HETATM   23  C4  UNL     1       0.590  64.990  -4.272  1.00  0.00     0.046 A 
ATOM     24  H1  UNL     1       0.300  65.204  -6.304  1.00  0.00     0.165 HD
HETATM   25  C5  UNL     1      -0.765  64.878  -4.003  1.00  0.00     0.054 A 
HETATM   26  C9  UNL     1       1.505  64.916  -3.200  1.00  0.00     0.025 A 
HETATM   27  C6  UNL     1      -1.231  64.689  -2.703  1.00  0.00     0.036 A 
HETATM   28 CL1  UNL     1      -2.921  64.543  -2.412  1.00  0.00    -0.084 Cl
HETATM   29  C7  UNL     1      -0.342  64.612  -1.640  1.00  0.00     0.025 A 
HETATM   30  C8  UNL     1       1.024  64.727  -1.886  1.00  0.00     0.018 A 
HETATM   31  C10 UNL     1       2.876  65.027  -3.508  1.00  0.00     0.095 A 
BRANCH  31  32
HETATM   32  O2  UNL     1       3.785  64.918  -2.479  1.00  0.00    -0.359 OA
HETATM   33  H5  UNL     1       4.672  64.757  -2.873  1.00  0.00     0.217 HD
ENDBRANCH  31  32
ENDBRANCH   2  20
TORSDOF 2
ENDMDL
MODEL 6
REMARK minimizedAffinity -8.23107243
REMARK  2 active torsions:
REMARK  status: ('A' for Active; 'I' for Inactive)
REMARK    1  A    between atoms: C1_2  and  C2_3 
REMARK       I    between atoms: C1_2  and  N2_16 
REMARK    2  A    between atoms: C10_14  and  O2_15 
ROOT
HETATM    1  O1  UNL     1      18.198  51.980   6.867  1.00  0.00    -0.267 OA
HETATM    2  C1  UNL     1      18.413  52.247   5.684  1.00  0.00     0.258 C 
HETATM    3  N2  UNL     1      19.315  51.534   4.880  1.00  0.00    -0.339 N 
HETATM    4  C11 UNL     1      20.334  52.310   4.165  1.00  0.00     0.127 C 
HETATM    5  C12 UNL     1      20.972  51.517   3.035  1.00  0.00     0.024 C 
HETATM    6  C13 UNL     1      21.616  50.251   3.579  1.00  0.00     0.037 C 
HETATM    7  C14 UNL     1      20.605  49.453   4.348  1.00  0.00    -0.060 C 
HETATM    8  C15 UNL     1      20.352  48.130   4.071  1.00  0.00    -0.015 C 
HETATM    9  C16 UNL     1      19.394  47.235   4.935  1.00  0.00     0.031 C 
HETATM   10  C17 UNL     1      19.328  47.990   6.229  1.00  0.00     0.019 C 
HETATM   11  C18 UNL     1      18.647  49.268   5.701  1.00  0.00     0.031 C 
HETATM   12  C19 UNL     1      17.194  49.096   6.021  1.00  0.00     0.124 C 
HETATM   13  N3  UNL     1      16.789  47.861   5.250  1.00  0.00    -0.407 N 
HETATM   14  C20 UNL     1      15.729  47.085   5.882  1.00  0.00     0.117 C 
HETATM   15  C21 UNL     1      16.276  45.901   6.674  1.00  0.00     0.019 C 
HETATM   16  C22 UNL     1      17.204  45.007   5.849  1.00  0.00     0.004 C 
HETATM   17  C23 UNL     1      17.478  45.566   4.455  1.00  0.00     0.026 C 
HETATM   18  C24 UNL     1      17.849  47.062   4.488  1.00  0.00     0.086 C 
HETATM   19  C25 UNL     1      19.770  50.259   5.443  1.00  0.00     0.122 C 
ENDROOT
BRANCH   2  20
HETATM   20  C2  UNL     1      17.635  53.354   5.088  1.00  0.00     0.081 A 
HETATM   21  C3  UNL     1      18.258  54.379   4.398  1.00  0.00     0.108 A 
HETATM   22  N1  UNL     1      17.601  55.416   3.823  1.00  0.00    -0.364 N 
HETATM   23  C4  UNL     1      16.259  55.438   3.897  1.00  0.00     0.046 A 
ATOM     24  H1  UNL     1      18.112  56.160   3.348  1.00  0.00     0.165 HD
HETATM   25  C5  UNL     1      15.577  56.490   3.305  1.00  0.00     0.054 A 
HETATM   26  C9  UNL     1      15.518  54.425   4.545  1.00  0.00     0.025 A 
HETATM   27  C6  UNL     1      14.185  56.557   3.335  1.00  0.00     0.036 A 
HETATM   28 CL1  UNL     1      13.376  57.874   2.580  1.00  0.00    -0.084 Cl
HETATM   29  C7  UNL     1      13.445  55.567   3.966  1.00  0.00     0.025 A 
HETATM   30  C8  UNL     1      14.109  54.503   4.571  1.00  0.00     0.018 A 
HETATM   31  C10 UNL     1      16.241  53.366   5.130  1.00  0.00     0.095 A 
BRANCH  31  32
HETATM   32  O2  UNL     1      15.533  52.349   5.731  1.00  0.00    -0.359 OA
HETATM   33  H5  UNL     1      16.142  51.586   5.853  1.00  0.00     0.217 HD
ENDBRANCH  31  32
ENDBRANCH   2  20
TORSDOF 2
ENDMDL
MODEL 7
REMARK minimizedAffinity -7.67044497
REMARK  2 active torsions:
REMARK  status: ('A' for Active; 'I' for Inactive)
REMARK    1  A    between atoms: C1_2  and  C2_3 
REMARK       I    between atoms: C1_2  and  N2_16 
REMARK    2  A    between atoms: C10_14  and  O2_15 
ROOT
HETATM    1  O1  UNL     1       2.467  65.438  -1.551  1.00  0.00    -0.267 OA
HETATM    2  C1  UNL     1       1.855  65.499  -2.618  1.00  0.00     0.258 C 
HETATM    3  N2  UNL     1       0.459  65.411  -2.717  1.00  0.00    -0.339 N 
HETATM    4  C11 UNL     1      -0.087  64.421  -3.652  1.00  0.00     0.127 C 
HETATM    5  C12 UNL     1      -1.547  64.687  -3.981  1.00  0.00     0.024 C 
HETATM    6  C13 UNL     1      -2.384  64.671  -2.711  1.00  0.00     0.037 C 
HETATM    7  C14 UNL     1      -1.828  65.649  -1.719  1.00  0.00    -0.060 C 
HETATM    8  C15 UNL     1      -2.601  66.631  -1.145  1.00  0.00    -0.015 C 
HETATM    9  C16 UNL     1      -2.082  67.588  -0.014  1.00  0.00     0.031 C 
HETATM   10  C17 UNL     1      -0.899  66.838   0.524  1.00  0.00     0.019 C 
HETATM   11  C18 UNL     1      -0.025  66.872  -0.744  1.00  0.00     0.031 C 
HETATM   12  C19 UNL     1       0.923  68.011  -0.534  1.00  0.00     0.124 C 
HETATM   13  N3  UNL     1       0.026  69.223  -0.414  1.00  0.00    -0.407 N 
HETATM   14  C20 UNL     1       0.552  70.270   0.452  1.00  0.00     0.117 C 
HETATM   15  C21 UNL     1      -0.045  70.211   1.855  1.00  0.00     0.019 C 
HETATM   16  C22 UNL     1      -1.575  70.204   1.855  1.00  0.00     0.004 C 
HETATM   17  C23 UNL     1      -2.165  70.130   0.449  1.00  0.00     0.026 C 
HETATM   18  C24 UNL     1      -1.493  69.041  -0.411  1.00  0.00     0.086 C 
HETATM   19  C25 UNL     1      -0.260  65.544  -1.445  1.00  0.00     0.122 C 
ENDROOT
BRANCH   2  20
HETATM   20  C2  UNL     1       2.652  65.721  -3.844  1.00  0.00     0.081 A 
HETATM   21  C3  UNL     1       2.292  66.685  -4.769  1.00  0.00     0.108 A 
HETATM   22  N1  UNL     1       2.984  66.941  -5.906  1.00  0.00    -0.364 N 
HETATM   23  C4  UNL     1       4.108  66.242  -6.137  1.00  0.00     0.046 A 
ATOM     24  H1  UNL     1       2.660  67.646  -6.568  1.00  0.00     0.165 HD
HETATM   25  C5  UNL     1       4.828  66.502  -7.294  1.00  0.00     0.054 A 
HETATM   26  C9  UNL     1       4.589  65.260  -5.243  1.00  0.00     0.025 A 
HETATM   27  C6  UNL     1       6.009  65.821  -7.579  1.00  0.00     0.036 A 
HETATM   28 CL1  UNL     1       6.879  66.181  -9.019  1.00  0.00    -0.084 Cl
HETATM   29  C7  UNL     1       6.495  64.855  -6.707  1.00  0.00     0.025 A 
HETATM   30  C8  UNL     1       5.786  64.574  -5.542  1.00  0.00     0.018 A 
HETATM   31  C10 UNL     1       3.838  65.024  -4.075  1.00  0.00     0.095 A 
BRANCH  31  32
HETATM   32  O2  UNL     1       4.313  64.098  -3.172  1.00  0.00    -0.359 OA
HETATM   33  H5  UNL     1       3.839  64.233  -2.320  1.00  0.00     0.217 HD
ENDBRANCH  31  32
ENDBRANCH   2  20
TORSDOF 2
ENDMDL
MODEL 8
REMARK minimizedAffinity -7.5384798
REMARK  2 active torsions:
REMARK  status: ('A' for Active; 'I' for Inactive)
REMARK    1  A    between atoms: C1_2  and  C2_3 
REMARK       I    between atoms: C1_2  and  N2_16 
REMARK    2  A    between atoms: C10_14  and  O2_15 
ROOT
HETATM    1  O1  UNL     1      14.402  54.775  -4.470  1.00  0.00    -0.267 OA
HETATM    2  C1  UNL     1      13.941  54.463  -3.372  1.00  0.00     0.258 C 
HETATM    3  N2  UNL     1      13.436  55.392  -2.450  1.00  0.00    -0.339 N 
HETATM    4  C11 UNL     1      13.969  55.339  -1.084  1.00  0.00     0.127 C 
HETATM    5  C12 UNL     1      13.086  56.083  -0.095  1.00  0.00     0.024 C 
HETATM    6  C13 UNL     1      12.947  57.540  -0.506  1.00  0.00     0.037 C 
HETATM    7  C14 UNL     1      12.438  57.628  -1.915  1.00  0.00    -0.060 C 
HETATM    8  C15 UNL     1      11.324  58.362  -2.248  1.00  0.00    -0.015 C 
HETATM    9  C16 UNL     1      10.839  58.574  -3.726  1.00  0.00     0.031 C 
HETATM   10  C17 UNL     1      12.076  58.267  -4.517  1.00  0.00     0.019 C 
HETATM   11  C18 UNL     1      12.215  56.781  -4.135  1.00  0.00     0.031 C 
HETATM   12  C19 UNL     1      11.605  56.026  -5.276  1.00  0.00     0.124 C 
HETATM   13  N3  UNL     1      10.165  56.489  -5.298  1.00  0.00    -0.407 N 
HETATM   14  C20 UNL     1       9.564  56.499  -6.626  1.00  0.00     0.117 C 
HETATM   15  C21 UNL     1       9.581  57.887  -7.257  1.00  0.00     0.019 C 
HETATM   16  C22 UNL     1       8.964  58.961  -6.358  1.00  0.00     0.004 C 
HETATM   17  C23 UNL     1       8.582  58.429  -4.979  1.00  0.00     0.026 C 
HETATM   18  C24 UNL     1       9.711  57.593  -4.341  1.00  0.00     0.086 C 
HETATM   19  C25 UNL     1      13.212  56.738  -2.989  1.00  0.00     0.122 C 
ENDROOT
BRANCH   2  20
HETATM   20  C2  UNL     1      13.884  53.022  -3.047  1.00  0.00     0.081 A 
HETATM   21  C3  UNL     1      15.001  52.214  -3.172  1.00  0.00     0.108 A 
HETATM   22  N1  UNL     1      15.016  50.890  -2.884  1.00  0.00    -0.364 N 
HETATM   23  C4  UNL     1      13.887  50.329  -2.415  1.00  0.00     0.046 A 
ATOM     24  H1  UNL     1      15.861  50.334  -3.018  1.00  0.00     0.165 HD
HETATM   25  C5  UNL     1      13.895  48.976  -2.109  1.00  0.00     0.054 A 
HETATM   26  C9  UNL     1      12.700  51.066  -2.213  1.00  0.00     0.025 A 
HETATM   27  C6  UNL     1      12.760  48.344  -1.604  1.00  0.00     0.036 A 
HETATM   28 CL1  UNL     1      12.813  46.666  -1.226  1.00  0.00    -0.084 Cl
HETATM   29  C7  UNL     1      11.587  49.057  -1.398  1.00  0.00     0.025 A 
HETATM   30  C8  UNL     1      11.556  50.416  -1.703  1.00  0.00     0.018 A 
HETATM   31  C10 UNL     1      12.728  52.439  -2.528  1.00  0.00     0.095 A 
BRANCH  31  32
HETATM   32  O2  UNL     1      11.591  53.183  -2.300  1.00  0.00    -0.359 OA
HETATM   33  H5  UNL     1      11.841  54.134  -2.318  1.00  0.00     0.217 HD
ENDBRANCH  31  32
ENDBRANCH   2  20
TORSDOF 2
ENDMDL
MODEL 9
REMARK minimizedAffinity -7.5038743
REMARK  2 active torsions:
REMARK  status: ('A' for Active; 'I' for Inactive)
REMARK    1  A    between atoms: C1_2  and  C2_3 
REMARK       I    between atoms: C1_2  and  N2_16 
REMARK    2  A    between atoms: C10_14  and  O2_15 
ROOT
HETATM    1  O1  UNL     1       2.066  67.568  -3.802  1.00  0.00    -0.267 OA
HETATM    2  C1  UNL     1       2.219  66.361  -3.997  1.00  0.00     0.258 C 
HETATM    3  N2  UNL     1       1.279  65.391  -3.623  1.00  0.00    -0.339 N 
HETATM    4  C11 UNL     1       1.761  64.267  -2.812  1.00  0.00     0.127 C 
HETATM    5  C12 UNL     1       0.788  63.098  -2.815  1.00  0.00     0.024 C 
HETATM    6  C13 UNL     1      -0.566  63.539  -2.281  1.00  0.00     0.037 C 
HETATM    7  C14 UNL     1      -1.069  64.713  -3.068  1.00  0.00    -0.060 C 
HETATM    8  C15 UNL     1      -2.308  64.718  -3.664  1.00  0.00    -0.015 C 
HETATM    9  C16 UNL     1      -2.913  65.973  -4.387  1.00  0.00     0.031 C 
HETATM   10  C17 UNL     1      -2.103  67.097  -3.813  1.00  0.00     0.019 C 
HETATM   11  C18 UNL     1      -0.728  66.682  -4.372  1.00  0.00     0.031 C 
HETATM   12  C19 UNL     1      -0.541  67.515  -5.602  1.00  0.00     0.124 C 
HETATM   13  N3  UNL     1      -1.683  67.105  -6.505  1.00  0.00    -0.407 N 
HETATM   14  C20 UNL     1      -2.159  68.166  -7.382  1.00  0.00     0.117 C 
HETATM   15  C21 UNL     1      -3.399  68.860  -6.827  1.00  0.00     0.019 C 
HETATM   16  C22 UNL     1      -4.524  67.884  -6.473  1.00  0.00     0.004 C 
HETATM   17  C23 UNL     1      -4.110  66.423  -6.635  1.00  0.00     0.026 C 
HETATM   18  C24 UNL     1      -2.742  66.128  -5.988  1.00  0.00     0.086 C 
HETATM   19  C25 UNL     1      -0.040  65.917  -3.254  1.00  0.00     0.122 C 
ENDROOT
BRANCH   2  20
HETATM   20  C2  UNL     1       3.448  65.941  -4.704  1.00  0.00     0.081 A 
HETATM   21  C3  UNL     1       4.346  65.064  -4.122  1.00  0.00     0.108 A 
HETATM   22  N1  UNL     1       5.484  64.635  -4.720  1.00  0.00    -0.364 N 
HETATM   23  C4  UNL     1       5.744  65.059  -5.970  1.00  0.00     0.046 A 
ATOM     24  H1  UNL     1       6.126  64.008  -4.236  1.00  0.00     0.165 HD
HETATM   25  C5  UNL     1       6.902  64.620  -6.594  1.00  0.00     0.054 A 
HETATM   26  C9  UNL     1       4.878  65.926  -6.673  1.00  0.00     0.025 A 
HETATM   27  C6  UNL     1       7.215  65.012  -7.894  1.00  0.00     0.036 A 
HETATM   28 CL1  UNL     1       8.656  64.436  -8.637  1.00  0.00    -0.084 Cl
HETATM   29  C7  UNL     1       6.372  65.861  -8.597  1.00  0.00     0.025 A 
HETATM   30  C8  UNL     1       5.206  66.319  -7.988  1.00  0.00     0.018 A 
HETATM   31  C10 UNL     1       3.708  66.348  -6.013  1.00  0.00     0.095 A 
BRANCH  31  32
HETATM   32  O2  UNL     1       2.832  67.161  -6.697  1.00  0.00    -0.359 OA
HETATM   33  H5  UNL     1       1.972  67.154  -6.219  1.00  0.00     0.217 HD
ENDBRANCH  31  32
ENDBRANCH   2  20
TORSDOF 2
ENDMDL
