MODEL 1
REMARK minimizedAffinity -7.3989315
REMARK CNNscore 0.400617927
REMARK CNNaffinity 6.75056458
REMARK  6 active torsions:
REMARK  status: ('A' for Active; 'I' for Inactive)
REMARK    1  A    between atoms: C2_2  and  C30_32 
REMARK    2  A    between atoms: C3_3  and  C4_4 
REMARK    3  A    between atoms: C4_4  and  C5_6 
REMARK    4  A    between atoms: C5_6  and  C6_7 
REMARK    5  A    between atoms: C6_7  and  C8_9 
REMARK    6  A    between atoms: C30_32  and  O4_34 
ROOT
HETATM    1  C8  UNL     1      -1.676   9.741  14.990  1.00  0.00    -0.001 C 
HETATM    2  C9  UNL     1      -0.559   9.036  14.162  1.00  0.00     0.007 C 
HETATM    3  C10 UNL     1      -1.161   7.747  13.574  1.00  0.00     0.015 C 
HETATM    4  C11 UNL     1      -2.682   7.899  13.775  1.00  0.00    -0.013 C 
HETATM    5  C12 UNL     1      -3.191   8.764  12.581  1.00  0.00     0.021 C 
HETATM    6  C13 UNL     1      -3.537   6.641  13.778  1.00  0.00    -0.070 C 
HETATM    7  C14 UNL     1      -3.163   5.484  13.201  1.00  0.00    -0.022 C 
HETATM    8  C15 UNL     1      -4.085   4.303  13.142  1.00  0.00     0.034 C 
HETATM    9  C16 UNL     1      -5.510   4.809  12.871  1.00  0.00     0.013 C 
HETATM   10  C17 UNL     1      -6.525   3.709  12.429  1.00  0.00     0.018 C 
HETATM   11  C18 UNL     1      -6.340   3.395  10.929  1.00  0.00     0.023 C 
HETATM   12  C19 UNL     1      -6.372   2.386  13.202  1.00  0.00     0.023 C 
HETATM   13  C20 UNL     1      -7.957   4.241  12.585  1.00  0.00     0.135 C 
HETATM   14  O2  UNL     1      -8.926   3.484  12.669  1.00  0.00    -0.297 OA
HETATM   15  C21 UNL     1      -8.166   5.739  12.522  1.00  0.00     0.080 C 
HETATM   16  C22 UNL     1      -7.196   6.562  13.375  1.00  0.00     0.017 C 
HETATM   17  C23 UNL     1      -6.024   5.766  14.007  1.00  0.00    -0.031 C 
HETATM   18  C24 UNL     1      -6.572   5.010  15.247  1.00  0.00     0.016 C 
HETATM   19  C25 UNL     1      -4.852   6.700  14.562  1.00  0.00     0.024 C 
HETATM   20  C26 UNL     1      -5.287   8.135  14.945  1.00  0.00     0.010 C 
HETATM   21  C27 UNL     1      -4.173   9.065  15.478  1.00  0.00     0.011 C 
HETATM   22  C28 UNL     1      -2.730   8.599  15.180  1.00  0.00    -0.029 C 
HETATM   23  C29 UNL     1      -2.254   7.674  16.346  1.00  0.00     0.016 C 
ENDROOT
BRANCH   1  24
HETATM   24  C6  UNL     1      -1.104  10.478  16.236  1.00  0.00    -0.007 C 
HETATM   25  C7  UNL     1       0.176   9.820  16.764  1.00  0.00     0.011 C 
BRANCH  24  26
HETATM   26  C5  UNL     1      -2.145  10.516  17.381  1.00  0.00     0.087 C 
BRANCH  26  27
HETATM   27  C4  UNL     1      -2.972  11.789  17.343  1.00  0.00     0.150 C 
HETATM   28  O1  UNL     1      -2.893  12.589  16.415  1.00  0.00    -0.293 OA
BRANCH  27  29
HETATM   29  C3  UNL     1      -3.936  12.000  18.461  1.00  0.00     0.063 C 
HETATM   30  C2  UNL     1      -4.006  13.129  19.188  1.00  0.00     0.015 C 
HETATM   31  C1  UNL     1      -5.052  13.359  20.233  1.00  0.00     0.055 C 
BRANCH  30  32
HETATM   32  C30 UNL     1      -3.064  14.249  19.011  1.00  0.00     0.171 C 
HETATM   33  O3  UNL     1      -3.314  15.306  18.461  1.00  0.00    -0.646 OA
BRANCH  32  34
HETATM   34  O4  UNL     1      -1.902  14.033  19.649  1.00  0.00    -0.773 OA
HETATM   35  H44 UNL     1      -1.359  14.811  19.408  1.00  0.00     0.167 HD
ENDBRANCH  32  34
ENDBRANCH  30  32
ENDBRANCH  27  29
ENDBRANCH  26  27
ENDBRANCH  24  26
ENDBRANCH   1  24
TORSDOF 6
ENDMDL
MODEL 2
REMARK minimizedAffinity -8.94347668
REMARK CNNscore 0.346301079
REMARK CNNaffinity 7.12445879
REMARK  6 active torsions:
REMARK  status: ('A' for Active; 'I' for Inactive)
REMARK    1  A    between atoms: C2_2  and  C30_32 
REMARK    2  A    between atoms: C3_3  and  C4_4 
REMARK    3  A    between atoms: C4_4  and  C5_6 
REMARK    4  A    between atoms: C5_6  and  C6_7 
REMARK    5  A    between atoms: C6_7  and  C8_9 
REMARK    6  A    between atoms: C30_32  and  O4_34 
ROOT
HETATM    1  C8  UNL     1      -5.219   5.528  14.506  1.00  0.00    -0.001 C 
HETATM    2  C9  UNL     1      -4.764   6.532  15.607  1.00  0.00     0.007 C 
HETATM    3  C10 UNL     1      -5.955   7.457  15.913  1.00  0.00     0.015 C 
HETATM    4  C11 UNL     1      -7.165   6.767  15.251  1.00  0.00    -0.013 C 
HETATM    5  C12 UNL     1      -7.655   5.688  16.265  1.00  0.00     0.021 C 
HETATM    6  C13 UNL     1      -8.385   7.614  14.918  1.00  0.00    -0.070 C 
HETATM    7  C14 UNL     1      -8.670   8.780  15.526  1.00  0.00    -0.022 C 
HETATM    8  C15 UNL     1      -9.937   9.526  15.234  1.00  0.00     0.034 C 
HETATM    9  C16 UNL     1     -11.076   8.509  15.068  1.00  0.00     0.013 C 
HETATM   10  C17 UNL     1     -12.513   9.117  15.113  1.00  0.00     0.018 C 
HETATM   11  C18 UNL     1     -12.933   9.363  16.578  1.00  0.00     0.023 C 
HETATM   12  C19 UNL     1     -12.637  10.457  14.364  1.00  0.00     0.023 C 
HETATM   13  C20 UNL     1     -13.516   8.105  14.541  1.00  0.00     0.135 C 
HETATM   14  O2  UNL     1     -14.621   8.452  14.120  1.00  0.00    -0.297 OA
HETATM   15  C21 UNL     1     -13.156   6.636  14.609  1.00  0.00     0.080 C 
HETATM   16  C22 UNL     1     -11.735   6.298  14.145  1.00  0.00     0.017 C 
HETATM   17  C23 UNL     1     -10.814   7.518  13.876  1.00  0.00    -0.031 C 
HETATM   18  C24 UNL     1     -11.193   8.108  12.491  1.00  0.00     0.016 C 
HETATM   19  C25 UNL     1      -9.268   7.130  13.765  1.00  0.00     0.024 C 
HETATM   20  C26 UNL     1      -8.990   5.669  13.334  1.00  0.00     0.010 C 
HETATM   21  C27 UNL     1      -7.503   5.263  13.225  1.00  0.00     0.011 C 
HETATM   22  C28 UNL     1      -6.510   6.207  13.938  1.00  0.00    -0.029 C 
HETATM   23  C29 UNL     1      -6.081   7.328  12.938  1.00  0.00     0.016 C 
ENDROOT
BRANCH   1  24
HETATM   24  C6  UNL     1      -4.057   5.152  13.541  1.00  0.00    -0.007 C 
HETATM   25  C7  UNL     1      -3.493   6.373  12.806  1.00  0.00     0.011 C 
BRANCH  24  26
HETATM   26  C5  UNL     1      -4.526   4.118  12.488  1.00  0.00     0.087 C 
BRANCH  26  27
HETATM   27  C4  UNL     1      -3.554   4.023  11.326  1.00  0.00     0.150 C 
HETATM   28  O1  UNL     1      -3.922   3.726  10.192  1.00  0.00    -0.293 OA
BRANCH  27  29
HETATM   29  C3  UNL     1      -2.131   4.365  11.607  1.00  0.00     0.063 C 
HETATM   30  C2  UNL     1      -1.120   3.482  11.545  1.00  0.00     0.015 C 
HETATM   31  C1  UNL     1       0.314   3.872  11.726  1.00  0.00     0.055 C 
BRANCH  30  32
HETATM   32  C30 UNL     1      -1.332   2.047  11.279  1.00  0.00     0.171 C 
HETATM   33  O3  UNL     1      -2.400   1.466  11.335  1.00  0.00    -0.646 OA
BRANCH  32  34
HETATM   34  O4  UNL     1      -0.216   1.450  10.828  1.00  0.00    -0.773 OA
HETATM   35  H44 UNL     1      -0.476   0.510  10.746  1.00  0.00     0.167 HD
ENDBRANCH  32  34
ENDBRANCH  30  32
ENDBRANCH  27  29
ENDBRANCH  26  27
ENDBRANCH  24  26
ENDBRANCH   1  24
TORSDOF 6
ENDMDL
MODEL 3
REMARK minimizedAffinity -8.92852402
REMARK CNNscore 0.323124021
REMARK CNNaffinity 6.83959007
REMARK  6 active torsions:
REMARK  status: ('A' for Active; 'I' for Inactive)
REMARK    1  A    between atoms: C2_2  and  C30_32 
REMARK    2  A    between atoms: C3_3  and  C4_4 
REMARK    3  A    between atoms: C4_4  and  C5_6 
REMARK    4  A    between atoms: C5_6  and  C6_7 
REMARK    5  A    between atoms: C6_7  and  C8_9 
REMARK    6  A    between atoms: C30_32  and  O4_34 
ROOT
HETATM    1  C8  UNL     1       1.586   7.504  12.771  1.00  0.00    -0.001 C 
HETATM    2  C9  UNL     1       1.316   8.970  12.315  1.00  0.00     0.007 C 
HETATM    3  C10 UNL     1      -0.197   9.221  12.430  1.00  0.00     0.015 C 
HETATM    4  C11 UNL     1      -0.727   8.039  13.266  1.00  0.00    -0.013 C 
HETATM    5  C12 UNL     1      -0.481   8.419  14.758  1.00  0.00     0.021 C 
HETATM    6  C13 UNL     1      -2.204   7.686  13.161  1.00  0.00    -0.070 C 
HETATM    7  C14 UNL     1      -3.150   8.554  12.759  1.00  0.00    -0.022 C 
HETATM    8  C15 UNL     1      -4.604   8.189  12.770  1.00  0.00     0.034 C 
HETATM    9  C16 UNL     1      -4.888   7.353  14.027  1.00  0.00     0.013 C 
HETATM   10  C17 UNL     1      -6.399   7.190  14.381  1.00  0.00     0.018 C 
HETATM   11  C18 UNL     1      -6.911   8.458  15.096  1.00  0.00     0.023 C 
HETATM   12  C19 UNL     1      -7.297   6.958  13.151  1.00  0.00     0.023 C 
HETATM   13  C20 UNL     1      -6.571   6.034  15.376  1.00  0.00     0.135 C 
HETATM   14  O2  UNL     1      -7.652   5.460  15.527  1.00  0.00    -0.297 OA
HETATM   15  C21 UNL     1      -5.395   5.682  16.262  1.00  0.00     0.080 C 
HETATM   16  C22 UNL     1      -4.052   5.563  15.534  1.00  0.00     0.017 C 
HETATM   17  C23 UNL     1      -4.055   6.020  14.051  1.00  0.00    -0.031 C 
HETATM   18  C24 UNL     1      -4.688   4.884  13.202  1.00  0.00     0.016 C 
HETATM   19  C25 UNL     1      -2.590   6.233  13.452  1.00  0.00     0.024 C 
HETATM   20  C26 UNL     1      -1.474   5.417  14.149  1.00  0.00     0.010 C 
HETATM   21  C27 UNL     1      -0.043   5.608  13.595  1.00  0.00     0.011 C 
HETATM   22  C28 UNL     1       0.159   6.863  12.718  1.00  0.00    -0.029 C 
HETATM   23  C29 UNL     1      -0.161   6.491  11.234  1.00  0.00     0.016 C 
ENDROOT
BRANCH   1  24
HETATM   24  C6  UNL     1       2.755   6.850  11.980  1.00  0.00    -0.007 C 
HETATM   25  C7  UNL     1       3.707   7.892  11.381  1.00  0.00     0.011 C 
BRANCH  24  26
HETATM   26  C5  UNL     1       2.217   5.960  10.834  1.00  0.00     0.087 C 
BRANCH  26  27
HETATM   27  C4  UNL     1       3.173   5.927   9.655  1.00  0.00     0.150 C 
HETATM   28  O1  UNL     1       4.391   5.881   9.805  1.00  0.00    -0.293 OA
BRANCH  27  29
HETATM   29  C3  UNL     1       2.564   5.891   8.294  1.00  0.00     0.063 C 
HETATM   30  C2  UNL     1       2.275   6.988   7.572  1.00  0.00     0.015 C 
HETATM   31  C1  UNL     1       1.765   6.925   6.167  1.00  0.00     0.055 C 
BRANCH  30  32
HETATM   32  C30 UNL     1       2.449   8.354   8.097  1.00  0.00     0.171 C 
HETATM   33  O3  UNL     1       3.389   9.090   7.861  1.00  0.00    -0.646 OA
BRANCH  32  34
HETATM   34  O4  UNL     1       1.371   8.769   8.783  1.00  0.00    -0.773 OA
HETATM   35  H44 UNL     1       1.636   9.651   9.117  1.00  0.00     0.167 HD
ENDBRANCH  32  34
ENDBRANCH  30  32
ENDBRANCH  27  29
ENDBRANCH  26  27
ENDBRANCH  24  26
ENDBRANCH   1  24
TORSDOF 6
ENDMDL
MODEL 4
REMARK minimizedAffinity -6.95332956
REMARK CNNscore 0.307299346
REMARK CNNaffinity 6.62459564
REMARK  6 active torsions:
REMARK  status: ('A' for Active; 'I' for Inactive)
REMARK    1  A    between atoms: C2_2  and  C30_32 
REMARK    2  A    between atoms: C3_3  and  C4_4 
REMARK    3  A    between atoms: C4_4  and  C5_6 
REMARK    4  A    between atoms: C5_6  and  C6_7 
REMARK    5  A    between atoms: C6_7  and  C8_9 
REMARK    6  A    between atoms: C30_32  and  O4_34 
ROOT
HETATM    1  C8  UNL     1     -14.449   8.877  14.143  1.00  0.00    -0.001 C 
HETATM    2  C9  UNL     1     -14.723   7.918  12.945  1.00  0.00     0.007 C 
HETATM    3  C10 UNL     1     -13.407   7.186  12.626  1.00  0.00     0.015 C 
HETATM    4  C11 UNL     1     -12.500   7.466  13.841  1.00  0.00    -0.013 C 
HETATM    5  C12 UNL     1     -12.899   6.420  14.928  1.00  0.00     0.021 C 
HETATM    6  C13 UNL     1     -10.995   7.333  13.663  1.00  0.00    -0.070 C 
HETATM    7  C14 UNL     1     -10.422   6.591  12.697  1.00  0.00    -0.022 C 
HETATM    8  C15 UNL     1      -8.936   6.411  12.626  1.00  0.00     0.034 C 
HETATM    9  C16 UNL     1      -8.392   6.267  14.056  1.00  0.00     0.013 C 
HETATM   10  C17 UNL     1      -6.933   5.722  14.152  1.00  0.00     0.018 C 
HETATM   11  C18 UNL     1      -6.933   4.187  13.987  1.00  0.00     0.023 C 
HETATM   12  C19 UNL     1      -5.987   6.303  13.084  1.00  0.00     0.023 C 
HETATM   13  C20 UNL     1      -6.372   6.005  15.553  1.00  0.00     0.135 C 
HETATM   14  O2  UNL     1      -5.160   6.024  15.777  1.00  0.00    -0.297 OA
HETATM   15  C21 UNL     1      -7.357   6.152  16.693  1.00  0.00     0.080 C 
HETATM   16  C22 UNL     1      -8.549   7.069  16.402  1.00  0.00     0.017 C 
HETATM   17  C23 UNL     1      -8.682   7.541  14.929  1.00  0.00    -0.031 C 
HETATM   18  C24 UNL     1      -7.662   8.689  14.700  1.00  0.00     0.016 C 
HETATM   19  C25 UNL     1     -10.112   8.169  14.593  1.00  0.00     0.024 C 
HETATM   20  C26 UNL     1     -10.868   8.759  15.809  1.00  0.00     0.010 C 
HETATM   21  C27 UNL     1     -12.258   9.368  15.516  1.00  0.00     0.011 C 
HETATM   22  C28 UNL     1     -12.886   8.953  14.167  1.00  0.00    -0.029 C 
HETATM   23  C29 UNL     1     -12.422   9.964  13.069  1.00  0.00     0.016 C 
ENDROOT
BRANCH   1  24
HETATM   24  C6  UNL     1     -15.284  10.187  14.046  1.00  0.00    -0.007 C 
HETATM   25  C7  UNL     1     -14.787  11.266  15.015  1.00  0.00     0.011 C 
BRANCH  24  26
HETATM   26  C5  UNL     1     -16.778   9.912  14.341  1.00  0.00     0.087 C 
BRANCH  26  27
HETATM   27  C4  UNL     1     -17.679  10.518  13.279  1.00  0.00     0.150 C 
HETATM   28  O1  UNL     1     -17.548  11.679  12.899  1.00  0.00    -0.293 OA
BRANCH  27  29
HETATM   29  C3  UNL     1     -18.699   9.619  12.667  1.00  0.00     0.063 C 
HETATM   30  C2  UNL     1     -18.622   9.139  11.414  1.00  0.00     0.015 C 
HETATM   31  C1  UNL     1     -19.601   8.154  10.859  1.00  0.00     0.055 C 
BRANCH  30  32
HETATM   32  C30 UNL     1     -17.553   9.531  10.477  1.00  0.00     0.171 C 
HETATM   33  O3  UNL     1     -16.374   9.250  10.588  1.00  0.00    -0.646 OA
BRANCH  32  34
HETATM   34  O4  UNL     1     -18.043  10.141   9.385  1.00  0.00    -0.773 OA
HETATM   35  H44 UNL     1     -17.240  10.393   8.883  1.00  0.00     0.167 HD
ENDBRANCH  32  34
ENDBRANCH  30  32
ENDBRANCH  27  29
ENDBRANCH  26  27
ENDBRANCH  24  26
ENDBRANCH   1  24
TORSDOF 6
ENDMDL
MODEL 5
REMARK minimizedAffinity -6.93467522
REMARK CNNscore 0.283177972
REMARK CNNaffinity 5.59503937
REMARK  6 active torsions:
REMARK  status: ('A' for Active; 'I' for Inactive)
REMARK    1  A    between atoms: C2_2  and  C30_32 
REMARK    2  A    between atoms: C3_3  and  C4_4 
REMARK    3  A    between atoms: C4_4  and  C5_6 
REMARK    4  A    between atoms: C5_6  and  C6_7 
REMARK    5  A    between atoms: C6_7  and  C8_9 
REMARK    6  A    between atoms: C30_32  and  O4_34 
ROOT
HETATM    1  C8  UNL     1     -17.233   3.541  14.502  1.00  0.00    -0.001 C 
HETATM    2  C9  UNL     1     -17.015   3.396  16.038  1.00  0.00     0.007 C 
HETATM    3  C10 UNL     1     -16.571   1.948  16.309  1.00  0.00     0.015 C 
HETATM    4  C11 UNL     1     -16.207   1.384  14.921  1.00  0.00    -0.013 C 
HETATM    5  C12 UNL     1     -14.747   1.850  14.634  1.00  0.00     0.021 C 
HETATM    6  C13 UNL     1     -16.210  -0.126  14.733  1.00  0.00    -0.070 C 
HETATM    7  C14 UNL     1     -16.075  -1.003  15.745  1.00  0.00    -0.022 C 
HETATM    8  C15 UNL     1     -15.982  -2.478  15.496  1.00  0.00     0.034 C 
HETATM    9  C16 UNL     1     -15.138  -2.709  14.233  1.00  0.00     0.013 C 
HETATM   10  C17 UNL     1     -14.646  -4.175  14.029  1.00  0.00     0.018 C 
HETATM   11  C18 UNL     1     -13.410  -4.443  14.915  1.00  0.00     0.023 C 
HETATM   12  C19 UNL     1     -15.706  -5.235  14.382  1.00  0.00     0.023 C 
HETATM   13  C20 UNL     1     -14.184  -4.364  12.577  1.00  0.00     0.135 C 
HETATM   14  O2  UNL     1     -14.108  -5.480  12.059  1.00  0.00    -0.297 OA
HETATM   15  C21 UNL     1     -13.712  -3.141  11.820  1.00  0.00     0.080 C 
HETATM   16  C22 UNL     1     -14.629  -1.919  11.933  1.00  0.00     0.017 C 
HETATM   17  C23 UNL     1     -15.783  -2.045  12.962  1.00  0.00    -0.031 C 
HETATM   18  C24 UNL     1     -16.905  -2.905  12.321  1.00  0.00     0.016 C 
HETATM   19  C25 UNL     1     -16.470  -0.646  13.316  1.00  0.00     0.024 C 
HETATM   20  C26 UNL     1     -16.345   0.439  12.219  1.00  0.00     0.010 C 
HETATM   21  C27 UNL     1     -16.993   1.806  12.536  1.00  0.00     0.011 C 
HETATM   22  C28 UNL     1     -17.314   2.051  14.028  1.00  0.00    -0.029 C 
HETATM   23  C29 UNL     1     -18.751   1.514  14.324  1.00  0.00     0.016 C 
ENDROOT
BRANCH   1  24
HETATM   24  C6  UNL     1     -18.394   4.521  14.165  1.00  0.00    -0.007 C 
HETATM   25  C7  UNL     1     -18.507   4.795  12.661  1.00  0.00     0.011 C 
BRANCH  24  26
HETATM   26  C5  UNL     1     -18.207   5.871  14.898  1.00  0.00     0.087 C 
BRANCH  26  27
HETATM   27  C4  UNL     1     -17.266   6.792  14.143  1.00  0.00     0.150 C 
HETATM   28  O1  UNL     1     -17.669   7.787  13.545  1.00  0.00    -0.293 OA
BRANCH  27  29
HETATM   29  C3  UNL     1     -15.812   6.472  14.208  1.00  0.00     0.063 C 
HETATM   30  C2  UNL     1     -14.900   6.942  13.339  1.00  0.00     0.015 C 
HETATM   31  C1  UNL     1     -13.432   6.694  13.487  1.00  0.00     0.055 C 
BRANCH  30  32
HETATM   32  C30 UNL     1     -15.266   7.758  12.167  1.00  0.00     0.171 C 
HETATM   33  O3  UNL     1     -15.027   8.943  12.026  1.00  0.00    -0.646 OA
BRANCH  32  34
HETATM   34  O4  UNL     1     -15.793   7.012  11.181  1.00  0.00    -0.773 OA
HETATM   35  H44 UNL     1     -16.037   7.671  10.500  1.00  0.00     0.167 HD
ENDBRANCH  32  34
ENDBRANCH  30  32
ENDBRANCH  27  29
ENDBRANCH  26  27
ENDBRANCH  24  26
ENDBRANCH   1  24
TORSDOF 6
ENDMDL
MODEL 6
REMARK minimizedAffinity -7.32191277
REMARK CNNscore 0.254567653
REMARK CNNaffinity 6.26621008
REMARK  6 active torsions:
REMARK  status: ('A' for Active; 'I' for Inactive)
REMARK    1  A    between atoms: C2_2  and  C30_32 
REMARK    2  A    between atoms: C3_3  and  C4_4 
REMARK    3  A    between atoms: C4_4  and  C5_6 
REMARK    4  A    between atoms: C5_6  and  C6_7 
REMARK    5  A    between atoms: C6_7  and  C8_9 
REMARK    6  A    between atoms: C30_32  and  O4_34 
ROOT
HETATM    1  C8  UNL     1      -0.395   7.041  13.366  1.00  0.00    -0.001 C 
HETATM    2  C9  UNL     1      -1.676   6.200  13.649  1.00  0.00     0.007 C 
HETATM    3  C10 UNL     1      -2.650   7.090  14.441  1.00  0.00     0.015 C 
HETATM    4  C11 UNL     1      -2.077   8.515  14.304  1.00  0.00    -0.013 C 
HETATM    5  C12 UNL     1      -2.587   9.057  12.933  1.00  0.00     0.021 C 
HETATM    6  C13 UNL     1      -2.475   9.555  15.341  1.00  0.00    -0.070 C 
HETATM    7  C14 UNL     1      -3.590   9.471  16.090  1.00  0.00    -0.022 C 
HETATM    8  C15 UNL     1      -3.990  10.571  17.026  1.00  0.00     0.034 C 
HETATM    9  C16 UNL     1      -3.678  11.919  16.356  1.00  0.00     0.013 C 
HETATM   10  C17 UNL     1      -4.348  13.158  17.028  1.00  0.00     0.018 C 
HETATM   11  C18 UNL     1      -5.821  13.265  16.580  1.00  0.00     0.023 C 
HETATM   12  C19 UNL     1      -4.335  13.105  18.567  1.00  0.00     0.023 C 
HETATM   13  C20 UNL     1      -3.656  14.440  16.545  1.00  0.00     0.135 C 
HETATM   14  O2  UNL     1      -3.726  15.495  17.178  1.00  0.00    -0.297 OA
HETATM   15  C21 UNL     1      -2.967  14.408  15.197  1.00  0.00     0.080 C 
HETATM   16  C22 UNL     1      -2.062  13.193  14.964  1.00  0.00     0.017 C 
HETATM   17  C23 UNL     1      -2.145  12.083  16.045  1.00  0.00    -0.031 C 
HETATM   18  C24 UNL     1      -1.315  12.546  17.272  1.00  0.00     0.016 C 
HETATM   19  C25 UNL     1      -1.489  10.701  15.584  1.00  0.00     0.024 C 
HETATM   20  C26 UNL     1      -0.397  10.829  14.494  1.00  0.00     0.010 C 
HETATM   21  C27 UNL     1       0.251   9.507  14.022  1.00  0.00     0.011 C 
HETATM   22  C28 UNL     1      -0.534   8.226  14.379  1.00  0.00    -0.029 C 
HETATM   23  C29 UNL     1      -0.069   7.731  15.786  1.00  0.00     0.016 C 
ENDROOT
BRANCH   1  24
HETATM   24  C6  UNL     1       0.893   6.168  13.373  1.00  0.00    -0.007 C 
HETATM   25  C7  UNL     1       1.782   6.453  14.589  1.00  0.00     0.011 C 
BRANCH  24  26
HETATM   26  C5  UNL     1       1.726   6.400  12.090  1.00  0.00     0.087 C 
BRANCH  26  27
HETATM   27  C4  UNL     1       0.994   5.915  10.851  1.00  0.00     0.150 C 
HETATM   28  O1  UNL     1       0.375   4.854  10.834  1.00  0.00    -0.293 OA
BRANCH  27  29
HETATM   29  C3  UNL     1       1.006   6.816   9.664  1.00  0.00     0.063 C 
HETATM   30  C2  UNL     1       1.959   6.796   8.716  1.00  0.00     0.015 C 
HETATM   31  C1  UNL     1       1.893   7.635   7.479  1.00  0.00     0.055 C 
BRANCH  30  32
HETATM   32  C30 UNL     1       3.151   5.933   8.805  1.00  0.00     0.171 C 
HETATM   33  O3  UNL     1       3.315   4.887   8.204  1.00  0.00    -0.646 OA
BRANCH  32  34
HETATM   34  O4  UNL     1       4.124   6.496   9.540  1.00  0.00    -0.773 OA
HETATM   35  H44 UNL     1       4.821   5.808   9.564  1.00  0.00     0.167 HD
ENDBRANCH  32  34
ENDBRANCH  30  32
ENDBRANCH  27  29
ENDBRANCH  26  27
ENDBRANCH  24  26
ENDBRANCH   1  24
TORSDOF 6
ENDMDL
MODEL 7
REMARK minimizedAffinity -7.2654767
REMARK CNNscore 0.222875759
REMARK CNNaffinity 6.39677811
REMARK  6 active torsions:
REMARK  status: ('A' for Active; 'I' for Inactive)
REMARK    1  A    between atoms: C2_2  and  C30_32 
REMARK    2  A    between atoms: C3_3  and  C4_4 
REMARK    3  A    between atoms: C4_4  and  C5_6 
REMARK    4  A    between atoms: C5_6  and  C6_7 
REMARK    5  A    between atoms: C6_7  and  C8_9 
REMARK    6  A    between atoms: C30_32  and  O4_34 
ROOT
HETATM    1  C8  UNL     1     -10.041   7.538  15.139  1.00  0.00    -0.001 C 
HETATM    2  C9  UNL     1      -9.640   9.026  14.904  1.00  0.00     0.007 C 
HETATM    3  C10 UNL     1     -10.848   9.737  14.269  1.00  0.00     0.015 C 
HETATM    4  C11 UNL     1     -12.024   8.760  14.464  1.00  0.00    -0.013 C 
HETATM    5  C12 UNL     1     -12.554   9.004  15.911  1.00  0.00     0.021 C 
HETATM    6  C13 UNL     1     -13.231   8.893  13.547  1.00  0.00    -0.070 C 
HETATM    7  C14 UNL     1     -13.549  10.026  12.893  1.00  0.00    -0.022 C 
HETATM    8  C15 UNL     1     -14.804  10.137  12.082  1.00  0.00     0.034 C 
HETATM    9  C16 UNL     1     -15.930   9.399  12.822  1.00  0.00     0.013 C 
HETATM   10  C17 UNL     1     -17.370   9.710  12.307  1.00  0.00     0.018 C 
HETATM   11  C18 UNL     1     -17.856  11.056  12.887  1.00  0.00     0.023 C 
HETATM   12  C19 UNL     1     -17.467   9.806  10.773  1.00  0.00     0.023 C 
HETATM   13  C20 UNL     1     -18.342   8.641  12.824  1.00  0.00     0.135 C 
HETATM   14  O2  UNL     1     -19.429   8.433  12.281  1.00  0.00    -0.297 OA
HETATM   15  C21 UNL     1     -17.979   7.913  14.101  1.00  0.00     0.080 C 
HETATM   16  C22 UNL     1     -16.538   7.397  14.162  1.00  0.00     0.017 C 
HETATM   17  C23 UNL     1     -15.611   7.871  13.011  1.00  0.00    -0.031 C 
HETATM   18  C24 UNL     1     -15.931   7.016  11.755  1.00  0.00     0.016 C 
HETATM   19  C25 UNL     1     -14.060   7.628  13.308  1.00  0.00     0.024 C 
HETATM   20  C26 UNL     1     -13.758   6.484  14.306  1.00  0.00     0.010 C 
HETATM   21  C27 UNL     1     -12.265   6.230  14.618  1.00  0.00     0.011 C 
HETATM   22  C28 UNL     1     -11.309   7.381  14.234  1.00  0.00    -0.029 C 
HETATM   23  C29 UNL     1     -10.840   7.169  12.758  1.00  0.00     0.016 C 
ENDROOT
BRANCH   1  24
HETATM   24  C6  UNL     1      -8.836   6.571  14.954  1.00  0.00    -0.007 C 
HETATM   25  C7  UNL     1      -7.980   6.459  16.220  1.00  0.00     0.011 C 
BRANCH  24  26
HETATM   26  C5  UNL     1      -7.931   7.033  13.787  1.00  0.00     0.087 C 
BRANCH  26  27
HETATM   27  C4  UNL     1      -6.972   5.938  13.354  1.00  0.00     0.150 C 
HETATM   28  O1  UNL     1      -5.771   6.146  13.202  1.00  0.00    -0.293 OA
BRANCH  27  29
HETATM   29  C3  UNL     1      -7.544   4.573  13.177  1.00  0.00     0.063 C 
HETATM   30  C2  UNL     1      -6.838   3.514  12.745  1.00  0.00     0.015 C 
HETATM   31  C1  UNL     1      -7.405   2.131  12.677  1.00  0.00     0.055 C 
BRANCH  30  32
HETATM   32  C30 UNL     1      -5.433   3.618  12.312  1.00  0.00     0.171 C 
HETATM   33  O3  UNL     1      -4.458   3.453  13.021  1.00  0.00    -0.646 OA
BRANCH  32  34
HETATM   34  O4  UNL     1      -5.329   3.794  10.983  1.00  0.00    -0.773 OA
HETATM   35  H44 UNL     1      -4.367   3.901  10.840  1.00  0.00     0.167 HD
ENDBRANCH  32  34
ENDBRANCH  30  32
ENDBRANCH  27  29
ENDBRANCH  26  27
ENDBRANCH  24  26
ENDBRANCH   1  24
TORSDOF 6
ENDMDL
MODEL 8
REMARK minimizedAffinity -7.42446995
REMARK CNNscore 0.209695071
REMARK CNNaffinity 5.26935148
REMARK  6 active torsions:
REMARK  status: ('A' for Active; 'I' for Inactive)
REMARK    1  A    between atoms: C2_2  and  C30_32 
REMARK    2  A    between atoms: C3_3  and  C4_4 
REMARK    3  A    between atoms: C4_4  and  C5_6 
REMARK    4  A    between atoms: C5_6  and  C6_7 
REMARK    5  A    between atoms: C6_7  and  C8_9 
REMARK    6  A    between atoms: C30_32  and  O4_34 
ROOT
HETATM    1  C8  UNL     1       6.077   8.648  13.521  1.00  0.00    -0.001 C 
HETATM    2  C9  UNL     1       7.396   8.094  12.904  1.00  0.00     0.007 C 
HETATM    3  C10 UNL     1       8.569   8.708  13.687  1.00  0.00     0.015 C 
HETATM    4  C11 UNL     1       7.922   9.321  14.944  1.00  0.00    -0.013 C 
HETATM    5  C12 UNL     1       7.763   8.151  15.964  1.00  0.00     0.021 C 
HETATM    6  C13 UNL     1       8.674  10.420  15.680  1.00  0.00    -0.070 C 
HETATM    7  C14 UNL     1      10.006  10.595  15.596  1.00  0.00    -0.022 C 
HETATM    8  C15 UNL     1      10.713  11.628  16.420  1.00  0.00     0.034 C 
HETATM    9  C16 UNL     1      10.075  11.660  17.817  1.00  0.00     0.013 C 
HETATM   10  C17 UNL     1      10.905  12.414  18.903  1.00  0.00     0.018 C 
HETATM   11  C18 UNL     1      12.034  11.501  19.428  1.00  0.00     0.023 C 
HETATM   12  C19 UNL     1      11.560  13.709  18.387  1.00  0.00     0.023 C 
HETATM   13  C20 UNL     1      10.008  12.728  20.108  1.00  0.00     0.135 C 
HETATM   14  O2  UNL     1      10.291  13.616  20.915  1.00  0.00    -0.297 OA
HETATM   15  C21 UNL     1       8.808  11.837  20.348  1.00  0.00     0.080 C 
HETATM   16  C22 UNL     1       7.954  11.556  19.107  1.00  0.00     0.017 C 
HETATM   17  C23 UNL     1       8.552  12.047  17.762  1.00  0.00    -0.031 C 
HETATM   18  C24 UNL     1       8.310  13.577  17.660  1.00  0.00     0.016 C 
HETATM   19  C25 UNL     1       7.833  11.416  16.482  1.00  0.00     0.024 C 
HETATM   20  C26 UNL     1       6.373  10.958  16.714  1.00  0.00     0.010 C 
HETATM   21  C27 UNL     1       5.652  10.336  15.496  1.00  0.00     0.011 C 
HETATM   22  C28 UNL     1       6.580   9.879  14.348  1.00  0.00    -0.029 C 
HETATM   23  C29 UNL     1       6.792  11.079  13.370  1.00  0.00     0.016 C 
ENDROOT
BRANCH   1  24
HETATM   24  C6  UNL     1       4.965   8.842  12.450  1.00  0.00    -0.007 C 
HETATM   25  C7  UNL     1       3.819   7.837  12.613  1.00  0.00     0.011 C 
BRANCH  24  26
HETATM   26  C5  UNL     1       5.543   8.700  11.021  1.00  0.00     0.087 C 
BRANCH  26  27
HETATM   27  C4  UNL     1       4.791   7.657  10.214  1.00  0.00     0.150 C 
HETATM   28  O1  UNL     1       4.975   6.453  10.372  1.00  0.00    -0.293 OA
BRANCH  27  29
HETATM   29  C3  UNL     1       3.767   8.158   9.253  1.00  0.00     0.063 C 
HETATM   30  C2  UNL     1       2.758   7.410   8.774  1.00  0.00     0.015 C 
HETATM   31  C1  UNL     1       1.681   7.963   7.895  1.00  0.00     0.055 C 
BRANCH  30  32
HETATM   32  C30 UNL     1       2.614   5.975   9.084  1.00  0.00     0.171 C 
HETATM   33  O3  UNL     1       1.866   5.502   9.919  1.00  0.00    -0.646 OA
BRANCH  32  34
HETATM   34  O4  UNL     1       3.320   5.206   8.238  1.00  0.00    -0.773 OA
HETATM   35  H44 UNL     1       3.184   4.300   8.584  1.00  0.00     0.167 HD
ENDBRANCH  32  34
ENDBRANCH  30  32
ENDBRANCH  27  29
ENDBRANCH  26  27
ENDBRANCH  24  26
ENDBRANCH   1  24
TORSDOF 6
ENDMDL
MODEL 9
REMARK minimizedAffinity -8.20121574
REMARK CNNscore 0.201855034
REMARK CNNaffinity 6.65012693
REMARK  6 active torsions:
REMARK  status: ('A' for Active; 'I' for Inactive)
REMARK    1  A    between atoms: C2_2  and  C30_32 
REMARK    2  A    between atoms: C3_3  and  C4_4 
REMARK    3  A    between atoms: C4_4  and  C5_6 
REMARK    4  A    between atoms: C5_6  and  C6_7 
REMARK    5  A    between atoms: C6_7  and  C8_9 
REMARK    6  A    between atoms: C30_32  and  O4_34 
ROOT
HETATM    1  C8  UNL     1      -6.940   6.468  14.016  1.00  0.00    -0.001 C 
HETATM    2  C9  UNL     1      -7.564   7.791  14.552  1.00  0.00     0.007 C 
HETATM    3  C10 UNL     1      -6.409   8.694  15.020  1.00  0.00     0.015 C 
HETATM    4  C11 UNL     1      -5.140   8.038  14.438  1.00  0.00    -0.013 C 
HETATM    5  C12 UNL     1      -5.029   8.542  12.966  1.00  0.00     0.021 C 
HETATM    6  C13 UNL     1      -3.803   8.352  15.091  1.00  0.00    -0.070 C 
HETATM    7  C14 UNL     1      -3.573   9.454  15.828  1.00  0.00    -0.022 C 
HETATM    8  C15 UNL     1      -2.210   9.768  16.365  1.00  0.00     0.034 C 
HETATM    9  C16 UNL     1      -1.167   9.388  15.303  1.00  0.00     0.013 C 
HETATM   10  C17 UNL     1       0.261   9.969  15.547  1.00  0.00     0.018 C 
HETATM   11  C18 UNL     1       0.315  11.442  15.087  1.00  0.00     0.023 C 
HETATM   12  C19 UNL     1       0.698   9.928  17.023  1.00  0.00     0.023 C 
HETATM   13  C20 UNL     1       1.277   9.210  14.682  1.00  0.00     0.135 C 
HETATM   14  O2  UNL     1       2.481   9.204  14.947  1.00  0.00    -0.297 OA
HETATM   15  C21 UNL     1       0.776   8.552  13.414  1.00  0.00     0.080 C 
HETATM   16  C22 UNL     1      -0.505   7.727  13.579  1.00  0.00     0.017 C 
HETATM   17  C23 UNL     1      -1.208   7.856  14.956  1.00  0.00    -0.031 C 
HETATM   18  C24 UNL     1      -0.434   6.974  15.974  1.00  0.00     0.016 C 
HETATM   19  C25 UNL     1      -2.704   7.294  14.958  1.00  0.00     0.024 C 
HETATM   20  C26 UNL     1      -2.998   6.218  13.884  1.00  0.00     0.010 C 
HETATM   21  C27 UNL     1      -4.439   5.661  13.857  1.00  0.00     0.011 C 
HETATM   22  C28 UNL     1      -5.489   6.515  14.602  1.00  0.00    -0.029 C 
HETATM   23  C29 UNL     1      -5.541   6.052  16.093  1.00  0.00     0.016 C 
ENDROOT
BRANCH   1  24
HETATM   24  C6  UNL     1      -7.846   5.236  14.301  1.00  0.00    -0.007 C 
HETATM   25  C7  UNL     1      -7.193   4.245  15.272  1.00  0.00     0.011 C 
BRANCH  24  26
HETATM   26  C5  UNL     1      -8.188   4.486  12.991  1.00  0.00     0.087 C 
BRANCH  26  27
HETATM   27  C4  UNL     1      -7.159   3.416  12.673  1.00  0.00     0.150 C 
HETATM   28  O1  UNL     1      -7.345   2.233  12.945  1.00  0.00    -0.293 OA
BRANCH  27  29
HETATM   29  C3  UNL     1      -5.928   3.855  11.957  1.00  0.00     0.063 C 
HETATM   30  C2  UNL     1      -5.151   3.036  11.227  1.00  0.00     0.015 C 
HETATM   31  C1  UNL     1      -3.981   3.520  10.430  1.00  0.00     0.055 C 
BRANCH  30  32
HETATM   32  C30 UNL     1      -5.392   1.584  11.135  1.00  0.00     0.171 C 
HETATM   33  O3  UNL     1      -6.354   1.057  10.609  1.00  0.00    -0.646 OA
BRANCH  32  34
HETATM   34  O4  UNL     1      -4.348   0.873  11.592  1.00  0.00    -0.773 OA
HETATM   35  H44 UNL     1      -4.656  -0.054  11.527  1.00  0.00     0.167 HD
ENDBRANCH  32  34
ENDBRANCH  30  32
ENDBRANCH  27  29
ENDBRANCH  26  27
ENDBRANCH  24  26
ENDBRANCH   1  24
TORSDOF 6
ENDMDL
