MODEL 1
REMARK minimizedAffinity -7.37199068
REMARK CNNscore 0.735683501
REMARK CNNaffinity 7.11257553
REMARK  8 active torsions:
REMARK  status: ('A' for Active; 'I' for Inactive)
REMARK    1  A    between atoms: C12_14  and  C13_15 
REMARK    2  A    between atoms: C13_15  and  C15_17 
REMARK    3  A    between atoms: C15_17  and  C16_18 
REMARK    4  A    between atoms: C16_18  and  C17_20 
REMARK    5  A    between atoms: C26_29  and  C27_30 
REMARK    6  A    between atoms: C27_30  and  C28_31 
REMARK    7  A    between atoms: C28_31  and  C29_32 
REMARK    8  A    between atoms: C29_32  and  O5_34 
ROOT
HETATM    1  C1  UNL     1      -5.523  50.366 -10.352  1.00  0.00     0.025 C 
HETATM    2  C2  UNL     1      -4.242  50.124 -10.047  1.00  0.00     0.015 C 
HETATM    3  C3  UNL     1      -3.869  49.082  -9.067  1.00  0.00     0.289 C 
HETATM    4  O1  UNL     1      -4.617  48.277  -8.544  1.00  0.00    -0.260 OA
HETATM    5  O2  UNL     1      -2.529  49.165  -8.861  1.00  0.00    -0.311 OA
HETATM    6  C4  UNL     1      -1.992  50.348  -9.486  1.00  0.00     0.142 C 
HETATM    7  C5  UNL     1      -1.714  51.372  -8.393  1.00  0.00     0.039 C 
HETATM    8  C6  UNL     1      -1.322  52.777  -8.878  1.00  0.00     0.006 C 
HETATM    9  C7  UNL     1      -2.188  53.280 -10.059  1.00  0.00    -0.027 A 
HETATM   10  C8  UNL     1      -1.761  54.646 -10.634  1.00  0.00     0.011 C 
HETATM   11  C9  UNL     1      -0.247  54.872 -10.767  1.00  0.00     0.011 C 
HETATM   12  C10 UNL     1       0.486  54.515  -9.464  1.00  0.00    -0.032 C 
HETATM   13  C11 UNL     1      -0.010  55.475  -8.346  1.00  0.00     0.016 C 
HETATM   14  C12 UNL     1       2.048  54.535  -9.497  1.00  0.00    -0.002 C 
HETATM   15  C21 UNL     1       2.441  53.507  -8.394  1.00  0.00     0.006 C 
HETATM   16  C22 UNL     1       1.166  52.723  -8.024  1.00  0.00     0.011 C 
HETATM   17  C23 UNL     1       0.194  52.983  -9.187  1.00  0.00    -0.032 C 
HETATM   18  C24 UNL     1       0.624  52.036 -10.353  1.00  0.00     0.016 C 
HETATM   19  C25 UNL     1      -3.685  53.183  -9.884  1.00  0.00     0.022 A 
HETATM   20  C26 UNL     1      -3.024  52.260 -10.896  1.00  0.00    -0.021 A 
HETATM   21  C30 UNL     1      -2.992  50.764 -10.554  1.00  0.00     0.063 C 
ENDROOT
BRANCH  14  22
HETATM   22  C13 UNL     1       2.895  55.843  -9.468  1.00  0.00    -0.007 C 
HETATM   23  C14 UNL     1       3.402  56.387 -10.812  1.00  0.00     0.011 C 
BRANCH  22  24
HETATM   24  C15 UNL     1       4.059  55.740  -8.464  1.00  0.00     0.087 C 
BRANCH  24  25
HETATM   25  C16 UNL     1       4.392  57.059  -7.779  1.00  0.00     0.149 C 
HETATM   26  O3  UNL     1       3.831  58.113  -8.060  1.00  0.00    -0.293 OA
BRANCH  25  27
HETATM   27  C17 UNL     1       5.405  56.980  -6.683  1.00  0.00     0.052 C 
HETATM   28  C18 UNL     1       6.580  56.325  -6.744  1.00  0.00    -0.084 C 
HETATM   29  C19 UNL     1       7.536  56.368  -5.581  1.00  0.00     0.043 C 
HETATM   30  C20 UNL     1       7.060  55.506  -7.911  1.00  0.00     0.043 C 
ENDBRANCH  25  27
ENDBRANCH  24  25
ENDBRANCH  22  24
ENDBRANCH  14  22
BRANCH  20  31
HETATM   31  C27 UNL     1      -3.174  52.517 -12.406  1.00  0.00     0.021 C 
BRANCH  31  32
HETATM   32  C28 UNL     1      -2.230  51.722 -13.306  1.00  0.00     0.111 C 
BRANCH  32  33
HETATM   33  C29 UNL     1      -2.988  50.990 -14.380  1.00  0.00     0.139 C 
HETATM   34  O4  UNL     1      -3.298  51.405 -15.483  1.00  0.00    -0.650 OA
BRANCH  33  35
HETATM   35  O5  UNL     1      -3.349  49.754 -13.985  1.00  0.00    -0.776 OA
HETATM   36  H41 UNL     1      -3.838  49.386 -14.752  1.00  0.00     0.167 HD
ENDBRANCH  33  35
ENDBRANCH  32  33
ENDBRANCH  31  32
ENDBRANCH  20  31
TORSDOF 8
ENDMDL
MODEL 2
REMARK minimizedAffinity -9.29315281
REMARK CNNscore 0.37541151
REMARK CNNaffinity 6.82148314
REMARK  8 active torsions:
REMARK  status: ('A' for Active; 'I' for Inactive)
REMARK    1  A    between atoms: C12_14  and  C13_15 
REMARK    2  A    between atoms: C13_15  and  C15_17 
REMARK    3  A    between atoms: C15_17  and  C16_18 
REMARK    4  A    between atoms: C16_18  and  C17_20 
REMARK    5  A    between atoms: C26_29  and  C27_30 
REMARK    6  A    between atoms: C27_30  and  C28_31 
REMARK    7  A    between atoms: C28_31  and  C29_32 
REMARK    8  A    between atoms: C29_32  and  O5_34 
ROOT
HETATM    1  C1  UNL     1      -5.509  47.982 -26.206  1.00  0.00     0.025 C 
HETATM    2  C2  UNL     1      -4.672  49.027 -26.215  1.00  0.00     0.015 C 
HETATM    3  C3  UNL     1      -3.811  49.312 -27.383  1.00  0.00     0.289 C 
HETATM    4  O1  UNL     1      -3.844  48.751 -28.462  1.00  0.00    -0.260 OA
HETATM    5  O2  UNL     1      -2.980  50.333 -27.048  1.00  0.00    -0.311 OA
HETATM    6  C4  UNL     1      -3.076  50.624 -25.639  1.00  0.00     0.142 C 
HETATM    7  C5  UNL     1      -1.838  50.059 -24.957  1.00  0.00     0.039 C 
HETATM    8  C6  UNL     1      -1.847  50.094 -23.420  1.00  0.00     0.006 C 
HETATM    9  C7  UNL     1      -3.202  49.662 -22.808  1.00  0.00    -0.027 A 
HETATM   10  C8  UNL     1      -3.279  49.777 -21.271  1.00  0.00     0.011 C 
HETATM   11  C9  UNL     1      -2.635  51.031 -20.660  1.00  0.00     0.011 C 
HETATM   12  C10 UNL     1      -1.216  51.250 -21.206  1.00  0.00    -0.032 C 
HETATM   13  C11 UNL     1      -0.335  50.043 -20.776  1.00  0.00     0.016 C 
HETATM   14  C12 UNL     1      -0.495  52.577 -20.806  1.00  0.00    -0.002 C 
HETATM   15  C21 UNL     1       0.484  52.824 -21.992  1.00  0.00     0.006 C 
HETATM   16  C22 UNL     1       0.071  51.872 -23.132  1.00  0.00     0.011 C 
HETATM   17  C23 UNL     1      -1.357  51.428 -22.775  1.00  0.00    -0.032 C 
HETATM   18  C24 UNL     1      -2.310  52.594 -23.195  1.00  0.00     0.016 C 
HETATM   19  C25 UNL     1      -3.782  48.361 -23.308  1.00  0.00     0.022 A 
HETATM   20  C26 UNL     1      -4.486  49.651 -23.697  1.00  0.00    -0.021 A 
HETATM   21  C30 UNL     1      -4.412  50.064 -25.173  1.00  0.00     0.063 C 
ENDROOT
BRANCH  14  22
HETATM   22  C13 UNL     1       0.141  52.823 -19.404  1.00  0.00    -0.007 C 
HETATM   23  C14 UNL     1       1.561  53.408 -19.364  1.00  0.00     0.011 C 
BRANCH  22  24
HETATM   24  C15 UNL     1       0.060  51.565 -18.517  1.00  0.00     0.087 C 
BRANCH  24  25
HETATM   25  C16 UNL     1       0.581  51.782 -17.103  1.00  0.00     0.149 C 
HETATM   26  O3  UNL     1      -0.055  51.462 -16.104  1.00  0.00    -0.293 OA
BRANCH  25  27
HETATM   27  C17 UNL     1       1.960  52.352 -17.002  1.00  0.00     0.052 C 
HETATM   28  C18 UNL     1       2.822  52.147 -15.988  1.00  0.00    -0.084 C 
HETATM   29  C19 UNL     1       4.205  52.742 -16.034  1.00  0.00     0.043 C 
HETATM   30  C20 UNL     1       2.532  51.350 -14.746  1.00  0.00     0.043 C 
ENDBRANCH  25  27
ENDBRANCH  24  25
ENDBRANCH  22  24
ENDBRANCH  14  22
BRANCH  20  31
HETATM   31  C27 UNL     1      -5.823  50.043 -23.041  1.00  0.00     0.021 C 
BRANCH  31  32
HETATM   32  C28 UNL     1      -6.717  48.878 -22.623  1.00  0.00     0.111 C 
BRANCH  32  33
HETATM   33  C29 UNL     1      -7.813  48.645 -23.627  1.00  0.00     0.139 C 
HETATM   34  O4  UNL     1      -8.424  47.610 -23.831  1.00  0.00    -0.650 OA
BRANCH  33  35
HETATM   35  O5  UNL     1      -8.067  49.748 -24.358  1.00  0.00    -0.776 OA
HETATM   36  H41 UNL     1      -8.779  49.472 -24.974  1.00  0.00     0.167 HD
ENDBRANCH  33  35
ENDBRANCH  32  33
ENDBRANCH  31  32
ENDBRANCH  20  31
TORSDOF 8
ENDMDL
MODEL 3
REMARK minimizedAffinity -7.21150494
REMARK CNNscore 0.31390968
REMARK CNNaffinity 5.64708853
REMARK  8 active torsions:
REMARK  status: ('A' for Active; 'I' for Inactive)
REMARK    1  A    between atoms: C12_14  and  C13_15 
REMARK    2  A    between atoms: C13_15  and  C15_17 
REMARK    3  A    between atoms: C15_17  and  C16_18 
REMARK    4  A    between atoms: C16_18  and  C17_20 
REMARK    5  A    between atoms: C26_29  and  C27_30 
REMARK    6  A    between atoms: C27_30  and  C28_31 
REMARK    7  A    between atoms: C28_31  and  C29_32 
REMARK    8  A    between atoms: C29_32  and  O5_34 
ROOT
HETATM    1  C1  UNL     1      -7.636  47.244 -33.473  1.00  0.00     0.025 C 
HETATM    2  C2  UNL     1      -8.667  46.490 -33.074  1.00  0.00     0.015 C 
HETATM    3  C3  UNL     1      -9.710  46.047 -34.025  1.00  0.00     0.289 C 
HETATM    4  O1  UNL     1      -9.696  46.190 -35.233  1.00  0.00    -0.260 OA
HETATM    5  O2  UNL     1     -10.687  45.429 -33.313  1.00  0.00    -0.311 OA
HETATM    6  C4  UNL     1     -10.477  45.611 -31.898  1.00  0.00     0.142 C 
HETATM    7  C5  UNL     1     -11.473  46.651 -31.406  1.00  0.00     0.039 C 
HETATM    8  C6  UNL     1     -11.277  47.131 -29.958  1.00  0.00     0.006 C 
HETATM    9  C7  UNL     1      -9.796  47.404 -29.600  1.00  0.00    -0.027 A 
HETATM   10  C8  UNL     1      -9.551  47.794 -28.127  1.00  0.00     0.011 C 
HETATM   11  C9  UNL     1     -10.362  47.010 -27.084  1.00  0.00     0.011 C 
HETATM   12  C10 UNL     1     -11.853  46.969 -27.452  1.00  0.00    -0.032 C 
HETATM   13  C11 UNL     1     -12.400  48.425 -27.438  1.00  0.00     0.016 C 
HETATM   14  C12 UNL     1     -12.779  46.068 -26.576  1.00  0.00    -0.002 C 
HETATM   15  C21 UNL     1     -13.929  45.681 -27.552  1.00  0.00     0.006 C 
HETATM   16  C22 UNL     1     -13.473  46.068 -28.973  1.00  0.00     0.011 C 
HETATM   17  C23 UNL     1     -11.950  46.248 -28.860  1.00  0.00    -0.032 C 
HETATM   18  C24 UNL     1     -11.324  44.817 -28.883  1.00  0.00     0.016 C 
HETATM   19  C25 UNL     1      -9.024  48.283 -30.554  1.00  0.00     0.022 A 
HETATM   20  C26 UNL     1      -8.660  46.808 -30.492  1.00  0.00    -0.021 A 
HETATM   21  C30 UNL     1      -9.006  45.956 -31.721  1.00  0.00     0.063 C 
ENDROOT
BRANCH  14  22
HETATM   22  C13 UNL     1     -13.271  46.464 -25.150  1.00  0.00    -0.007 C 
HETATM   23  C14 UNL     1     -12.343  46.148 -23.968  1.00  0.00     0.011 C 
BRANCH  22  24
HETATM   24  C15 UNL     1     -14.688  45.927 -24.872  1.00  0.00     0.087 C 
BRANCH  24  25
HETATM   25  C16 UNL     1     -15.681  47.008 -24.468  1.00  0.00     0.149 C 
HETATM   26  O3  UNL     1     -15.349  48.026 -23.870  1.00  0.00    -0.293 OA
BRANCH  25  27
HETATM   27  C17 UNL     1     -17.092  46.787 -24.911  1.00  0.00     0.052 C 
HETATM   28  C18 UNL     1     -18.128  46.478 -24.108  1.00  0.00    -0.084 C 
HETATM   29  C19 UNL     1     -19.515  46.331 -24.678  1.00  0.00     0.043 C 
HETATM   30  C20 UNL     1     -18.041  46.246 -22.624  1.00  0.00     0.043 C 
ENDBRANCH  25  27
ENDBRANCH  24  25
ENDBRANCH  22  24
ENDBRANCH  14  22
BRANCH  20  31
HETATM   31  C27 UNL     1      -7.364  46.348 -29.801  1.00  0.00     0.021 C 
BRANCH  31  32
HETATM   32  C28 UNL     1      -6.116  47.161 -30.137  1.00  0.00     0.111 C 
BRANCH  32  33
HETATM   33  C29 UNL     1      -5.640  47.945 -28.944  1.00  0.00     0.139 C 
HETATM   34  O4  UNL     1      -5.974  47.802 -27.781  1.00  0.00    -0.650 OA
BRANCH  33  35
HETATM   35  O5  UNL     1      -4.767  48.910 -29.294  1.00  0.00    -0.776 OA
HETATM   36  H41 UNL     1      -4.541  49.352 -28.447  1.00  0.00     0.167 HD
ENDBRANCH  33  35
ENDBRANCH  32  33
ENDBRANCH  31  32
ENDBRANCH  20  31
TORSDOF 8
ENDMDL
MODEL 4
REMARK minimizedAffinity -8.20241261
REMARK CNNscore 0.23196876
REMARK CNNaffinity 6.0513649
REMARK  8 active torsions:
REMARK  status: ('A' for Active; 'I' for Inactive)
REMARK    1  A    between atoms: C12_14  and  C13_15 
REMARK    2  A    between atoms: C13_15  and  C15_17 
REMARK    3  A    between atoms: C15_17  and  C16_18 
REMARK    4  A    between atoms: C16_18  and  C17_20 
REMARK    5  A    between atoms: C26_29  and  C27_30 
REMARK    6  A    between atoms: C27_30  and  C28_31 
REMARK    7  A    between atoms: C28_31  and  C29_32 
REMARK    8  A    between atoms: C29_32  and  O5_34 
ROOT
HETATM    1  C1  UNL     1       0.888  53.199 -19.031  1.00  0.00     0.025 C 
HETATM    2  C2  UNL     1       0.684  52.704 -20.257  1.00  0.00     0.015 C 
HETATM    3  C3  UNL     1       1.112  53.442 -21.466  1.00  0.00     0.289 C 
HETATM    4  O1  UNL     1       1.775  54.461 -21.495  1.00  0.00    -0.260 OA
HETATM    5  O2  UNL     1       0.649  52.768 -22.550  1.00  0.00    -0.311 OA
HETATM    6  C4  UNL     1      -0.257  51.722 -22.149  1.00  0.00     0.142 C 
HETATM    7  C5  UNL     1      -1.674  52.183 -22.459  1.00  0.00     0.039 C 
HETATM    8  C6  UNL     1      -2.802  51.287 -21.922  1.00  0.00     0.006 C 
HETATM    9  C7  UNL     1      -2.560  50.804 -20.471  1.00  0.00    -0.027 A 
HETATM   10  C8  UNL     1      -3.624  49.825 -19.933  1.00  0.00     0.011 C 
HETATM   11  C9  UNL     1      -4.112  48.757 -20.924  1.00  0.00     0.011 C 
HETATM   12  C10 UNL     1      -4.503  49.384 -22.271  1.00  0.00    -0.032 C 
HETATM   13  C11 UNL     1      -5.699  50.349 -22.032  1.00  0.00     0.016 C 
HETATM   14  C12 UNL     1      -4.861  48.406 -23.435  1.00  0.00    -0.002 C 
HETATM   15  C21 UNL     1      -4.501  49.222 -24.711  1.00  0.00     0.006 C 
HETATM   16  C22 UNL     1      -3.673  50.441 -24.256  1.00  0.00     0.011 C 
HETATM   17  C23 UNL     1      -3.200  50.086 -22.837  1.00  0.00    -0.032 C 
HETATM   18  C24 UNL     1      -1.981  49.123 -22.996  1.00  0.00     0.016 C 
HETATM   19  C25 UNL     1      -2.206  51.867 -19.459  1.00  0.00     0.022 A 
HETATM   20  C26 UNL     1      -1.125  50.877 -19.859  1.00  0.00    -0.021 A 
HETATM   21  C30 UNL     1       0.045  51.425 -20.688  1.00  0.00     0.063 C 
ENDROOT
BRANCH  14  22
HETATM   22  C13 UNL     1      -6.219  47.646 -23.537  1.00  0.00    -0.007 C 
HETATM   23  C14 UNL     1      -7.461  48.465 -23.919  1.00  0.00     0.011 C 
BRANCH  22  24
HETATM   24  C15 UNL     1      -6.499  46.817 -22.268  1.00  0.00     0.087 C 
BRANCH  24  25
HETATM   25  C16 UNL     1      -7.808  46.042 -22.324  1.00  0.00     0.149 C 
HETATM   26  O3  UNL     1      -8.757  46.287 -21.586  1.00  0.00    -0.293 OA
BRANCH  25  27
HETATM   27  C17 UNL     1      -7.897  44.998 -23.391  1.00  0.00     0.052 C 
HETATM   28  C18 UNL     1      -7.473  43.725 -23.281  1.00  0.00    -0.084 C 
HETATM   29  C19 UNL     1      -7.668  42.757 -24.419  1.00  0.00     0.043 C 
HETATM   30  C20 UNL     1      -6.783  43.137 -22.080  1.00  0.00     0.043 C 
ENDBRANCH  25  27
ENDBRANCH  24  25
ENDBRANCH  22  24
ENDBRANCH  14  22
BRANCH  20  31
HETATM   31  C27 UNL     1      -0.691  49.757 -18.897  1.00  0.00     0.021 C 
BRANCH  31  32
HETATM   32  C28 UNL     1      -0.149  50.222 -17.547  1.00  0.00     0.111 C 
BRANCH  32  33
HETATM   33  C29 UNL     1      -0.040  49.075 -16.579  1.00  0.00     0.139 C 
HETATM   34  O4  UNL     1       0.731  48.968 -15.641  1.00  0.00    -0.650 OA
BRANCH  33  35
HETATM   35  O5  UNL     1      -0.910  48.089 -16.871  1.00  0.00    -0.776 OA
HETATM   36  H41 UNL     1      -0.738  47.404 -16.189  1.00  0.00     0.167 HD
ENDBRANCH  33  35
ENDBRANCH  32  33
ENDBRANCH  31  32
ENDBRANCH  20  31
TORSDOF 8
ENDMDL
MODEL 5
REMARK minimizedAffinity -8.56716061
REMARK CNNscore 0.230971083
REMARK CNNaffinity 6.19402695
REMARK  8 active torsions:
REMARK  status: ('A' for Active; 'I' for Inactive)
REMARK    1  A    between atoms: C12_14  and  C13_15 
REMARK    2  A    between atoms: C13_15  and  C15_17 
REMARK    3  A    between atoms: C15_17  and  C16_18 
REMARK    4  A    between atoms: C16_18  and  C17_20 
REMARK    5  A    between atoms: C26_29  and  C27_30 
REMARK    6  A    between atoms: C27_30  and  C28_31 
REMARK    7  A    between atoms: C28_31  and  C29_32 
REMARK    8  A    between atoms: C29_32  and  O5_34 
ROOT
HETATM    1  C1  UNL     1      -8.653  46.610 -21.446  1.00  0.00     0.025 C 
HETATM    2  C2  UNL     1      -7.344  46.329 -21.443  1.00  0.00     0.015 C 
HETATM    3  C3  UNL     1      -6.798  45.218 -20.634  1.00  0.00     0.289 C 
HETATM    4  O1  UNL     1      -7.438  44.391 -20.013  1.00  0.00    -0.260 OA
HETATM    5  O2  UNL     1      -5.443  45.268 -20.721  1.00  0.00    -0.311 OA
HETATM    6  C4  UNL     1      -5.020  46.483 -21.371  1.00  0.00     0.142 C 
HETATM    7  C5  UNL     1      -4.484  47.426 -20.303  1.00  0.00     0.039 C 
HETATM    8  C6  UNL     1      -4.165  48.855 -20.772  1.00  0.00     0.006 C 
HETATM    9  C7  UNL     1      -5.251  49.449 -21.703  1.00  0.00    -0.027 A 
HETATM   10  C8  UNL     1      -4.919  50.845 -22.270  1.00  0.00     0.011 C 
HETATM   11  C9  UNL     1      -3.464  51.057 -22.714  1.00  0.00     0.011 C 
HETATM   12  C10 UNL     1      -2.477  50.603 -21.628  1.00  0.00    -0.032 C 
HETATM   13  C11 UNL     1      -2.693  51.491 -20.370  1.00  0.00     0.016 C 
HETATM   14  C12 UNL     1      -0.960  50.601 -21.998  1.00  0.00    -0.002 C 
HETATM   15  C21 UNL     1      -0.368  49.497 -21.075  1.00  0.00     0.006 C 
HETATM   16  C22 UNL     1      -1.554  48.707 -20.486  1.00  0.00     0.011 C 
HETATM   17  C23 UNL     1      -2.746  49.059 -21.390  1.00  0.00    -0.032 C 
HETATM   18  C24 UNL     1      -2.607  48.187 -22.680  1.00  0.00     0.016 C 
HETATM   19  C25 UNL     1      -6.677  49.362 -21.213  1.00  0.00     0.022 A 
HETATM   20  C26 UNL     1      -6.277  48.500 -22.401  1.00  0.00    -0.021 A 
HETATM   21  C30 UNL     1      -6.215  46.984 -22.168  1.00  0.00     0.063 C 
ENDROOT
BRANCH  14  22
HETATM   22  C13 UNL     1      -0.089  51.892 -22.073  1.00  0.00    -0.007 C 
HETATM   23  C14 UNL     1       0.135  52.671 -20.768  1.00  0.00     0.011 C 
BRANCH  22  24
HETATM   24  C15 UNL     1      -0.581  52.843 -23.181  1.00  0.00     0.087 C 
BRANCH  24  25
HETATM   25  C16 UNL     1       0.509  53.252 -24.162  1.00  0.00     0.149 C 
HETATM   26  O3  UNL     1       1.144  54.296 -24.053  1.00  0.00    -0.293 OA
BRANCH  25  27
HETATM   27  C17 UNL     1       0.813  52.261 -25.240  1.00  0.00     0.052 C 
HETATM   28  C18 UNL     1       0.569  52.431 -26.554  1.00  0.00    -0.084 C 
HETATM   29  C19 UNL     1       0.972  51.371 -27.545  1.00  0.00     0.043 C 
HETATM   30  C20 UNL     1      -0.105  53.628 -27.167  1.00  0.00     0.043 C 
ENDBRANCH  25  27
ENDBRANCH  24  25
ENDBRANCH  22  24
ENDBRANCH  14  22
BRANCH  20  31
HETATM   31  C27 UNL     1      -6.743  48.860 -23.823  1.00  0.00     0.021 C 
BRANCH  31  32
HETATM   32  C28 UNL     1      -8.169  49.397 -23.932  1.00  0.00     0.111 C 
BRANCH  32  33
HETATM   33  C29 UNL     1      -8.814  48.969 -25.222  1.00  0.00     0.139 C 
HETATM   34  O4  UNL     1      -8.746  47.877 -25.759  1.00  0.00    -0.650 OA
BRANCH  33  35
HETATM   35  O5  UNL     1      -9.505  49.974 -25.795  1.00  0.00    -0.776 OA
HETATM   36  H41 UNL     1      -9.864  49.583 -26.619  1.00  0.00     0.167 HD
ENDBRANCH  33  35
ENDBRANCH  32  33
ENDBRANCH  31  32
ENDBRANCH  20  31
TORSDOF 8
ENDMDL
MODEL 6
REMARK minimizedAffinity -9.46734619
REMARK CNNscore 0.225023121
REMARK CNNaffinity 6.54162645
REMARK  8 active torsions:
REMARK  status: ('A' for Active; 'I' for Inactive)
REMARK    1  A    between atoms: C12_14  and  C13_15 
REMARK    2  A    between atoms: C13_15  and  C15_17 
REMARK    3  A    between atoms: C15_17  and  C16_18 
REMARK    4  A    between atoms: C16_18  and  C17_20 
REMARK    5  A    between atoms: C26_29  and  C27_30 
REMARK    6  A    between atoms: C27_30  and  C28_31 
REMARK    7  A    between atoms: C28_31  and  C29_32 
REMARK    8  A    between atoms: C29_32  and  O5_34 
ROOT
HETATM    1  C1  UNL     1      -2.812  51.281 -27.779  1.00  0.00     0.025 C 
HETATM    2  C2  UNL     1      -2.914  50.140 -27.086  1.00  0.00     0.015 C 
HETATM    3  C3  UNL     1      -3.792  49.040 -27.541  1.00  0.00     0.289 C 
HETATM    4  O1  UNL     1      -4.392  48.981 -28.597  1.00  0.00    -0.260 OA
HETATM    5  O2  UNL     1      -3.797  48.086 -26.574  1.00  0.00    -0.311 OA
HETATM    6  C4  UNL     1      -3.141  48.565 -25.384  1.00  0.00     0.142 C 
HETATM    7  C5  UNL     1      -4.214  48.898 -24.357  1.00  0.00     0.039 C 
HETATM    8  C6  UNL     1      -3.724  49.612 -23.087  1.00  0.00     0.006 C 
HETATM    9  C7  UNL     1      -2.703  50.741 -23.375  1.00  0.00    -0.027 A 
HETATM   10  C8  UNL     1      -2.118  51.416 -22.117  1.00  0.00     0.011 C 
HETATM   11  C9  UNL     1      -1.768  50.475 -20.954  1.00  0.00     0.011 C 
HETATM   12  C10 UNL     1      -2.934  49.525 -20.636  1.00  0.00    -0.032 C 
HETATM   13  C11 UNL     1      -4.146  50.380 -20.168  1.00  0.00     0.016 C 
HETATM   14  C12 UNL     1      -2.669  48.398 -19.588  1.00  0.00    -0.002 C 
HETATM   15  C21 UNL     1      -3.665  47.277 -20.009  1.00  0.00     0.006 C 
HETATM   16  C22 UNL     1      -4.194  47.639 -21.411  1.00  0.00     0.011 C 
HETATM   17  C23 UNL     1      -3.199  48.680 -21.950  1.00  0.00    -0.032 C 
HETATM   18  C24 UNL     1      -1.950  47.890 -22.457  1.00  0.00     0.016 C 
HETATM   19  C25 UNL     1      -3.096  51.750 -24.428  1.00  0.00     0.022 A 
HETATM   20  C26 UNL     1      -1.966  50.785 -24.751  1.00  0.00    -0.021 A 
HETATM   21  C30 UNL     1      -2.249  49.718 -25.818  1.00  0.00     0.063 C 
ENDROOT
BRANCH  14  22
HETATM   22  C13 UNL     1      -2.615  48.645 -18.050  1.00  0.00    -0.007 C 
HETATM   23  C14 UNL     1      -3.718  49.519 -17.434  1.00  0.00     0.011 C 
BRANCH  22  24
HETATM   24  C15 UNL     1      -1.228  49.150 -17.607  1.00  0.00     0.087 C 
BRANCH  24  25
HETATM   25  C16 UNL     1      -1.172  50.655 -17.379  1.00  0.00     0.149 C 
HETATM   26  O3  UNL     1      -2.116  51.400 -17.624  1.00  0.00    -0.293 OA
BRANCH  25  27
HETATM   27  C17 UNL     1       0.092  51.169 -16.767  1.00  0.00     0.052 C 
HETATM   28  C18 UNL     1       0.917  52.080 -17.317  1.00  0.00    -0.084 C 
HETATM   29  C19 UNL     1       2.137  52.551 -16.570  1.00  0.00     0.043 C 
HETATM   30  C20 UNL     1       0.744  52.704 -18.676  1.00  0.00     0.043 C 
ENDBRANCH  25  27
ENDBRANCH  24  25
ENDBRANCH  22  24
ENDBRANCH  14  22
BRANCH  20  31
HETATM   31  C27 UNL     1      -0.505  51.268 -24.773  1.00  0.00     0.021 C 
BRANCH  31  32
HETATM   32  C28 UNL     1       0.252  51.016 -26.075  1.00  0.00     0.111 C 
BRANCH  32  33
HETATM   33  C29 UNL     1       1.251  52.109 -26.345  1.00  0.00     0.139 C 
HETATM   34  O4  UNL     1       2.461  52.001 -26.440  1.00  0.00    -0.650 OA
BRANCH  33  35
HETATM   35  O5  UNL     1       0.658  53.314 -26.454  1.00  0.00    -0.776 OA
HETATM   36  H41 UNL     1       1.399  53.936 -26.615  1.00  0.00     0.167 HD
ENDBRANCH  33  35
ENDBRANCH  32  33
ENDBRANCH  31  32
ENDBRANCH  20  31
TORSDOF 8
ENDMDL
MODEL 7
REMARK minimizedAffinity -8.43759251
REMARK CNNscore 0.221912235
REMARK CNNaffinity 6.2190609
REMARK  8 active torsions:
REMARK  status: ('A' for Active; 'I' for Inactive)
REMARK    1  A    between atoms: C12_14  and  C13_15 
REMARK    2  A    between atoms: C13_15  and  C15_17 
REMARK    3  A    between atoms: C15_17  and  C16_18 
REMARK    4  A    between atoms: C16_18  and  C17_20 
REMARK    5  A    between atoms: C26_29  and  C27_30 
REMARK    6  A    between atoms: C27_30  and  C28_31 
REMARK    7  A    between atoms: C28_31  and  C29_32 
REMARK    8  A    between atoms: C29_32  and  O5_34 
ROOT
HETATM    1  C1  UNL     1      -4.400  48.264 -26.834  1.00  0.00     0.025 C 
HETATM    2  C2  UNL     1      -3.947  49.455 -26.422  1.00  0.00     0.015 C 
HETATM    3  C3  UNL     1      -3.269  50.384 -27.352  1.00  0.00     0.289 C 
HETATM    4  O1  UNL     1      -3.159  50.252 -28.556  1.00  0.00    -0.260 OA
HETATM    5  O2  UNL     1      -2.802  51.432 -26.625  1.00  0.00    -0.311 OA
HETATM    6  C4  UNL     1      -2.935  51.171 -25.213  1.00  0.00     0.142 C 
HETATM    7  C5  UNL     1      -1.556  50.827 -24.667  1.00  0.00     0.039 C 
HETATM    8  C6  UNL     1      -1.518  50.323 -23.216  1.00  0.00     0.006 C 
HETATM    9  C7  UNL     1      -2.637  49.300 -22.896  1.00  0.00    -0.027 A 
HETATM   10  C8  UNL     1      -2.689  48.844 -21.422  1.00  0.00     0.011 C 
HETATM   11  C9  UNL     1      -2.464  49.944 -20.374  1.00  0.00     0.011 C 
HETATM   12  C10 UNL     1      -1.214  50.776 -20.698  1.00  0.00    -0.032 C 
HETATM   13  C11 UNL     1       0.026  49.840 -20.634  1.00  0.00     0.016 C 
HETATM   14  C12 UNL     1      -0.947  52.037 -19.815  1.00  0.00    -0.002 C 
HETATM   15  C21 UNL     1      -0.147  52.976 -20.765  1.00  0.00     0.006 C 
HETATM   16  C22 UNL     1      -0.271  52.400 -22.190  1.00  0.00     0.011 C 
HETATM   17  C23 UNL     1      -1.464  51.432 -22.119  1.00  0.00    -0.032 C 
HETATM   18  C24 UNL     1      -2.757  52.305 -22.193  1.00  0.00     0.016 C 
HETATM   19  C25 UNL     1      -2.781  48.141 -23.852  1.00  0.00     0.022 A 
HETATM   20  C26 UNL     1      -3.880  49.192 -23.835  1.00  0.00    -0.021 A 
HETATM   21  C30 UNL     1      -3.998  50.092 -25.072  1.00  0.00     0.063 C 
ENDROOT
BRANCH  14  22
HETATM   22  C13 UNL     1      -0.373  51.970 -18.367  1.00  0.00    -0.007 C 
HETATM   23  C14 UNL     1       1.113  52.307 -18.179  1.00  0.00     0.011 C 
BRANCH  22  24
HETATM   24  C15 UNL     1      -0.703  50.626 -17.690  1.00  0.00     0.087 C 
BRANCH  24  25
HETATM   25  C16 UNL     1      -1.911  50.690 -16.765  1.00  0.00     0.149 C 
HETATM   26  O3  UNL     1      -2.984  51.179 -17.105  1.00  0.00    -0.293 OA
BRANCH  25  27
HETATM   27  C17 UNL     1      -1.734  50.052 -15.425  1.00  0.00     0.052 C 
HETATM   28  C18 UNL     1      -2.279  50.482 -14.271  1.00  0.00    -0.084 C 
HETATM   29  C19 UNL     1      -2.060  49.715 -12.993  1.00  0.00     0.043 C 
HETATM   30  C20 UNL     1      -3.122  51.718 -14.115  1.00  0.00     0.043 C 
ENDBRANCH  25  27
ENDBRANCH  24  25
ENDBRANCH  22  24
ENDBRANCH  14  22
BRANCH  20  31
HETATM   31  C27 UNL     1      -5.246  48.888 -23.194  1.00  0.00     0.021 C 
BRANCH  31  32
HETATM   32  C28 UNL     1      -6.272  50.017 -23.266  1.00  0.00     0.111 C 
BRANCH  32  33
HETATM   33  C29 UNL     1      -7.667  49.475 -23.426  1.00  0.00     0.139 C 
HETATM   34  O4  UNL     1      -8.303  48.816 -22.622  1.00  0.00    -0.650 OA
BRANCH  33  35
HETATM   35  O5  UNL     1      -8.187  49.776 -24.632  1.00  0.00    -0.776 OA
HETATM   36  H41 UNL     1      -9.078  49.367 -24.621  1.00  0.00     0.167 HD
ENDBRANCH  33  35
ENDBRANCH  32  33
ENDBRANCH  31  32
ENDBRANCH  20  31
TORSDOF 8
ENDMDL
MODEL 8
REMARK minimizedAffinity -7.6362958
REMARK CNNscore 0.214165404
REMARK CNNaffinity 6.18506956
REMARK  8 active torsions:
REMARK  status: ('A' for Active; 'I' for Inactive)
REMARK    1  A    between atoms: C12_14  and  C13_15 
REMARK    2  A    between atoms: C13_15  and  C15_17 
REMARK    3  A    between atoms: C15_17  and  C16_18 
REMARK    4  A    between atoms: C16_18  and  C17_20 
REMARK    5  A    between atoms: C26_29  and  C27_30 
REMARK    6  A    between atoms: C27_30  and  C28_31 
REMARK    7  A    between atoms: C28_31  and  C29_32 
REMARK    8  A    between atoms: C29_32  and  O5_34 
ROOT
HETATM    1  C1  UNL     1       0.777  53.339 -23.477  1.00  0.00     0.025 C 
HETATM    2  C2  UNL     1       0.305  52.970 -22.280  1.00  0.00     0.015 C 
HETATM    3  C3  UNL     1       1.131  53.083 -21.059  1.00  0.00     0.289 C 
HETATM    4  O1  UNL     1       2.223  53.610 -20.969  1.00  0.00    -0.260 OA
HETATM    5  O2  UNL     1       0.444  52.506 -20.038  1.00  0.00    -0.311 OA
HETATM    6  C4  UNL     1      -0.717  51.812 -20.535  1.00  0.00     0.142 C 
HETATM    7  C5  UNL     1      -0.420  50.320 -20.510  1.00  0.00     0.039 C 
HETATM    8  C6  UNL     1      -1.464  49.419 -21.189  1.00  0.00     0.006 C 
HETATM    9  C7  UNL     1      -1.964  49.977 -22.544  1.00  0.00    -0.027 A 
HETATM   10  C8  UNL     1      -3.083  49.147 -23.207  1.00  0.00     0.011 C 
HETATM   11  C9  UNL     1      -4.167  48.608 -22.261  1.00  0.00     0.011 C 
HETATM   12  C10 UNL     1      -3.545  47.907 -21.043  1.00  0.00    -0.032 C 
HETATM   13  C11 UNL     1      -2.741  46.675 -21.546  1.00  0.00     0.016 C 
HETATM   14  C12 UNL     1      -4.518  47.453 -19.909  1.00  0.00    -0.002 C 
HETATM   15  C21 UNL     1      -3.620  47.478 -18.637  1.00  0.00     0.006 C 
HETATM   16  C22 UNL     1      -2.327  48.233 -19.004  1.00  0.00     0.011 C 
HETATM   17  C23 UNL     1      -2.671  48.996 -20.294  1.00  0.00    -0.032 C 
HETATM   18  C24 UNL     1      -3.474  50.266 -19.865  1.00  0.00     0.016 C 
HETATM   19  C25 UNL     1      -0.902  50.389 -23.535  1.00  0.00     0.022 A 
HETATM   20  C26 UNL     1      -1.740  51.482 -22.892  1.00  0.00    -0.021 A 
HETATM   21  C30 UNL     1      -1.026  52.410 -21.900  1.00  0.00     0.063 C 
ENDROOT
BRANCH  14  22
HETATM   22  C13 UNL     1      -5.432  46.194 -20.009  1.00  0.00    -0.007 C 
HETATM   23  C14 UNL     1      -5.632  45.573 -21.399  1.00  0.00     0.011 C 
BRANCH  22  24
HETATM   24  C15 UNL     1      -6.796  46.431 -19.332  1.00  0.00     0.087 C 
BRANCH  24  25
HETATM   25  C16 UNL     1      -7.574  47.599 -19.923  1.00  0.00     0.149 C 
HETATM   26  O3  UNL     1      -7.029  48.566 -20.444  1.00  0.00    -0.293 OA
BRANCH  25  27
HETATM   27  C17 UNL     1      -9.063  47.464 -19.894  1.00  0.00     0.052 C 
HETATM   28  C18 UNL     1      -9.878  47.958 -18.942  1.00  0.00    -0.084 C 
HETATM   29  C19 UNL     1     -11.371  47.794 -19.059  1.00  0.00     0.043 C 
HETATM   30  C20 UNL     1      -9.430  48.688 -17.705  1.00  0.00     0.043 C 
ENDBRANCH  25  27
ENDBRANCH  24  25
ENDBRANCH  22  24
ENDBRANCH  14  22
BRANCH  20  31
HETATM   31  C27 UNL     1      -2.833  52.208 -23.697  1.00  0.00     0.021 C 
BRANCH  31  32
HETATM   32  C28 UNL     1      -2.452  52.592 -25.126  1.00  0.00     0.111 C 
BRANCH  32  33
HETATM   33  C29 UNL     1      -3.212  51.769 -26.131  1.00  0.00     0.139 C 
HETATM   34  O4  UNL     1      -2.988  51.663 -27.324  1.00  0.00    -0.650 OA
BRANCH  33  35
HETATM   35  O5  UNL     1      -4.257  51.131 -25.569  1.00  0.00    -0.776 OA
HETATM   36  H41 UNL     1      -4.674  50.645 -26.313  1.00  0.00     0.167 HD
ENDBRANCH  33  35
ENDBRANCH  32  33
ENDBRANCH  31  32
ENDBRANCH  20  31
TORSDOF 8
ENDMDL
MODEL 9
REMARK minimizedAffinity -6.90350533
REMARK CNNscore 0.211598694
REMARK CNNaffinity 6.16033936
REMARK  8 active torsions:
REMARK  status: ('A' for Active; 'I' for Inactive)
REMARK    1  A    between atoms: C12_14  and  C13_15 
REMARK    2  A    between atoms: C13_15  and  C15_17 
REMARK    3  A    between atoms: C15_17  and  C16_18 
REMARK    4  A    between atoms: C16_18  and  C17_20 
REMARK    5  A    between atoms: C26_29  and  C27_30 
REMARK    6  A    between atoms: C27_30  and  C28_31 
REMARK    7  A    between atoms: C28_31  and  C29_32 
REMARK    8  A    between atoms: C29_32  and  O5_34 
ROOT
HETATM    1  C1  UNL     1      -8.915  46.191 -17.356  1.00  0.00     0.025 C 
HETATM    2  C2  UNL     1      -7.826  45.882 -18.069  1.00  0.00     0.015 C 
HETATM    3  C3  UNL     1      -6.803  44.950 -17.548  1.00  0.00     0.289 C 
HETATM    4  O1  UNL     1      -6.877  44.288 -16.530  1.00  0.00    -0.260 OA
HETATM    5  O2  UNL     1      -5.761  44.946 -18.420  1.00  0.00    -0.311 OA
HETATM    6  C4  UNL     1      -5.919  45.986 -19.405  1.00  0.00     0.142 C 
HETATM    7  C5  UNL     1      -4.963  47.117 -19.051  1.00  0.00     0.039 C 
HETATM    8  C6  UNL     1      -5.121  48.407 -19.870  1.00  0.00     0.006 C 
HETATM    9  C7  UNL     1      -6.599  48.823 -20.077  1.00  0.00    -0.027 A 
HETATM   10  C8  UNL     1      -6.800  50.060 -20.976  1.00  0.00     0.011 C 
HETATM   11  C9  UNL     1      -5.901  50.137 -22.219  1.00  0.00     0.011 C 
HETATM   12  C10 UNL     1      -4.428  49.893 -21.858  1.00  0.00    -0.032 C 
HETATM   13  C11 UNL     1      -3.965  51.030 -20.903  1.00  0.00     0.016 C 
HETATM   14  C12 UNL     1      -3.414  49.775 -23.040  1.00  0.00    -0.002 C 
HETATM   15  C21 UNL     1      -2.288  48.872 -22.455  1.00  0.00     0.006 C 
HETATM   16  C22 UNL     1      -2.827  48.255 -21.149  1.00  0.00     0.011 C 
HETATM   17  C23 UNL     1      -4.351  48.441 -21.228  1.00  0.00    -0.032 C 
HETATM   18  C24 UNL     1      -4.895  47.316 -22.166  1.00  0.00     0.016 C 
HETATM   19  C25 UNL     1      -7.461  48.877 -18.838  1.00  0.00     0.022 A 
HETATM   20  C26 UNL     1      -7.737  47.777 -19.850  1.00  0.00    -0.021 A 
HETATM   21  C30 UNL     1      -7.398  46.342 -19.424  1.00  0.00     0.063 C 
ENDROOT
BRANCH  14  22
HETATM   22  C13 UNL     1      -2.883  50.998 -23.847  1.00  0.00    -0.007 C 
HETATM   23  C14 UNL     1      -3.663  51.408 -25.105  1.00  0.00     0.011 C 
BRANCH  22  24
HETATM   24  C15 UNL     1      -1.385  50.851 -24.176  1.00  0.00     0.087 C 
BRANCH  24  25
HETATM   25  C16 UNL     1      -0.744  52.135 -24.686  1.00  0.00     0.149 C 
HETATM   26  O3  UNL     1      -1.307  53.224 -24.635  1.00  0.00    -0.293 OA
BRANCH  25  27
HETATM   27  C17 UNL     1       0.655  52.001 -25.195  1.00  0.00     0.052 C 
HETATM   28  C18 UNL     1       1.006  51.703 -26.461  1.00  0.00    -0.084 C 
HETATM   29  C19 UNL     1       2.458  51.648 -26.855  1.00  0.00     0.043 C 
HETATM   30  C20 UNL     1       0.048  51.396 -27.580  1.00  0.00     0.043 C 
ENDBRANCH  25  27
ENDBRANCH  24  25
ENDBRANCH  22  24
ENDBRANCH  14  22
BRANCH  20  31
HETATM   31  C27 UNL     1      -8.973  47.844 -20.765  1.00  0.00     0.021 C 
BRANCH  31  32
HETATM   32  C28 UNL     1      -9.382  46.525 -21.416  1.00  0.00     0.111 C 
BRANCH  32  33
HETATM   33  C29 UNL     1      -8.884  46.439 -22.833  1.00  0.00     0.139 C 
HETATM   34  O4  UNL     1      -7.878  45.879 -23.232  1.00  0.00    -0.650 OA
BRANCH  33  35
HETATM   35  O5  UNL     1      -9.685  47.104 -23.687  1.00  0.00    -0.776 OA
HETATM   36  H41 UNL     1      -9.257  46.987 -24.563  1.00  0.00     0.167 HD
ENDBRANCH  33  35
ENDBRANCH  32  33
ENDBRANCH  31  32
ENDBRANCH  20  31
TORSDOF 8
ENDMDL
