MODEL 1
REMARK minimizedAffinity -6.90993929
REMARK CNNscore 0.523478031
REMARK CNNaffinity 6.54080009
REMARK  6 active torsions:
REMARK  status: ('A' for Active; 'I' for Inactive)
REMARK    1  A    between atoms: C2_2  and  C30_31 
REMARK    2  A    between atoms: C3_3  and  C4_4 
REMARK    3  A    between atoms: C4_4  and  C5_5 
REMARK    4  A    between atoms: C5_5  and  C6_6 
REMARK    5  A    between atoms: C6_6  and  C8_8 
REMARK    6  A    between atoms: C30_31  and  O3_33 
ROOT
HETATM    1  C8  UNL     1      -1.759  12.049  17.810  1.00  0.00    -0.002 C 
HETATM    2  C9  UNL     1      -1.980  10.962  18.903  1.00  0.00     0.007 C 
HETATM    3  C10 UNL     1      -2.109   9.604  18.184  1.00  0.00     0.015 C 
HETATM    4  C11 UNL     1      -2.270   9.964  16.693  1.00  0.00    -0.013 C 
HETATM    5  C12 UNL     1      -3.787  10.286  16.489  1.00  0.00     0.021 C 
HETATM    6  C13 UNL     1      -1.920   8.899  15.656  1.00  0.00    -0.070 C 
HETATM    7  C14 UNL     1      -2.152   7.587  15.876  1.00  0.00    -0.022 C 
HETATM    8  C15 UNL     1      -1.917   6.496  14.867  1.00  0.00     0.034 C 
HETATM    9  C16 UNL     1      -1.130   7.001  13.647  1.00  0.00     0.013 C 
HETATM   10  C17 UNL     1      -0.816   5.939  12.546  1.00  0.00     0.018 C 
HETATM   11  C18 UNL     1      -2.036   5.430  11.770  1.00  0.00     0.023 C 
HETATM   12  C19 UNL     1      -0.098   4.722  13.170  1.00  0.00     0.023 C 
HETATM   13  C20 UNL     1       0.156   6.577  11.535  1.00  0.00     0.135 C 
HETATM   14  O1  UNL     1       0.778   5.900  10.714  1.00  0.00    -0.297 OA
HETATM   15  C21 UNL     1       0.342   8.080  11.590  1.00  0.00     0.080 C 
HETATM   16  C22 UNL     1      -1.003   8.760  11.793  1.00  0.00     0.017 C 
HETATM   17  C23 UNL     1      -1.698   8.382  13.135  1.00  0.00    -0.031 C 
HETATM   18  C24 UNL     1      -3.228   8.376  12.874  1.00  0.00     0.016 C 
HETATM   19  C25 UNL     1      -1.377   9.406  14.301  1.00  0.00     0.024 C 
HETATM   20  C26 UNL     1      -1.780  10.876  14.031  1.00  0.00     0.010 C 
HETATM   21  C27 UNL     1      -1.506  11.862  15.194  1.00  0.00     0.011 C 
HETATM   22  C28 UNL     1      -1.311  11.199  16.575  1.00  0.00    -0.029 C 
HETATM   23  C29 UNL     1       0.198  10.836  16.755  1.00  0.00     0.016 C 
ENDROOT
BRANCH   1  24
HETATM   24  C6  UNL     1      -0.861  13.216  18.306  1.00  0.00    -0.014 C 
HETATM   25  C7  UNL     1      -1.577  14.570  18.257  1.00  0.00     0.010 C 
BRANCH  24  26
HETATM   26  C5  UNL     1      -0.287  12.978  19.729  1.00  0.00     0.008 C 
BRANCH  26  27
HETATM   27  C4  UNL     1       1.242  12.961  19.823  1.00  0.00     0.028 C 
BRANCH  27  28
HETATM   28  C3  UNL     1       1.733  11.632  20.328  1.00  0.00    -0.013 C 
HETATM   29  C2  UNL     1       2.470  11.396  21.433  1.00  0.00     0.008 C 
HETATM   30  C1  UNL     1       2.996  12.432  22.380  1.00  0.00     0.055 C 
BRANCH  29  31
HETATM   31  C30 UNL     1       2.803   9.975  21.712  1.00  0.00     0.171 C 
HETATM   32  O2  UNL     1       3.885   9.530  22.056  1.00  0.00    -0.646 OA
BRANCH  31  33
HETATM   33  O3  UNL     1       1.749   9.161  21.539  1.00  0.00    -0.773 OA
HETATM   34  H46 UNL     1       2.110   8.275  21.751  1.00  0.00     0.167 HD
ENDBRANCH  31  33
ENDBRANCH  29  31
ENDBRANCH  27  28
ENDBRANCH  26  27
ENDBRANCH  24  26
ENDBRANCH   1  24
TORSDOF 6
ENDMDL
MODEL 2
REMARK minimizedAffinity -6.94695997
REMARK CNNscore 0.503776729
REMARK CNNaffinity 7.10287857
REMARK  6 active torsions:
REMARK  status: ('A' for Active; 'I' for Inactive)
REMARK    1  A    between atoms: C2_2  and  C30_31 
REMARK    2  A    between atoms: C3_3  and  C4_4 
REMARK    3  A    between atoms: C4_4  and  C5_5 
REMARK    4  A    between atoms: C5_5  and  C6_6 
REMARK    5  A    between atoms: C6_6  and  C8_8 
REMARK    6  A    between atoms: C30_31  and  O3_33 
ROOT
HETATM    1  C8  UNL     1     -12.567   9.422  14.536  1.00  0.00    -0.002 C 
HETATM    2  C9  UNL     1     -11.940  10.843  14.645  1.00  0.00     0.007 C 
HETATM    3  C10 UNL     1     -10.420  10.663  14.832  1.00  0.00     0.015 C 
HETATM    4  C11 UNL     1     -10.237   9.163  15.137  1.00  0.00    -0.013 C 
HETATM    5  C12 UNL     1     -10.508   8.998  16.668  1.00  0.00     0.021 C 
HETATM    6  C13 UNL     1      -8.867   8.540  14.880  1.00  0.00    -0.070 C 
HETATM    7  C14 UNL     1      -7.723   9.228  15.081  1.00  0.00    -0.022 C 
HETATM    8  C15 UNL     1      -6.341   8.651  14.935  1.00  0.00     0.034 C 
HETATM    9  C16 UNL     1      -6.363   7.266  14.271  1.00  0.00     0.013 C 
HETATM   10  C17 UNL     1      -4.974   6.585  14.055  1.00  0.00     0.018 C 
HETATM   11  C18 UNL     1      -4.259   6.153  15.340  1.00  0.00     0.023 C 
HETATM   12  C19 UNL     1      -4.035   7.530  13.273  1.00  0.00     0.023 C 
HETATM   13  C20 UNL     1      -5.189   5.330  13.188  1.00  0.00     0.135 C 
HETATM   14  O1  UNL     1      -4.251   4.747  12.642  1.00  0.00    -0.297 OA
HETATM   15  C21 UNL     1      -6.610   4.835  13.008  1.00  0.00     0.080 C 
HETATM   16  C22 UNL     1      -7.355   4.907  14.333  1.00  0.00     0.017 C 
HETATM   17  C23 UNL     1      -7.491   6.353  14.894  1.00  0.00    -0.031 C 
HETATM   18  C24 UNL     1      -7.435   6.252  16.442  1.00  0.00     0.016 C 
HETATM   19  C25 UNL     1      -8.851   7.050  14.471  1.00  0.00     0.024 C 
HETATM   20  C26 UNL     1     -10.143   6.317  14.907  1.00  0.00     0.010 C 
HETATM   21  C27 UNL     1     -11.466   7.028  14.531  1.00  0.00     0.011 C 
HETATM   22  C28 UNL     1     -11.326   8.530  14.201  1.00  0.00    -0.029 C 
HETATM   23  C29 UNL     1     -11.008   8.688  12.680  1.00  0.00     0.016 C 
ENDROOT
BRANCH   1  24
HETATM   24  C6  UNL     1     -13.809   9.391  13.603  1.00  0.00    -0.014 C 
HETATM   25  C7  UNL     1     -14.274   7.965  13.291  1.00  0.00     0.010 C 
BRANCH  24  26
HETATM   26  C5  UNL     1     -15.000  10.222  14.150  1.00  0.00     0.008 C 
BRANCH  26  27
HETATM   27  C4  UNL     1     -15.400  11.432  13.298  1.00  0.00     0.028 C 
BRANCH  27  28
HETATM   28  C3  UNL     1     -16.234  11.005  12.120  1.00  0.00    -0.013 C 
HETATM   29  C2  UNL     1     -17.576  11.066  12.000  1.00  0.00     0.008 C 
HETATM   30  C1  UNL     1     -18.534  11.543  13.050  1.00  0.00     0.055 C 
BRANCH  29  31
HETATM   31  C30 UNL     1     -18.145  10.593  10.711  1.00  0.00     0.171 C 
HETATM   32  O2  UNL     1     -17.617   9.840   9.911  1.00  0.00    -0.646 OA
BRANCH  31  33
HETATM   33  O3  UNL     1     -19.367  11.098  10.477  1.00  0.00    -0.773 OA
HETATM   34  H46 UNL     1     -19.610  10.710   9.611  1.00  0.00     0.167 HD
ENDBRANCH  31  33
ENDBRANCH  29  31
ENDBRANCH  27  28
ENDBRANCH  26  27
ENDBRANCH  24  26
ENDBRANCH   1  24
TORSDOF 6
ENDMDL
MODEL 3
REMARK minimizedAffinity -9.34043694
REMARK CNNscore 0.438432157
REMARK CNNaffinity 7.15142012
REMARK  6 active torsions:
REMARK  status: ('A' for Active; 'I' for Inactive)
REMARK    1  A    between atoms: C2_2  and  C30_31 
REMARK    2  A    between atoms: C3_3  and  C4_4 
REMARK    3  A    between atoms: C4_4  and  C5_5 
REMARK    4  A    between atoms: C5_5  and  C6_6 
REMARK    5  A    between atoms: C6_6  and  C8_8 
REMARK    6  A    between atoms: C30_31  and  O3_33 
ROOT
HETATM    1  C8  UNL     1      -4.807   5.290  13.755  1.00  0.00    -0.002 C 
HETATM    2  C9  UNL     1      -5.540   4.418  12.694  1.00  0.00     0.007 C 
HETATM    3  C10 UNL     1      -7.025   4.834  12.703  1.00  0.00     0.015 C 
HETATM    4  C11 UNL     1      -7.182   5.704  13.966  1.00  0.00    -0.013 C 
HETATM    5  C12 UNL     1      -7.390   4.708  15.153  1.00  0.00     0.021 C 
HETATM    6  C13 UNL     1      -8.353   6.682  14.023  1.00  0.00    -0.070 C 
HETATM    7  C14 UNL     1      -9.551   6.392  13.472  1.00  0.00    -0.022 C 
HETATM    8  C15 UNL     1     -10.772   7.266  13.568  1.00  0.00     0.034 C 
HETATM    9  C16 UNL     1     -10.440   8.656  14.134  1.00  0.00     0.013 C 
HETATM   10  C17 UNL     1     -11.639   9.650  14.258  1.00  0.00     0.018 C 
HETATM   11  C18 UNL     1     -12.684   9.275  15.314  1.00  0.00     0.023 C 
HETATM   12  C19 UNL     1     -12.354   9.791  12.897  1.00  0.00     0.023 C 
HETATM   13  C20 UNL     1     -11.071  11.034  14.625  1.00  0.00     0.135 C 
HETATM   14  O1  UNL     1     -11.746  12.061  14.531  1.00  0.00    -0.297 OA
HETATM   15  C21 UNL     1      -9.632  11.103  15.095  1.00  0.00     0.080 C 
HETATM   16  C22 UNL     1      -9.345   9.953  16.049  1.00  0.00     0.017 C 
HETATM   17  C23 UNL     1      -9.498   8.547  15.397  1.00  0.00    -0.031 C 
HETATM   18  C24 UNL     1     -10.026   7.586  16.495  1.00  0.00     0.016 C 
HETATM   19  C25 UNL     1      -8.130   7.981  14.829  1.00  0.00     0.024 C 
HETATM   20  C26 UNL     1      -6.988   7.831  15.863  1.00  0.00     0.010 C 
HETATM   21  C27 UNL     1      -5.670   7.234  15.311  1.00  0.00     0.011 C 
HETATM   22  C28 UNL     1      -5.812   6.469  13.977  1.00  0.00    -0.029 C 
HETATM   23  C29 UNL     1      -5.650   7.477  12.794  1.00  0.00     0.016 C 
ENDROOT
BRANCH   1  24
HETATM   24  C6  UNL     1      -3.337   5.599  13.357  1.00  0.00    -0.014 C 
HETATM   25  C7  UNL     1      -2.420   5.762  14.573  1.00  0.00     0.010 C 
BRANCH  24  26
HETATM   26  C5  UNL     1      -2.737   4.546  12.386  1.00  0.00     0.008 C 
BRANCH  26  27
HETATM   27  C4  UNL     1      -3.527   3.239  12.269  1.00  0.00     0.028 C 
BRANCH  27  28
HETATM   28  C3  UNL     1      -2.731   2.195  11.534  1.00  0.00    -0.013 C 
HETATM   29  C2  UNL     1      -1.402   2.192  11.300  1.00  0.00     0.008 C 
HETATM   30  C1  UNL     1      -0.435   3.267  11.695  1.00  0.00     0.055 C 
BRANCH  29  31
HETATM   31  C30 UNL     1      -0.866   1.019  10.561  1.00  0.00     0.171 C 
HETATM   32  O2  UNL     1      -0.322   0.039  11.040  1.00  0.00    -0.646 OA
BRANCH  31  33
HETATM   33  O3  UNL     1      -1.032   1.134   9.234  1.00  0.00    -0.773 OA
HETATM   34  H46 UNL     1      -0.637   0.309   8.884  1.00  0.00     0.167 HD
ENDBRANCH  31  33
ENDBRANCH  29  31
ENDBRANCH  27  28
ENDBRANCH  26  27
ENDBRANCH  24  26
ENDBRANCH   1  24
TORSDOF 6
ENDMDL
MODEL 4
REMARK minimizedAffinity -7.65918636
REMARK CNNscore 0.427006662
REMARK CNNaffinity 5.66576529
REMARK  6 active torsions:
REMARK  status: ('A' for Active; 'I' for Inactive)
REMARK    1  A    between atoms: C2_2  and  C30_31 
REMARK    2  A    between atoms: C3_3  and  C4_4 
REMARK    3  A    between atoms: C4_4  and  C5_5 
REMARK    4  A    between atoms: C5_5  and  C6_6 
REMARK    5  A    between atoms: C6_6  and  C8_8 
REMARK    6  A    between atoms: C30_31  and  O3_33 
ROOT
HETATM    1  C8  UNL     1      10.732  12.953  19.107  1.00  0.00    -0.002 C 
HETATM    2  C9  UNL     1      11.353  12.567  20.482  1.00  0.00     0.007 C 
HETATM    3  C10 UNL     1      10.189  12.368  21.474  1.00  0.00     0.015 C 
HETATM    4  C11 UNL     1       8.954  12.938  20.749  1.00  0.00    -0.013 C 
HETATM    5  C12 UNL     1       8.982  14.481  20.997  1.00  0.00     0.021 C 
HETATM    6  C13 UNL     1       7.575  12.462  21.199  1.00  0.00    -0.070 C 
HETATM    7  C14 UNL     1       7.303  12.185  22.492  1.00  0.00    -0.022 C 
HETATM    8  C15 UNL     1       5.948  11.800  23.018  1.00  0.00     0.034 C 
HETATM    9  C16 UNL     1       4.956  11.494  21.885  1.00  0.00     0.013 C 
HETATM   10  C17 UNL     1       3.521  11.065  22.326  1.00  0.00     0.018 C 
HETATM   11  C18 UNL     1       2.692  12.168  22.992  1.00  0.00     0.023 C 
HETATM   12  C19 UNL     1       3.599   9.866  23.297  1.00  0.00     0.023 C 
HETATM   13  C20 UNL     1       2.760  10.592  21.072  1.00  0.00     0.135 C 
HETATM   14  O1  UNL     1       1.708   9.955  21.150  1.00  0.00    -0.297 OA
HETATM   15  C21 UNL     1       3.360  10.921  19.720  1.00  0.00     0.080 C 
HETATM   16  C22 UNL     1       3.888  12.348  19.722  1.00  0.00     0.017 C 
HETATM   17  C23 UNL     1       5.033  12.588  20.750  1.00  0.00    -0.031 C 
HETATM   18  C24 UNL     1       4.888  14.044  21.268  1.00  0.00     0.016 C 
HETATM   19  C25 UNL     1       6.475  12.408  20.115  1.00  0.00     0.024 C 
HETATM   20  C26 UNL     1       6.799  13.332  18.916  1.00  0.00     0.010 C 
HETATM   21  C27 UNL     1       8.225  13.183  18.331  1.00  0.00     0.011 C 
HETATM   22  C28 UNL     1       9.243  12.501  19.270  1.00  0.00    -0.029 C 
HETATM   23  C29 UNL     1       9.178  10.954  19.053  1.00  0.00     0.016 C 
ENDROOT
BRANCH   1  24
HETATM   24  C6  UNL     1      11.569  12.426  17.909  1.00  0.00    -0.014 C 
HETATM   25  C7  UNL     1      11.828  13.506  16.853  1.00  0.00     0.010 C 
BRANCH  24  26
HETATM   26  C5  UNL     1      12.915  11.785  18.343  1.00  0.00     0.008 C 
BRANCH  26  27
HETATM   27  C4  UNL     1      14.146  12.685  18.194  1.00  0.00     0.028 C 
BRANCH  27  28
HETATM   28  C3  UNL     1      14.717  13.040  19.540  1.00  0.00    -0.013 C 
HETATM   29  C2  UNL     1      15.959  12.782  19.998  1.00  0.00     0.008 C 
HETATM   30  C1  UNL     1      17.034  12.039  19.262  1.00  0.00     0.055 C 
BRANCH  29  31
HETATM   31  C30 UNL     1      16.270  13.264  21.369  1.00  0.00     0.171 C 
HETATM   32  O2  UNL     1      16.784  14.326  21.673  1.00  0.00    -0.646 OA
BRANCH  31  33
HETATM   33  O3  UNL     1      15.922  12.374  22.313  1.00  0.00    -0.773 OA
HETATM   34  H46 UNL     1      16.183  12.816  23.148  1.00  0.00     0.167 HD
ENDBRANCH  31  33
ENDBRANCH  29  31
ENDBRANCH  27  28
ENDBRANCH  26  27
ENDBRANCH  24  26
ENDBRANCH   1  24
TORSDOF 6
ENDMDL
MODEL 5
REMARK minimizedAffinity -7.33472967
REMARK CNNscore 0.422964334
REMARK CNNaffinity 6.46184778
REMARK  6 active torsions:
REMARK  status: ('A' for Active; 'I' for Inactive)
REMARK    1  A    between atoms: C2_2  and  C30_31 
REMARK    2  A    between atoms: C3_3  and  C4_4 
REMARK    3  A    between atoms: C4_4  and  C5_5 
REMARK    4  A    between atoms: C5_5  and  C6_6 
REMARK    5  A    between atoms: C6_6  and  C8_8 
REMARK    6  A    between atoms: C30_31  and  O3_33 
ROOT
HETATM    1  C8  UNL     1      -1.861   9.170  15.905  1.00  0.00    -0.002 C 
HETATM    2  C9  UNL     1      -0.570   9.240  16.773  1.00  0.00     0.007 C 
HETATM    3  C10 UNL     1       0.597   8.728  15.905  1.00  0.00     0.015 C 
HETATM    4  C11 UNL     1      -0.079   8.088  14.676  1.00  0.00    -0.013 C 
HETATM    5  C12 UNL     1      -0.475   6.638  15.108  1.00  0.00     0.021 C 
HETATM    6  C13 UNL     1       0.746   7.939  13.400  1.00  0.00    -0.070 C 
HETATM    7  C14 UNL     1       2.068   7.667  13.433  1.00  0.00    -0.022 C 
HETATM    8  C15 UNL     1       2.921   7.419  12.220  1.00  0.00     0.034 C 
HETATM    9  C16 UNL     1       2.186   7.771  10.917  1.00  0.00     0.013 C 
HETATM   10  C17 UNL     1       2.993   7.566   9.596  1.00  0.00     0.018 C 
HETATM   11  C18 UNL     1       3.292   6.106   9.239  1.00  0.00     0.023 C 
HETATM   12  C19 UNL     1       4.334   8.331   9.668  1.00  0.00     0.023 C 
HETATM   13  C20 UNL     1       2.177   8.178   8.441  1.00  0.00     0.135 C 
HETATM   14  O1  UNL     1       2.676   8.398   7.336  1.00  0.00    -0.297 OA
HETATM   15  C21 UNL     1       0.727   8.524   8.711  1.00  0.00     0.080 C 
HETATM   16  C22 UNL     1       0.072   7.414   9.519  1.00  0.00     0.017 C 
HETATM   17  C23 UNL     1       0.713   7.203  10.923  1.00  0.00    -0.031 C 
HETATM   18  C24 UNL     1       0.624   5.687  11.245  1.00  0.00     0.016 C 
HETATM   19  C25 UNL     1      -0.028   8.017  12.064  1.00  0.00     0.024 C 
HETATM   20  C26 UNL     1      -1.531   7.697  12.247  1.00  0.00     0.010 C 
HETATM   21  C27 UNL     1      -2.236   8.463  13.394  1.00  0.00     0.011 C 
HETATM   22  C28 UNL     1      -1.286   9.064  14.453  1.00  0.00    -0.029 C 
HETATM   23  C29 UNL     1      -0.855  10.494  13.994  1.00  0.00     0.016 C 
ENDROOT
BRANCH   1  24
HETATM   24  C6  UNL     1      -2.870  10.299  16.251  1.00  0.00    -0.014 C 
HETATM   25  C7  UNL     1      -4.326   9.822  16.200  1.00  0.00     0.010 C 
BRANCH  24  26
HETATM   26  C5  UNL     1      -2.587  10.969  17.622  1.00  0.00     0.008 C 
BRANCH  26  27
HETATM   27  C4  UNL     1      -3.750  10.936  18.619  1.00  0.00     0.028 C 
BRANCH  27  28
HETATM   28  C3  UNL     1      -3.983  12.298  19.215  1.00  0.00    -0.013 C 
HETATM   29  C2  UNL     1      -4.663  13.327  18.670  1.00  0.00     0.008 C 
HETATM   30  C1  UNL     1      -5.303  13.340  17.315  1.00  0.00     0.055 C 
BRANCH  29  31
HETATM   31  C30 UNL     1      -4.758  14.563  19.489  1.00  0.00     0.171 C 
HETATM   32  O2  UNL     1      -4.784  14.634  20.706  1.00  0.00    -0.646 OA
BRANCH  31  33
HETATM   33  O3  UNL     1      -4.823  15.671  18.733  1.00  0.00    -0.773 OA
HETATM   34  H46 UNL     1      -4.884  16.393  19.395  1.00  0.00     0.167 HD
ENDBRANCH  31  33
ENDBRANCH  29  31
ENDBRANCH  27  28
ENDBRANCH  26  27
ENDBRANCH  24  26
ENDBRANCH   1  24
TORSDOF 6
ENDMDL
MODEL 6
REMARK minimizedAffinity -7.27132273
REMARK CNNscore 0.417916805
REMARK CNNaffinity 7.2302289
REMARK  6 active torsions:
REMARK  status: ('A' for Active; 'I' for Inactive)
REMARK    1  A    between atoms: C2_2  and  C30_31 
REMARK    2  A    between atoms: C3_3  and  C4_4 
REMARK    3  A    between atoms: C4_4  and  C5_5 
REMARK    4  A    between atoms: C5_5  and  C6_6 
REMARK    5  A    between atoms: C6_6  and  C8_8 
REMARK    6  A    between atoms: C30_31  and  O3_33 
ROOT
HETATM    1  C8  UNL     1      -9.541   6.941  14.450  1.00  0.00    -0.002 C 
HETATM    2  C9  UNL     1      -9.200   8.423  14.783  1.00  0.00     0.007 C 
HETATM    3  C10 UNL     1      -7.664   8.554  14.779  1.00  0.00     0.015 C 
HETATM    4  C11 UNL     1      -7.146   7.103  14.754  1.00  0.00    -0.013 C 
HETATM    5  C12 UNL     1      -7.163   6.613  16.239  1.00  0.00     0.021 C 
HETATM    6  C13 UNL     1      -5.729   6.855  14.242  1.00  0.00    -0.070 C 
HETATM    7  C14 UNL     1      -4.727   7.732  14.465  1.00  0.00    -0.022 C 
HETATM    8  C15 UNL     1      -3.293   7.511  14.070  1.00  0.00     0.034 C 
HETATM    9  C16 UNL     1      -3.132   6.295  13.145  1.00  0.00     0.013 C 
HETATM   10  C17 UNL     1      -1.679   5.989  12.660  1.00  0.00     0.018 C 
HETATM   11  C18 UNL     1      -0.720   5.506  13.753  1.00  0.00     0.023 C 
HETATM   12  C19 UNL     1      -1.064   7.242  11.997  1.00  0.00     0.023 C 
HETATM   13  C20 UNL     1      -1.759   4.891  11.582  1.00  0.00     0.135 C 
HETATM   14  O1  UNL     1      -0.809   4.637  10.839  1.00  0.00    -0.297 OA
HETATM   15  C21 UNL     1      -3.064   4.134  11.445  1.00  0.00     0.080 C 
HETATM   16  C22 UNL     1      -3.617   3.803  12.824  1.00  0.00     0.017 C 
HETATM   17  C23 UNL     1      -3.958   5.060  13.677  1.00  0.00    -0.031 C 
HETATM   18  C24 UNL     1      -3.668   4.701  15.159  1.00  0.00     0.016 C 
HETATM   19  C25 UNL     1      -5.474   5.502  13.540  1.00  0.00     0.024 C 
HETATM   20  C26 UNL     1      -6.521   4.435  13.944  1.00  0.00     0.010 C 
HETATM   21  C27 UNL     1      -7.999   4.890  13.852  1.00  0.00     0.011 C 
HETATM   22  C28 UNL     1      -8.207   6.420  13.821  1.00  0.00    -0.029 C 
HETATM   23  C29 UNL     1      -8.142   6.912  12.339  1.00  0.00     0.016 C 
ENDROOT
BRANCH   1  24
HETATM   24  C6  UNL     1     -10.870   6.801  13.657  1.00  0.00    -0.014 C 
HETATM   25  C7  UNL     1     -12.007   6.229  14.511  1.00  0.00     0.010 C 
BRANCH  24  26
HETATM   26  C5  UNL     1     -11.328   8.131  13.000  1.00  0.00     0.008 C 
BRANCH  26  27
HETATM   27  C4  UNL     1     -12.514   8.822  13.680  1.00  0.00     0.028 C 
BRANCH  27  28
HETATM   28  C3  UNL     1     -13.641   9.034  12.706  1.00  0.00    -0.013 C 
HETATM   29  C2  UNL     1     -14.962   8.873  12.931  1.00  0.00     0.008 C 
HETATM   30  C1  UNL     1     -15.587   8.402  14.210  1.00  0.00     0.055 C 
BRANCH  29  31
HETATM   31  C30 UNL     1     -15.867   9.172  11.791  1.00  0.00     0.171 C 
HETATM   32  O2  UNL     1     -16.450  10.220  11.575  1.00  0.00    -0.646 OA
BRANCH  31  33
HETATM   33  O3  UNL     1     -16.006   8.124  10.963  1.00  0.00    -0.773 OA
HETATM   34  H46 UNL     1     -16.620   8.458  10.276  1.00  0.00     0.167 HD
ENDBRANCH  31  33
ENDBRANCH  29  31
ENDBRANCH  27  28
ENDBRANCH  26  27
ENDBRANCH  24  26
ENDBRANCH   1  24
TORSDOF 6
ENDMDL
MODEL 7
REMARK minimizedAffinity -9.5937767
REMARK CNNscore 0.410433024
REMARK CNNaffinity 7.03692627
REMARK  6 active torsions:
REMARK  status: ('A' for Active; 'I' for Inactive)
REMARK    1  A    between atoms: C2_2  and  C30_31 
REMARK    2  A    between atoms: C3_3  and  C4_4 
REMARK    3  A    between atoms: C4_4  and  C5_5 
REMARK    4  A    between atoms: C5_5  and  C6_6 
REMARK    5  A    between atoms: C6_6  and  C8_8 
REMARK    6  A    between atoms: C30_31  and  O3_33 
ROOT
HETATM    1  C8  UNL     1      -5.463   6.906  15.204  1.00  0.00    -0.002 C 
HETATM    2  C9  UNL     1      -6.002   8.141  14.424  1.00  0.00     0.007 C 
HETATM    3  C10 UNL     1      -4.848   8.674  13.550  1.00  0.00     0.015 C 
HETATM    4  C11 UNL     1      -3.594   7.941  14.067  1.00  0.00    -0.013 C 
HETATM    5  C12 UNL     1      -3.106   8.749  15.314  1.00  0.00     0.021 C 
HETATM    6  C13 UNL     1      -2.390   7.834  13.135  1.00  0.00    -0.070 C 
HETATM    7  C14 UNL     1      -2.065   8.822  12.274  1.00  0.00    -0.022 C 
HETATM    8  C15 UNL     1      -0.845   8.823  11.393  1.00  0.00     0.034 C 
HETATM    9  C16 UNL     1      -0.146   7.455  11.379  1.00  0.00     0.013 C 
HETATM   10  C17 UNL     1       1.125   7.343  10.477  1.00  0.00     0.018 C 
HETATM   11  C18 UNL     1       2.333   8.154  10.958  1.00  0.00     0.023 C 
HETATM   12  C19 UNL     1       0.792   7.781   9.033  1.00  0.00     0.023 C 
HETATM   13  C20 UNL     1       1.540   5.861  10.423  1.00  0.00     0.135 C 
HETATM   14  O1  UNL     1       2.340   5.439   9.586  1.00  0.00    -0.297 OA
HETATM   15  C21 UNL     1       0.915   4.918  11.431  1.00  0.00     0.080 C 
HETATM   16  C22 UNL     1       0.866   5.582  12.799  1.00  0.00     0.017 C 
HETATM   17  C23 UNL     1      -0.012   6.867  12.838  1.00  0.00    -0.031 C 
HETATM   18  C24 UNL     1       0.645   7.843  13.851  1.00  0.00     0.016 C 
HETATM   19  C25 UNL     1      -1.503   6.578  13.293  1.00  0.00     0.024 C 
HETATM   20  C26 UNL     1      -1.663   5.930  14.689  1.00  0.00     0.010 C 
HETATM   21  C27 UNL     1      -3.124   5.694  15.146  1.00  0.00     0.011 C 
HETATM   22  C28 UNL     1      -4.184   6.523  14.388  1.00  0.00    -0.029 C 
HETATM   23  C29 UNL     1      -4.634   5.733  13.117  1.00  0.00     0.016 C 
ENDROOT
BRANCH   1  24
HETATM   24  C6  UNL     1      -6.562   5.837  15.455  1.00  0.00    -0.014 C 
HETATM   25  C7  UNL     1      -7.561   6.263  16.536  1.00  0.00     0.010 C 
BRANCH  24  26
HETATM   26  C5  UNL     1      -7.326   5.436  14.164  1.00  0.00     0.008 C 
BRANCH  26  27
HETATM   27  C4  UNL     1      -8.010   6.591  13.424  1.00  0.00     0.028 C 
BRANCH  27  28
HETATM   28  C3  UNL     1      -9.506   6.429  13.446  1.00  0.00    -0.013 C 
HETATM   29  C2  UNL     1     -10.419   7.303  13.917  1.00  0.00     0.008 C 
HETATM   30  C1  UNL     1     -10.124   8.622  14.567  1.00  0.00     0.055 C 
BRANCH  29  31
HETATM   31  C30 UNL     1     -11.844   6.898  13.797  1.00  0.00     0.171 C 
HETATM   32  O2  UNL     1     -12.653   7.303  12.980  1.00  0.00    -0.646 OA
BRANCH  31  33
HETATM   33  O3  UNL     1     -12.197   5.994  14.725  1.00  0.00    -0.773 OA
HETATM   34  H46 UNL     1     -13.142   5.826  14.529  1.00  0.00     0.167 HD
ENDBRANCH  31  33
ENDBRANCH  29  31
ENDBRANCH  27  28
ENDBRANCH  26  27
ENDBRANCH  24  26
ENDBRANCH   1  24
TORSDOF 6
ENDMDL
MODEL 8
REMARK minimizedAffinity -7.02689409
REMARK CNNscore 0.398905486
REMARK CNNaffinity 6.83831596
REMARK  6 active torsions:
REMARK  status: ('A' for Active; 'I' for Inactive)
REMARK    1  A    between atoms: C2_2  and  C30_31 
REMARK    2  A    between atoms: C3_3  and  C4_4 
REMARK    3  A    between atoms: C4_4  and  C5_5 
REMARK    4  A    between atoms: C5_5  and  C6_6 
REMARK    5  A    between atoms: C6_6  and  C8_8 
REMARK    6  A    between atoms: C30_31  and  O3_33 
ROOT
HETATM    1  C8  UNL     1      -8.810   6.013  14.328  1.00  0.00    -0.002 C 
HETATM    2  C9  UNL     1      -9.329   6.209  12.874  1.00  0.00     0.007 C 
HETATM    3  C10 UNL     1     -10.194   7.486  12.861  1.00  0.00     0.015 C 
HETATM    4  C11 UNL     1     -10.412   7.826  14.349  1.00  0.00    -0.013 C 
HETATM    5  C12 UNL     1     -11.613   6.943  14.822  1.00  0.00     0.021 C 
HETATM    6  C13 UNL     1     -10.776   9.264  14.710  1.00  0.00    -0.070 C 
HETATM    7  C14 UNL     1     -11.554  10.025  13.911  1.00  0.00    -0.022 C 
HETATM    8  C15 UNL     1     -12.026  11.414  14.245  1.00  0.00     0.034 C 
HETATM    9  C16 UNL     1     -11.308  11.983  15.478  1.00  0.00     0.013 C 
HETATM   10  C17 UNL     1     -11.712  13.432  15.900  1.00  0.00     0.018 C 
HETATM   11  C18 UNL     1     -13.137  13.573  16.446  1.00  0.00     0.023 C 
HETATM   12  C19 UNL     1     -11.554  14.397  14.705  1.00  0.00     0.023 C 
HETATM   13  C20 UNL     1     -10.737  13.896  16.998  1.00  0.00     0.135 C 
HETATM   14  O1  UNL     1     -10.648  15.079  17.332  1.00  0.00    -0.297 OA
HETATM   15  C21 UNL     1      -9.864  12.846  17.654  1.00  0.00     0.080 C 
HETATM   16  C22 UNL     1     -10.681  11.592  17.929  1.00  0.00     0.017 C 
HETATM   17  C23 UNL     1     -11.240  10.917  16.641  1.00  0.00    -0.031 C 
HETATM   18  C24 UNL     1     -12.615  10.298  17.008  1.00  0.00     0.016 C 
HETATM   19  C25 UNL     1     -10.291   9.776  16.085  1.00  0.00     0.024 C 
HETATM   20  C26 UNL     1      -9.998   8.613  17.064  1.00  0.00     0.010 C 
HETATM   21  C27 UNL     1      -9.108   7.479  16.497  1.00  0.00     0.011 C 
HETATM   22  C28 UNL     1      -9.021   7.430  14.957  1.00  0.00    -0.029 C 
HETATM   23  C29 UNL     1      -7.850   8.351  14.485  1.00  0.00     0.016 C 
ENDROOT
BRANCH   1  24
HETATM   24  C6  UNL     1      -7.403   5.355  14.372  1.00  0.00    -0.014 C 
HETATM   25  C7  UNL     1      -7.326   4.199  15.375  1.00  0.00     0.010 C 
BRANCH  24  26
HETATM   26  C5  UNL     1      -6.913   4.874  12.980  1.00  0.00     0.008 C 
BRANCH  26  27
HETATM   27  C4  UNL     1      -6.561   3.385  12.889  1.00  0.00     0.028 C 
BRANCH  27  28
HETATM   28  C3  UNL     1      -5.419   3.163  11.935  1.00  0.00    -0.013 C 
HETATM   29  C2  UNL     1      -4.130   3.527  12.099  1.00  0.00     0.008 C 
HETATM   30  C1  UNL     1      -3.569   4.279  13.267  1.00  0.00     0.055 C 
BRANCH  29  31
HETATM   31  C30 UNL     1      -3.198   3.163  11.000  1.00  0.00     0.171 C 
HETATM   32  O2  UNL     1      -2.130   2.584  11.108  1.00  0.00    -0.646 OA
BRANCH  31  33
HETATM   33  O3  UNL     1      -3.650   3.554   9.798  1.00  0.00    -0.773 OA
HETATM   34  H46 UNL     1      -2.946   3.257   9.184  1.00  0.00     0.167 HD
ENDBRANCH  31  33
ENDBRANCH  29  31
ENDBRANCH  27  28
ENDBRANCH  26  27
ENDBRANCH  24  26
ENDBRANCH   1  24
TORSDOF 6
ENDMDL
MODEL 9
REMARK minimizedAffinity -9.95480251
REMARK CNNscore 0.3881706
REMARK CNNaffinity 6.90594244
REMARK  6 active torsions:
REMARK  status: ('A' for Active; 'I' for Inactive)
REMARK    1  A    between atoms: C2_2  and  C30_31 
REMARK    2  A    between atoms: C3_3  and  C4_4 
REMARK    3  A    between atoms: C4_4  and  C5_5 
REMARK    4  A    between atoms: C5_5  and  C6_6 
REMARK    5  A    between atoms: C6_6  and  C8_8 
REMARK    6  A    between atoms: C30_31  and  O3_33 
ROOT
HETATM    1  C8  UNL     1      -3.479   7.448  14.418  1.00  0.00    -0.002 C 
HETATM    2  C9  UNL     1      -4.283   8.338  13.426  1.00  0.00     0.007 C 
HETATM    3  C10 UNL     1      -3.335   8.708  12.267  1.00  0.00     0.015 C 
HETATM    4  C11 UNL     1      -1.934   8.293  12.757  1.00  0.00    -0.013 C 
HETATM    5  C12 UNL     1      -1.418   9.477  13.640  1.00  0.00     0.021 C 
HETATM    6  C13 UNL     1      -0.852   8.043  11.710  1.00  0.00    -0.070 C 
HETATM    7  C14 UNL     1      -0.782   8.763  10.571  1.00  0.00    -0.022 C 
HETATM    8  C15 UNL     1       0.306   8.632   9.541  1.00  0.00     0.034 C 
HETATM    9  C16 UNL     1       1.190   7.400   9.791  1.00  0.00     0.013 C 
HETATM   10  C17 UNL     1       2.342   7.161   8.764  1.00  0.00     0.018 C 
HETATM   11  C18 UNL     1       3.470   8.198   8.804  1.00  0.00     0.023 C 
HETATM   12  C19 UNL     1       1.773   7.121   7.328  1.00  0.00     0.023 C 
HETATM   13  C20 UNL     1       2.957   5.779   9.054  1.00  0.00     0.135 C 
HETATM   14  O1  UNL     1       3.700   5.216   8.248  1.00  0.00    -0.297 OA
HETATM   15  C21 UNL     1       2.605   5.114  10.368  1.00  0.00     0.080 C 
HETATM   16  C22 UNL     1       2.630   6.141  11.491  1.00  0.00     0.017 C 
HETATM   17  C23 UNL     1       1.586   7.283  11.315  1.00  0.00    -0.031 C 
HETATM   18  C24 UNL     1       2.215   8.574  11.902  1.00  0.00     0.016 C 
HETATM   19  C25 UNL     1       0.220   6.987  12.063  1.00  0.00     0.024 C 
HETATM   20  C26 UNL     1       0.329   6.763  13.591  1.00  0.00     0.010 C 
HETATM   21  C27 UNL     1      -1.014   6.521  14.323  1.00  0.00     0.011 C 
HETATM   22  C28 UNL     1      -2.268   6.978  13.546  1.00  0.00    -0.029 C 
HETATM   23  C29 UNL     1      -2.753   5.808  12.630  1.00  0.00     0.016 C 
ENDROOT
BRANCH   1  24
HETATM   24  C6  UNL     1      -4.372   6.392  15.126  1.00  0.00    -0.014 C 
HETATM   25  C7  UNL     1      -5.665   6.995  15.685  1.00  0.00     0.010 C 
BRANCH  24  26
HETATM   26  C5  UNL     1      -4.710   5.178  14.220  1.00  0.00     0.008 C 
BRANCH  26  27
HETATM   27  C4  UNL     1      -6.066   5.248  13.511  1.00  0.00     0.028 C 
BRANCH  27  28
HETATM   28  C3  UNL     1      -6.527   3.876  13.099  1.00  0.00    -0.013 C 
HETATM   29  C2  UNL     1      -6.045   3.116  12.094  1.00  0.00     0.008 C 
HETATM   30  C1  UNL     1      -4.959   3.506  11.137  1.00  0.00     0.055 C 
BRANCH  29  31
HETATM   31  C30 UNL     1      -6.674   1.781  11.916  1.00  0.00     0.171 C 
HETATM   32  O2  UNL     1      -6.260   0.863  11.229  1.00  0.00    -0.646 OA
BRANCH  31  33
HETATM   33  O3  UNL     1      -7.814   1.658  12.614  1.00  0.00    -0.773 OA
HETATM   34  H46 UNL     1      -8.112   0.749  12.403  1.00  0.00     0.167 HD
ENDBRANCH  31  33
ENDBRANCH  29  31
ENDBRANCH  27  28
ENDBRANCH  26  27
ENDBRANCH  24  26
ENDBRANCH   1  24
TORSDOF 6
ENDMDL
