MODEL 1
REMARK minimizedAffinity -9.75993061
REMARK CNNscore 0.75535661
REMARK CNNaffinity 7.52105474
REMARK  12 active torsions:
REMARK  status: ('A' for Active; 'I' for Inactive)
REMARK    1  A    between atoms: C12_13  and  O2_14 
REMARK    2  A    between atoms: C19_21  and  O3_22 
REMARK    3  A    between atoms: C19_21  and  C20_23 
REMARK    4  A    between atoms: C20_23  and  C21_25 
REMARK    5  A    between atoms: C21_25  and  O5_26 
REMARK    6  A    between atoms: O5_26  and  C22_27 
REMARK    7  A    between atoms: C22_27  and  C23_29 
REMARK    8  A    between atoms: C23_29  and  C24_30 
REMARK    9  A    between atoms: C24_30  and  C25_31 
REMARK       I    between atoms: C25_31  and  N1_33 
REMARK   10  A    between atoms: N1_33  and  C26_34 
REMARK   11  A    between atoms: C26_34  and  C27_35 
REMARK   12  A    between atoms: C27_35  and  C28_36 
ROOT
HETATM    1  C1  UNL     1       1.298  51.005 -26.381  1.00  0.00     0.020 C 
HETATM    2  C2  UNL     1       0.085  51.989 -26.371  1.00  0.00    -0.014 C 
HETATM    3  C3  UNL     1       0.166  52.721 -27.744  1.00  0.00     0.022 C 
HETATM    4  C4  UNL     1      -0.409  54.130 -27.777  1.00  0.00     0.084 C 
HETATM    5  C5  UNL     1       0.124  54.958 -26.637  1.00  0.00     0.149 C 
HETATM    6  O1  UNL     1       0.305  56.169 -26.729  1.00  0.00    -0.293 OA
HETATM    7  C6  UNL     1       0.318  54.291 -25.332  1.00  0.00     0.053 C 
HETATM    8  C7  UNL     1       0.251  52.954 -25.207  1.00  0.00    -0.068 C 
HETATM    9  C8  UNL     1       0.295  52.310 -23.846  1.00  0.00     0.035 C 
HETATM   10  C9  UNL     1      -1.000  51.550 -23.606  1.00  0.00     0.010 C 
HETATM   11  C10 UNL     1      -1.388  50.554 -24.727  1.00  0.00    -0.002 C 
HETATM   12  C11 UNL     1      -1.219  51.123 -26.185  1.00  0.00     0.031 C 
HETATM   13  C12 UNL     1      -2.558  51.695 -26.708  1.00  0.00     0.124 C 
HETATM   14  C13 UNL     1      -3.669  50.612 -26.782  1.00  0.00     0.045 C 
HETATM   15  C14 UNL     1      -3.576  49.504 -25.695  1.00  0.00     0.001 C 
HETATM   16  C15 UNL     1      -2.862  48.249 -26.277  1.00  0.00     0.019 C 
HETATM   17  C16 UNL     1      -2.840  50.090 -24.473  1.00  0.00     0.002 C 
HETATM   18  C17 UNL     1      -3.053  49.057 -23.370  1.00  0.00     0.009 C 
HETATM   19  C18 UNL     1      -4.437  48.448 -23.669  1.00  0.00     0.047 C 
HETATM   20  C19 UNL     1      -4.921  49.069 -25.013  1.00  0.00     0.128 C 
ENDROOT
BRANCH  20  21
HETATM   21  O3  UNL     1      -5.710  50.202 -24.631  1.00  0.00    -0.381 OA
HETATM   22  H27 UNL     1      -6.109  50.584 -25.432  1.00  0.00     0.211 HD
ENDBRANCH  20  21
BRANCH  20  23
HETATM   23  C20 UNL     1      -5.779  48.069 -25.834  1.00  0.00     0.185 C 
HETATM   24  O4  UNL     1      -6.754  47.486 -25.352  1.00  0.00    -0.292 OA
BRANCH  23  25
HETATM   25  C21 UNL     1      -5.326  47.746 -27.254  1.00  0.00     0.260 C 
BRANCH  25  26
HETATM   26  O5  UNL     1      -6.118  48.421 -28.231  1.00  0.00    -0.314 OA
BRANCH  26  27
HETATM   27  C22 UNL     1      -7.174  47.692 -28.687  1.00  0.00     0.259 C 
HETATM   28  O6  UNL     1      -8.336  48.072 -28.662  1.00  0.00    -0.265 OA
BRANCH  27  29
HETATM   29  C23 UNL     1      -6.758  46.300 -29.108  1.00  0.00     0.120 C 
BRANCH  29  30
HETATM   30  C24 UNL     1      -6.499  46.136 -30.601  1.00  0.00     0.112 C 
BRANCH  30  31
HETATM   31  C25 UNL     1      -6.362  44.682 -31.001  1.00  0.00     0.218 C 
HETATM   32  O7  UNL     1      -6.715  43.752 -30.287  1.00  0.00    -0.274 OA
HETATM   33  N1  UNL     1      -5.806  44.516 -32.249  1.00  0.00    -0.361 N 
HETATM   34  H34 UNL     1      -5.496  45.326 -32.771  1.00  0.00     0.162 HD
BRANCH  33  35
HETATM   35  C26 UNL     1      -5.557  43.199 -32.809  1.00  0.00     0.127 C 
BRANCH  35  36
HETATM   36  C27 UNL     1      -4.102  43.016 -33.249  1.00  0.00     0.060 C 
BRANCH  36  37
HETATM   37  C28 UNL     1      -3.915  41.797 -34.094  1.00  0.00    -0.029 A 
HETATM   38  C29 UNL     1      -4.404  41.607 -35.372  1.00  0.00     0.096 A 
HETATM   39  N2  UNL     1      -4.015  40.368 -35.803  1.00  0.00    -0.365 N 
HETATM   40  C30 UNL     1      -3.276  39.736 -34.831  1.00  0.00     0.042 A 
HETATM   41  H40 UNL     1      -4.236  39.968 -36.704  1.00  0.00     0.165 HD
HETATM   42  C31 UNL     1      -2.680  38.470 -34.833  1.00  0.00     0.030 A 
HETATM   43  C35 UNL     1      -3.197  40.608 -33.744  1.00  0.00    -0.002 A 
HETATM   44  C32 UNL     1      -1.981  38.081 -33.686  1.00  0.00     0.002 A 
HETATM   45  C33 UNL     1      -1.883  38.928 -32.585  1.00  0.00     0.001 A 
HETATM   46  C34 UNL     1      -2.486  40.191 -32.600  1.00  0.00     0.014 A 
ENDBRANCH  36  37
ENDBRANCH  35  36
ENDBRANCH  33  35
ENDBRANCH  30  31
ENDBRANCH  29  30
ENDBRANCH  27  29
ENDBRANCH  26  27
ENDBRANCH  25  26
ENDBRANCH  23  25
ENDBRANCH  20  23
BRANCH  13  47
HETATM   47  O2  UNL     1      -3.046  52.755 -25.893  1.00  0.00    -0.395 OA
HETATM   48  H16 UNL     1      -2.313  53.351 -25.672  1.00  0.00     0.210 HD
ENDBRANCH  13  47
TORSDOF 12
ENDMDL
MODEL 2
REMARK minimizedAffinity -10.3963451
REMARK CNNscore 0.663775444
REMARK CNNaffinity 7.03455019
REMARK  12 active torsions:
REMARK  status: ('A' for Active; 'I' for Inactive)
REMARK    1  A    between atoms: C12_13  and  O2_14 
REMARK    2  A    between atoms: C19_21  and  O3_22 
REMARK    3  A    between atoms: C19_21  and  C20_23 
REMARK    4  A    between atoms: C20_23  and  C21_25 
REMARK    5  A    between atoms: C21_25  and  O5_26 
REMARK    6  A    between atoms: O5_26  and  C22_27 
REMARK    7  A    between atoms: C22_27  and  C23_29 
REMARK    8  A    between atoms: C23_29  and  C24_30 
REMARK    9  A    between atoms: C24_30  and  C25_31 
REMARK       I    between atoms: C25_31  and  N1_33 
REMARK   10  A    between atoms: N1_33  and  C26_34 
REMARK   11  A    between atoms: C26_34  and  C27_35 
REMARK   12  A    between atoms: C27_35  and  C28_36 
ROOT
HETATM    1  C1  UNL     1       1.389  51.154 -26.277  1.00  0.00     0.020 C 
HETATM    2  C2  UNL     1       0.166  52.126 -26.280  1.00  0.00    -0.014 C 
HETATM    3  C3  UNL     1       0.261  52.867 -27.648  1.00  0.00     0.022 C 
HETATM    4  C4  UNL     1      -0.327  54.270 -27.682  1.00  0.00     0.084 C 
HETATM    5  C5  UNL     1       0.180  55.096 -26.530  1.00  0.00     0.149 C 
HETATM    6  O1  UNL     1       0.351  56.309 -26.613  1.00  0.00    -0.293 OA
HETATM    7  C6  UNL     1       0.361  54.424 -25.225  1.00  0.00     0.053 C 
HETATM    8  C7  UNL     1       0.305  53.086 -25.109  1.00  0.00    -0.068 C 
HETATM    9  C8  UNL     1       0.334  52.435 -23.751  1.00  0.00     0.035 C 
HETATM   10  C9  UNL     1      -0.957  51.660 -23.535  1.00  0.00     0.010 C 
HETATM   11  C10 UNL     1      -1.317  50.667 -24.668  1.00  0.00    -0.002 C 
HETATM   12  C11 UNL     1      -1.131  51.246 -26.120  1.00  0.00     0.031 C 
HETATM   13  C12 UNL     1      -2.468  51.807 -26.660  1.00  0.00     0.124 C 
HETATM   14  C13 UNL     1      -3.567  50.714 -26.758  1.00  0.00     0.045 C 
HETATM   15  C14 UNL     1      -3.479  49.601 -25.676  1.00  0.00     0.001 C 
HETATM   16  C15 UNL     1      -2.744  48.356 -26.253  1.00  0.00     0.019 C 
HETATM   17  C16 UNL     1      -2.769  50.188 -24.439  1.00  0.00     0.002 C 
HETATM   18  C17 UNL     1      -2.988  49.146 -23.345  1.00  0.00     0.009 C 
HETATM   19  C18 UNL     1      -4.361  48.525 -23.669  1.00  0.00     0.047 C 
HETATM   20  C19 UNL     1      -4.831  49.149 -25.017  1.00  0.00     0.128 C 
ENDROOT
BRANCH  20  21
HETATM   21  O3  UNL     1      -5.637  50.272 -24.640  1.00  0.00    -0.381 OA
HETATM   22  H27 UNL     1      -6.027  50.654 -25.446  1.00  0.00     0.211 HD
ENDBRANCH  20  21
BRANCH  20  23
HETATM   23  C20 UNL     1      -5.666  48.145 -25.856  1.00  0.00     0.185 C 
HETATM   24  O4  UNL     1      -5.403  47.893 -27.036  1.00  0.00    -0.292 OA
BRANCH  23  25
HETATM   25  C21 UNL     1      -6.900  47.531 -25.205  1.00  0.00     0.260 C 
BRANCH  25  26
HETATM   26  O5  UNL     1      -7.833  48.527 -24.789  1.00  0.00    -0.314 OA
BRANCH  26  27
HETATM   27  C22 UNL     1      -9.009  48.504 -25.476  1.00  0.00     0.259 C 
HETATM   28  O6  UNL     1      -9.706  49.488 -25.683  1.00  0.00    -0.265 OA
BRANCH  27  29
HETATM   29  C23 UNL     1      -9.423  47.095 -25.840  1.00  0.00     0.120 C 
BRANCH  29  30
HETATM   30  C24 UNL     1     -10.540  46.517 -24.979  1.00  0.00     0.112 C 
BRANCH  30  31
HETATM   31  C25 UNL     1     -11.906  46.725 -25.600  1.00  0.00     0.218 C 
HETATM   32  O7  UNL     1     -12.604  47.705 -25.377  1.00  0.00    -0.274 OA
HETATM   33  N1  UNL     1     -12.275  45.702 -26.443  1.00  0.00    -0.361 N 
HETATM   34  H34 UNL     1     -11.670  44.898 -26.552  1.00  0.00     0.162 HD
BRANCH  33  35
HETATM   35  C26 UNL     1     -13.563  45.689 -27.117  1.00  0.00     0.127 C 
BRANCH  35  36
HETATM   36  C27 UNL     1     -14.692  46.217 -26.228  1.00  0.00     0.060 C 
BRANCH  36  37
HETATM   37  C28 UNL     1     -16.022  45.649 -26.607  1.00  0.00    -0.029 A 
HETATM   38  C29 UNL     1     -16.284  44.836 -27.693  1.00  0.00     0.096 A 
HETATM   39  N2  UNL     1     -17.617  44.527 -27.689  1.00  0.00    -0.365 N 
HETATM   40  C30 UNL     1     -18.241  45.122 -26.618  1.00  0.00     0.042 A 
HETATM   41  H40 UNL     1     -18.082  43.947 -28.373  1.00  0.00     0.165 HD
HETATM   42  C31 UNL     1     -19.583  45.083 -26.222  1.00  0.00     0.030 A 
HETATM   43  C35 UNL     1     -17.266  45.835 -25.920  1.00  0.00    -0.002 A 
HETATM   44  C32 UNL     1     -19.940  45.798 -25.075  1.00  0.00     0.002 A 
HETATM   45  C33 UNL     1     -18.991  46.519 -24.355  1.00  0.00     0.001 A 
HETATM   46  C34 UNL     1     -17.653  46.547 -24.766  1.00  0.00     0.014 A 
ENDBRANCH  36  37
ENDBRANCH  35  36
ENDBRANCH  33  35
ENDBRANCH  30  31
ENDBRANCH  29  30
ENDBRANCH  27  29
ENDBRANCH  26  27
ENDBRANCH  25  26
ENDBRANCH  23  25
ENDBRANCH  20  23
BRANCH  13  47
HETATM   47  O2  UNL     1      -2.979  52.859 -25.848  1.00  0.00    -0.395 OA
HETATM   48  H16 UNL     1      -2.255  53.460 -25.612  1.00  0.00     0.210 HD
ENDBRANCH  13  47
TORSDOF 12
ENDMDL
MODEL 3
REMARK minimizedAffinity -9.50153255
REMARK CNNscore 0.612210274
REMARK CNNaffinity 7.32013464
REMARK  12 active torsions:
REMARK  status: ('A' for Active; 'I' for Inactive)
REMARK    1  A    between atoms: C12_13  and  O2_14 
REMARK    2  A    between atoms: C19_21  and  O3_22 
REMARK    3  A    between atoms: C19_21  and  C20_23 
REMARK    4  A    between atoms: C20_23  and  C21_25 
REMARK    5  A    between atoms: C21_25  and  O5_26 
REMARK    6  A    between atoms: O5_26  and  C22_27 
REMARK    7  A    between atoms: C22_27  and  C23_29 
REMARK    8  A    between atoms: C23_29  and  C24_30 
REMARK    9  A    between atoms: C24_30  and  C25_31 
REMARK       I    between atoms: C25_31  and  N1_33 
REMARK   10  A    between atoms: N1_33  and  C26_34 
REMARK   11  A    between atoms: C26_34  and  C27_35 
REMARK   12  A    between atoms: C27_35  and  C28_36 
ROOT
HETATM    1  C1  UNL     1       1.358  51.085 -26.408  1.00  0.00     0.020 C 
HETATM    2  C2  UNL     1       0.136  52.057 -26.380  1.00  0.00    -0.014 C 
HETATM    3  C3  UNL     1       0.212  52.817 -27.738  1.00  0.00     0.022 C 
HETATM    4  C4  UNL     1      -0.376  54.221 -27.744  1.00  0.00     0.084 C 
HETATM    5  C5  UNL     1       0.148  55.031 -26.588  1.00  0.00     0.149 C 
HETATM    6  O1  UNL     1       0.319  56.245 -26.656  1.00  0.00    -0.293 OA
HETATM    7  C6  UNL     1       0.348  54.339 -25.296  1.00  0.00     0.053 C 
HETATM    8  C7  UNL     1       0.292  53.000 -25.198  1.00  0.00    -0.068 C 
HETATM    9  C8  UNL     1       0.341  52.330 -23.849  1.00  0.00     0.035 C 
HETATM   10  C9  UNL     1      -0.948  51.553 -23.626  1.00  0.00     0.010 C 
HETATM   11  C10 UNL     1      -1.325  50.576 -24.767  1.00  0.00    -0.002 C 
HETATM   12  C11 UNL     1      -1.160  51.176 -26.213  1.00  0.00     0.031 C 
HETATM   13  C12 UNL     1      -2.504  51.745 -26.726  1.00  0.00     0.124 C 
HETATM   14  C13 UNL     1      -3.605  50.654 -26.823  1.00  0.00     0.045 C 
HETATM   15  C14 UNL     1      -3.503  49.526 -25.758  1.00  0.00     0.001 C 
HETATM   16  C15 UNL     1      -2.777  48.289 -26.363  1.00  0.00     0.019 C 
HETATM   17  C16 UNL     1      -2.773  50.095 -24.523  1.00  0.00     0.002 C 
HETATM   18  C17 UNL     1      -2.978  49.038 -23.442  1.00  0.00     0.009 C 
HETATM   19  C18 UNL     1      -4.356  48.422 -23.754  1.00  0.00     0.047 C 
HETATM   20  C19 UNL     1      -4.845  49.065 -25.086  1.00  0.00     0.128 C 
ENDROOT
BRANCH  20  21
HETATM   21  O3  UNL     1      -5.644  50.183 -24.682  1.00  0.00    -0.381 OA
HETATM   22  H27 UNL     1      -6.046  50.577 -25.476  1.00  0.00     0.211 HD
ENDBRANCH  20  21
BRANCH  20  23
HETATM   23  C20 UNL     1      -5.693  48.073 -25.927  1.00  0.00     0.185 C 
HETATM   24  O4  UNL     1      -6.616  47.417 -25.439  1.00  0.00    -0.292 OA
BRANCH  23  25
HETATM   25  C21 UNL     1      -5.292  47.857 -27.382  1.00  0.00     0.260 C 
BRANCH  25  26
HETATM   26  O5  UNL     1      -6.311  48.284 -28.284  1.00  0.00    -0.314 OA
BRANCH  26  27
HETATM   27  C22 UNL     1      -6.660  47.348 -29.210  1.00  0.00     0.259 C 
HETATM   28  O6  UNL     1      -6.517  46.142 -29.059  1.00  0.00    -0.265 OA
BRANCH  27  29
HETATM   29  C23 UNL     1      -7.125  47.979 -30.504  1.00  0.00     0.120 C 
BRANCH  29  30
HETATM   30  C24 UNL     1      -6.753  47.201 -31.761  1.00  0.00     0.112 C 
BRANCH  30  31
HETATM   31  C25 UNL     1      -7.930  46.430 -32.324  1.00  0.00     0.218 C 
HETATM   32  O7  UNL     1      -8.424  45.457 -31.768  1.00  0.00    -0.274 OA
HETATM   33  N1  UNL     1      -8.386  46.940 -33.518  1.00  0.00    -0.361 N 
HETATM   34  H34 UNL     1      -7.906  47.722 -33.946  1.00  0.00     0.162 HD
BRANCH  33  35
HETATM   35  C26 UNL     1      -9.486  46.328 -34.243  1.00  0.00     0.127 C 
BRANCH  35  36
HETATM   36  C27 UNL     1      -9.114  45.982 -35.687  1.00  0.00     0.060 C 
BRANCH  36  37
HETATM   37  C28 UNL     1      -9.564  47.031 -36.653  1.00  0.00    -0.029 A 
HETATM   38  C29 UNL     1      -8.749  47.905 -37.347  1.00  0.00     0.096 A 
HETATM   39  N2  UNL     1      -9.540  48.702 -38.130  1.00  0.00    -0.365 N 
HETATM   40  C30 UNL     1     -10.863  48.369 -37.965  1.00  0.00     0.042 A 
HETATM   41  H40 UNL     1      -9.205  49.433 -38.742  1.00  0.00     0.165 HD
HETATM   42  C31 UNL     1     -12.009  48.911 -38.558  1.00  0.00     0.030 A 
HETATM   43  C35 UNL     1     -10.911  47.323 -37.043  1.00  0.00    -0.002 A 
HETATM   44  C32 UNL     1     -13.245  48.368 -38.195  1.00  0.00     0.002 A 
HETATM   45  C33 UNL     1     -13.327  47.324 -37.277  1.00  0.00     0.001 A 
HETATM   46  C34 UNL     1     -12.171  46.793 -36.694  1.00  0.00     0.014 A 
ENDBRANCH  36  37
ENDBRANCH  35  36
ENDBRANCH  33  35
ENDBRANCH  30  31
ENDBRANCH  29  30
ENDBRANCH  27  29
ENDBRANCH  26  27
ENDBRANCH  25  26
ENDBRANCH  23  25
ENDBRANCH  20  23
BRANCH  13  47
HETATM   47  O2  UNL     1      -3.002  52.785 -25.891  1.00  0.00    -0.395 OA
HETATM   48  H16 UNL     1      -2.275  53.383 -25.658  1.00  0.00     0.210 HD
ENDBRANCH  13  47
TORSDOF 12
ENDMDL
MODEL 4
REMARK minimizedAffinity -8.42889977
REMARK CNNscore 0.58466512
REMARK CNNaffinity 6.77480555
REMARK  12 active torsions:
REMARK  status: ('A' for Active; 'I' for Inactive)
REMARK    1  A    between atoms: C12_13  and  O2_14 
REMARK    2  A    between atoms: C19_21  and  O3_22 
REMARK    3  A    between atoms: C19_21  and  C20_23 
REMARK    4  A    between atoms: C20_23  and  C21_25 
REMARK    5  A    between atoms: C21_25  and  O5_26 
REMARK    6  A    between atoms: O5_26  and  C22_27 
REMARK    7  A    between atoms: C22_27  and  C23_29 
REMARK    8  A    between atoms: C23_29  and  C24_30 
REMARK    9  A    between atoms: C24_30  and  C25_31 
REMARK       I    between atoms: C25_31  and  N1_33 
REMARK   10  A    between atoms: N1_33  and  C26_34 
REMARK   11  A    between atoms: C26_34  and  C27_35 
REMARK   12  A    between atoms: C27_35  and  C28_36 
ROOT
HETATM    1  C1  UNL     1      -0.325  49.564 -19.456  1.00  0.00     0.020 C 
HETATM    2  C2  UNL     1      -0.633  50.725 -20.454  1.00  0.00    -0.014 C 
HETATM    3  C3  UNL     1       0.702  50.937 -21.229  1.00  0.00     0.022 C 
HETATM    4  C4  UNL     1       0.946  52.346 -21.753  1.00  0.00     0.084 C 
HETATM    5  C5  UNL     1       0.725  53.370 -20.672  1.00  0.00     0.149 C 
HETATM    6  O1  UNL     1       1.359  54.420 -20.618  1.00  0.00    -0.293 OA
HETATM    7  C6  UNL     1      -0.381  53.139 -19.718  1.00  0.00     0.053 C 
HETATM    8  C7  UNL     1      -1.024  51.960 -19.658  1.00  0.00    -0.068 C 
HETATM    9  C8  UNL     1      -2.247  51.800 -18.792  1.00  0.00     0.035 C 
HETATM   10  C9  UNL     1      -3.440  51.444 -19.666  1.00  0.00     0.010 C 
HETATM   11  C10 UNL     1      -3.216  50.239 -20.614  1.00  0.00    -0.002 C 
HETATM   12  C11 UNL     1      -1.831  50.256 -21.364  1.00  0.00     0.031 C 
HETATM   13  C12 UNL     1      -1.977  50.889 -22.768  1.00  0.00     0.124 C 
HETATM   14  C13 UNL     1      -2.960  50.095 -23.671  1.00  0.00     0.045 C 
HETATM   15  C14 UNL     1      -4.132  49.408 -22.916  1.00  0.00     0.001 C 
HETATM   16  C15 UNL     1      -3.788  47.913 -22.651  1.00  0.00     0.019 C 
HETATM   17  C16 UNL     1      -4.393  50.195 -21.615  1.00  0.00     0.002 C 
HETATM   18  C17 UNL     1      -5.719  49.644 -21.098  1.00  0.00     0.009 C 
HETATM   19  C18 UNL     1      -6.507  49.270 -22.368  1.00  0.00     0.047 C 
HETATM   20  C19 UNL     1      -5.552  49.506 -23.576  1.00  0.00     0.128 C 
ENDROOT
BRANCH  20  21
HETATM   21  O3  UNL     1      -5.839  50.839 -24.016  1.00  0.00    -0.381 OA
HETATM   22  H27 UNL     1      -5.327  51.013 -24.825  1.00  0.00     0.211 HD
ENDBRANCH  20  21
BRANCH  20  23
HETATM   23  C20 UNL     1      -5.813  48.493 -24.723  1.00  0.00     0.185 C 
HETATM   24  O4  UNL     1      -6.737  47.675 -24.683  1.00  0.00    -0.292 OA
BRANCH  23  25
HETATM   25  C21 UNL     1      -4.827  48.470 -25.886  1.00  0.00     0.260 C 
BRANCH  25  26
HETATM   26  O5  UNL     1      -5.445  48.039 -27.098  1.00  0.00    -0.314 OA
BRANCH  26  27
HETATM   27  C22 UNL     1      -4.644  48.144 -28.195  1.00  0.00     0.259 C 
HETATM   28  O6  UNL     1      -3.422  48.185 -28.155  1.00  0.00    -0.265 OA
BRANCH  27  29
HETATM   29  C23 UNL     1      -5.446  48.338 -29.463  1.00  0.00     0.120 C 
BRANCH  29  30
HETATM   30  C24 UNL     1      -6.113  47.075 -29.994  1.00  0.00     0.112 C 
BRANCH  30  31
HETATM   31  C25 UNL     1      -7.621  47.207 -30.050  1.00  0.00     0.218 C 
HETATM   32  O7  UNL     1      -8.334  47.204 -29.054  1.00  0.00    -0.274 OA
HETATM   33  N1  UNL     1      -8.104  47.335 -31.333  1.00  0.00    -0.361 N 
HETATM   34  H34 UNL     1      -7.465  47.287 -32.116  1.00  0.00     0.162 HD
BRANCH  33  35
HETATM   35  C26 UNL     1      -9.526  47.441 -31.610  1.00  0.00     0.127 C 
BRANCH  35  36
HETATM   36  C27 UNL     1      -9.987  46.452 -32.684  1.00  0.00     0.060 C 
BRANCH  36  37
HETATM   37  C28 UNL     1     -10.090  45.056 -32.160  1.00  0.00    -0.029 A 
HETATM   38  C29 UNL     1     -11.230  44.451 -31.665  1.00  0.00     0.096 A 
HETATM   39  N2  UNL     1     -10.913  43.173 -31.292  1.00  0.00    -0.365 N 
HETATM   40  C30 UNL     1      -9.582  42.923 -31.532  1.00  0.00     0.042 A 
HETATM   41  H40 UNL     1     -11.558  42.505 -30.895  1.00  0.00     0.165 HD
HETATM   42  C31 UNL     1      -8.828  41.765 -31.309  1.00  0.00     0.030 A 
HETATM   43  C35 UNL     1      -9.038  44.087 -32.076  1.00  0.00    -0.002 A 
HETATM   44  C32 UNL     1      -7.473  41.799 -31.652  1.00  0.00     0.002 A 
HETATM   45  C33 UNL     1      -6.900  42.944 -32.197  1.00  0.00     0.001 A 
HETATM   46  C34 UNL     1      -7.669  44.094 -32.413  1.00  0.00     0.014 A 
ENDBRANCH  36  37
ENDBRANCH  35  36
ENDBRANCH  33  35
ENDBRANCH  30  31
ENDBRANCH  29  30
ENDBRANCH  27  29
ENDBRANCH  26  27
ENDBRANCH  25  26
ENDBRANCH  23  25
ENDBRANCH  20  23
BRANCH  13  47
HETATM   47  O2  UNL     1      -2.441  52.234 -22.707  1.00  0.00    -0.395 OA
HETATM   48  H16 UNL     1      -1.964  52.704 -22.005  1.00  0.00     0.210 HD
ENDBRANCH  13  47
TORSDOF 12
ENDMDL
MODEL 5
REMARK minimizedAffinity -8.46743679
REMARK CNNscore 0.583449364
REMARK CNNaffinity 6.63269472
REMARK  12 active torsions:
REMARK  status: ('A' for Active; 'I' for Inactive)
REMARK    1  A    between atoms: C12_13  and  O2_14 
REMARK    2  A    between atoms: C19_21  and  O3_22 
REMARK    3  A    between atoms: C19_21  and  C20_23 
REMARK    4  A    between atoms: C20_23  and  C21_25 
REMARK    5  A    between atoms: C21_25  and  O5_26 
REMARK    6  A    between atoms: O5_26  and  C22_27 
REMARK    7  A    between atoms: C22_27  and  C23_29 
REMARK    8  A    between atoms: C23_29  and  C24_30 
REMARK    9  A    between atoms: C24_30  and  C25_31 
REMARK       I    between atoms: C25_31  and  N1_33 
REMARK   10  A    between atoms: N1_33  and  C26_34 
REMARK   11  A    between atoms: C26_34  and  C27_35 
REMARK   12  A    between atoms: C27_35  and  C28_36 
ROOT
HETATM    1  C1  UNL     1      -5.505  48.890 -23.227  1.00  0.00     0.020 C 
HETATM    2  C2  UNL     1      -4.481  50.063 -23.113  1.00  0.00    -0.014 C 
HETATM    3  C3  UNL     1      -5.283  51.324 -23.555  1.00  0.00     0.022 C 
HETATM    4  C4  UNL     1      -4.462  52.444 -24.179  1.00  0.00     0.084 C 
HETATM    5  C5  UNL     1      -3.559  51.914 -25.261  1.00  0.00     0.149 C 
HETATM    6  O1  UNL     1      -3.257  52.573 -26.251  1.00  0.00    -0.293 OA
HETATM    7  C6  UNL     1      -2.928  50.593 -25.046  1.00  0.00     0.053 C 
HETATM    8  C7  UNL     1      -3.313  49.783 -24.046  1.00  0.00    -0.068 C 
HETATM    9  C8  UNL     1      -2.553  48.516 -23.752  1.00  0.00     0.035 C 
HETATM   10  C9  UNL     1      -1.983  48.586 -22.343  1.00  0.00     0.010 C 
HETATM   11  C10 UNL     1      -3.015  48.934 -21.241  1.00  0.00    -0.002 C 
HETATM   12  C11 UNL     1      -3.990  50.112 -21.616  1.00  0.00     0.031 C 
HETATM   13  C12 UNL     1      -3.462  51.456 -21.062  1.00  0.00     0.124 C 
HETATM   14  C13 UNL     1      -3.353  51.450 -19.513  1.00  0.00     0.045 C 
HETATM   15  C14 UNL     1      -3.005  50.070 -18.888  1.00  0.00     0.001 C 
HETATM   16  C15 UNL     1      -4.305  49.363 -18.406  1.00  0.00     0.019 C 
HETATM   17  C16 UNL     1      -2.238  49.245 -19.942  1.00  0.00     0.002 C 
HETATM   18  C17 UNL     1      -1.688  48.052 -19.163  1.00  0.00     0.009 C 
HETATM   19  C18 UNL     1      -1.423  48.601 -17.747  1.00  0.00     0.047 C 
HETATM   20  C19 UNL     1      -1.948  50.067 -17.726  1.00  0.00     0.128 C 
ENDROOT
BRANCH  20  21
HETATM   21  O3  UNL     1      -0.807  50.870 -18.048  1.00  0.00    -0.381 OA
HETATM   22  H27 UNL     1      -1.059  51.807 -17.969  1.00  0.00     0.211 HD
ENDBRANCH  20  21
BRANCH  20  23
HETATM   23  C20 UNL     1      -2.507  50.459 -16.332  1.00  0.00     0.185 C 
HETATM   24  O4  UNL     1      -3.313  51.381 -16.180  1.00  0.00    -0.292 OA
BRANCH  23  25
HETATM   25  C21 UNL     1      -1.956  49.723 -15.115  1.00  0.00     0.260 C 
BRANCH  25  26
HETATM   26  O5  UNL     1      -2.688  50.031 -13.930  1.00  0.00    -0.314 OA
BRANCH  26  27
HETATM   27  C22 UNL     1      -2.002  50.798 -13.038  1.00  0.00     0.259 C 
HETATM   28  O6  UNL     1      -1.075  50.392 -12.350  1.00  0.00    -0.265 OA
BRANCH  27  29
HETATM   29  C23 UNL     1      -2.604  52.179 -12.901  1.00  0.00     0.120 C 
BRANCH  29  30
HETATM   30  C24 UNL     1      -3.270  52.452 -11.557  1.00  0.00     0.112 C 
BRANCH  30  31
HETATM   31  C25 UNL     1      -2.344  53.166 -10.595  1.00  0.00     0.218 C 
HETATM   32  O7  UNL     1      -2.387  53.013  -9.381  1.00  0.00    -0.274 OA
HETATM   33  N1  UNL     1      -1.448  53.998 -11.227  1.00  0.00    -0.361 N 
HETATM   34  H34 UNL     1      -1.493  54.113 -12.232  1.00  0.00     0.162 HD
BRANCH  33  35
HETATM   35  C26 UNL     1      -0.492  54.802 -10.484  1.00  0.00     0.127 C 
BRANCH  35  36
HETATM   36  C27 UNL     1       0.747  54.003 -10.071  1.00  0.00     0.060 C 
BRANCH  36  37
HETATM   37  C28 UNL     1       1.934  54.881  -9.838  1.00  0.00    -0.029 A 
HETATM   38  C29 UNL     1       3.097  54.898 -10.584  1.00  0.00     0.096 A 
HETATM   39  N2  UNL     1       3.935  55.841 -10.054  1.00  0.00    -0.365 N 
HETATM   40  C30 UNL     1       3.345  56.449  -8.971  1.00  0.00     0.042 A 
HETATM   41  H40 UNL     1       4.857  56.064 -10.404  1.00  0.00     0.165 HD
HETATM   42  C31 UNL     1       3.828  57.459  -8.131  1.00  0.00     0.030 A 
HETATM   43  C35 UNL     1       2.088  55.866  -8.808  1.00  0.00    -0.002 A 
HETATM   44  C32 UNL     1       2.999  57.886  -7.090  1.00  0.00     0.002 A 
HETATM   45  C33 UNL     1       1.738  57.326  -6.900  1.00  0.00     0.001 A 
HETATM   46  C34 UNL     1       1.272  56.316  -7.750  1.00  0.00     0.014 A 
ENDBRANCH  36  37
ENDBRANCH  35  36
ENDBRANCH  33  35
ENDBRANCH  30  31
ENDBRANCH  29  30
ENDBRANCH  27  29
ENDBRANCH  26  27
ENDBRANCH  25  26
ENDBRANCH  23  25
ENDBRANCH  20  23
BRANCH  13  47
HETATM   47  O2  UNL     1      -2.179  51.788 -21.582  1.00  0.00    -0.395 OA
HETATM   48  H16 UNL     1      -2.167  51.613 -22.536  1.00  0.00     0.210 HD
ENDBRANCH  13  47
TORSDOF 12
ENDMDL
MODEL 6
REMARK minimizedAffinity -8.63479614
REMARK CNNscore 0.555850089
REMARK CNNaffinity 6.99348068
REMARK  12 active torsions:
REMARK  status: ('A' for Active; 'I' for Inactive)
REMARK    1  A    between atoms: C12_13  and  O2_14 
REMARK    2  A    between atoms: C19_21  and  O3_22 
REMARK    3  A    between atoms: C19_21  and  C20_23 
REMARK    4  A    between atoms: C20_23  and  C21_25 
REMARK    5  A    between atoms: C21_25  and  O5_26 
REMARK    6  A    between atoms: O5_26  and  C22_27 
REMARK    7  A    between atoms: C22_27  and  C23_29 
REMARK    8  A    between atoms: C23_29  and  C24_30 
REMARK    9  A    between atoms: C24_30  and  C25_31 
REMARK       I    between atoms: C25_31  and  N1_33 
REMARK   10  A    between atoms: N1_33  and  C26_34 
REMARK   11  A    between atoms: C26_34  and  C27_35 
REMARK   12  A    between atoms: C27_35  and  C28_36 
ROOT
HETATM    1  C1  UNL     1      -0.818  48.556 -21.021  1.00  0.00     0.020 C 
HETATM    2  C2  UNL     1      -1.862  49.552 -20.421  1.00  0.00    -0.014 C 
HETATM    3  C3  UNL     1      -3.241  48.873 -20.680  1.00  0.00     0.022 C 
HETATM    4  C4  UNL     1      -4.424  49.818 -20.834  1.00  0.00     0.084 C 
HETATM    5  C5  UNL     1      -4.115  50.915 -21.819  1.00  0.00     0.149 C 
HETATM    6  O1  UNL     1      -4.974  51.420 -22.536  1.00  0.00    -0.293 OA
HETATM    7  C6  UNL     1      -2.744  51.471 -21.824  1.00  0.00     0.053 C 
HETATM    8  C7  UNL     1      -1.742  50.880 -21.152  1.00  0.00    -0.068 C 
HETATM    9  C8  UNL     1      -0.396  51.548 -21.043  1.00  0.00     0.035 C 
HETATM   10  C9  UNL     1      -0.087  51.822 -19.579  1.00  0.00     0.010 C 
HETATM   11  C10 UNL     1      -0.222  50.593 -18.644  1.00  0.00    -0.002 C 
HETATM   12  C11 UNL     1      -1.516  49.730 -18.894  1.00  0.00     0.031 C 
HETATM   13  C12 UNL     1      -2.649  50.153 -17.931  1.00  0.00     0.124 C 
HETATM   14  C13 UNL     1      -2.261  49.946 -16.441  1.00  0.00     0.045 C 
HETATM   15  C14 UNL     1      -0.751  50.142 -16.126  1.00  0.00     0.001 C 
HETATM   16  C15 UNL     1      -0.032  48.762 -16.096  1.00  0.00     0.019 C 
HETATM   17  C16 UNL     1      -0.159  51.096 -17.184  1.00  0.00     0.002 C 
HETATM   18  C17 UNL     1       1.219  51.460 -16.638  1.00  0.00     0.009 C 
HETATM   19  C18 UNL     1       1.048  51.440 -15.106  1.00  0.00     0.047 C 
HETATM   20  C19 UNL     1      -0.400  50.942 -14.821  1.00  0.00     0.128 C 
ENDROOT
BRANCH  20  21
HETATM   21  O3  UNL     1      -1.184  52.135 -14.705  1.00  0.00    -0.381 OA
HETATM   22  H27 UNL     1      -2.088  51.886 -14.445  1.00  0.00     0.211 HD
ENDBRANCH  20  21
BRANCH  20  23
HETATM   23  C20 UNL     1      -0.478  50.118 -13.507  1.00  0.00     0.185 C 
HETATM   24  O4  UNL     1      -1.498  49.513 -13.167  1.00  0.00    -0.292 OA
BRANCH  23  25
HETATM   25  C21 UNL     1       0.733  50.147 -12.581  1.00  0.00     0.260 C 
BRANCH  25  26
HETATM   26  O5  UNL     1       0.564  51.079 -11.514  1.00  0.00    -0.314 OA
BRANCH  26  27
HETATM   27  C22 UNL     1       1.220  52.258 -11.700  1.00  0.00     0.259 C 
HETATM   28  O6  UNL     1       2.436  52.385 -11.660  1.00  0.00    -0.265 OA
BRANCH  27  29
HETATM   29  C23 UNL     1       0.262  53.422 -11.832  1.00  0.00     0.120 C 
BRANCH  29  30
HETATM   30  C24 UNL     1      -0.044  54.146 -10.526  1.00  0.00     0.112 C 
BRANCH  30  31
HETATM   31  C25 UNL     1       1.177  54.839  -9.958  1.00  0.00     0.218 C 
HETATM   32  O7  UNL     1       1.409  54.916  -8.758  1.00  0.00    -0.274 OA
HETATM   33  N1  UNL     1       1.998  55.366 -10.929  1.00  0.00    -0.361 N 
HETATM   34  H34 UNL     1       1.726  55.306 -11.902  1.00  0.00     0.162 HD
BRANCH  33  35
HETATM   35  C26 UNL     1       3.206  56.101 -10.596  1.00  0.00     0.127 C 
BRANCH  35  36
HETATM   36  C27 UNL     1       4.464  55.235 -10.700  1.00  0.00     0.060 C 
BRANCH  36  37
HETATM   37  C28 UNL     1       5.377  55.420  -9.530  1.00  0.00    -0.029 A 
HETATM   38  C29 UNL     1       6.633  54.865  -9.378  1.00  0.00     0.096 A 
HETATM   39  N2  UNL     1       7.144  55.278  -8.177  1.00  0.00    -0.365 N 
HETATM   40  C30 UNL     1       6.247  56.098  -7.534  1.00  0.00     0.042 A 
HETATM   41  H40 UNL     1       8.049  55.020  -7.810  1.00  0.00     0.165 HD
HETATM   42  C31 UNL     1       6.344  56.743  -6.296  1.00  0.00     0.030 A 
HETATM   43  C35 UNL     1       5.126  56.205  -8.358  1.00  0.00    -0.002 A 
HETATM   44  C32 UNL     1       5.258  57.523  -5.886  1.00  0.00     0.002 A 
HETATM   45  C33 UNL     1       4.125  57.652  -6.685  1.00  0.00     0.001 A 
HETATM   46  C34 UNL     1       4.045  56.999  -7.920  1.00  0.00     0.014 A 
ENDBRANCH  36  37
ENDBRANCH  35  36
ENDBRANCH  33  35
ENDBRANCH  30  31
ENDBRANCH  29  30
ENDBRANCH  27  29
ENDBRANCH  26  27
ENDBRANCH  25  26
ENDBRANCH  23  25
ENDBRANCH  20  23
BRANCH  13  47
HETATM   47  O2  UNL     1      -3.015  51.519 -18.094  1.00  0.00    -0.395 OA
HETATM   48  H16 UNL     1      -3.076  51.722 -19.040  1.00  0.00     0.210 HD
ENDBRANCH  13  47
TORSDOF 12
ENDMDL
MODEL 7
REMARK minimizedAffinity -9.45271969
REMARK CNNscore 0.539696217
REMARK CNNaffinity 7.04133368
REMARK  12 active torsions:
REMARK  status: ('A' for Active; 'I' for Inactive)
REMARK    1  A    between atoms: C12_13  and  O2_14 
REMARK    2  A    between atoms: C19_21  and  O3_22 
REMARK    3  A    between atoms: C19_21  and  C20_23 
REMARK    4  A    between atoms: C20_23  and  C21_25 
REMARK    5  A    between atoms: C21_25  and  O5_26 
REMARK    6  A    between atoms: O5_26  and  C22_27 
REMARK    7  A    between atoms: C22_27  and  C23_29 
REMARK    8  A    between atoms: C23_29  and  C24_30 
REMARK    9  A    between atoms: C24_30  and  C25_31 
REMARK       I    between atoms: C25_31  and  N1_33 
REMARK   10  A    between atoms: N1_33  and  C26_34 
REMARK   11  A    between atoms: C26_34  and  C27_35 
REMARK   12  A    between atoms: C27_35  and  C28_36 
ROOT
HETATM    1  C1  UNL     1       1.202  50.996 -25.990  1.00  0.00     0.020 C 
HETATM    2  C2  UNL     1       0.003  51.991 -26.102  1.00  0.00    -0.014 C 
HETATM    3  C3  UNL     1       0.124  52.587 -27.537  1.00  0.00     0.022 C 
HETATM    4  C4  UNL     1      -0.430  53.993 -27.718  1.00  0.00     0.084 C 
HETATM    5  C5  UNL     1       0.089  54.919 -26.651  1.00  0.00     0.149 C 
HETATM    6  O1  UNL     1       0.290  56.114 -26.855  1.00  0.00    -0.293 OA
HETATM    7  C6  UNL     1       0.246  54.378 -25.284  1.00  0.00     0.053 C 
HETATM    8  C7  UNL     1       0.156  53.061 -25.033  1.00  0.00    -0.068 C 
HETATM    9  C8  UNL     1       0.162  52.550 -23.616  1.00  0.00     0.035 C 
HETATM   10  C9  UNL     1      -1.149  51.832 -23.334  1.00  0.00     0.010 C 
HETATM   11  C10 UNL     1      -1.526  50.737 -24.363  1.00  0.00    -0.002 C 
HETATM   12  C11 UNL     1      -1.317  51.162 -25.865  1.00  0.00     0.031 C 
HETATM   13  C12 UNL     1      -2.636  51.696 -26.471  1.00  0.00     0.124 C 
HETATM   14  C13 UNL     1      -3.760  50.624 -26.467  1.00  0.00     0.045 C 
HETATM   15  C14 UNL     1      -3.706  49.625 -25.277  1.00  0.00     0.001 C 
HETATM   16  C15 UNL     1      -2.998  48.312 -25.719  1.00  0.00     0.019 C 
HETATM   17  C16 UNL     1      -2.990  50.318 -24.100  1.00  0.00     0.002 C 
HETATM   18  C17 UNL     1      -3.241  49.398 -22.908  1.00  0.00     0.009 C 
HETATM   19  C18 UNL     1      -4.627  48.779 -23.180  1.00  0.00     0.047 C 
HETATM   20  C19 UNL     1      -5.073  49.274 -24.588  1.00  0.00     0.128 C 
ENDROOT
BRANCH  20  21
HETATM   21  O3  UNL     1      -5.854  50.447 -24.334  1.00  0.00    -0.381 OA
HETATM   22  H27 UNL     1      -6.229  50.755 -25.178  1.00  0.00     0.211 HD
ENDBRANCH  20  21
BRANCH  20  23
HETATM   23  C20 UNL     1      -5.926  48.209 -25.329  1.00  0.00     0.185 C 
HETATM   24  O4  UNL     1      -5.795  47.983 -26.535  1.00  0.00    -0.292 OA
BRANCH  23  25
HETATM   25  C21 UNL     1      -7.016  47.497 -24.535  1.00  0.00     0.260 C 
BRANCH  25  26
HETATM   26  O5  UNL     1      -7.962  46.855 -25.389  1.00  0.00    -0.314 OA
BRANCH  26  27
HETATM   27  C22 UNL     1      -9.210  47.398 -25.339  1.00  0.00     0.259 C 
HETATM   28  O6  UNL     1      -9.439  48.587 -25.159  1.00  0.00    -0.265 OA
BRANCH  27  29
HETATM   29  C23 UNL     1     -10.289  46.340 -25.401  1.00  0.00     0.120 C 
BRANCH  29  30
HETATM   30  C24 UNL     1     -11.702  46.880 -25.590  1.00  0.00     0.112 C 
BRANCH  30  31
HETATM   31  C25 UNL     1     -11.842  47.673 -26.873  1.00  0.00     0.218 C 
HETATM   32  O7  UNL     1     -12.531  48.681 -26.969  1.00  0.00    -0.274 OA
HETATM   33  N1  UNL     1     -11.111  47.148 -27.914  1.00  0.00    -0.361 N 
HETATM   34  H34 UNL     1     -10.595  46.287 -27.781  1.00  0.00     0.162 HD
BRANCH  33  35
HETATM   35  C26 UNL     1     -11.133  47.738 -29.242  1.00  0.00     0.127 C 
BRANCH  35  36
HETATM   36  C27 UNL     1     -11.665  46.772 -30.303  1.00  0.00     0.060 C 
BRANCH  36  37
HETATM   37  C28 UNL     1     -11.925  45.409 -29.747  1.00  0.00    -0.029 A 
HETATM   38  C29 UNL     1     -11.051  44.338 -29.765  1.00  0.00     0.096 A 
HETATM   39  N2  UNL     1     -11.659  43.275 -29.154  1.00  0.00    -0.365 N 
HETATM   40  C30 UNL     1     -12.920  43.625 -28.732  1.00  0.00     0.042 A 
HETATM   41  H40 UNL     1     -11.247  42.361 -29.029  1.00  0.00     0.165 HD
HETATM   42  C31 UNL     1     -13.891  42.867 -28.068  1.00  0.00     0.030 A 
HETATM   43  C35 UNL     1     -13.117  44.959 -29.091  1.00  0.00    -0.002 A 
HETATM   44  C32 UNL     1     -15.104  43.492 -27.763  1.00  0.00     0.002 A 
HETATM   45  C33 UNL     1     -15.332  44.821 -28.107  1.00  0.00     0.001 A 
HETATM   46  C34 UNL     1     -14.349  45.565 -28.771  1.00  0.00     0.014 A 
ENDBRANCH  36  37
ENDBRANCH  35  36
ENDBRANCH  33  35
ENDBRANCH  30  31
ENDBRANCH  29  30
ENDBRANCH  27  29
ENDBRANCH  26  27
ENDBRANCH  25  26
ENDBRANCH  23  25
ENDBRANCH  20  23
BRANCH  13  47
HETATM   47  O2  UNL     1      -3.127  52.836 -25.774  1.00  0.00    -0.395 OA
HETATM   48  H16 UNL     1      -2.391  53.441 -25.594  1.00  0.00     0.210 HD
ENDBRANCH  13  47
TORSDOF 12
ENDMDL
MODEL 8
REMARK minimizedAffinity -9.17254257
REMARK CNNscore 0.508589149
REMARK CNNaffinity 6.33972788
REMARK  12 active torsions:
REMARK  status: ('A' for Active; 'I' for Inactive)
REMARK    1  A    between atoms: C12_13  and  O2_14 
REMARK    2  A    between atoms: C19_21  and  O3_22 
REMARK    3  A    between atoms: C19_21  and  C20_23 
REMARK    4  A    between atoms: C20_23  and  C21_25 
REMARK    5  A    between atoms: C21_25  and  O5_26 
REMARK    6  A    between atoms: O5_26  and  C22_27 
REMARK    7  A    between atoms: C22_27  and  C23_29 
REMARK    8  A    between atoms: C23_29  and  C24_30 
REMARK    9  A    between atoms: C24_30  and  C25_31 
REMARK       I    between atoms: C25_31  and  N1_33 
REMARK   10  A    between atoms: N1_33  and  C26_34 
REMARK   11  A    between atoms: C26_34  and  C27_35 
REMARK   12  A    between atoms: C27_35  and  C28_36 
ROOT
HETATM    1  C1  UNL     1      -0.416  49.494 -19.425  1.00  0.00     0.020 C 
HETATM    2  C2  UNL     1      -0.693  50.663 -20.424  1.00  0.00    -0.014 C 
HETATM    3  C3  UNL     1       0.647  50.837 -21.201  1.00  0.00     0.022 C 
HETATM    4  C4  UNL     1       0.928  52.237 -21.727  1.00  0.00     0.084 C 
HETATM    5  C5  UNL     1       0.737  53.269 -20.647  1.00  0.00     0.149 C 
HETATM    6  O1  UNL     1       1.399  54.301 -20.595  1.00  0.00    -0.293 OA
HETATM    7  C6  UNL     1      -0.375  53.069 -19.692  1.00  0.00     0.053 C 
HETATM    8  C7  UNL     1      -1.049  51.909 -19.629  1.00  0.00    -0.068 C 
HETATM    9  C8  UNL     1      -2.275  51.782 -18.762  1.00  0.00     0.035 C 
HETATM   10  C9  UNL     1      -3.478  51.458 -19.634  1.00  0.00     0.010 C 
HETATM   11  C10 UNL     1      -3.288  50.247 -20.581  1.00  0.00    -0.002 C 
HETATM   12  C11 UNL     1      -1.904  50.224 -21.332  1.00  0.00     0.031 C 
HETATM   13  C12 UNL     1      -2.034  50.860 -22.736  1.00  0.00     0.124 C 
HETATM   14  C13 UNL     1      -3.039  50.091 -23.638  1.00  0.00     0.045 C 
HETATM   15  C14 UNL     1      -4.229  49.437 -22.880  1.00  0.00     0.001 C 
HETATM   16  C15 UNL     1      -3.925  47.934 -22.613  1.00  0.00     0.019 C 
HETATM   17  C16 UNL     1      -4.467  50.233 -21.580  1.00  0.00     0.002 C 
HETATM   18  C17 UNL     1      -5.807  49.719 -21.061  1.00  0.00     0.009 C 
HETATM   19  C18 UNL     1      -6.606  49.365 -22.330  1.00  0.00     0.047 C 
HETATM   20  C19 UNL     1      -5.647  49.574 -23.539  1.00  0.00     0.128 C 
ENDROOT
BRANCH  20  21
HETATM   21  O3  UNL     1      -5.898  50.912 -23.981  1.00  0.00    -0.381 OA
HETATM   22  H27 UNL     1      -5.382  51.071 -24.790  1.00  0.00     0.211 HD
ENDBRANCH  20  21
BRANCH  20  23
HETATM   23  C20 UNL     1      -5.937  48.566 -24.685  1.00  0.00     0.185 C 
HETATM   24  O4  UNL     1      -5.160  48.400 -25.628  1.00  0.00    -0.292 OA
BRANCH  23  25
HETATM   25  C21 UNL     1      -7.275  47.836 -24.664  1.00  0.00     0.260 C 
BRANCH  25  26
HETATM   26  O5  UNL     1      -8.315  48.614 -25.256  1.00  0.00    -0.314 OA
BRANCH  26  27
HETATM   27  C22 UNL     1      -8.890  48.033 -26.345  1.00  0.00     0.259 C 
HETATM   28  O6  UNL     1      -8.266  47.494 -27.249  1.00  0.00    -0.265 OA
BRANCH  27  29
HETATM   29  C23 UNL     1     -10.387  48.247 -26.374  1.00  0.00     0.120 C 
BRANCH  29  30
HETATM   30  C24 UNL     1     -11.215  46.994 -26.114  1.00  0.00     0.112 C 
BRANCH  30  31
HETATM   31  C25 UNL     1     -12.702  47.279 -26.131  1.00  0.00     0.218 C 
HETATM   32  O7  UNL     1     -13.246  47.966 -26.987  1.00  0.00    -0.274 OA
HETATM   33  N1  UNL     1     -13.377  46.684 -25.090  1.00  0.00    -0.361 N 
HETATM   34  H34 UNL     1     -12.862  46.163 -24.391  1.00  0.00     0.162 HD
BRANCH  33  35
HETATM   35  C26 UNL     1     -14.807  46.858 -24.903  1.00  0.00     0.127 C 
BRANCH  35  36
HETATM   36  C27 UNL     1     -15.161  47.299 -23.480  1.00  0.00     0.060 C 
BRANCH  36  37
HETATM   37  C28 UNL     1     -16.287  46.502 -22.904  1.00  0.00    -0.029 A 
HETATM   38  C29 UNL     1     -16.286  45.848 -21.687  1.00  0.00     0.096 A 
HETATM   39  N2  UNL     1     -17.501  45.240 -21.523  1.00  0.00    -0.365 N 
HETATM   40  C30 UNL     1     -18.305  45.480 -22.613  1.00  0.00     0.042 A 
HETATM   41  H40 UNL     1     -17.773  44.690 -20.721  1.00  0.00     0.165 HD
HETATM   42  C31 UNL     1     -19.614  45.061 -22.876  1.00  0.00     0.030 A 
HETATM   43  C35 UNL     1     -17.570  46.269 -23.498  1.00  0.00    -0.002 A 
HETATM   44  C32 UNL     1     -20.190  45.459 -24.086  1.00  0.00     0.002 A 
HETATM   45  C33 UNL     1     -19.484  46.247 -24.992  1.00  0.00     0.001 A 
HETATM   46  C34 UNL     1     -18.175  46.658 -24.711  1.00  0.00     0.014 A 
ENDBRANCH  36  37
ENDBRANCH  35  36
ENDBRANCH  33  35
ENDBRANCH  30  31
ENDBRANCH  29  30
ENDBRANCH  27  29
ENDBRANCH  26  27
ENDBRANCH  25  26
ENDBRANCH  23  25
ENDBRANCH  20  23
BRANCH  13  47
HETATM   47  O2  UNL     1      -2.461  52.217 -22.677  1.00  0.00    -0.395 OA
HETATM   48  H16 UNL     1      -1.971  52.675 -21.976  1.00  0.00     0.210 HD
ENDBRANCH  13  47
TORSDOF 12
ENDMDL
MODEL 9
REMARK minimizedAffinity -8.1099081
REMARK CNNscore 0.467940807
REMARK CNNaffinity 6.72238588
REMARK  12 active torsions:
REMARK  status: ('A' for Active; 'I' for Inactive)
REMARK    1  A    between atoms: C12_13  and  O2_14 
REMARK    2  A    between atoms: C19_21  and  O3_22 
REMARK    3  A    between atoms: C19_21  and  C20_23 
REMARK    4  A    between atoms: C20_23  and  C21_25 
REMARK    5  A    between atoms: C21_25  and  O5_26 
REMARK    6  A    between atoms: O5_26  and  C22_27 
REMARK    7  A    between atoms: C22_27  and  C23_29 
REMARK    8  A    between atoms: C23_29  and  C24_30 
REMARK    9  A    between atoms: C24_30  and  C25_31 
REMARK       I    between atoms: C25_31  and  N1_33 
REMARK   10  A    between atoms: N1_33  and  C26_34 
REMARK   11  A    between atoms: C26_34  and  C27_35 
REMARK   12  A    between atoms: C27_35  and  C28_36 
ROOT
HETATM    1  C1  UNL     1      -3.412  47.721 -20.377  1.00  0.00     0.020 C 
HETATM    2  C2  UNL     1      -3.269  49.250 -20.090  1.00  0.00    -0.014 C 
HETATM    3  C3  UNL     1      -4.675  49.840 -20.414  1.00  0.00     0.022 C 
HETATM    4  C4  UNL     1      -4.692  51.291 -20.874  1.00  0.00     0.084 C 
HETATM    5  C5  UNL     1      -3.690  51.521 -21.974  1.00  0.00     0.149 C 
HETATM    6  O1  UNL     1      -3.870  52.341 -22.870  1.00  0.00    -0.293 OA
HETATM    7  C6  UNL     1      -2.396  50.809 -21.889  1.00  0.00     0.053 C 
HETATM    8  C7  UNL     1      -2.195  49.818 -21.003  1.00  0.00    -0.068 C 
HETATM    9  C8  UNL     1      -0.825  49.217 -20.828  1.00  0.00     0.035 C 
HETATM   10  C9  UNL     1      -0.354  49.445 -19.400  1.00  0.00     0.010 C 
HETATM   11  C10 UNL     1      -1.351  48.991 -18.305  1.00  0.00    -0.002 C 
HETATM   12  C11 UNL     1      -2.845  49.405 -18.579  1.00  0.00     0.031 C 
HETATM   13  C12 UNL     1      -3.188  50.728 -17.855  1.00  0.00     0.124 C 
HETATM   14  C13 UNL     1      -3.039  50.609 -16.314  1.00  0.00     0.045 C 
HETATM   15  C14 UNL     1      -1.923  49.636 -15.838  1.00  0.00     0.001 C 
HETATM   16  C15 UNL     1      -2.541  48.250 -15.490  1.00  0.00     0.019 C 
HETATM   17  C16 UNL     1      -0.857  49.547 -16.950  1.00  0.00     0.002 C 
HETATM   18  C17 UNL     1       0.316  48.825 -16.293  1.00  0.00     0.009 C 
HETATM   19  C18 UNL     1       0.261  49.257 -14.815  1.00  0.00     0.047 C 
HETATM   20  C19 UNL     1      -1.024  50.120 -14.646  1.00  0.00     0.128 C 
ENDROOT
BRANCH  20  21
HETATM   21  O3  UNL     1      -0.586  51.471 -14.829  1.00  0.00    -0.381 OA
HETATM   22  H27 UNL     1      -1.337  52.065 -14.653  1.00  0.00     0.211 HD
ENDBRANCH  20  21
BRANCH  20  23
HETATM   23  C20 UNL     1      -1.655  49.946 -13.237  1.00  0.00     0.185 C 
HETATM   24  O4  UNL     1      -1.386  48.987 -12.509  1.00  0.00    -0.292 OA
BRANCH  23  25
HETATM   25  C21 UNL     1      -2.705  50.961 -12.801  1.00  0.00     0.260 C 
BRANCH  25  26
HETATM   26  O5  UNL     1      -2.260  51.745 -11.695  1.00  0.00    -0.314 OA
BRANCH  26  27
HETATM   27  C22 UNL     1      -3.237  52.505 -11.126  1.00  0.00     0.259 C 
HETATM   28  O6  UNL     1      -4.387  52.128 -10.946  1.00  0.00    -0.265 OA
BRANCH  27  29
HETATM   29  C23 UNL     1      -2.770  53.919 -10.862  1.00  0.00     0.120 C 
BRANCH  29  30
HETATM   30  C24 UNL     1      -2.066  54.118  -9.524  1.00  0.00     0.112 C 
BRANCH  30  31
HETATM   31  C25 UNL     1      -0.608  53.710  -9.580  1.00  0.00     0.218 C 
HETATM   32  O7  UNL     1      -0.185  52.663  -9.108  1.00  0.00    -0.274 OA
HETATM   33  N1  UNL     1       0.186  54.635 -10.220  1.00  0.00    -0.361 N 
HETATM   34  H34 UNL     1      -0.220  55.501 -10.550  1.00  0.00     0.162 HD
BRANCH  33  35
HETATM   35  C26 UNL     1       1.621  54.452 -10.353  1.00  0.00     0.127 C 
BRANCH  35  36
HETATM   36  C27 UNL     1       2.367  55.779 -10.520  1.00  0.00     0.060 C 
BRANCH  36  37
HETATM   37  C28 UNL     1       3.219  56.101  -9.335  1.00  0.00    -0.029 A 
HETATM   38  C29 UNL     1       2.858  56.889  -8.259  1.00  0.00     0.096 A 
HETATM   39  N2  UNL     1       3.911  56.935  -7.385  1.00  0.00    -0.365 N 
HETATM   40  C30 UNL     1       4.961  56.191  -7.866  1.00  0.00     0.042 A 
HETATM   41  H40 UNL     1       3.921  57.443  -6.512  1.00  0.00     0.165 HD
HETATM   42  C31 UNL     1       6.226  55.956  -7.315  1.00  0.00     0.030 A 
HETATM   43  C35 UNL     1       4.559  55.655  -9.090  1.00  0.00    -0.002 A 
HETATM   44  C32 UNL     1       7.108  55.148  -8.039  1.00  0.00     0.002 A 
HETATM   45  C33 UNL     1       6.737  54.598  -9.263  1.00  0.00     0.001 A 
HETATM   46  C34 UNL     1       5.468  54.844  -9.799  1.00  0.00     0.014 A 
ENDBRANCH  36  37
ENDBRANCH  35  36
ENDBRANCH  33  35
ENDBRANCH  30  31
ENDBRANCH  29  30
ENDBRANCH  27  29
ENDBRANCH  26  27
ENDBRANCH  25  26
ENDBRANCH  23  25
ENDBRANCH  20  23
BRANCH  13  47
HETATM   47  O2  UNL     1      -2.365  51.807 -18.284  1.00  0.00    -0.395 OA
HETATM   48  H16 UNL     1      -2.288  51.784 -19.251  1.00  0.00     0.210 HD
ENDBRANCH  13  47
TORSDOF 12
ENDMDL
