MODEL 1
REMARK minimizedAffinity -8.35281086
REMARK CNNscore 0.786754727
REMARK CNNaffinity 7.30255651
REMARK  6 active torsions:
REMARK  status: ('A' for Active; 'I' for Inactive)
REMARK    1  A    between atoms: C2_2  and  C30_31 
REMARK    2  A    between atoms: C3_3  and  C4_4 
REMARK    3  A    between atoms: C4_4  and  C5_5 
REMARK    4  A    between atoms: C5_5  and  C6_6 
REMARK    5  A    between atoms: C6_6  and  C8_8 
REMARK    6  A    between atoms: C30_31  and  O3_33 
ROOT
HETATM    1  C8  UNL     1      -0.495  12.459  18.007  1.00  0.00    -0.002 C 
HETATM    2  C9  UNL     1      -1.577  13.537  17.728  1.00  0.00     0.007 C 
HETATM    3  C10 UNL     1      -2.504  12.973  16.621  1.00  0.00     0.015 C 
HETATM    4  C11 UNL     1      -1.760  11.733  16.075  1.00  0.00    -0.013 C 
HETATM    5  C12 UNL     1      -0.744  12.283  15.026  1.00  0.00     0.021 C 
HETATM    6  C13 UNL     1      -2.522  10.586  15.418  1.00  0.00    -0.070 C 
HETATM    7  C14 UNL     1      -3.856  10.580  15.245  1.00  0.00    -0.022 C 
HETATM    8  C15 UNL     1      -4.642   9.384  14.792  1.00  0.00     0.034 C 
HETATM    9  C16 UNL     1      -3.838   8.069  14.899  1.00  0.00     0.013 C 
HETATM   10  C17 UNL     1      -4.612   6.762  14.467  1.00  0.00     0.018 C 
HETATM   11  C18 UNL     1      -4.735   5.815  15.684  1.00  0.00     0.023 C 
HETATM   12  C19 UNL     1      -6.046   7.039  13.964  1.00  0.00     0.023 C 
HETATM   13  C20 UNL     1      -3.873   5.958  13.384  1.00  0.00     0.135 C 
HETATM   14  O1  UNL     1      -4.479   5.357  12.492  1.00  0.00    -0.297 OA
HETATM   15  C21 UNL     1      -2.369   5.819  13.465  1.00  0.00     0.080 C 
HETATM   16  C22 UNL     1      -1.699   6.897  14.301  1.00  0.00     0.017 C 
HETATM   17  C23 UNL     1      -2.428   8.256  14.254  1.00  0.00    -0.031 C 
HETATM   18  C24 UNL     1      -2.530   8.727  12.773  1.00  0.00     0.016 C 
HETATM   19  C25 UNL     1      -1.639   9.377  15.047  1.00  0.00     0.024 C 
HETATM   20  C26 UNL     1      -0.846   8.889  16.290  1.00  0.00     0.010 C 
HETATM   21  C27 UNL     1      -0.159  10.024  17.084  1.00  0.00     0.011 C 
HETATM   22  C28 UNL     1      -1.137  11.170  17.408  1.00  0.00    -0.029 C 
HETATM   23  C29 UNL     1      -2.212  10.604  18.392  1.00  0.00     0.016 C 
ENDROOT
BRANCH   1  24
HETATM   24  C6  UNL     1       0.074  12.363  19.453  1.00  0.00    -0.014 C 
HETATM   25  C7  UNL     1       0.368  13.693  20.152  1.00  0.00     0.010 C 
BRANCH  24  26
HETATM   26  C5  UNL     1       1.315  11.436  19.524  1.00  0.00     0.008 C 
BRANCH  26  27
HETATM   27  C4  UNL     1       1.365  10.486  20.730  1.00  0.00     0.028 C 
BRANCH  27  28
HETATM   28  C3  UNL     1       2.681  10.598  21.457  1.00  0.00    -0.013 C 
HETATM   29  C2  UNL     1       3.125   9.825  22.469  1.00  0.00     0.008 C 
HETATM   30  C1  UNL     1       4.458  10.072  23.116  1.00  0.00     0.055 C 
BRANCH  29  31
HETATM   31  C30 UNL     1       2.360   8.649  22.948  1.00  0.00     0.171 C 
HETATM   32  O2  UNL     1       1.880   7.756  22.274  1.00  0.00    -0.646 OA
BRANCH  31  33
HETATM   33  O3  UNL     1       2.246   8.637  24.287  1.00  0.00    -0.773 OA
HETATM   34  H46 UNL     1       1.747   7.816  24.467  1.00  0.00     0.167 HD
ENDBRANCH  31  33
ENDBRANCH  29  31
ENDBRANCH  27  28
ENDBRANCH  26  27
ENDBRANCH  24  26
ENDBRANCH   1  24
TORSDOF 6
ENDMDL
MODEL 2
REMARK minimizedAffinity -7.49761677
REMARK CNNscore 0.567242205
REMARK CNNaffinity 6.24134445
REMARK  6 active torsions:
REMARK  status: ('A' for Active; 'I' for Inactive)
REMARK    1  A    between atoms: C2_2  and  C30_31 
REMARK    2  A    between atoms: C3_3  and  C4_4 
REMARK    3  A    between atoms: C4_4  and  C5_5 
REMARK    4  A    between atoms: C5_5  and  C6_6 
REMARK    5  A    between atoms: C6_6  and  C8_8 
REMARK    6  A    between atoms: C30_31  and  O3_33 
ROOT
HETATM    1  C8  UNL     1       2.876  12.360  20.669  1.00  0.00    -0.002 C 
HETATM    2  C9  UNL     1       1.905  13.433  21.233  1.00  0.00     0.007 C 
HETATM    3  C10 UNL     1       0.721  13.538  20.239  1.00  0.00     0.015 C 
HETATM    4  C11 UNL     1       1.184  12.762  18.986  1.00  0.00    -0.013 C 
HETATM    5  C12 UNL     1       2.042  13.772  18.161  1.00  0.00     0.021 C 
HETATM    6  C13 UNL     1       0.173  12.135  18.032  1.00  0.00    -0.070 C 
HETATM    7  C14 UNL     1      -1.160  12.230  18.190  1.00  0.00    -0.022 C 
HETATM    8  C15 UNL     1      -2.162  11.454  17.386  1.00  0.00     0.034 C 
HETATM    9  C16 UNL     1      -1.525  10.271  16.623  1.00  0.00     0.013 C 
HETATM   10  C17 UNL     1      -2.526   9.389  15.778  1.00  0.00     0.018 C 
HETATM   11  C18 UNL     1      -2.532   7.947  16.335  1.00  0.00     0.023 C 
HETATM   12  C19 UNL     1      -3.983   9.899  15.829  1.00  0.00     0.023 C 
HETATM   13  C20 UNL     1      -2.115   9.266  14.300  1.00  0.00     0.135 C 
HETATM   14  O1  UNL     1      -2.951   9.225  13.393  1.00  0.00    -0.297 OA
HETATM   15  C21 UNL     1      -0.653   9.094  13.954  1.00  0.00     0.080 C 
HETATM   16  C22 UNL     1       0.295   9.570  15.041  1.00  0.00     0.017 C 
HETATM   17  C23 UNL     1      -0.252  10.757  15.860  1.00  0.00    -0.031 C 
HETATM   18  C24 UNL     1      -0.576  11.935  14.893  1.00  0.00     0.016 C 
HETATM   19  C25 UNL     1       0.809  11.292  16.907  1.00  0.00     0.024 C 
HETATM   20  C26 UNL     1       1.757  10.220  17.510  1.00  0.00     0.010 C 
HETATM   21  C27 UNL     1       2.720  10.766  18.589  1.00  0.00     0.011 C 
HETATM   22  C28 UNL     1       1.974  11.580  19.664  1.00  0.00    -0.029 C 
HETATM   23  C29 UNL     1       1.045  10.591  20.439  1.00  0.00     0.016 C 
ENDROOT
BRANCH   1  24
HETATM   24  C6  UNL     1       3.694  11.517  21.691  1.00  0.00    -0.014 C 
HETATM   25  C7  UNL     1       3.258  11.621  23.155  1.00  0.00     0.010 C 
BRANCH  24  26
HETATM   26  C5  UNL     1       5.218  11.780  21.566  1.00  0.00     0.008 C 
BRANCH  26  27
HETATM   27  C4  UNL     1       5.994  11.816  22.891  1.00  0.00     0.028 C 
BRANCH  27  28
HETATM   28  C3  UNL     1       6.585  13.181  23.139  1.00  0.00    -0.013 C 
HETATM   29  C2  UNL     1       7.892  13.505  23.215  1.00  0.00     0.008 C 
HETATM   30  C1  UNL     1       8.334  14.914  23.495  1.00  0.00     0.055 C 
BRANCH  29  31
HETATM   31  C30 UNL     1       8.961  12.510  22.955  1.00  0.00     0.171 C 
HETATM   32  O2  UNL     1       9.009  11.359  23.348  1.00  0.00    -0.646 OA
BRANCH  31  33
HETATM   33  O3  UNL     1       9.935  13.013  22.177  1.00  0.00    -0.773 OA
HETATM   34  H46 UNL     1      10.553  12.263  22.071  1.00  0.00     0.167 HD
ENDBRANCH  31  33
ENDBRANCH  29  31
ENDBRANCH  27  28
ENDBRANCH  26  27
ENDBRANCH  24  26
ENDBRANCH   1  24
TORSDOF 6
ENDMDL
MODEL 3
REMARK minimizedAffinity -7.63487387
REMARK CNNscore 0.521206558
REMARK CNNaffinity 5.68676376
REMARK  6 active torsions:
REMARK  status: ('A' for Active; 'I' for Inactive)
REMARK    1  A    between atoms: C2_2  and  C30_31 
REMARK    2  A    between atoms: C3_3  and  C4_4 
REMARK    3  A    between atoms: C4_4  and  C5_5 
REMARK    4  A    between atoms: C5_5  and  C6_6 
REMARK    5  A    between atoms: C6_6  and  C8_8 
REMARK    6  A    between atoms: C30_31  and  O3_33 
ROOT
HETATM    1  C8  UNL     1       8.696   9.879  14.878  1.00  0.00    -0.002 C 
HETATM    2  C9  UNL     1       8.181  11.337  15.027  1.00  0.00     0.007 C 
HETATM    3  C10 UNL     1       6.940  11.475  14.109  1.00  0.00     0.015 C 
HETATM    4  C11 UNL     1       6.956  10.205  13.227  1.00  0.00    -0.013 C 
HETATM    5  C12 UNL     1       7.933  10.523  12.053  1.00  0.00     0.021 C 
HETATM    6  C13 UNL     1       5.670   9.656  12.618  1.00  0.00    -0.070 C 
HETATM    7  C14 UNL     1       4.465  10.233  12.775  1.00  0.00    -0.022 C 
HETATM    8  C15 UNL     1       3.167   9.603  12.360  1.00  0.00     0.034 C 
HETATM    9  C16 UNL     1       3.305   8.090  12.079  1.00  0.00     0.013 C 
HETATM   10  C17 UNL     1       1.972   7.351  11.666  1.00  0.00     0.018 C 
HETATM   11  C18 UNL     1       1.630   6.280  12.728  1.00  0.00     0.023 C 
HETATM   12  C19 UNL     1       0.754   8.296  11.571  1.00  0.00     0.023 C 
HETATM   13  C20 UNL     1       2.094   6.595  10.332  1.00  0.00     0.135 C 
HETATM   14  O1  UNL     1       1.152   6.519   9.538  1.00  0.00    -0.297 OA
HETATM   15  C21 UNL     1       3.369   5.842  10.026  1.00  0.00     0.080 C 
HETATM   16  C22 UNL     1       4.572   6.325  10.819  1.00  0.00     0.017 C 
HETATM   17  C23 UNL     1       4.530   7.832  11.146  1.00  0.00    -0.031 C 
HETATM   18  C24 UNL     1       4.419   8.637   9.816  1.00  0.00     0.016 C 
HETATM   19  C25 UNL     1       5.850   8.316  11.875  1.00  0.00     0.024 C 
HETATM   20  C26 UNL     1       6.524   7.272  12.806  1.00  0.00     0.010 C 
HETATM   21  C27 UNL     1       7.760   7.809  13.564  1.00  0.00     0.011 C 
HETATM   22  C28 UNL     1       7.461   9.143  14.276  1.00  0.00    -0.029 C 
HETATM   23  C29 UNL     1       6.415   8.849  15.399  1.00  0.00     0.016 C 
ENDROOT
BRANCH   1  24
HETATM   24  C6  UNL     1       9.380   9.225  16.114  1.00  0.00    -0.014 C 
HETATM   25  C7  UNL     1       9.237   7.705  16.239  1.00  0.00     0.010 C 
BRANCH  24  26
HETATM   26  C5  UNL     1       8.959   9.913  17.439  1.00  0.00     0.008 C 
BRANCH  26  27
HETATM   27  C4  UNL     1      10.083  10.632  18.199  1.00  0.00     0.028 C 
BRANCH  27  28
HETATM   28  C3  UNL     1       9.570  11.248  19.475  1.00  0.00    -0.013 C 
HETATM   29  C2  UNL     1      10.275  11.949  20.387  1.00  0.00     0.008 C 
HETATM   30  C1  UNL     1       9.629  12.485  21.633  1.00  0.00     0.055 C 
BRANCH  29  31
HETATM   31  C30 UNL     1      11.703  12.289  20.177  1.00  0.00     0.171 C 
HETATM   32  O2  UNL     1      12.155  13.307  19.685  1.00  0.00    -0.646 OA
BRANCH  31  33
HETATM   33  O3  UNL     1      12.519  11.321  20.626  1.00  0.00    -0.773 OA
HETATM   34  H46 UNL     1      13.414  11.674  20.447  1.00  0.00     0.167 HD
ENDBRANCH  31  33
ENDBRANCH  29  31
ENDBRANCH  27  28
ENDBRANCH  26  27
ENDBRANCH  24  26
ENDBRANCH   1  24
TORSDOF 6
ENDMDL
MODEL 4
REMARK minimizedAffinity -7.11011648
REMARK CNNscore 0.480079621
REMARK CNNaffinity 6.26997328
REMARK  6 active torsions:
REMARK  status: ('A' for Active; 'I' for Inactive)
REMARK    1  A    between atoms: C2_2  and  C30_31 
REMARK    2  A    between atoms: C3_3  and  C4_4 
REMARK    3  A    between atoms: C4_4  and  C5_5 
REMARK    4  A    between atoms: C5_5  and  C6_6 
REMARK    5  A    between atoms: C6_6  and  C8_8 
REMARK    6  A    between atoms: C30_31  and  O3_33 
ROOT
HETATM    1  C8  UNL     1      -1.994  12.874  17.500  1.00  0.00    -0.002 C 
HETATM    2  C9  UNL     1      -3.418  13.353  17.109  1.00  0.00     0.007 C 
HETATM    3  C10 UNL     1      -3.875  12.483  15.911  1.00  0.00     0.015 C 
HETATM    4  C11 UNL     1      -2.598  11.748  15.445  1.00  0.00    -0.013 C 
HETATM    5  C12 UNL     1      -1.854  12.752  14.509  1.00  0.00     0.021 C 
HETATM    6  C13 UNL     1      -2.683  10.414  14.710  1.00  0.00    -0.070 C 
HETATM    7  C14 UNL     1      -3.843   9.808  14.397  1.00  0.00    -0.022 C 
HETATM    8  C15 UNL     1      -3.946   8.409  13.863  1.00  0.00     0.034 C 
HETATM    9  C16 UNL     1      -2.643   7.602  14.053  1.00  0.00     0.013 C 
HETATM   10  C17 UNL     1      -2.686   6.109  13.541  1.00  0.00     0.018 C 
HETATM   11  C18 UNL     1      -2.474   5.151  14.737  1.00  0.00     0.023 C 
HETATM   12  C19 UNL     1      -4.033   5.726  12.889  1.00  0.00     0.023 C 
HETATM   13  C20 UNL     1      -1.563   5.785  12.540  1.00  0.00     0.135 C 
HETATM   14  O1  UNL     1      -1.740   5.018  11.589  1.00  0.00    -0.297 OA
HETATM   15  C21 UNL     1      -0.179   6.344  12.780  1.00  0.00     0.080 C 
HETATM   16  C22 UNL     1      -0.159   7.567  13.683  1.00  0.00     0.017 C 
HETATM   17  C23 UNL     1      -1.422   8.443  13.561  1.00  0.00    -0.031 C 
HETATM   18  C24 UNL     1      -1.591   8.888  12.077  1.00  0.00     0.016 C 
HETATM   19  C25 UNL     1      -1.313   9.760  14.433  1.00  0.00     0.024 C 
HETATM   20  C26 UNL     1      -0.505   9.627  15.752  1.00  0.00     0.010 C 
HETATM   21  C27 UNL     1      -0.493  10.910  16.616  1.00  0.00     0.011 C 
HETATM   22  C28 UNL     1      -1.914  11.466  16.836  1.00  0.00    -0.029 C 
HETATM   23  C29 UNL     1      -2.695  10.424  17.700  1.00  0.00     0.016 C 
ENDROOT
BRANCH   1  24
HETATM   24  C6  UNL     1      -1.582  12.978  18.998  1.00  0.00    -0.014 C 
HETATM   25  C7  UNL     1      -1.858  14.319  19.683  1.00  0.00     0.010 C 
BRANCH  24  26
HETATM   26  C5  UNL     1      -0.105  12.557  19.221  1.00  0.00     0.008 C 
BRANCH  26  27
HETATM   27  C4  UNL     1       0.101  11.218  19.944  1.00  0.00     0.028 C 
BRANCH  27  28
HETATM   28  C3  UNL     1       1.468  11.144  20.575  1.00  0.00    -0.013 C 
HETATM   29  C2  UNL     1       2.640  10.887  19.960  1.00  0.00     0.008 C 
HETATM   30  C1  UNL     1       3.929  10.820  20.728  1.00  0.00     0.055 C 
BRANCH  29  31
HETATM   31  C30 UNL     1       2.732  10.729  18.488  1.00  0.00     0.171 C 
HETATM   32  O2  UNL     1       3.073  11.568  17.675  1.00  0.00    -0.646 OA
BRANCH  31  33
HETATM   33  O3  UNL     1       2.404   9.485  18.097  1.00  0.00    -0.773 OA
HETATM   34  H46 UNL     1       2.523   9.512  17.126  1.00  0.00     0.167 HD
ENDBRANCH  31  33
ENDBRANCH  29  31
ENDBRANCH  27  28
ENDBRANCH  26  27
ENDBRANCH  24  26
ENDBRANCH   1  24
TORSDOF 6
ENDMDL
MODEL 5
REMARK minimizedAffinity -8.52087307
REMARK CNNscore 0.389599383
REMARK CNNaffinity 7.06059885
REMARK  6 active torsions:
REMARK  status: ('A' for Active; 'I' for Inactive)
REMARK    1  A    between atoms: C2_2  and  C30_31 
REMARK    2  A    between atoms: C3_3  and  C4_4 
REMARK    3  A    between atoms: C4_4  and  C5_5 
REMARK    4  A    between atoms: C5_5  and  C6_6 
REMARK    5  A    between atoms: C6_6  and  C8_8 
REMARK    6  A    between atoms: C30_31  and  O3_33 
ROOT
HETATM    1  C8  UNL     1       0.731   6.970  11.801  1.00  0.00    -0.002 C 
HETATM    2  C9  UNL     1       1.196   5.526  12.132  1.00  0.00     0.007 C 
HETATM    3  C10 UNL     1       0.068   4.867  12.964  1.00  0.00     0.015 C 
HETATM    4  C11 UNL     1      -0.870   6.032  13.354  1.00  0.00    -0.013 C 
HETATM    5  C12 UNL     1      -0.231   6.677  14.623  1.00  0.00     0.021 C 
HETATM    6  C13 UNL     1      -2.344   5.786  13.659  1.00  0.00    -0.070 C 
HETATM    7  C14 UNL     1      -2.917   4.568  13.638  1.00  0.00    -0.022 C 
HETATM    8  C15 UNL     1      -4.396   4.330  13.731  1.00  0.00     0.034 C 
HETATM    9  C16 UNL     1      -5.222   5.611  13.481  1.00  0.00     0.013 C 
HETATM   10  C17 UNL     1      -6.789   5.431  13.533  1.00  0.00     0.018 C 
HETATM   11  C18 UNL     1      -7.390   5.770  12.149  1.00  0.00     0.023 C 
HETATM   12  C19 UNL     1      -7.228   3.990  13.875  1.00  0.00     0.023 C 
HETATM   13  C20 UNL     1      -7.469   6.385  14.530  1.00  0.00     0.135 C 
HETATM   14  O1  UNL     1      -8.454   6.042  15.192  1.00  0.00    -0.297 OA
HETATM   15  C21 UNL     1      -6.981   7.813  14.635  1.00  0.00     0.080 C 
HETATM   16  C22 UNL     1      -5.561   8.013  14.131  1.00  0.00     0.017 C 
HETATM   17  C23 UNL     1      -4.653   6.784  14.341  1.00  0.00    -0.031 C 
HETATM   18  C24 UNL     1      -4.627   6.426  15.857  1.00  0.00     0.016 C 
HETATM   19  C25 UNL     1      -3.159   7.073  13.904  1.00  0.00     0.024 C 
HETATM   20  C26 UNL     1      -2.984   8.054  12.714  1.00  0.00     0.010 C 
HETATM   21  C27 UNL     1      -1.517   8.244  12.263  1.00  0.00     0.011 C 
HETATM   22  C28 UNL     1      -0.808   6.894  12.037  1.00  0.00    -0.029 C 
HETATM   23  C29 UNL     1      -1.501   6.200  10.820  1.00  0.00     0.016 C 
ENDROOT
BRANCH   1  24
HETATM   24  C6  UNL     1       1.213   7.595  10.459  1.00  0.00    -0.014 C 
HETATM   25  C7  UNL     1       0.190   8.450   9.705  1.00  0.00     0.010 C 
BRANCH  24  26
HETATM   26  C5  UNL     1       1.820   6.528   9.510  1.00  0.00     0.008 C 
BRANCH  26  27
HETATM   27  C4  UNL     1       3.351   6.548   9.383  1.00  0.00     0.028 C 
BRANCH  27  28
HETATM   28  C3  UNL     1       3.914   7.883   9.800  1.00  0.00    -0.013 C 
HETATM   29  C2  UNL     1       5.032   8.111  10.519  1.00  0.00     0.008 C 
HETATM   30  C1  UNL     1       5.459   9.505  10.881  1.00  0.00     0.055 C 
BRANCH  29  31
HETATM   31  C30 UNL     1       5.937   7.009  10.927  1.00  0.00     0.171 C 
HETATM   32  O2  UNL     1       7.021   6.728  10.450  1.00  0.00    -0.646 OA
BRANCH  31  33
HETATM   33  O3  UNL     1       5.435   6.305  11.956  1.00  0.00    -0.773 OA
HETATM   34  H46 UNL     1       6.125   5.635  12.134  1.00  0.00     0.167 HD
ENDBRANCH  31  33
ENDBRANCH  29  31
ENDBRANCH  27  28
ENDBRANCH  26  27
ENDBRANCH  24  26
ENDBRANCH   1  24
TORSDOF 6
ENDMDL
MODEL 6
REMARK minimizedAffinity -7.34826088
REMARK CNNscore 0.368485659
REMARK CNNaffinity 6.24022865
REMARK  6 active torsions:
REMARK  status: ('A' for Active; 'I' for Inactive)
REMARK    1  A    between atoms: C2_2  and  C30_31 
REMARK    2  A    between atoms: C3_3  and  C4_4 
REMARK    3  A    between atoms: C4_4  and  C5_5 
REMARK    4  A    between atoms: C5_5  and  C6_6 
REMARK    5  A    between atoms: C6_6  and  C8_8 
REMARK    6  A    between atoms: C30_31  and  O3_33 
ROOT
HETATM    1  C8  UNL     1      -0.393   8.464  13.950  1.00  0.00    -0.002 C 
HETATM    2  C9  UNL     1      -0.635   7.234  14.868  1.00  0.00     0.007 C 
HETATM    3  C10 UNL     1      -1.055   7.780  16.255  1.00  0.00     0.015 C 
HETATM    4  C11 UNL     1      -0.746   9.293  16.196  1.00  0.00    -0.013 C 
HETATM    5  C12 UNL     1       0.771   9.425  16.538  1.00  0.00     0.021 C 
HETATM    6  C13 UNL     1      -1.502  10.284  17.076  1.00  0.00    -0.070 C 
HETATM    7  C14 UNL     1      -2.448   9.924  17.963  1.00  0.00    -0.022 C 
HETATM    8  C15 UNL     1      -3.341  10.891  18.683  1.00  0.00     0.034 C 
HETATM    9  C16 UNL     1      -3.331  12.298  18.045  1.00  0.00     0.013 C 
HETATM   10  C17 UNL     1      -4.272  13.363  18.733  1.00  0.00     0.018 C 
HETATM   11  C18 UNL     1      -5.351  13.820  17.723  1.00  0.00     0.023 C 
HETATM   12  C19 UNL     1      -5.016  12.813  19.970  1.00  0.00     0.023 C 
HETATM   13  C20 UNL     1      -3.525  14.640  19.154  1.00  0.00     0.135 C 
HETATM   14  O1  UNL     1      -3.818  15.257  20.183  1.00  0.00    -0.297 OA
HETATM   15  C21 UNL     1      -2.467  15.212  18.237  1.00  0.00     0.080 C 
HETATM   16  C22 UNL     1      -1.896  14.202  17.256  1.00  0.00     0.017 C 
HETATM   17  C23 UNL     1      -1.859  12.761  17.806  1.00  0.00    -0.031 C 
HETATM   18  C24 UNL     1      -1.028  12.741  19.123  1.00  0.00     0.016 C 
HETATM   19  C25 UNL     1      -1.157  11.762  16.797  1.00  0.00     0.024 C 
HETATM   20  C26 UNL     1      -1.350  12.083  15.290  1.00  0.00     0.010 C 
HETATM   21  C27 UNL     1      -0.723  11.039  14.337  1.00  0.00     0.011 C 
HETATM   22  C28 UNL     1      -1.145   9.602  14.704  1.00  0.00    -0.029 C 
HETATM   23  C29 UNL     1      -2.683   9.487  14.447  1.00  0.00     0.016 C 
ENDROOT
BRANCH   1  24
HETATM   24  C6  UNL     1      -0.690   8.301  12.430  1.00  0.00    -0.014 C 
HETATM   25  C7  UNL     1      -1.364   6.991  12.010  1.00  0.00     0.010 C 
BRANCH  24  26
HETATM   26  C5  UNL     1       0.573   8.554  11.566  1.00  0.00     0.008 C 
BRANCH  26  27
HETATM   27  C4  UNL     1       0.489   8.069  10.111  1.00  0.00     0.028 C 
BRANCH  27  28
HETATM   28  C3  UNL     1       1.469   6.953   9.852  1.00  0.00    -0.013 C 
HETATM   29  C2  UNL     1       2.222   6.766   8.749  1.00  0.00     0.008 C 
HETATM   30  C1  UNL     1       3.143   5.585   8.621  1.00  0.00     0.055 C 
BRANCH  29  31
HETATM   31  C30 UNL     1       2.238   7.748   7.638  1.00  0.00     0.171 C 
HETATM   32  O2  UNL     1       2.843   8.803   7.593  1.00  0.00    -0.646 OA
BRANCH  31  33
HETATM   33  O3  UNL     1       1.492   7.338   6.597  1.00  0.00    -0.773 OA
HETATM   34  H46 UNL     1       1.603   8.053   5.940  1.00  0.00     0.167 HD
ENDBRANCH  31  33
ENDBRANCH  29  31
ENDBRANCH  27  28
ENDBRANCH  26  27
ENDBRANCH  24  26
ENDBRANCH   1  24
TORSDOF 6
ENDMDL
MODEL 7
REMARK minimizedAffinity -7.09644842
REMARK CNNscore 0.328730464
REMARK CNNaffinity 5.71767569
REMARK  6 active torsions:
REMARK  status: ('A' for Active; 'I' for Inactive)
REMARK    1  A    between atoms: C2_2  and  C30_31 
REMARK    2  A    between atoms: C3_3  and  C4_4 
REMARK    3  A    between atoms: C4_4  and  C5_5 
REMARK    4  A    between atoms: C5_5  and  C6_6 
REMARK    5  A    between atoms: C6_6  and  C8_8 
REMARK    6  A    between atoms: C30_31  and  O3_33 
ROOT
HETATM    1  C8  UNL     1      -4.420 -10.419   7.500  1.00  0.00    -0.002 C 
HETATM    2  C9  UNL     1      -3.266  -9.404   7.275  1.00  0.00     0.007 C 
HETATM    3  C10 UNL     1      -2.819  -9.546   5.798  1.00  0.00     0.015 C 
HETATM    4  C11 UNL     1      -3.502 -10.840   5.300  1.00  0.00    -0.013 C 
HETATM    5  C12 UNL     1      -2.572 -12.007   5.756  1.00  0.00     0.021 C 
HETATM    6  C13 UNL     1      -3.806 -11.048   3.820  1.00  0.00    -0.070 C 
HETATM    7  C14 UNL     1      -3.488 -10.159   2.861  1.00  0.00    -0.022 C 
HETATM    8  C15 UNL     1      -3.957 -10.249   1.438  1.00  0.00     0.034 C 
HETATM    9  C16 UNL     1      -5.131 -11.238   1.261  1.00  0.00     0.013 C 
HETATM   10  C17 UNL     1      -5.699 -11.362  -0.207  1.00  0.00     0.018 C 
HETATM   11  C18 UNL     1      -7.174 -10.899  -0.226  1.00  0.00     0.023 C 
HETATM   12  C19 UNL     1      -4.939 -10.491  -1.232  1.00  0.00     0.023 C 
HETATM   13  C20 UNL     1      -5.707 -12.811  -0.726  1.00  0.00     0.135 C 
HETATM   14  O1  UNL     1      -5.478 -13.080  -1.909  1.00  0.00    -0.297 OA
HETATM   15  C21 UNL     1      -6.101 -13.928   0.214  1.00  0.00     0.080 C 
HETATM   16  C22 UNL     1      -5.949 -13.574   1.685  1.00  0.00     0.017 C 
HETATM   17  C23 UNL     1      -4.795 -12.590   1.966  1.00  0.00    -0.031 C 
HETATM   18  C24 UNL     1      -3.465 -13.202   1.433  1.00  0.00     0.016 C 
HETATM   19  C25 UNL     1      -4.603 -12.334   3.517  1.00  0.00     0.024 C 
HETATM   20  C26 UNL     1      -5.899 -12.377   4.371  1.00  0.00     0.010 C 
HETATM   21  C27 UNL     1      -5.681 -12.038   5.864  1.00  0.00     0.011 C 
HETATM   22  C28 UNL     1      -4.886 -10.731   6.045  1.00  0.00    -0.029 C 
HETATM   23  C29 UNL     1      -5.777  -9.564   5.509  1.00  0.00     0.016 C 
ENDROOT
BRANCH   1  24
HETATM   24  C6  UNL     1      -5.522 -10.044   8.534  1.00  0.00    -0.014 C 
HETATM   25  C7  UNL     1      -6.380  -8.822   8.193  1.00  0.00     0.010 C 
BRANCH  24  26
HETATM   26  C5  UNL     1      -4.945  -9.910   9.968  1.00  0.00     0.008 C 
BRANCH  26  27
HETATM   27  C4  UNL     1      -5.591 -10.814  11.029  1.00  0.00     0.028 C 
BRANCH  27  28
HETATM   28  C3  UNL     1      -7.059 -10.510  11.183  1.00  0.00    -0.013 C 
HETATM   29  C2  UNL     1      -7.614  -9.425  11.761  1.00  0.00     0.008 C 
HETATM   30  C1  UNL     1      -9.105  -9.269  11.865  1.00  0.00     0.055 C 
BRANCH  29  31
HETATM   31  C30 UNL     1      -6.789  -8.297  12.259  1.00  0.00     0.171 C 
HETATM   32  O2  UNL     1      -6.530  -7.260  11.678  1.00  0.00    -0.646 OA
BRANCH  31  33
HETATM   33  O3  UNL     1      -6.335  -8.521  13.504  1.00  0.00    -0.773 OA
HETATM   34  H46 UNL     1      -5.833  -7.709  13.714  1.00  0.00     0.167 HD
ENDBRANCH  31  33
ENDBRANCH  29  31
ENDBRANCH  27  28
ENDBRANCH  26  27
ENDBRANCH  24  26
ENDBRANCH   1  24
TORSDOF 6
ENDMDL
MODEL 8
REMARK minimizedAffinity -6.99717426
REMARK CNNscore 0.316020519
REMARK CNNaffinity 6.28887558
REMARK  6 active torsions:
REMARK  status: ('A' for Active; 'I' for Inactive)
REMARK    1  A    between atoms: C2_2  and  C30_31 
REMARK    2  A    between atoms: C3_3  and  C4_4 
REMARK    3  A    between atoms: C4_4  and  C5_5 
REMARK    4  A    between atoms: C5_5  and  C6_6 
REMARK    5  A    between atoms: C6_6  and  C8_8 
REMARK    6  A    between atoms: C30_31  and  O3_33 
ROOT
HETATM    1  C8  UNL     1      -2.085  12.292  18.158  1.00  0.00    -0.002 C 
HETATM    2  C9  UNL     1      -3.345  11.604  18.750  1.00  0.00     0.007 C 
HETATM    3  C10 UNL     1      -3.746  10.473  17.768  1.00  0.00     0.015 C 
HETATM    4  C11 UNL     1      -2.907  10.737  16.497  1.00  0.00    -0.013 C 
HETATM    5  C12 UNL     1      -3.703  11.805  15.684  1.00  0.00     0.021 C 
HETATM    6  C13 UNL     1      -2.554   9.602  15.540  1.00  0.00    -0.070 C 
HETATM    7  C14 UNL     1      -2.956   8.329  15.712  1.00  0.00    -0.022 C 
HETATM    8  C15 UNL     1      -2.454   7.170  14.902  1.00  0.00     0.034 C 
HETATM    9  C16 UNL     1      -1.170   7.508  14.112  1.00  0.00     0.013 C 
HETATM   10  C17 UNL     1      -0.565   6.325  13.259  1.00  0.00     0.018 C 
HETATM   11  C18 UNL     1       0.846   5.981  13.790  1.00  0.00     0.023 C 
HETATM   12  C19 UNL     1      -1.402   5.029  13.332  1.00  0.00     0.023 C 
HETATM   13  C20 UNL     1      -0.378   6.689  11.776  1.00  0.00     0.135 C 
HETATM   14  O1  UNL     1      -0.552   5.863  10.876  1.00  0.00    -0.297 OA
HETATM   15  C21 UNL     1       0.127   8.068  11.414  1.00  0.00     0.080 C 
HETATM   16  C22 UNL     1      -0.092   9.106  12.503  1.00  0.00     0.017 C 
HETATM   17  C23 UNL     1      -1.358   8.857  13.347  1.00  0.00    -0.031 C 
HETATM   18  C24 UNL     1      -2.598   8.816  12.404  1.00  0.00     0.016 C 
HETATM   19  C25 UNL     1      -1.607  10.018  14.395  1.00  0.00     0.024 C 
HETATM   20  C26 UNL     1      -0.331  10.689  14.970  1.00  0.00     0.010 C 
HETATM   21  C27 UNL     1      -0.614  11.758  16.051  1.00  0.00     0.011 C 
HETATM   22  C28 UNL     1      -1.559  11.229  17.147  1.00  0.00    -0.029 C 
HETATM   23  C29 UNL     1      -0.801  10.096  17.911  1.00  0.00     0.016 C 
ENDROOT
BRANCH   1  24
HETATM   24  C6  UNL     1      -1.054  12.894  19.158  1.00  0.00    -0.014 C 
HETATM   25  C7  UNL     1      -1.012  14.422  19.247  1.00  0.00     0.010 C 
BRANCH  24  26
HETATM   26  C5  UNL     1       0.373  12.332  18.922  1.00  0.00     0.008 C 
BRANCH  26  27
HETATM   27  C4  UNL     1       1.286  12.304  20.156  1.00  0.00     0.028 C 
BRANCH  27  28
HETATM   28  C3  UNL     1       1.421  10.905  20.702  1.00  0.00    -0.013 C 
HETATM   29  C2  UNL     1       2.331  10.457  21.591  1.00  0.00     0.008 C 
HETATM   30  C1  UNL     1       2.359   9.019  22.026  1.00  0.00     0.055 C 
BRANCH  29  31
HETATM   31  C30 UNL     1       3.304  11.369  22.240  1.00  0.00     0.171 C 
HETATM   32  O2  UNL     1       3.129  12.049  23.234  1.00  0.00    -0.646 OA
BRANCH  31  33
HETATM   33  O3  UNL     1       4.489  11.369  21.606  1.00  0.00    -0.773 OA
HETATM   34  H46 UNL     1       5.033  11.985  22.137  1.00  0.00     0.167 HD
ENDBRANCH  31  33
ENDBRANCH  29  31
ENDBRANCH  27  28
ENDBRANCH  26  27
ENDBRANCH  24  26
ENDBRANCH   1  24
TORSDOF 6
ENDMDL
MODEL 9
REMARK minimizedAffinity -8.14166927
REMARK CNNscore 0.28087008
REMARK CNNaffinity 6.7663064
REMARK  6 active torsions:
REMARK  status: ('A' for Active; 'I' for Inactive)
REMARK    1  A    between atoms: C2_2  and  C30_31 
REMARK    2  A    between atoms: C3_3  and  C4_4 
REMARK    3  A    between atoms: C4_4  and  C5_5 
REMARK    4  A    between atoms: C5_5  and  C6_6 
REMARK    5  A    between atoms: C6_6  and  C8_8 
REMARK    6  A    between atoms: C30_31  and  O3_33 
ROOT
HETATM    1  C8  UNL     1      -6.680   6.055  14.734  1.00  0.00    -0.002 C 
HETATM    2  C9  UNL     1      -6.601   7.316  15.636  1.00  0.00     0.007 C 
HETATM    3  C10 UNL     1      -5.119   7.769  15.653  1.00  0.00     0.015 C 
HETATM    4  C11 UNL     1      -4.338   6.593  15.024  1.00  0.00    -0.013 C 
HETATM    5  C12 UNL     1      -4.102   5.578  16.186  1.00  0.00     0.021 C 
HETATM    6  C13 UNL     1      -2.996   6.821  14.335  1.00  0.00    -0.070 C 
HETATM    7  C14 UNL     1      -2.397   8.023  14.249  1.00  0.00    -0.022 C 
HETATM    8  C15 UNL     1      -1.188   8.303  13.405  1.00  0.00     0.034 C 
HETATM    9  C16 UNL     1      -0.918   7.194  12.364  1.00  0.00     0.013 C 
HETATM   10  C17 UNL     1       0.322   7.435  11.418  1.00  0.00     0.018 C 
HETATM   11  C18 UNL     1      -0.164   7.541   9.954  1.00  0.00     0.023 C 
HETATM   12  C19 UNL     1       1.087   8.740  11.734  1.00  0.00     0.023 C 
HETATM   13  C20 UNL     1       1.330   6.274  11.442  1.00  0.00     0.135 C 
HETATM   14  O1  UNL     1       2.547   6.465  11.353  1.00  0.00    -0.297 OA
HETATM   15  C21 UNL     1       0.816   4.852  11.480  1.00  0.00     0.080 C 
HETATM   16  C22 UNL     1      -0.606   4.728  12.003  1.00  0.00     0.017 C 
HETATM   17  C23 UNL     1      -0.970   5.795  13.056  1.00  0.00    -0.031 C 
HETATM   18  C24 UNL     1       0.035   5.702  14.243  1.00  0.00     0.016 C 
HETATM   19  C25 UNL     1      -2.419   5.563  13.654  1.00  0.00     0.024 C 
HETATM   20  C26 UNL     1      -3.460   4.956  12.675  1.00  0.00     0.010 C 
HETATM   21  C27 UNL     1      -4.882   4.826  13.269  1.00  0.00     0.011 C 
HETATM   22  C28 UNL     1      -5.359   6.143  13.912  1.00  0.00    -0.029 C 
HETATM   23  C29 UNL     1      -5.513   7.193  12.764  1.00  0.00     0.016 C 
ENDROOT
BRANCH   1  24
HETATM   24  C6  UNL     1      -7.997   5.816  13.939  1.00  0.00    -0.014 C 
HETATM   25  C7  UNL     1      -7.871   4.985  12.659  1.00  0.00     0.010 C 
BRANCH  24  26
HETATM   26  C5  UNL     1      -8.742   7.144  13.643  1.00  0.00     0.008 C 
BRANCH  26  27
HETATM   27  C4  UNL     1     -10.232   7.165  14.015  1.00  0.00     0.028 C 
BRANCH  27  28
HETATM   28  C3  UNL     1     -10.663   8.540  14.458  1.00  0.00    -0.013 C 
HETATM   29  C2  UNL     1     -11.507   9.378  13.822  1.00  0.00     0.008 C 
HETATM   30  C1  UNL     1     -11.827  10.737  14.376  1.00  0.00     0.055 C 
BRANCH  29  31
HETATM   31  C30 UNL     1     -12.219   8.978  12.584  1.00  0.00     0.171 C 
HETATM   32  O2  UNL     1     -13.216   8.287  12.496  1.00  0.00    -0.646 OA
BRANCH  31  33
HETATM   33  O3  UNL     1     -11.642   9.497  11.486  1.00  0.00    -0.773 OA
HETATM   34  H46 UNL     1     -12.210   9.178  10.756  1.00  0.00     0.167 HD
ENDBRANCH  31  33
ENDBRANCH  29  31
ENDBRANCH  27  28
ENDBRANCH  26  27
ENDBRANCH  24  26
ENDBRANCH   1  24
TORSDOF 6
ENDMDL
