MODEL 1
REMARK minimizedAffinity -9.24060249
REMARK CNNscore 0.550785422
REMARK CNNaffinity 6.88051462
REMARK  8 active torsions:
REMARK  status: ('A' for Active; 'I' for Inactive)
REMARK    1  A    between atoms: C4_4  and  C5_5 
REMARK    2  A    between atoms: C5_5  and  C6_6 
REMARK    3  A    between atoms: C6_6  and  C7_7 
REMARK    4  A    between atoms: C7_7  and  C9_9 
REMARK    5  A    between atoms: C25_26  and  C27_28 
REMARK    6  A    between atoms: C27_28  and  O3_30 
REMARK    7  A    between atoms: C28_31  and  O4_32 
REMARK    8  A    between atoms: C30_34  and  O5_35 
ROOT
HETATM    1  C9  UNL     1      -0.606  50.536 -21.768  1.00  0.00    -0.002 C 
HETATM    2  C10 UNL     1      -0.592  50.208 -20.247  1.00  0.00     0.007 C 
HETATM    3  C11 UNL     1      -1.900  49.458 -19.931  1.00  0.00     0.015 C 
HETATM    4  C12 UNL     1      -2.454  49.014 -21.300  1.00  0.00    -0.005 C 
HETATM    5  C13 UNL     1      -1.700  47.705 -21.695  1.00  0.00     0.021 C 
HETATM    6  C14 UNL     1      -3.930  48.665 -21.469  1.00  0.00    -0.000 C 
HETATM    7  C15 UNL     1      -4.563  48.842 -22.660  1.00  0.00    -0.058 C 
HETATM    8  C16 UNL     1      -3.815  49.470 -23.850  1.00  0.00     0.036 C 
HETATM    9  C17 UNL     1      -2.364  49.939 -23.626  1.00  0.00     0.015 C 
HETATM   10  C18 UNL     1      -2.097  50.294 -22.162  1.00  0.00    -0.028 C 
HETATM   11  C19 UNL     1      -2.973  51.525 -21.796  1.00  0.00     0.016 C 
HETATM   12  C20 UNL     1      -6.067  48.487 -22.901  1.00  0.00     0.011 C 
HETATM   13  C21 UNL     1      -6.826  49.829 -22.756  1.00  0.00     0.023 C 
HETATM   14  C22 UNL     1      -6.508  47.409 -21.855  1.00  0.00     0.029 C 
HETATM   15  C23 UNL     1      -6.141  47.820 -20.428  1.00  0.00     0.090 C 
HETATM   16  C24 UNL     1      -4.667  48.097 -20.295  1.00  0.00     0.157 C 
HETATM   17  O1  UNL     1      -4.105  47.904 -19.217  1.00  0.00    -0.293 OA
HETATM   18  C25 UNL     1      -7.982  46.861 -21.983  1.00  0.00     0.072 C 
HETATM   19  C26 UNL     1      -7.961  45.350 -21.620  1.00  0.00     0.030 C 
HETATM   20  C28 UNL     1      -8.542  47.060 -23.419  1.00  0.00     0.139 C 
HETATM   21  C29 UNL     1      -7.463  46.896 -24.483  1.00  0.00     0.065 C 
HETATM   22  C30 UNL     1      -6.278  47.857 -24.328  1.00  0.00     0.133 C 
ENDROOT
BRANCH   1  23
HETATM   23  C7  UNL     1       0.192  51.832 -22.103  1.00  0.00    -0.014 C 
HETATM   24  C8  UNL     1       0.379  52.832 -20.952  1.00  0.00     0.010 C 
BRANCH  23  25
HETATM   25  C6  UNL     1      -0.294  52.613 -23.351  1.00  0.00     0.008 C 
BRANCH  25  26
HETATM   26  C5  UNL     1       0.795  52.970 -24.377  1.00  0.00     0.028 C 
BRANCH  26  27
HETATM   27  C4  UNL     1       0.423  52.694 -25.804  1.00  0.00    -0.025 C 
HETATM   28  C2  UNL     1       1.125  52.013 -26.731  1.00  0.00    -0.091 C 
HETATM   29  C1  UNL     1       2.474  51.384 -26.511  1.00  0.00     0.042 C 
HETATM   30  C3  UNL     1       0.570  51.809 -28.116  1.00  0.00     0.042 C 
ENDBRANCH  26  27
ENDBRANCH  25  26
ENDBRANCH  23  25
ENDBRANCH   1  23
BRANCH  22  31
HETATM   31  O5  UNL     1      -6.371  48.856 -25.349  1.00  0.00    -0.394 OA
HETATM   32  H46 UNL     1      -7.217  49.327 -25.257  1.00  0.00     0.210 HD
ENDBRANCH  22  31
BRANCH  18  33
HETATM   33  C27 UNL     1      -8.941  47.528 -20.991  1.00  0.00     0.151 C 
HETATM   34  O2  UNL     1      -8.697  48.441 -20.223  1.00  0.00    -0.649 OA
BRANCH  33  35
HETATM   35  O3  UNL     1     -10.200  47.054 -21.043  1.00  0.00    -0.776 OA
HETATM   36  H40 UNL     1     -10.666  47.579 -20.356  1.00  0.00     0.167 HD
ENDBRANCH  33  35
ENDBRANCH  18  33
BRANCH  20  37
HETATM   37  O4  UNL     1      -9.586  46.120 -23.690  1.00  0.00    -0.394 OA
HETATM   38  H42 UNL     1      -9.977  46.344 -24.553  1.00  0.00     0.210 HD
ENDBRANCH  20  37
TORSDOF 8
ENDMDL
MODEL 2
REMARK minimizedAffinity -8.90858555
REMARK CNNscore 0.477380574
REMARK CNNaffinity 6.76186562
REMARK  8 active torsions:
REMARK  status: ('A' for Active; 'I' for Inactive)
REMARK    1  A    between atoms: C4_4  and  C5_5 
REMARK    2  A    between atoms: C5_5  and  C6_6 
REMARK    3  A    between atoms: C6_6  and  C7_7 
REMARK    4  A    between atoms: C7_7  and  C9_9 
REMARK    5  A    between atoms: C25_26  and  C27_28 
REMARK    6  A    between atoms: C27_28  and  O3_30 
REMARK    7  A    between atoms: C28_31  and  O4_32 
REMARK    8  A    between atoms: C30_34  and  O5_35 
ROOT
HETATM    1  C9  UNL     1       0.477  51.883 -20.618  1.00  0.00    -0.002 C 
HETATM    2  C10 UNL     1      -0.010  52.898 -19.544  1.00  0.00     0.007 C 
HETATM    3  C11 UNL     1      -1.187  52.241 -18.797  1.00  0.00     0.015 C 
HETATM    4  C12 UNL     1      -1.112  50.745 -19.158  1.00  0.00    -0.005 C 
HETATM    5  C13 UNL     1      -0.046  50.100 -18.216  1.00  0.00     0.021 C 
HETATM    6  C14 UNL     1      -2.336  49.844 -19.014  1.00  0.00    -0.000 C 
HETATM    7  C15 UNL     1      -2.509  48.758 -19.814  1.00  0.00    -0.058 C 
HETATM    8  C16 UNL     1      -1.501  48.454 -20.938  1.00  0.00     0.036 C 
HETATM    9  C17 UNL     1      -0.341  49.446 -21.156  1.00  0.00     0.015 C 
HETATM   10  C18 UNL     1      -0.697  50.856 -20.682  1.00  0.00    -0.028 C 
HETATM   11  C19 UNL     1      -1.851  51.390 -21.579  1.00  0.00     0.016 C 
HETATM   12  C20 UNL     1      -3.731  47.789 -19.704  1.00  0.00     0.011 C 
HETATM   13  C21 UNL     1      -4.716  48.253 -20.804  1.00  0.00     0.023 C 
HETATM   14  C22 UNL     1      -4.326  47.884 -18.259  1.00  0.00     0.029 C 
HETATM   15  C23 UNL     1      -4.587  49.334 -17.847  1.00  0.00     0.090 C 
HETATM   16  C24 UNL     1      -3.339  50.170 -17.950  1.00  0.00     0.157 C 
HETATM   17  O1  UNL     1      -3.187  51.132 -17.197  1.00  0.00    -0.293 OA
HETATM   18  C25 UNL     1      -5.527  46.917 -17.924  1.00  0.00     0.072 C 
HETATM   19  C26 UNL     1      -5.373  46.461 -16.446  1.00  0.00     0.030 C 
HETATM   20  C28 UNL     1      -5.548  45.683 -18.867  1.00  0.00     0.139 C 
HETATM   21  C29 UNL     1      -4.143  45.221 -19.236  1.00  0.00     0.065 C 
HETATM   22  C30 UNL     1      -3.289  46.293 -19.921  1.00  0.00     0.133 C 
ENDROOT
BRANCH   1  23
HETATM   23  C7  UNL     1       1.098  52.587 -21.862  1.00  0.00    -0.014 C 
HETATM   24  C8  UNL     1       1.281  54.108 -21.760  1.00  0.00     0.010 C 
BRANCH  23  25
HETATM   25  C6  UNL     1       0.420  52.268 -23.219  1.00  0.00     0.008 C 
BRANCH  25  26
HETATM   26  C5  UNL     1       0.631  53.312 -24.328  1.00  0.00     0.028 C 
BRANCH  26  27
HETATM   27  C4  UNL     1       0.264  52.842 -25.705  1.00  0.00    -0.025 C 
HETATM   28  C2  UNL     1       0.980  52.056 -26.535  1.00  0.00    -0.091 C 
HETATM   29  C1  UNL     1       2.339  51.486 -26.236  1.00  0.00     0.042 C 
HETATM   30  C3  UNL     1       0.428  51.661 -27.880  1.00  0.00     0.042 C 
ENDBRANCH  26  27
ENDBRANCH  25  26
ENDBRANCH  23  25
ENDBRANCH   1  23
BRANCH  22  31
HETATM   31  O5  UNL     1      -3.176  45.962 -21.310  1.00  0.00    -0.394 OA
HETATM   32  H46 UNL     1      -4.067  45.923 -21.700  1.00  0.00     0.210 HD
ENDBRANCH  22  31
BRANCH  18  33
HETATM   33  C27 UNL     1      -6.885  47.622 -18.016  1.00  0.00     0.151 C 
HETATM   34  O2  UNL     1      -7.483  47.954 -19.025  1.00  0.00    -0.649 OA
BRANCH  33  35
HETATM   35  O3  UNL     1      -7.475  47.834 -16.825  1.00  0.00    -0.776 OA
HETATM   36  H40 UNL     1      -8.314  48.285 -17.066  1.00  0.00     0.167 HD
ENDBRANCH  33  35
ENDBRANCH  18  33
BRANCH  20  37
HETATM   37  O4  UNL     1      -6.235  44.588 -18.254  1.00  0.00    -0.394 OA
HETATM   38  H42 UNL     1      -6.315  43.875 -18.913  1.00  0.00     0.210 HD
ENDBRANCH  20  37
TORSDOF 8
ENDMDL
MODEL 3
REMARK minimizedAffinity -8.98495197
REMARK CNNscore 0.422548175
REMARK CNNaffinity 6.76351404
REMARK  8 active torsions:
REMARK  status: ('A' for Active; 'I' for Inactive)
REMARK    1  A    between atoms: C4_4  and  C5_5 
REMARK    2  A    between atoms: C5_5  and  C6_6 
REMARK    3  A    between atoms: C6_6  and  C7_7 
REMARK    4  A    between atoms: C7_7  and  C9_9 
REMARK    5  A    between atoms: C25_26  and  C27_28 
REMARK    6  A    between atoms: C27_28  and  O3_30 
REMARK    7  A    between atoms: C28_31  and  O4_32 
REMARK    8  A    between atoms: C30_34  and  O5_35 
ROOT
HETATM    1  C9  UNL     1      -0.137  51.103 -21.727  1.00  0.00    -0.002 C 
HETATM    2  C10 UNL     1       0.113  51.447 -20.230  1.00  0.00     0.007 C 
HETATM    3  C11 UNL     1      -1.037  50.819 -19.421  1.00  0.00     0.015 C 
HETATM    4  C12 UNL     1      -1.700  49.807 -20.376  1.00  0.00    -0.005 C 
HETATM    5  C13 UNL     1      -0.842  48.503 -20.328  1.00  0.00     0.021 C 
HETATM    6  C14 UNL     1      -3.129  49.327 -20.137  1.00  0.00    -0.000 C 
HETATM    7  C15 UNL     1      -3.927  48.946 -21.171  1.00  0.00    -0.058 C 
HETATM    8  C16 UNL     1      -3.423  49.062 -22.622  1.00  0.00     0.036 C 
HETATM    9  C17 UNL     1      -2.027  49.671 -22.856  1.00  0.00     0.015 C 
HETATM   10  C18 UNL     1      -1.622  50.625 -21.730  1.00  0.00    -0.028 C 
HETATM   11  C19 UNL     1      -2.595  51.838 -21.753  1.00  0.00     0.016 C 
HETATM   12  C20 UNL     1      -5.392  48.430 -20.988  1.00  0.00     0.011 C 
HETATM   13  C21 UNL     1      -6.291  49.657 -21.274  1.00  0.00     0.023 C 
HETATM   14  C22 UNL     1      -5.554  47.866 -19.537  1.00  0.00     0.029 C 
HETATM   15  C23 UNL     1      -5.063  48.861 -18.484  1.00  0.00     0.090 C 
HETATM   16  C24 UNL     1      -3.631  49.261 -18.727  1.00  0.00     0.157 C 
HETATM   17  O1  UNL     1      -2.916  49.574 -17.775  1.00  0.00    -0.293 OA
HETATM   18  C25 UNL     1      -6.950  47.224 -19.181  1.00  0.00     0.072 C 
HETATM   19  C26 UNL     1      -6.690  46.010 -18.245  1.00  0.00     0.030 C 
HETATM   20  C28 UNL     1      -7.710  46.764 -20.456  1.00  0.00     0.139 C 
HETATM   21  C29 UNL     1      -6.764  46.237 -21.528  1.00  0.00     0.065 C 
HETATM   22  C30 UNL     1      -5.701  47.246 -21.979  1.00  0.00     0.133 C 
ENDROOT
BRANCH   1  23
HETATM   23  C7  UNL     1       0.439  52.186 -22.689  1.00  0.00    -0.014 C 
HETATM   24  C8  UNL     1       0.868  53.511 -22.042  1.00  0.00     0.010 C 
BRANCH  23  25
HETATM   25  C6  UNL     1      -0.431  52.510 -23.930  1.00  0.00     0.008 C 
BRANCH  25  26
HETATM   26  C5  UNL     1       0.198  53.476 -24.948  1.00  0.00     0.028 C 
BRANCH  26  27
HETATM   27  C4  UNL     1       0.191  52.981 -26.365  1.00  0.00    -0.025 C 
HETATM   28  C2  UNL     1       1.060  52.136 -26.956  1.00  0.00    -0.091 C 
HETATM   29  C1  UNL     1       2.255  51.511 -26.290  1.00  0.00     0.042 C 
HETATM   30  C3  UNL     1       0.871  51.725 -28.393  1.00  0.00     0.042 C 
ENDBRANCH  26  27
ENDBRANCH  25  26
ENDBRANCH  23  25
ENDBRANCH   1  23
BRANCH  22  31
HETATM   31  O5  UNL     1      -6.050  47.715 -23.286  1.00  0.00    -0.394 OA
HETATM   32  H46 UNL     1      -6.931  48.127 -23.250  1.00  0.00     0.210 HD
ENDBRANCH  22  31
BRANCH  18  33
HETATM   33  C27 UNL     1      -7.852  48.184 -18.398  1.00  0.00     0.151 C 
HETATM   34  O2  UNL     1      -8.622  49.014 -18.849  1.00  0.00    -0.649 OA
BRANCH  33  35
HETATM   35  O3  UNL     1      -7.793  48.026 -17.062  1.00  0.00    -0.776 OA
HETATM   36  H40 UNL     1      -8.416  48.707 -16.727  1.00  0.00     0.167 HD
ENDBRANCH  33  35
ENDBRANCH  18  33
BRANCH  20  37
HETATM   37  O4  UNL     1      -8.651  45.734 -20.141  1.00  0.00    -0.394 OA
HETATM   38  H42 UNL     1      -9.175  45.549 -20.941  1.00  0.00     0.210 HD
ENDBRANCH  20  37
TORSDOF 8
ENDMDL
MODEL 4
REMARK minimizedAffinity -7.73930883
REMARK CNNscore 0.410307318
REMARK CNNaffinity 6.29927397
REMARK  8 active torsions:
REMARK  status: ('A' for Active; 'I' for Inactive)
REMARK    1  A    between atoms: C4_4  and  C5_5 
REMARK    2  A    between atoms: C5_5  and  C6_6 
REMARK    3  A    between atoms: C6_6  and  C7_7 
REMARK    4  A    between atoms: C7_7  and  C9_9 
REMARK    5  A    between atoms: C25_26  and  C27_28 
REMARK    6  A    between atoms: C27_28  and  O3_30 
REMARK    7  A    between atoms: C28_31  and  O4_32 
REMARK    8  A    between atoms: C30_34  and  O5_35 
ROOT
HETATM    1  C9  UNL     1       6.175  55.851  -8.041  1.00  0.00    -0.002 C 
HETATM    2  C10 UNL     1       6.843  54.575  -8.628  1.00  0.00     0.007 C 
HETATM    3  C11 UNL     1       5.723  53.721  -9.251  1.00  0.00     0.015 C 
HETATM    4  C12 UNL     1       4.513  54.667  -9.376  1.00  0.00    -0.005 C 
HETATM    5  C13 UNL     1       4.717  55.501 -10.681  1.00  0.00     0.021 C 
HETATM    6  C14 UNL     1       3.096  54.112  -9.502  1.00  0.00    -0.000 C 
HETATM    7  C15 UNL     1       2.023  54.810  -9.042  1.00  0.00    -0.058 C 
HETATM    8  C16 UNL     1       2.225  56.152  -8.314  1.00  0.00     0.036 C 
HETATM    9  C17 UNL     1       3.669  56.636  -8.079  1.00  0.00     0.015 C 
HETATM   10  C18 UNL     1       4.661  55.473  -8.021  1.00  0.00    -0.028 C 
HETATM   11  C19 UNL     1       4.321  54.611  -6.772  1.00  0.00     0.016 C 
HETATM   12  C20 UNL     1       0.548  54.302  -9.157  1.00  0.00     0.011 C 
HETATM   13  C21 UNL     1       0.226  53.680  -7.777  1.00  0.00     0.023 C 
HETATM   14  C22 UNL     1       0.455  53.278 -10.337  1.00  0.00     0.029 C 
HETATM   15  C23 UNL     1       1.525  52.191 -10.231  1.00  0.00     0.090 C 
HETATM   16  C24 UNL     1       2.909  52.783 -10.169  1.00  0.00     0.157 C 
HETATM   17  O1  UNL     1       3.864  52.149 -10.616  1.00  0.00    -0.293 OA
HETATM   18  C25 UNL     1      -0.979  52.707 -10.665  1.00  0.00     0.072 C 
HETATM   19  C26 UNL     1      -1.084  52.540 -12.207  1.00  0.00     0.030 C 
HETATM   20  C28 UNL     1      -2.101  53.650 -10.150  1.00  0.00     0.139 C 
HETATM   21  C29 UNL     1      -1.710  55.119 -10.259  1.00  0.00     0.065 C 
HETATM   22  C30 UNL     1      -0.432  55.487  -9.497  1.00  0.00     0.133 C 
ENDROOT
BRANCH   1  23
HETATM   23  C7  UNL     1       6.954  56.420  -6.816  1.00  0.00    -0.014 C 
HETATM   24  C8  UNL     1       7.515  55.386  -5.828  1.00  0.00     0.010 C 
BRANCH  23  25
HETATM   25  C6  UNL     1       6.219  57.518  -6.006  1.00  0.00     0.008 C 
BRANCH  25  26
HETATM   26  C5  UNL     1       6.949  58.015  -4.747  1.00  0.00     0.028 C 
BRANCH  26  27
HETATM   27  C4  UNL     1       7.845  59.197  -4.972  1.00  0.00    -0.025 C 
HETATM   28  C2  UNL     1       9.191  59.218  -5.061  1.00  0.00    -0.091 C 
HETATM   29  C1  UNL     1      10.089  58.018  -4.936  1.00  0.00     0.042 C 
HETATM   30  C3  UNL     1       9.921  60.509  -5.323  1.00  0.00     0.042 C 
ENDBRANCH  26  27
ENDBRANCH  25  26
ENDBRANCH  23  25
ENDBRANCH   1  23
BRANCH  22  31
HETATM   31  O5  UNL     1      -0.800  56.232  -8.332  1.00  0.00    -0.394 OA
HETATM   32  H46 UNL     1      -1.391  55.690  -7.782  1.00  0.00     0.210 HD
ENDBRANCH  22  31
BRANCH  18  33
HETATM   33  C27 UNL     1      -1.203  51.314 -10.066  1.00  0.00     0.151 C 
HETATM   34  O2  UNL     1      -1.452  51.035  -8.906  1.00  0.00    -0.649 OA
BRANCH  33  35
HETATM   35  O3  UNL     1      -1.161  50.316 -10.968  1.00  0.00    -0.776 OA
HETATM   36  H40 UNL     1      -1.318  49.513 -10.424  1.00  0.00     0.167 HD
ENDBRANCH  33  35
ENDBRANCH  18  33
BRANCH  20  37
HETATM   37  O4  UNL     1      -3.310  53.451 -10.889  1.00  0.00    -0.394 OA
HETATM   38  H42 UNL     1      -4.011  53.982 -10.471  1.00  0.00     0.210 HD
ENDBRANCH  20  37
TORSDOF 8
ENDMDL
MODEL 5
REMARK minimizedAffinity -7.4943881
REMARK CNNscore 0.359222323
REMARK CNNaffinity 6.06561279
REMARK  8 active torsions:
REMARK  status: ('A' for Active; 'I' for Inactive)
REMARK    1  A    between atoms: C4_4  and  C5_5 
REMARK    2  A    between atoms: C5_5  and  C6_6 
REMARK    3  A    between atoms: C6_6  and  C7_7 
REMARK    4  A    between atoms: C7_7  and  C9_9 
REMARK    5  A    between atoms: C25_26  and  C27_28 
REMARK    6  A    between atoms: C27_28  and  O3_30 
REMARK    7  A    between atoms: C28_31  and  O4_32 
REMARK    8  A    between atoms: C30_34  and  O5_35 
ROOT
HETATM    1  C9  UNL     1     -12.797  43.849 -27.732  1.00  0.00    -0.002 C 
HETATM    2  C10 UNL     1     -12.710  42.686 -28.762  1.00  0.00     0.007 C 
HETATM    3  C11 UNL     1     -11.509  42.981 -29.682  1.00  0.00     0.015 C 
HETATM    4  C12 UNL     1     -10.693  44.064 -28.948  1.00  0.00    -0.005 C 
HETATM    5  C13 UNL     1      -9.809  43.331 -27.889  1.00  0.00     0.021 C 
HETATM    6  C14 UNL     1      -9.711  44.952 -29.708  1.00  0.00    -0.000 C 
HETATM    7  C15 UNL     1      -9.435  46.216 -29.288  1.00  0.00    -0.058 C 
HETATM    8  C16 UNL     1     -10.167  46.805 -28.068  1.00  0.00     0.036 C 
HETATM    9  C17 UNL     1     -11.250  45.944 -27.390  1.00  0.00     0.015 C 
HETATM   10  C18 UNL     1     -11.874  44.940 -28.361  1.00  0.00    -0.028 C 
HETATM   11  C19 UNL     1     -12.631  45.738 -29.461  1.00  0.00     0.016 C 
HETATM   12  C20 UNL     1      -8.427  47.167 -30.014  1.00  0.00     0.011 C 
HETATM   13  C21 UNL     1      -9.304  48.085 -30.899  1.00  0.00     0.023 C 
HETATM   14  C22 UNL     1      -7.411  46.301 -30.832  1.00  0.00     0.029 C 
HETATM   15  C23 UNL     1      -8.124  45.282 -31.723  1.00  0.00     0.090 C 
HETATM   16  C24 UNL     1      -9.036  44.391 -30.922  1.00  0.00     0.157 C 
HETATM   17  O1  UNL     1      -9.252  43.240 -31.303  1.00  0.00    -0.293 OA
HETATM   18  C25 UNL     1      -6.259  47.079 -31.578  1.00  0.00     0.072 C 
HETATM   19  C26 UNL     1      -4.973  46.210 -31.506  1.00  0.00     0.030 C 
HETATM   20  C28 UNL     1      -6.002  48.471 -30.937  1.00  0.00     0.139 C 
HETATM   21  C29 UNL     1      -6.193  48.449 -29.425  1.00  0.00     0.065 C 
HETATM   22  C30 UNL     1      -7.587  48.000 -28.974  1.00  0.00     0.133 C 
ENDROOT
BRANCH   1  23
HETATM   23  C7  UNL     1     -14.255  44.105 -27.248  1.00  0.00    -0.014 C 
HETATM   24  C8  UNL     1     -14.742  43.243 -26.073  1.00  0.00     0.010 C 
BRANCH  23  25
HETATM   25  C6  UNL     1     -15.342  44.079 -28.352  1.00  0.00     0.008 C 
BRANCH  25  26
HETATM   26  C5  UNL     1     -16.259  42.844 -28.354  1.00  0.00     0.028 C 
BRANCH  26  27
HETATM   27  C4  UNL     1     -17.408  42.921 -29.315  1.00  0.00    -0.025 C 
HETATM   28  C2  UNL     1     -18.638  43.431 -29.103  1.00  0.00    -0.091 C 
HETATM   29  C1  UNL     1     -19.119  44.033 -27.812  1.00  0.00     0.042 C 
HETATM   30  C3  UNL     1     -19.661  43.450 -30.209  1.00  0.00     0.042 C 
ENDBRANCH  26  27
ENDBRANCH  25  26
ENDBRANCH  23  25
ENDBRANCH   1  23
BRANCH  22  31
HETATM   31  O5  UNL     1      -8.302  49.148 -28.504  1.00  0.00    -0.394 OA
HETATM   32  H46 UNL     1      -8.360  49.802 -29.221  1.00  0.00     0.210 HD
ENDBRANCH  22  31
BRANCH  18  33
HETATM   33  C27 UNL     1      -6.560  47.279 -33.067  1.00  0.00     0.151 C 
HETATM   34  O2  UNL     1      -7.514  47.853 -33.562  1.00  0.00    -0.649 OA
BRANCH  33  35
HETATM   35  O3  UNL     1      -5.610  46.793 -33.888  1.00  0.00    -0.776 OA
HETATM   36  H40 UNL     1      -5.958  47.000 -34.783  1.00  0.00     0.167 HD
ENDBRANCH  33  35
ENDBRANCH  18  33
BRANCH  20  37
HETATM   37  O4  UNL     1      -4.673  48.919 -31.215  1.00  0.00    -0.394 OA
HETATM   38  H42 UNL     1      -4.587  49.833 -30.887  1.00  0.00     0.210 HD
ENDBRANCH  20  37
TORSDOF 8
ENDMDL
MODEL 6
REMARK minimizedAffinity -7.91181517
REMARK CNNscore 0.35870412
REMARK CNNaffinity 6.25793886
REMARK  8 active torsions:
REMARK  status: ('A' for Active; 'I' for Inactive)
REMARK    1  A    between atoms: C4_4  and  C5_5 
REMARK    2  A    between atoms: C5_5  and  C6_6 
REMARK    3  A    between atoms: C6_6  and  C7_7 
REMARK    4  A    between atoms: C7_7  and  C9_9 
REMARK    5  A    between atoms: C25_26  and  C27_28 
REMARK    6  A    between atoms: C27_28  and  O3_30 
REMARK    7  A    between atoms: C28_31  and  O4_32 
REMARK    8  A    between atoms: C30_34  and  O5_35 
ROOT
HETATM    1  C9  UNL     1      -3.943  49.306 -20.810  1.00  0.00    -0.002 C 
HETATM    2  C10 UNL     1      -4.755  48.953 -19.531  1.00  0.00     0.007 C 
HETATM    3  C11 UNL     1      -6.054  48.265 -19.991  1.00  0.00     0.015 C 
HETATM    4  C12 UNL     1      -5.806  47.872 -21.460  1.00  0.00    -0.005 C 
HETATM    5  C13 UNL     1      -5.003  46.532 -21.446  1.00  0.00     0.021 C 
HETATM    6  C14 UNL     1      -6.975  47.600 -22.404  1.00  0.00    -0.000 C 
HETATM    7  C15 UNL     1      -6.867  47.827 -23.741  1.00  0.00    -0.058 C 
HETATM    8  C16 UNL     1      -5.578  48.436 -24.323  1.00  0.00     0.036 C 
HETATM    9  C17 UNL     1      -4.456  48.827 -23.341  1.00  0.00     0.015 C 
HETATM   10  C18 UNL     1      -5.000  49.145 -21.948  1.00  0.00    -0.028 C 
HETATM   11  C19 UNL     1      -5.895  50.413 -22.056  1.00  0.00     0.016 C 
HETATM   12  C20 UNL     1      -8.022  47.553 -24.760  1.00  0.00     0.011 C 
HETATM   13  C21 UNL     1      -8.694  48.928 -24.989  1.00  0.00     0.023 C 
HETATM   14  C22 UNL     1      -8.989  46.482 -24.154  1.00  0.00     0.029 C 
HETATM   15  C23 UNL     1      -9.428  46.851 -22.736  1.00  0.00     0.090 C 
HETATM   16  C24 UNL     1      -8.244  47.051 -21.827  1.00  0.00     0.157 C 
HETATM   17  O1  UNL     1      -8.352  46.813 -20.624  1.00  0.00    -0.293 OA
HETATM   18  C25 UNL     1     -10.184  46.011 -25.071  1.00  0.00     0.072 C 
HETATM   19  C26 UNL     1     -10.412  44.494 -24.813  1.00  0.00     0.030 C 
HETATM   20  C28 UNL     1      -9.884  46.260 -26.574  1.00  0.00     0.139 C 
HETATM   21  C29 UNL     1      -8.410  46.060 -26.905  1.00  0.00     0.065 C 
HETATM   22  C30 UNL     1      -7.459  46.956 -26.105  1.00  0.00     0.133 C 
ENDROOT
BRANCH   1  23
HETATM   23  C7  UNL     1      -3.046  50.565 -20.616  1.00  0.00    -0.014 C 
HETATM   24  C8  UNL     1      -2.819  51.436 -21.861  1.00  0.00     0.010 C 
BRANCH  23  25
HETATM   25  C6  UNL     1      -1.674  50.312 -19.943  1.00  0.00     0.008 C 
BRANCH  25  26
HETATM   26  C5  UNL     1      -0.446  50.486 -20.853  1.00  0.00     0.028 C 
BRANCH  26  27
HETATM   27  C4  UNL     1       0.339  51.741 -20.607  1.00  0.00    -0.025 C 
HETATM   28  C2  UNL     1       0.777  52.640 -21.512  1.00  0.00    -0.091 C 
HETATM   29  C1  UNL     1       0.566  52.551 -22.999  1.00  0.00     0.042 C 
HETATM   30  C3  UNL     1       1.530  53.868 -21.070  1.00  0.00     0.042 C 
ENDBRANCH  26  27
ENDBRANCH  25  26
ENDBRANCH  23  25
ENDBRANCH   1  23
BRANCH  22  31
HETATM   31  O5  UNL     1      -6.958  47.976 -26.976  1.00  0.00    -0.394 OA
HETATM   32  H46 UNL     1      -7.706  48.487 -27.330  1.00  0.00     0.210 HD
ENDBRANCH  22  31
BRANCH  18  33
HETATM   33  C27 UNL     1     -11.502  46.709 -24.716  1.00  0.00     0.151 C 
HETATM   34  O2  UNL     1     -12.254  46.450 -23.794  1.00  0.00    -0.649 OA
BRANCH  33  35
HETATM   35  O3  UNL     1     -11.799  47.755 -25.511  1.00  0.00    -0.776 OA
HETATM   36  H40 UNL     1     -12.656  48.074 -25.151  1.00  0.00     0.167 HD
ENDBRANCH  33  35
ENDBRANCH  18  33
BRANCH  20  37
HETATM   37  O4  UNL     1     -10.653  45.378 -27.398  1.00  0.00    -0.394 OA
HETATM   38  H42 UNL     1     -10.515  45.635 -28.327  1.00  0.00     0.210 HD
ENDBRANCH  20  37
TORSDOF 8
ENDMDL
MODEL 7
REMARK minimizedAffinity -7.80214882
REMARK CNNscore 0.346388519
REMARK CNNaffinity 6.5629921
REMARK  8 active torsions:
REMARK  status: ('A' for Active; 'I' for Inactive)
REMARK    1  A    between atoms: C4_4  and  C5_5 
REMARK    2  A    between atoms: C5_5  and  C6_6 
REMARK    3  A    between atoms: C6_6  and  C7_7 
REMARK    4  A    between atoms: C7_7  and  C9_9 
REMARK    5  A    between atoms: C25_26  and  C27_28 
REMARK    6  A    between atoms: C27_28  and  O3_30 
REMARK    7  A    between atoms: C28_31  and  O4_32 
REMARK    8  A    between atoms: C30_34  and  O5_35 
ROOT
HETATM    1  C9  UNL     1      -2.398  50.862 -23.445  1.00  0.00    -0.002 C 
HETATM    2  C10 UNL     1      -2.123  51.955 -22.373  1.00  0.00     0.007 C 
HETATM    3  C11 UNL     1      -2.373  51.314 -20.995  1.00  0.00     0.015 C 
HETATM    4  C12 UNL     1      -2.394  49.795 -21.252  1.00  0.00    -0.005 C 
HETATM    5  C13 UNL     1      -0.907  49.318 -21.297  1.00  0.00     0.021 C 
HETATM    6  C14 UNL     1      -3.064  48.843 -20.264  1.00  0.00    -0.000 C 
HETATM    7  C15 UNL     1      -3.613  47.670 -20.678  1.00  0.00    -0.058 C 
HETATM    8  C16 UNL     1      -3.632  47.308 -22.175  1.00  0.00     0.036 C 
HETATM    9  C17 UNL     1      -3.069  48.337 -23.174  1.00  0.00     0.015 C 
HETATM   10  C18 UNL     1      -3.162  49.766 -22.637  1.00  0.00    -0.028 C 
HETATM   11  C19 UNL     1      -4.667  50.132 -22.494  1.00  0.00     0.016 C 
HETATM   12  C20 UNL     1      -4.297  46.647 -19.712  1.00  0.00     0.011 C 
HETATM   13  C21 UNL     1      -5.814  46.933 -19.831  1.00  0.00     0.023 C 
HETATM   14  C22 UNL     1      -3.737  46.861 -18.266  1.00  0.00     0.029 C 
HETATM   15  C23 UNL     1      -3.809  48.329 -17.841  1.00  0.00     0.090 C 
HETATM   16  C24 UNL     1      -3.085  49.222 -18.814  1.00  0.00     0.157 C 
HETATM   17  O1  UNL     1      -2.570  50.266 -18.415  1.00  0.00    -0.293 OA
HETATM   18  C25 UNL     1      -4.252  45.867 -17.155  1.00  0.00     0.072 C 
HETATM   19  C26 UNL     1      -3.069  45.581 -16.187  1.00  0.00     0.030 C 
HETATM   20  C28 UNL     1      -4.773  44.540 -17.772  1.00  0.00     0.139 C 
HETATM   21  C29 UNL     1      -3.969  44.124 -18.998  1.00  0.00     0.065 C 
HETATM   22  C30 UNL     1      -3.956  45.166 -20.123  1.00  0.00     0.133 C 
ENDROOT
BRANCH   1  23
HETATM   23  C7  UNL     1      -2.894  51.464 -24.794  1.00  0.00    -0.014 C 
HETATM   24  C8  UNL     1      -3.488  50.471 -25.804  1.00  0.00     0.010 C 
BRANCH  23  25
HETATM   25  C6  UNL     1      -1.877  52.365 -25.539  1.00  0.00     0.008 C 
BRANCH  25  26
HETATM   26  C5  UNL     1      -1.438  51.866 -26.926  1.00  0.00     0.028 C 
BRANCH  26  27
HETATM   27  C4  UNL     1       0.020  51.528 -27.035  1.00  0.00    -0.025 C 
HETATM   28  C2  UNL     1       0.990  51.724 -26.120  1.00  0.00    -0.091 C 
HETATM   29  C1  UNL     1       0.796  52.351 -24.767  1.00  0.00     0.042 C 
HETATM   30  C3  UNL     1       2.405  51.287 -26.399  1.00  0.00     0.042 C 
ENDBRANCH  26  27
ENDBRANCH  25  26
ENDBRANCH  23  25
ENDBRANCH   1  23
BRANCH  22  31
HETATM   31  O5  UNL     1      -4.795  44.696 -21.184  1.00  0.00    -0.394 OA
HETATM   32  H46 UNL     1      -5.695  44.562 -20.841  1.00  0.00     0.210 HD
ENDBRANCH  22  31
BRANCH  18  33
HETATM   33  C27 UNL     1      -5.368  46.476 -16.299  1.00  0.00     0.151 C 
HETATM   34  O2  UNL     1      -6.549  46.575 -16.581  1.00  0.00    -0.649 OA
BRANCH  33  35
HETATM   35  O3  UNL     1      -4.963  46.891 -15.084  1.00  0.00    -0.776 OA
HETATM   36  H40 UNL     1      -5.786  47.247 -14.682  1.00  0.00     0.167 HD
ENDBRANCH  33  35
ENDBRANCH  18  33
BRANCH  20  37
HETATM   37  O4  UNL     1      -4.713  43.478 -16.815  1.00  0.00    -0.394 OA
HETATM   38  H42 UNL     1      -5.142  42.695 -17.205  1.00  0.00     0.210 HD
ENDBRANCH  20  37
TORSDOF 8
ENDMDL
MODEL 8
REMARK minimizedAffinity -8.27557564
REMARK CNNscore 0.323820353
REMARK CNNaffinity 6.33371019
REMARK  8 active torsions:
REMARK  status: ('A' for Active; 'I' for Inactive)
REMARK    1  A    between atoms: C4_4  and  C5_5 
REMARK    2  A    between atoms: C5_5  and  C6_6 
REMARK    3  A    between atoms: C6_6  and  C7_7 
REMARK    4  A    between atoms: C7_7  and  C9_9 
REMARK    5  A    between atoms: C25_26  and  C27_28 
REMARK    6  A    between atoms: C27_28  and  O3_30 
REMARK    7  A    between atoms: C28_31  and  O4_32 
REMARK    8  A    between atoms: C30_34  and  O5_35 
ROOT
HETATM    1  C9  UNL     1      -0.988  50.434 -21.837  1.00  0.00    -0.002 C 
HETATM    2  C10 UNL     1      -0.749  49.851 -20.414  1.00  0.00     0.007 C 
HETATM    3  C11 UNL     1      -1.931  48.913 -20.102  1.00  0.00     0.015 C 
HETATM    4  C12 UNL     1      -2.612  48.653 -21.461  1.00  0.00    -0.005 C 
HETATM    5  C13 UNL     1      -1.797  47.527 -22.173  1.00  0.00     0.021 C 
HETATM    6  C14 UNL     1      -4.059  48.172 -21.530  1.00  0.00    -0.000 C 
HETATM    7  C15 UNL     1      -4.853  48.479 -22.591  1.00  0.00    -0.058 C 
HETATM    8  C16 UNL     1      -4.325  49.386 -23.718  1.00  0.00     0.036 C 
HETATM    9  C17 UNL     1      -2.907  49.971 -23.570  1.00  0.00     0.015 C 
HETATM   10  C18 UNL     1      -2.488  50.095 -22.104  1.00  0.00    -0.028 C 
HETATM   11  C19 UNL     1      -3.421  51.136 -21.422  1.00  0.00     0.016 C 
HETATM   12  C20 UNL     1      -6.336  48.002 -22.727  1.00  0.00     0.011 C 
HETATM   13  C21 UNL     1      -7.191  49.203 -22.255  1.00  0.00     0.023 C 
HETATM   14  C22 UNL     1      -6.538  46.716 -21.859  1.00  0.00     0.029 C 
HETATM   15  C23 UNL     1      -6.031  46.912 -20.428  1.00  0.00     0.090 C 
HETATM   16  C24 UNL     1      -4.584  47.329 -20.408  1.00  0.00     0.157 C 
HETATM   17  O1  UNL     1      -3.874  47.017 -19.452  1.00  0.00    -0.293 OA
HETATM   18  C25 UNL     1      -7.959  46.034 -21.925  1.00  0.00     0.072 C 
HETATM   19  C26 UNL     1      -7.752  44.495 -21.853  1.00  0.00     0.030 C 
HETATM   20  C28 UNL     1      -8.714  46.413 -23.229  1.00  0.00     0.139 C 
HETATM   21  C29 UNL     1      -7.770  46.561 -24.416  1.00  0.00     0.065 C 
HETATM   22  C30 UNL     1      -6.669  47.609 -24.216  1.00  0.00     0.133 C 
ENDROOT
BRANCH   1  23
HETATM   23  C7  UNL     1      -0.364  51.851 -22.011  1.00  0.00    -0.014 C 
HETATM   24  C8  UNL     1       0.152  52.199 -23.415  1.00  0.00     0.010 C 
BRANCH  23  25
HETATM   25  C6  UNL     1       0.732  52.230 -20.983  1.00  0.00     0.008 C 
BRANCH  25  26
HETATM   26  C5  UNL     1       0.254  53.053 -19.775  1.00  0.00     0.028 C 
BRANCH  26  27
HETATM   27  C4  UNL     1       1.200  53.059 -18.610  1.00  0.00    -0.025 C 
HETATM   28  C2  UNL     1       1.153  52.301 -17.495  1.00  0.00    -0.091 C 
HETATM   29  C1  UNL     1       0.100  51.273 -17.186  1.00  0.00     0.042 C 
HETATM   30  C3  UNL     1       2.220  52.427 -16.439  1.00  0.00     0.042 C 
ENDBRANCH  26  27
ENDBRANCH  25  26
ENDBRANCH  23  25
ENDBRANCH   1  23
BRANCH  22  31
HETATM   31  O5  UNL     1      -6.983  48.753 -25.016  1.00  0.00    -0.394 OA
HETATM   32  H46 UNL     1      -7.851  49.101 -24.747  1.00  0.00     0.210 HD
ENDBRANCH  22  31
BRANCH  18  33
HETATM   33  C27 UNL     1      -8.841  46.405 -20.728  1.00  0.00     0.151 C 
HETATM   34  O2  UNL     1      -8.953  45.804 -19.673  1.00  0.00    -0.649 OA
BRANCH  33  35
HETATM   35  O3  UNL     1      -9.515  47.561 -20.880  1.00  0.00    -0.776 OA
HETATM   36  H40 UNL     1     -10.018  47.640 -20.040  1.00  0.00     0.167 HD
ENDBRANCH  33  35
ENDBRANCH  18  33
BRANCH  20  37
HETATM   37  O4  UNL     1      -9.693  45.421 -23.554  1.00  0.00    -0.394 OA
HETATM   38  H42 UNL     1     -10.210  45.746 -24.313  1.00  0.00     0.210 HD
ENDBRANCH  20  37
TORSDOF 8
ENDMDL
MODEL 9
REMARK minimizedAffinity -7.42501545
REMARK CNNscore 0.319838971
REMARK CNNaffinity 5.99510956
REMARK  8 active torsions:
REMARK  status: ('A' for Active; 'I' for Inactive)
REMARK    1  A    between atoms: C4_4  and  C5_5 
REMARK    2  A    between atoms: C5_5  and  C6_6 
REMARK    3  A    between atoms: C6_6  and  C7_7 
REMARK    4  A    between atoms: C7_7  and  C9_9 
REMARK    5  A    between atoms: C25_26  and  C27_28 
REMARK    6  A    between atoms: C27_28  and  O3_30 
REMARK    7  A    between atoms: C28_31  and  O4_32 
REMARK    8  A    between atoms: C30_34  and  O5_35 
ROOT
HETATM    1  C9  UNL     1     -12.721  43.795 -27.744  1.00  0.00    -0.002 C 
HETATM    2  C10 UNL     1     -12.604  42.600 -28.733  1.00  0.00     0.007 C 
HETATM    3  C11 UNL     1     -11.401  42.886 -29.651  1.00  0.00     0.015 C 
HETATM    4  C12 UNL     1     -10.611  44.008 -28.949  1.00  0.00    -0.005 C 
HETATM    5  C13 UNL     1      -9.723  43.328 -27.858  1.00  0.00     0.021 C 
HETATM    6  C14 UNL     1      -9.639  44.888 -29.730  1.00  0.00    -0.000 C 
HETATM    7  C15 UNL     1      -9.390  46.170 -29.352  1.00  0.00    -0.058 C 
HETATM    8  C16 UNL     1     -10.144  46.787 -28.159  1.00  0.00     0.036 C 
HETATM    9  C17 UNL     1     -11.217  45.930 -27.461  1.00  0.00     0.015 C 
HETATM   10  C18 UNL     1     -11.814  44.881 -28.402  1.00  0.00    -0.028 C 
HETATM   11  C19 UNL     1     -12.575  45.627 -29.535  1.00  0.00     0.016 C 
HETATM   12  C20 UNL     1      -8.393  47.114 -30.101  1.00  0.00     0.011 C 
HETATM   13  C21 UNL     1      -9.279  47.985 -31.025  1.00  0.00     0.023 C 
HETATM   14  C22 UNL     1      -7.355  46.240 -30.880  1.00  0.00     0.029 C 
HETATM   15  C23 UNL     1      -8.040  45.178 -31.742  1.00  0.00     0.090 C 
HETATM   16  C24 UNL     1      -8.943  44.298 -30.918  1.00  0.00     0.157 C 
HETATM   17  O1  UNL     1      -9.134  43.131 -31.261  1.00  0.00    -0.293 OA
HETATM   18  C25 UNL     1      -6.211  47.014 -31.643  1.00  0.00     0.072 C 
HETATM   19  C26 UNL     1      -4.909  46.172 -31.530  1.00  0.00     0.030 C 
HETATM   20  C28 UNL     1      -5.985  48.431 -31.048  1.00  0.00     0.139 C 
HETATM   21  C29 UNL     1      -6.189  48.458 -29.538  1.00  0.00     0.065 C 
HETATM   22  C30 UNL     1      -7.579  47.999 -29.084  1.00  0.00     0.133 C 
ENDROOT
BRANCH   1  23
HETATM   23  C7  UNL     1     -14.189  44.040 -27.280  1.00  0.00    -0.014 C 
HETATM   24  C8  UNL     1     -15.027  44.990 -28.150  1.00  0.00     0.010 C 
BRANCH  23  25
HETATM   25  C6  UNL     1     -14.362  44.459 -25.798  1.00  0.00     0.008 C 
BRANCH  25  26
HETATM   26  C5  UNL     1     -15.015  45.833 -25.568  1.00  0.00     0.028 C 
BRANCH  26  27
HETATM   27  C4  UNL     1     -14.580  46.526 -24.310  1.00  0.00    -0.025 C 
HETATM   28  C2  UNL     1     -15.299  46.753 -23.193  1.00  0.00    -0.091 C 
HETATM   29  C1  UNL     1     -16.733  46.349 -22.985  1.00  0.00     0.042 C 
HETATM   30  C3  UNL     1     -14.676  47.444 -22.008  1.00  0.00     0.042 C 
ENDBRANCH  26  27
ENDBRANCH  25  26
ENDBRANCH  23  25
ENDBRANCH   1  23
BRANCH  22  31
HETATM   31  O5  UNL     1      -8.319  49.148 -28.659  1.00  0.00    -0.394 OA
HETATM   32  H46 UNL     1      -8.383  49.776 -29.399  1.00  0.00     0.210 HD
ENDBRANCH  22  31
BRANCH  18  33
HETATM   33  C27 UNL     1      -6.501  47.157 -33.141  1.00  0.00     0.151 C 
HETATM   34  O2  UNL     1      -7.544  47.507 -33.665  1.00  0.00    -0.649 OA
BRANCH  33  35
HETATM   35  O3  UNL     1      -5.440  46.906 -33.932  1.00  0.00    -0.776 OA
HETATM   36  H40 UNL     1      -5.798  47.039 -34.837  1.00  0.00     0.167 HD
ENDBRANCH  33  35
ENDBRANCH  18  33
BRANCH  20  37
HETATM   37  O4  UNL     1      -4.661  48.895 -31.331  1.00  0.00    -0.394 OA
HETATM   38  H42 UNL     1      -4.596  49.821 -31.034  1.00  0.00     0.210 HD
ENDBRANCH  20  37
TORSDOF 8
ENDMDL
