MODEL 1
REMARK minimizedAffinity -7.95933676
REMARK CNNscore 0.427240789
REMARK CNNaffinity 6.42824936
REMARK  10 active torsions:
REMARK  status: ('A' for Active; 'I' for Inactive)
REMARK    1  A    between atoms: C2_2  and  C4_4 
REMARK    2  A    between atoms: C7_7  and  C8_8 
REMARK    3  A    between atoms: C8_8  and  O2_10 
REMARK    4  A    between atoms: C21_23  and  O3_24 
REMARK    5  A    between atoms: O3_24  and  C22_25 
REMARK    6  A    between atoms: C24_28  and  O5_29 
REMARK    7  A    between atoms: C25_30  and  O6_31 
REMARK    8  A    between atoms: C26_32  and  O7_33 
REMARK    9  A    between atoms: C27_34  and  C29_36 
REMARK   10  A    between atoms: C29_36  and  O8_37 
ROOT
HETATM    1  C4  UNL     1     -13.568   8.320  13.375  1.00  0.00     0.019 C 
HETATM    2  C5  UNL     1     -13.778   9.805  12.973  1.00  0.00     0.011 C 
HETATM    3  C6  UNL     1     -15.282  10.103  13.122  1.00  0.00     0.021 C 
HETATM    4  C7  UNL     1     -15.951   8.727  13.052  1.00  0.00     0.050 C 
HETATM    5  C9  UNL     1     -17.340   8.630  13.698  1.00  0.00     0.022 C 
HETATM    6  C10 UNL     1     -17.808   7.160  13.755  1.00  0.00     0.011 C 
HETATM    7  C11 UNL     1     -16.817   6.175  14.479  1.00  0.00    -0.032 C 
HETATM    8  C12 UNL     1     -16.865   6.571  15.988  1.00  0.00     0.016 C 
HETATM    9  C13 UNL     1     -15.360   6.393  13.892  1.00  0.00     0.000 C 
HETATM   10  C14 UNL     1     -14.332   5.467  14.553  1.00  0.00     0.006 C 
HETATM   11  C15 UNL     1     -14.712   3.996  14.386  1.00  0.00     0.006 C 
HETATM   12  C16 UNL     1     -16.121   3.680  14.935  1.00  0.00     0.003 C 
HETATM   13  C17 UNL     1     -16.449   2.119  15.031  1.00  0.00    -0.035 C 
HETATM   14  C18 UNL     1     -16.381   1.431  13.647  1.00  0.00     0.016 C 
HETATM   15  C19 UNL     1     -15.373   1.444  15.950  1.00  0.00     0.012 C 
HETATM   16  C20 UNL     1     -15.881   0.347  16.894  1.00  0.00     0.034 C 
HETATM   17  C21 UNL     1     -17.074  -0.445  16.367  1.00  0.00     0.135 C 
HETATM   18  C27 UNL     1     -18.301   0.491  16.079  1.00  0.00     0.008 C 
HETATM   19  C28 UNL     1     -19.207  -0.143  14.998  1.00  0.00     0.020 C 
HETATM   20  C30 UNL     1     -17.849   1.967  15.724  1.00  0.00     0.007 C 
HETATM   21  C31 UNL     1     -18.941   2.794  15.010  1.00  0.00     0.007 C 
HETATM   22  C32 UNL     1     -18.589   4.286  14.970  1.00  0.00     0.011 C 
HETATM   23  C33 UNL     1     -17.232   4.607  14.281  1.00  0.00    -0.032 C 
HETATM   24  C34 UNL     1     -17.412   4.304  12.763  1.00  0.00     0.016 C 
HETATM   25  C35 UNL     1     -14.962   7.888  13.899  1.00  0.00     0.017 C 
ENDROOT
BRANCH  17  26
HETATM   26  O3  UNL     1     -16.733  -1.179  15.187  1.00  0.00    -0.352 OA
BRANCH  26  27
HETATM   27  C22 UNL     1     -16.358  -2.541  15.398  1.00  0.00     0.291 C 
HETATM   28  O4  UNL     1     -15.204  -2.650  16.231  1.00  0.00    -0.356 OA
HETATM   29  C23 UNL     1     -13.979  -2.517  15.512  1.00  0.00     0.205 C 
HETATM   30  C24 UNL     1     -13.778  -3.658  14.506  1.00  0.00     0.173 C 
HETATM   31  C25 UNL     1     -15.118  -4.258  14.059  1.00  0.00     0.182 C 
HETATM   32  C26 UNL     1     -16.178  -3.167  13.995  1.00  0.00     0.204 C 
BRANCH  30  33
HETATM   33  O5  UNL     1     -13.061  -3.161  13.366  1.00  0.00    -0.391 OA
HETATM   34  H37 UNL     1     -13.286  -3.786  12.641  1.00  0.00     0.210 HD
ENDBRANCH  30  33
BRANCH  31  35
HETATM   35  O6  UNL     1     -14.954  -4.875  12.769  1.00  0.00    -0.390 OA
HETATM   36  H39 UNL     1     -15.869  -5.091  12.484  1.00  0.00     0.210 HD
ENDBRANCH  31  35
BRANCH  32  37
HETATM   37  O7  UNL     1     -17.414  -3.728  13.505  1.00  0.00    -0.388 OA
HETATM   38  H41 UNL     1     -18.099  -3.060  13.687  1.00  0.00     0.210 HD
ENDBRANCH  32  37
ENDBRANCH  26  27
ENDBRANCH  17  26
BRANCH  18  39
HETATM   39  C29 UNL     1     -19.150   0.582  17.393  1.00  0.00     0.176 C 
BRANCH  39  40
HETATM   40  O8  UNL     1     -19.117  -0.634  18.137  1.00  0.00    -0.400 OA
HETATM   41  H47 UNL     1     -19.875  -1.171  17.846  1.00  0.00     0.209 HD
ENDBRANCH  39  40
ENDBRANCH  18  39
BRANCH   1  42
HETATM   42  C2  UNL     1     -12.352   8.176  14.280  1.00  0.00    -0.088 C 
HETATM   43  C1  UNL     1     -11.217   7.530  13.956  1.00  0.00     0.014 C 
HETATM   44  C3  UNL     1     -12.484   8.854  15.622  1.00  0.00     0.043 C 
ENDBRANCH   1  42
BRANCH   4  45
HETATM   45  C8  UNL     1     -16.041   8.350  11.566  1.00  0.00     0.149 C 
HETATM   46  O1  UNL     1     -16.422   9.044  10.638  1.00  0.00    -0.649 OA
BRANCH  45  47
HETATM   47  O2  UNL     1     -15.686   7.068  11.324  1.00  0.00    -0.776 OA
HETATM   48  H11 UNL     1     -15.815   6.974  10.359  1.00  0.00     0.167 HD
ENDBRANCH  45  47
ENDBRANCH   4  45
TORSDOF 10
ENDMDL
MODEL 2
REMARK minimizedAffinity -6.06897736
REMARK CNNscore 0.270293713
REMARK CNNaffinity 6.33332491
REMARK  10 active torsions:
REMARK  status: ('A' for Active; 'I' for Inactive)
REMARK    1  A    between atoms: C2_2  and  C4_4 
REMARK    2  A    between atoms: C7_7  and  C8_8 
REMARK    3  A    between atoms: C8_8  and  O2_10 
REMARK    4  A    between atoms: C21_23  and  O3_24 
REMARK    5  A    between atoms: O3_24  and  C22_25 
REMARK    6  A    between atoms: C24_28  and  O5_29 
REMARK    7  A    between atoms: C25_30  and  O6_31 
REMARK    8  A    between atoms: C26_32  and  O7_33 
REMARK    9  A    between atoms: C27_34  and  C29_36 
REMARK   10  A    between atoms: C29_36  and  O8_37 
ROOT
HETATM    1  C4  UNL     1      -4.903 -11.169   6.393  1.00  0.00     0.019 C 
HETATM    2  C5  UNL     1      -3.744 -11.812   7.202  1.00  0.00     0.011 C 
HETATM    3  C6  UNL     1      -2.699 -12.298   6.180  1.00  0.00     0.021 C 
HETATM    4  C7  UNL     1      -3.482 -12.441   4.872  1.00  0.00     0.050 C 
HETATM    5  C9  UNL     1      -2.648 -12.376   3.586  1.00  0.00     0.022 C 
HETATM    6  C10 UNL     1      -3.566 -12.312   2.348  1.00  0.00     0.011 C 
HETATM    7  C11 UNL     1      -4.614 -11.139   2.357  1.00  0.00    -0.032 C 
HETATM    8  C12 UNL     1      -3.777  -9.832   2.187  1.00  0.00     0.016 C 
HETATM    9  C13 UNL     1      -5.368 -11.139   3.752  1.00  0.00     0.000 C 
HETATM   10  C14 UNL     1      -6.408 -10.016   3.840  1.00  0.00     0.006 C 
HETATM   11  C15 UNL     1      -7.446 -10.123   2.723  1.00  0.00     0.006 C 
HETATM   12  C16 UNL     1      -6.806 -10.126   1.317  1.00  0.00     0.003 C 
HETATM   13  C17 UNL     1      -7.856  -9.960   0.123  1.00  0.00    -0.035 C 
HETATM   14  C18 UNL     1      -8.894 -11.107   0.108  1.00  0.00     0.016 C 
HETATM   15  C19 UNL     1      -8.636  -8.616   0.333  1.00  0.00     0.012 C 
HETATM   16  C20 UNL     1      -8.945  -7.808  -0.933  1.00  0.00     0.034 C 
HETATM   17  C21 UNL     1      -9.148  -8.647  -2.191  1.00  0.00     0.135 C 
HETATM   18  C27 UNL     1      -7.877  -9.507  -2.518  1.00  0.00     0.008 C 
HETATM   19  C28 UNL     1      -8.281 -10.762  -3.326  1.00  0.00     0.020 C 
HETATM   20  C30 UNL     1      -7.043  -9.850  -1.215  1.00  0.00     0.007 C 
HETATM   21  C31 UNL     1      -6.067 -11.034  -1.399  1.00  0.00     0.007 C 
HETATM   22  C32 UNL     1      -5.067 -11.129  -0.240  1.00  0.00     0.011 C 
HETATM   23  C33 UNL     1      -5.721 -11.274   1.163  1.00  0.00    -0.032 C 
HETATM   24  C34 UNL     1      -6.371 -12.689   1.215  1.00  0.00     0.016 C 
HETATM   25  C35 UNL     1      -4.373 -11.174   4.936  1.00  0.00     0.017 C 
ENDROOT
BRANCH  17  26
HETATM   26  O3  UNL     1     -10.294  -9.495  -2.073  1.00  0.00    -0.352 OA
BRANCH  26  27
HETATM   27  C22 UNL     1     -11.440  -9.088  -2.822  1.00  0.00     0.291 C 
HETATM   28  O4  UNL     1     -12.038  -7.911  -2.278  1.00  0.00    -0.356 OA
HETATM   29  C23 UNL     1     -12.942  -8.183  -1.210  1.00  0.00     0.205 C 
HETATM   30  C24 UNL     1     -14.159  -8.991  -1.680  1.00  0.00     0.173 C 
HETATM   31  C25 UNL     1     -13.832  -9.825  -2.927  1.00  0.00     0.182 C 
HETATM   32  C26 UNL     1     -12.390 -10.308  -2.865  1.00  0.00     0.204 C 
BRANCH  30  33
HETATM   33  O5  UNL     1     -14.594  -9.853  -0.618  1.00  0.00    -0.391 OA
HETATM   34  H37 UNL     1     -15.089 -10.571  -1.070  1.00  0.00     0.210 HD
ENDBRANCH  30  33
BRANCH  31  35
HETATM   35  O6  UNL     1     -14.735 -10.944  -2.998  1.00  0.00    -0.390 OA
HETATM   36  H39 UNL     1     -14.369 -11.507  -3.716  1.00  0.00     0.210 HD
ENDBRANCH  31  35
BRANCH  32  37
HETATM   37  O7  UNL     1     -12.117 -11.149  -4.006  1.00  0.00    -0.388 OA
HETATM   38  H41 UNL     1     -11.148 -11.249  -4.035  1.00  0.00     0.210 HD
ENDBRANCH  32  37
ENDBRANCH  26  27
ENDBRANCH  17  26
BRANCH  18  39
HETATM   39  C29 UNL     1      -6.943  -8.649  -3.438  1.00  0.00     0.176 C 
BRANCH  39  40
HETATM   40  O8  UNL     1      -6.978  -9.088  -4.795  1.00  0.00    -0.400 OA
HETATM   41  H47 UNL     1      -6.263  -9.740  -4.906  1.00  0.00     0.209 HD
ENDBRANCH  39  40
ENDBRANCH  18  39
BRANCH   1  42
HETATM   42  C2  UNL     1      -5.335  -9.854   7.027  1.00  0.00    -0.088 C 
HETATM   43  C1  UNL     1      -6.477  -9.197   6.750  1.00  0.00     0.014 C 
HETATM   44  C3  UNL     1      -4.375  -9.308   8.057  1.00  0.00     0.043 C 
ENDBRANCH   1  42
BRANCH   4  45
HETATM   45  C8  UNL     1      -4.227 -13.782   4.942  1.00  0.00     0.149 C 
HETATM   46  O1  UNL     1      -5.420 -13.986   4.788  1.00  0.00    -0.649 OA
BRANCH  45  47
HETATM   47  O2  UNL     1      -3.420 -14.818   5.264  1.00  0.00    -0.776 OA
HETATM   48  H11 UNL     1      -4.031 -15.582   5.292  1.00  0.00     0.167 HD
ENDBRANCH  45  47
ENDBRANCH   4  45
TORSDOF 10
ENDMDL
MODEL 3
REMARK minimizedAffinity -5.90828609
REMARK CNNscore 0.26890853
REMARK CNNaffinity 6.04647207
REMARK  10 active torsions:
REMARK  status: ('A' for Active; 'I' for Inactive)
REMARK    1  A    between atoms: C2_2  and  C4_4 
REMARK    2  A    between atoms: C7_7  and  C8_8 
REMARK    3  A    between atoms: C8_8  and  O2_10 
REMARK    4  A    between atoms: C21_23  and  O3_24 
REMARK    5  A    between atoms: O3_24  and  C22_25 
REMARK    6  A    between atoms: C24_28  and  O5_29 
REMARK    7  A    between atoms: C25_30  and  O6_31 
REMARK    8  A    between atoms: C26_32  and  O7_33 
REMARK    9  A    between atoms: C27_34  and  C29_36 
REMARK   10  A    between atoms: C29_36  and  O8_37 
ROOT
HETATM    1  C4  UNL     1      -6.605  17.489   3.204  1.00  0.00     0.019 C 
HETATM    2  C5  UNL     1      -5.927  17.894   4.541  1.00  0.00     0.011 C 
HETATM    3  C6  UNL     1      -6.769  17.282   5.676  1.00  0.00     0.021 C 
HETATM    4  C7  UNL     1      -8.143  17.042   5.044  1.00  0.00     0.050 C 
HETATM    5  C9  UNL     1      -9.009  15.973   5.723  1.00  0.00     0.022 C 
HETATM    6  C10 UNL     1     -10.262  15.672   4.874  1.00  0.00     0.011 C 
HETATM    7  C11 UNL     1      -9.971  15.251   3.387  1.00  0.00    -0.032 C 
HETATM    8  C12 UNL     1      -9.315  13.837   3.476  1.00  0.00     0.016 C 
HETATM    9  C13 UNL     1      -8.962  16.294   2.748  1.00  0.00     0.000 C 
HETATM   10  C14 UNL     1      -8.625  15.946   1.293  1.00  0.00     0.006 C 
HETATM   11  C15 UNL     1      -9.882  15.887   0.424  1.00  0.00     0.006 C 
HETATM   12  C16 UNL     1     -10.929  14.889   0.964  1.00  0.00     0.003 C 
HETATM   13  C17 UNL     1     -12.129  14.591  -0.048  1.00  0.00    -0.035 C 
HETATM   14  C18 UNL     1     -12.921  15.875  -0.395  1.00  0.00     0.016 C 
HETATM   15  C19 UNL     1     -11.523  14.033  -1.383  1.00  0.00     0.012 C 
HETATM   16  C20 UNL     1     -12.310  12.907  -2.065  1.00  0.00     0.034 C 
HETATM   17  C21 UNL     1     -13.820  12.963  -1.849  1.00  0.00     0.135 C 
HETATM   18  C27 UNL     1     -14.184  12.894  -0.324  1.00  0.00     0.008 C 
HETATM   19  C28 UNL     1     -15.549  13.578  -0.075  1.00  0.00     0.020 C 
HETATM   20  C30 UNL     1     -13.025  13.471   0.588  1.00  0.00     0.007 C 
HETATM   21  C31 UNL     1     -13.487  13.841   2.016  1.00  0.00     0.007 C 
HETATM   22  C32 UNL     1     -12.297  14.088   2.951  1.00  0.00     0.011 C 
HETATM   23  C33 UNL     1     -11.323  15.201   2.470  1.00  0.00    -0.032 C 
HETATM   24  C34 UNL     1     -12.086  16.554   2.595  1.00  0.00     0.016 C 
HETATM   25  C35 UNL     1      -7.724  16.512   3.649  1.00  0.00     0.017 C 
ENDROOT
BRANCH  17  26
HETATM   26  O3  UNL     1     -14.386  14.141  -2.434  1.00  0.00    -0.352 OA
BRANCH  26  27
HETATM   27  C22 UNL     1     -15.105  13.938  -3.650  1.00  0.00     0.291 C 
HETATM   28  O4  UNL     1     -16.459  13.554  -3.408  1.00  0.00    -0.356 OA
HETATM   29  C23 UNL     1     -16.614  12.154  -3.186  1.00  0.00     0.205 C 
HETATM   30  C24 UNL     1     -16.248  11.332  -4.429  1.00  0.00     0.173 C 
HETATM   31  C25 UNL     1     -15.250  12.079  -5.325  1.00  0.00     0.182 C 
HETATM   32  C26 UNL     1     -14.299  12.900  -4.467  1.00  0.00     0.204 C 
BRANCH  30  33
HETATM   33  O5  UNL     1     -15.689  10.076  -4.017  1.00  0.00    -0.391 OA
HETATM   34  H37 UNL     1     -15.155   9.779  -4.787  1.00  0.00     0.210 HD
ENDBRANCH  30  33
BRANCH  31  35
HETATM   35  O6  UNL     1     -14.519  11.125  -6.116  1.00  0.00    -0.390 OA
HETATM   36  H39 UNL     1     -13.804  11.654  -6.536  1.00  0.00     0.210 HD
ENDBRANCH  31  35
BRANCH  32  37
HETATM   37  O7  UNL     1     -13.321  13.541  -5.314  1.00  0.00    -0.388 OA
HETATM   38  H41 UNL     1     -12.885  14.209  -4.757  1.00  0.00     0.210 HD
ENDBRANCH  32  37
ENDBRANCH  26  27
ENDBRANCH  17  26
BRANCH  18  39
HETATM   39  C29 UNL     1     -14.351  11.383   0.058  1.00  0.00     0.176 C 
BRANCH  39  40
HETATM   40  O8  UNL     1     -15.670  11.089   0.513  1.00  0.00    -0.400 OA
HETATM   41  H47 UNL     1     -15.673  11.195   1.480  1.00  0.00     0.209 HD
ENDBRANCH  39  40
ENDBRANCH  18  39
BRANCH   1  42
HETATM   42  C2  UNL     1      -5.565  17.024   2.194  1.00  0.00    -0.088 C 
HETATM   43  C1  UNL     1      -4.752  15.963   2.350  1.00  0.00     0.014 C 
HETATM   44  C3  UNL     1      -5.510  17.844   0.927  1.00  0.00     0.043 C 
ENDBRANCH   1  42
BRANCH   4  45
HETATM   45  C8  UNL     1      -8.878  18.390   5.050  1.00  0.00     0.149 C 
HETATM   46  O1  UNL     1      -9.382  18.974   4.105  1.00  0.00    -0.649 OA
BRANCH  45  47
HETATM   47  O2  UNL     1      -8.899  18.974   6.269  1.00  0.00    -0.776 OA
HETATM   48  H11 UNL     1      -9.371  19.817   6.110  1.00  0.00     0.167 HD
ENDBRANCH  45  47
ENDBRANCH   4  45
TORSDOF 10
ENDMDL
MODEL 4
REMARK minimizedAffinity -8.23207092
REMARK CNNscore 0.2554923
REMARK CNNaffinity 6.48723459
REMARK  10 active torsions:
REMARK  status: ('A' for Active; 'I' for Inactive)
REMARK    1  A    between atoms: C2_2  and  C4_4 
REMARK    2  A    between atoms: C7_7  and  C8_8 
REMARK    3  A    between atoms: C8_8  and  O2_10 
REMARK    4  A    between atoms: C21_23  and  O3_24 
REMARK    5  A    between atoms: O3_24  and  C22_25 
REMARK    6  A    between atoms: C24_28  and  O5_29 
REMARK    7  A    between atoms: C25_30  and  O6_31 
REMARK    8  A    between atoms: C26_32  and  O7_33 
REMARK    9  A    between atoms: C27_34  and  C29_36 
REMARK   10  A    between atoms: C29_36  and  O8_37 
ROOT
HETATM    1  C4  UNL     1       4.070  10.602  22.382  1.00  0.00     0.019 C 
HETATM    2  C5  UNL     1       5.400  11.123  22.990  1.00  0.00     0.011 C 
HETATM    3  C6  UNL     1       5.641  12.528  22.407  1.00  0.00     0.021 C 
HETATM    4  C7  UNL     1       4.809  12.554  21.121  1.00  0.00     0.050 C 
HETATM    5  C9  UNL     1       4.409  13.947  20.616  1.00  0.00     0.022 C 
HETATM    6  C10 UNL     1       3.402  13.832  19.453  1.00  0.00     0.011 C 
HETATM    7  C11 UNL     1       2.110  12.994  19.773  1.00  0.00    -0.032 C 
HETATM    8  C12 UNL     1       1.300  13.852  20.796  1.00  0.00     0.016 C 
HETATM    9  C13 UNL     1       2.543  11.615  20.424  1.00  0.00     0.000 C 
HETATM   10  C14 UNL     1       1.333  10.739  20.770  1.00  0.00     0.006 C 
HETATM   11  C15 UNL     1       0.478  10.451  19.535  1.00  0.00     0.006 C 
HETATM   12  C16 UNL     1      -0.000  11.739  18.830  1.00  0.00     0.003 C 
HETATM   13  C17 UNL     1      -1.112  11.494  17.708  1.00  0.00    -0.035 C 
HETATM   14  C18 UNL     1      -0.595  10.572  16.579  1.00  0.00     0.016 C 
HETATM   15  C19 UNL     1      -2.340  10.784  18.376  1.00  0.00     0.012 C 
HETATM   16  C20 UNL     1      -3.726  11.233  17.895  1.00  0.00     0.034 C 
HETATM   17  C21 UNL     1      -3.777  11.692  16.440  1.00  0.00     0.135 C 
HETATM   18  C27 UNL     1      -2.810  12.901  16.187  1.00  0.00     0.008 C 
HETATM   19  C28 UNL     1      -2.381  12.932  14.701  1.00  0.00     0.020 C 
HETATM   20  C30 UNL     1      -1.583  12.898  17.187  1.00  0.00     0.007 C 
HETATM   21  C31 UNL     1      -0.396  13.767  16.714  1.00  0.00     0.007 C 
HETATM   22  C32 UNL     1       0.625  13.993  17.836  1.00  0.00     0.011 C 
HETATM   23  C33 UNL     1       1.213  12.687  18.442  1.00  0.00    -0.032 C 
HETATM   24  C34 UNL     1       2.114  12.045  17.345  1.00  0.00     0.016 C 
HETATM   25  C35 UNL     1       3.528  11.825  21.598  1.00  0.00     0.017 C 
ENDROOT
BRANCH  17  26
HETATM   26  O3  UNL     1      -3.465  10.621  15.544  1.00  0.00    -0.352 OA
BRANCH  26  27
HETATM   27  C22 UNL     1      -4.016   9.350  15.892  1.00  0.00     0.291 C 
HETATM   28  O4  UNL     1      -2.999   8.371  16.104  1.00  0.00    -0.356 OA
HETATM   29  C23 UNL     1      -2.556   7.751  14.899  1.00  0.00     0.205 C 
HETATM   30  C24 UNL     1      -3.671   6.937  14.229  1.00  0.00     0.173 C 
HETATM   31  C25 UNL     1      -5.061   7.469  14.607  1.00  0.00     0.182 C 
HETATM   32  C26 UNL     1      -5.011   8.982  14.765  1.00  0.00     0.204 C 
BRANCH  30  33
HETATM   33  O5  UNL     1      -3.501   6.985  12.805  1.00  0.00    -0.391 OA
HETATM   34  H37 UNL     1      -4.394   6.790  12.443  1.00  0.00     0.210 HD
ENDBRANCH  30  33
BRANCH  31  35
HETATM   35  O6  UNL     1      -6.003   7.102  13.582  1.00  0.00    -0.390 OA
HETATM   36  H39 UNL     1      -6.817   7.603  13.809  1.00  0.00     0.210 HD
ENDBRANCH  31  35
BRANCH  32  37
HETATM   37  O7  UNL     1      -6.336   9.478  15.049  1.00  0.00    -0.388 OA
HETATM   38  H41 UNL     1      -6.216  10.396  15.351  1.00  0.00     0.210 HD
ENDBRANCH  32  37
ENDBRANCH  26  27
ENDBRANCH  17  26
BRANCH  18  39
HETATM   39  C29 UNL     1      -3.612  14.220  16.460  1.00  0.00     0.176 C 
BRANCH  39  40
HETATM   40  O8  UNL     1      -4.936  14.160  15.932  1.00  0.00    -0.400 OA
HETATM   41  H47 UNL     1      -4.904  14.527  15.031  1.00  0.00     0.209 HD
ENDBRANCH  39  40
ENDBRANCH  18  39
BRANCH   1  42
HETATM   42  C2  UNL     1       3.204   9.960  23.458  1.00  0.00    -0.088 C 
HETATM   43  C1  UNL     1       2.760  10.578  24.568  1.00  0.00     0.014 C 
HETATM   44  C3  UNL     1       2.826   8.524  23.185  1.00  0.00     0.043 C 
ENDBRANCH   1  42
BRANCH   4  45
HETATM   45  C8  UNL     1       5.628  11.826  20.045  1.00  0.00     0.149 C 
HETATM   46  O1  UNL     1       6.822  11.926  19.816  1.00  0.00    -0.649 OA
BRANCH  45  47
HETATM   47  O2  UNL     1       4.873  11.028  19.258  1.00  0.00    -0.776 OA
HETATM   48  H11 UNL     1       5.518  10.660  18.621  1.00  0.00     0.167 HD
ENDBRANCH  45  47
ENDBRANCH   4  45
TORSDOF 10
ENDMDL
MODEL 5
REMARK minimizedAffinity -6.24674034
REMARK CNNscore 0.244773373
REMARK CNNaffinity 6.07531548
REMARK  10 active torsions:
REMARK  status: ('A' for Active; 'I' for Inactive)
REMARK    1  A    between atoms: C2_2  and  C4_4 
REMARK    2  A    between atoms: C7_7  and  C8_8 
REMARK    3  A    between atoms: C8_8  and  O2_10 
REMARK    4  A    between atoms: C21_23  and  O3_24 
REMARK    5  A    between atoms: O3_24  and  C22_25 
REMARK    6  A    between atoms: C24_28  and  O5_29 
REMARK    7  A    between atoms: C25_30  and  O6_31 
REMARK    8  A    between atoms: C26_32  and  O7_33 
REMARK    9  A    between atoms: C27_34  and  C29_36 
REMARK   10  A    between atoms: C29_36  and  O8_37 
ROOT
HETATM    1  C4  UNL     1     -17.784  -4.145  17.185  1.00  0.00     0.019 C 
HETATM    2  C5  UNL     1     -18.344  -3.072  18.157  1.00  0.00     0.011 C 
HETATM    3  C6  UNL     1     -18.514  -1.775  17.343  1.00  0.00     0.021 C 
HETATM    4  C7  UNL     1     -17.572  -1.947  16.149  1.00  0.00     0.050 C 
HETATM    5  C9  UNL     1     -17.908  -1.106  14.910  1.00  0.00     0.022 C 
HETATM    6  C10 UNL     1     -17.027  -1.527  13.715  1.00  0.00     0.011 C 
HETATM    7  C11 UNL     1     -17.089  -3.056  13.350  1.00  0.00    -0.032 C 
HETATM    8  C12 UNL     1     -18.520  -3.288  12.772  1.00  0.00     0.016 C 
HETATM    9  C13 UNL     1     -16.878  -3.906  14.672  1.00  0.00     0.000 C 
HETATM   10  C14 UNL     1     -16.930  -5.414  14.397  1.00  0.00     0.006 C 
HETATM   11  C15 UNL     1     -15.877  -5.835  13.371  1.00  0.00     0.006 C 
HETATM   12  C16 UNL     1     -16.003  -5.061  12.040  1.00  0.00     0.003 C 
HETATM   13  C17 UNL     1     -15.109  -5.654  10.855  1.00  0.00    -0.035 C 
HETATM   14  C18 UNL     1     -13.602  -5.631  11.206  1.00  0.00     0.016 C 
HETATM   15  C19 UNL     1     -15.520  -7.149  10.625  1.00  0.00     0.012 C 
HETATM   16  C20 UNL     1     -15.563  -7.624   9.167  1.00  0.00     0.034 C 
HETATM   17  C21 UNL     1     -14.567  -6.930   8.242  1.00  0.00     0.135 C 
HETATM   18  C27 UNL     1     -14.800  -5.379   8.208  1.00  0.00     0.008 C 
HETATM   19  C28 UNL     1     -13.484  -4.654   7.841  1.00  0.00     0.020 C 
HETATM   20  C30 UNL     1     -15.448  -4.847   9.552  1.00  0.00     0.007 C 
HETATM   21  C31 UNL     1     -15.289  -3.324   9.756  1.00  0.00     0.007 C 
HETATM   22  C32 UNL     1     -16.188  -2.805  10.885  1.00  0.00     0.011 C 
HETATM   23  C33 UNL     1     -15.951  -3.490  12.261  1.00  0.00    -0.032 C 
HETATM   24  C34 UNL     1     -14.549  -3.027  12.761  1.00  0.00     0.016 C 
HETATM   25  C35 UNL     1     -17.820  -3.438  15.805  1.00  0.00     0.017 C 
ENDROOT
BRANCH  17  26
HETATM   26  O3  UNL     1     -13.217  -7.213   8.625  1.00  0.00    -0.352 OA
BRANCH  26  27
HETATM   27  C22 UNL     1     -12.645  -8.382   8.038  1.00  0.00     0.291 C 
HETATM   28  O4  UNL     1     -12.185  -9.301   9.030  1.00  0.00    -0.356 OA
HETATM   29  C23 UNL     1     -10.874  -9.005   9.505  1.00  0.00     0.205 C 
HETATM   30  C24 UNL     1      -9.818  -9.145   8.400  1.00  0.00     0.173 C 
HETATM   31  C25 UNL     1     -10.429  -8.935   7.007  1.00  0.00     0.182 C 
HETATM   32  C26 UNL     1     -11.535  -7.892   7.079  1.00  0.00     0.204 C 
BRANCH  30  33
HETATM   33  O5  UNL     1      -8.771  -8.190   8.622  1.00  0.00    -0.391 OA
HETATM   34  H37 UNL     1      -8.355  -8.069   7.740  1.00  0.00     0.210 HD
ENDBRANCH  30  33
BRANCH  31  35
HETATM   35  O6  UNL     1      -9.397  -8.513   6.097  1.00  0.00    -0.390 OA
HETATM   36  H39 UNL     1      -9.883  -8.249   5.284  1.00  0.00     0.210 HD
ENDBRANCH  31  35
BRANCH  32  37
HETATM   37  O7  UNL     1     -12.052  -7.650   5.753  1.00  0.00    -0.388 OA
HETATM   38  H41 UNL     1     -12.881  -7.154   5.879  1.00  0.00     0.210 HD
ENDBRANCH  32  37
ENDBRANCH  26  27
ENDBRANCH  17  26
BRANCH  18  39
HETATM   39  C29 UNL     1     -15.825  -5.076   7.062  1.00  0.00     0.176 C 
BRANCH  39  40
HETATM   40  O8  UNL     1     -15.261  -4.254   6.042  1.00  0.00    -0.400 OA
HETATM   41  H47 UNL     1     -15.455  -3.329   6.277  1.00  0.00     0.209 HD
ENDBRANCH  39  40
ENDBRANCH  18  39
BRANCH   1  42
HETATM   42  C2  UNL     1     -18.516  -5.468  17.366  1.00  0.00    -0.088 C 
HETATM   43  C1  UNL     1     -18.231  -6.608  16.711  1.00  0.00     0.014 C 
HETATM   44  C3  UNL     1     -19.622  -5.437  18.393  1.00  0.00     0.043 C 
ENDBRANCH   1  42
BRANCH   4  45
HETATM   45  C8  UNL     1     -16.159  -1.605  16.643  1.00  0.00     0.149 C 
HETATM   46  O1  UNL     1     -15.103  -2.115  16.307  1.00  0.00    -0.649 OA
BRANCH  45  47
HETATM   47  O2  UNL     1     -16.150  -0.648  17.598  1.00  0.00    -0.776 OA
HETATM   48  H11 UNL     1     -15.202  -0.559  17.823  1.00  0.00     0.167 HD
ENDBRANCH  45  47
ENDBRANCH   4  45
TORSDOF 10
ENDMDL
MODEL 6
REMARK minimizedAffinity -6.39270353
REMARK CNNscore 0.240165338
REMARK CNNaffinity 6.31748343
REMARK  10 active torsions:
REMARK  status: ('A' for Active; 'I' for Inactive)
REMARK    1  A    between atoms: C2_2  and  C4_4 
REMARK    2  A    between atoms: C7_7  and  C8_8 
REMARK    3  A    between atoms: C8_8  and  O2_10 
REMARK    4  A    between atoms: C21_23  and  O3_24 
REMARK    5  A    between atoms: O3_24  and  C22_25 
REMARK    6  A    between atoms: C24_28  and  O5_29 
REMARK    7  A    between atoms: C25_30  and  O6_31 
REMARK    8  A    between atoms: C26_32  and  O7_33 
REMARK    9  A    between atoms: C27_34  and  C29_36 
REMARK   10  A    between atoms: C29_36  and  O8_37 
ROOT
HETATM    1  C4  UNL     1      14.586 -14.113   2.475  1.00  0.00     0.019 C 
HETATM    2  C5  UNL     1      13.559 -15.099   1.856  1.00  0.00     0.011 C 
HETATM    3  C6  UNL     1      12.187 -14.400   1.891  1.00  0.00     0.021 C 
HETATM    4  C7  UNL     1      12.331 -13.332   2.979  1.00  0.00     0.050 C 
HETATM    5  C9  UNL     1      11.362 -12.146   2.880  1.00  0.00     0.022 C 
HETATM    6  C10 UNL     1      11.749 -11.046   3.891  1.00  0.00     0.011 C 
HETATM    7  C11 UNL     1      13.230 -10.530   3.778  1.00  0.00    -0.032 C 
HETATM    8  C12 UNL     1      13.295  -9.744   2.430  1.00  0.00     0.016 C 
HETATM    9  C13 UNL     1      14.205 -11.780   3.741  1.00  0.00     0.000 C 
HETATM   10  C14 UNL     1      15.675 -11.356   3.627  1.00  0.00     0.006 C 
HETATM   11  C15 UNL     1      16.089 -10.447   4.784  1.00  0.00     0.006 C 
HETATM   12  C16 UNL     1      15.196  -9.191   4.900  1.00  0.00     0.003 C 
HETATM   13  C17 UNL     1      15.754  -8.086   5.911  1.00  0.00    -0.035 C 
HETATM   14  C18 UNL     1      15.883  -8.637   7.351  1.00  0.00     0.016 C 
HETATM   15  C19 UNL     1      17.186  -7.660   5.436  1.00  0.00     0.012 C 
HETATM   16  C20 UNL     1      17.529  -6.171   5.568  1.00  0.00     0.034 C 
HETATM   17  C21 UNL     1      16.841  -5.459   6.730  1.00  0.00     0.135 C 
HETATM   18  C27 UNL     1      15.278  -5.544   6.609  1.00  0.00     0.008 C 
HETATM   19  C28 UNL     1      14.633  -5.430   8.010  1.00  0.00     0.020 C 
HETATM   20  C30 UNL     1      14.814  -6.833   5.815  1.00  0.00     0.007 C 
HETATM   21  C31 UNL     1      13.332  -7.202   6.047  1.00  0.00     0.007 C 
HETATM   22  C32 UNL     1      12.842  -8.245   5.034  1.00  0.00     0.011 C 
HETATM   23  C33 UNL     1      13.659  -9.567   5.027  1.00  0.00    -0.032 C 
HETATM   24  C34 UNL     1      13.355 -10.294   6.371  1.00  0.00     0.016 C 
HETATM   25  C35 UNL     1      13.762 -12.816   2.682  1.00  0.00     0.017 C 
ENDROOT
BRANCH  17  26
HETATM   26  O3  UNL     1      17.263  -5.991   7.989  1.00  0.00    -0.352 OA
BRANCH  26  27
HETATM   27  C22 UNL     1      17.865  -5.053   8.882  1.00  0.00     0.291 C 
HETATM   28  O4  UNL     1      19.128  -4.596   8.397  1.00  0.00    -0.356 OA
HETATM   29  C23 UNL     1      20.205  -5.470   8.728  1.00  0.00     0.205 C 
HETATM   30  C24 UNL     1      20.434  -5.548  10.244  1.00  0.00     0.173 C 
HETATM   31  C25 UNL     1      19.151  -5.231  11.025  1.00  0.00     0.182 C 
HETATM   32  C26 UNL     1      17.940  -5.748  10.261  1.00  0.00     0.204 C 
BRANCH  30  33
HETATM   33  O5  UNL     1      20.900  -6.862  10.584  1.00  0.00    -0.391 OA
HETATM   34  H37 UNL     1      20.674  -6.966  11.535  1.00  0.00     0.210 HD
ENDBRANCH  30  33
BRANCH  31  35
HETATM   35  O6  UNL     1      19.225  -5.844  12.325  1.00  0.00    -0.390 OA
HETATM   36  H39 UNL     1      18.322  -5.735  12.698  1.00  0.00     0.210 HD
ENDBRANCH  31  35
BRANCH  32  37
HETATM   37  O7  UNL     1      16.747  -5.509  11.038  1.00  0.00    -0.388 OA
HETATM   38  H41 UNL     1      16.001  -5.653  10.428  1.00  0.00     0.210 HD
ENDBRANCH  32  37
ENDBRANCH  26  27
ENDBRANCH  17  26
BRANCH  18  39
HETATM   39  C29 UNL     1      14.796  -4.304   5.779  1.00  0.00     0.176 C 
BRANCH  39  40
HETATM   40  O8  UNL     1      13.437  -3.972   6.055  1.00  0.00    -0.400 OA
HETATM   41  H47 UNL     1      12.887  -4.449   5.408  1.00  0.00     0.209 HD
ENDBRANCH  39  40
ENDBRANCH  18  39
BRANCH   1  42
HETATM   42  C2  UNL     1      15.856 -14.065   1.636  1.00  0.00    -0.088 C 
HETATM   43  C1  UNL     1      17.010 -14.689   1.940  1.00  0.00     0.014 C 
HETATM   44  C3  UNL     1      15.739 -13.260   0.365  1.00  0.00     0.043 C 
ENDBRANCH   1  42
BRANCH   4  45
HETATM   45  C8  UNL     1      12.147 -14.043   4.328  1.00  0.00     0.149 C 
HETATM   46  O1  UNL     1      12.769 -13.861   5.362  1.00  0.00    -0.649 OA
BRANCH  45  47
HETATM   47  O2  UNL     1      11.201 -15.008   4.292  1.00  0.00    -0.776 OA
HETATM   48  H11 UNL     1      11.217 -15.376   5.198  1.00  0.00     0.167 HD
ENDBRANCH  45  47
ENDBRANCH   4  45
TORSDOF 10
ENDMDL
MODEL 7
REMARK minimizedAffinity -6.25223017
REMARK CNNscore 0.232304513
REMARK CNNaffinity 6.1564908
REMARK  10 active torsions:
REMARK  status: ('A' for Active; 'I' for Inactive)
REMARK    1  A    between atoms: C2_2  and  C4_4 
REMARK    2  A    between atoms: C7_7  and  C8_8 
REMARK    3  A    between atoms: C8_8  and  O2_10 
REMARK    4  A    between atoms: C21_23  and  O3_24 
REMARK    5  A    between atoms: O3_24  and  C22_25 
REMARK    6  A    between atoms: C24_28  and  O5_29 
REMARK    7  A    between atoms: C25_30  and  O6_31 
REMARK    8  A    between atoms: C26_32  and  O7_33 
REMARK    9  A    between atoms: C27_34  and  C29_36 
REMARK   10  A    between atoms: C29_36  and  O8_37 
ROOT
HETATM    1  C4  UNL     1      13.769 -14.583   1.384  1.00  0.00     0.019 C 
HETATM    2  C5  UNL     1      12.844 -15.408   0.450  1.00  0.00     0.011 C 
HETATM    3  C6  UNL     1      11.596 -14.547   0.179  1.00  0.00     0.021 C 
HETATM    4  C7  UNL     1      11.559 -13.553   1.343  1.00  0.00     0.050 C 
HETATM    5  C9  UNL     1      10.784 -12.254   1.084  1.00  0.00     0.022 C 
HETATM    6  C10 UNL     1      11.003 -11.254   2.239  1.00  0.00     0.011 C 
HETATM    7  C11 UNL     1      12.508 -10.919   2.552  1.00  0.00    -0.032 C 
HETATM    8  C12 UNL     1      13.013 -10.091   1.329  1.00  0.00     0.016 C 
HETATM    9  C13 UNL     1      13.318 -12.277   2.677  1.00  0.00     0.000 C 
HETATM   10  C14 UNL     1      14.801 -12.032   2.979  1.00  0.00     0.006 C 
HETATM   11  C15 UNL     1      14.987 -11.231   4.268  1.00  0.00     0.006 C 
HETATM   12  C16 UNL     1      14.236  -9.882   4.241  1.00  0.00     0.003 C 
HETATM   13  C17 UNL     1      14.620  -8.898   5.440  1.00  0.00    -0.035 C 
HETATM   14  C18 UNL     1      14.302  -9.522   6.820  1.00  0.00     0.016 C 
HETATM   15  C19 UNL     1      16.164  -8.630   5.385  1.00  0.00     0.012 C 
HETATM   16  C20 UNL     1      16.616  -7.201   5.711  1.00  0.00     0.034 C 
HETATM   17  C21 UNL     1      15.724  -6.462   6.704  1.00  0.00     0.135 C 
HETATM   18  C27 UNL     1      14.251  -6.348   6.177  1.00  0.00     0.008 C 
HETATM   19  C28 UNL     1      13.272  -6.216   7.367  1.00  0.00     0.020 C 
HETATM   20  C30 UNL     1      13.879  -7.535   5.197  1.00  0.00     0.007 C 
HETATM   21  C31 UNL     1      12.358  -7.730   5.008  1.00  0.00     0.007 C 
HETATM   22  C32 UNL     1      12.046  -8.660   3.829  1.00  0.00     0.011 C 
HETATM   23  C33 UNL     1      12.689 -10.071   3.937  1.00  0.00    -0.032 C 
HETATM   24  C34 UNL     1      11.963 -10.812   5.099  1.00  0.00     0.016 C 
HETATM   25  C35 UNL     1      13.064 -13.204   1.465  1.00  0.00     0.017 C 
ENDROOT
BRANCH  17  26
HETATM   26  O3  UNL     1      15.737  -7.095   7.987  1.00  0.00    -0.352 OA
BRANCH  26  27
HETATM   27  C22 UNL     1      16.507  -6.434   8.991  1.00  0.00     0.291 C 
HETATM   28  O4  UNL     1      15.686  -5.666   9.871  1.00  0.00    -0.356 OA
HETATM   29  C23 UNL     1      15.387  -4.366   9.368  1.00  0.00     0.205 C 
HETATM   30  C24 UNL     1      16.646  -3.498   9.240  1.00  0.00     0.173 C 
HETATM   31  C25 UNL     1      17.906  -4.356   9.058  1.00  0.00     0.182 C 
HETATM   32  C26 UNL     1      17.573  -5.597   8.243  1.00  0.00     0.204 C 
BRANCH  30  33
HETATM   33  O5  UNL     1      16.496  -2.608   8.124  1.00  0.00    -0.391 OA
HETATM   34  H37 UNL     1      17.416  -2.370   7.872  1.00  0.00     0.210 HD
ENDBRANCH  30  33
BRANCH  31  35
HETATM   35  O6  UNL     1      18.918  -3.576   8.395  1.00  0.00    -0.390 OA
HETATM   36  H39 UNL     1      19.621  -4.226   8.174  1.00  0.00     0.210 HD
ENDBRANCH  31  35
BRANCH  32  37
HETATM   37  O7  UNL     1      18.778  -6.360   8.017  1.00  0.00    -0.388 OA
HETATM   38  H41 UNL     1      18.484  -7.229   7.692  1.00  0.00     0.210 HD
ENDBRANCH  32  37
ENDBRANCH  26  27
ENDBRANCH  17  26
BRANCH  18  39
HETATM   39  C29 UNL     1      14.142  -5.025   5.344  1.00  0.00     0.176 C 
BRANCH  39  40
HETATM   40  O8  UNL     1      13.522  -3.976   6.085  1.00  0.00    -0.400 OA
HETATM   41  H47 UNL     1      12.568  -4.014   5.896  1.00  0.00     0.209 HD
ENDBRANCH  39  40
ENDBRANCH  18  39
BRANCH   1  42
HETATM   42  C2  UNL     1      15.214 -14.655   0.909  1.00  0.00    -0.088 C 
HETATM   43  C1  UNL     1      15.692 -14.084  -0.212  1.00  0.00     0.014 C 
HETATM   44  C3  UNL     1      16.138 -15.421   1.825  1.00  0.00     0.043 C 
ENDBRANCH   1  42
BRANCH   4  45
HETATM   45  C8  UNL     1      10.948 -14.293   2.542  1.00  0.00     0.149 C 
HETATM   46  O1  UNL     1      11.461 -14.516   3.627  1.00  0.00    -0.649 OA
BRANCH  45  47
HETATM   47  O2  UNL     1       9.709 -14.773   2.291  1.00  0.00    -0.776 OA
HETATM   48  H11 UNL     1       9.468 -15.229   3.123  1.00  0.00     0.167 HD
ENDBRANCH  45  47
ENDBRANCH   4  45
TORSDOF 10
ENDMDL
MODEL 8
REMARK minimizedAffinity -5.98536921
REMARK CNNscore 0.228544623
REMARK CNNaffinity 6.15686655
REMARK  10 active torsions:
REMARK  status: ('A' for Active; 'I' for Inactive)
REMARK    1  A    between atoms: C2_2  and  C4_4 
REMARK    2  A    between atoms: C7_7  and  C8_8 
REMARK    3  A    between atoms: C8_8  and  O2_10 
REMARK    4  A    between atoms: C21_23  and  O3_24 
REMARK    5  A    between atoms: O3_24  and  C22_25 
REMARK    6  A    between atoms: C24_28  and  O5_29 
REMARK    7  A    between atoms: C25_30  and  O6_31 
REMARK    8  A    between atoms: C26_32  and  O7_33 
REMARK    9  A    between atoms: C27_34  and  C29_36 
REMARK   10  A    between atoms: C29_36  and  O8_37 
ROOT
HETATM    1  C4  UNL     1      -0.705  17.595   6.711  1.00  0.00     0.019 C 
HETATM    2  C5  UNL     1      -2.062  17.166   7.331  1.00  0.00     0.011 C 
HETATM    3  C6  UNL     1      -2.513  15.894   6.589  1.00  0.00     0.021 C 
HETATM    4  C7  UNL     1      -1.754  15.939   5.260  1.00  0.00     0.050 C 
HETATM    5  C9  UNL     1      -1.565  14.589   4.555  1.00  0.00     0.022 C 
HETATM    6  C10 UNL     1      -0.608  14.735   3.353  1.00  0.00     0.011 C 
HETATM    7  C11 UNL     1       0.797  15.355   3.695  1.00  0.00    -0.032 C 
HETATM    8  C12 UNL     1       1.534  14.272   4.544  1.00  0.00     0.016 C 
HETATM    9  C13 UNL     1       0.580  16.676   4.544  1.00  0.00     0.000 C 
HETATM   10  C14 UNL     1       1.911  17.339   4.921  1.00  0.00     0.006 C 
HETATM   11  C15 UNL     1       2.737  17.684   3.681  1.00  0.00     0.006 C 
HETATM   12  C16 UNL     1       3.007  16.454   2.787  1.00  0.00     0.003 C 
HETATM   13  C17 UNL     1       4.087  16.709   1.637  1.00  0.00    -0.035 C 
HETATM   14  C18 UNL     1       3.643  17.833   0.671  1.00  0.00     0.016 C 
HETATM   15  C19 UNL     1       5.429  17.163   2.310  1.00  0.00     0.012 C 
HETATM   16  C20 UNL     1       6.719  16.616   1.686  1.00  0.00     0.034 C 
HETATM   17  C21 UNL     1       6.640  16.355   0.185  1.00  0.00     0.135 C 
HETATM   18  C27 UNL     1       5.511  15.322  -0.160  1.00  0.00     0.008 C 
HETATM   19  C28 UNL     1       5.012  15.546  -1.606  1.00  0.00     0.020 C 
HETATM   20  C30 UNL     1       4.343  15.341   0.910  1.00  0.00     0.007 C 
HETATM   21  C31 UNL     1       3.031  14.699   0.407  1.00  0.00     0.007 C 
HETATM   22  C32 UNL     1       2.044  14.452   1.554  1.00  0.00     0.011 C 
HETATM   23  C33 UNL     1       1.663  15.726   2.359  1.00  0.00    -0.032 C 
HETATM   24  C34 UNL     1       0.803  16.618   1.414  1.00  0.00     0.016 C 
HETATM   25  C35 UNL     1      -0.366  16.432   5.743  1.00  0.00     0.017 C 
ENDROOT
BRANCH  17  26
HETATM   26  O3  UNL     1       6.430  17.569  -0.544  1.00  0.00    -0.352 OA
BRANCH  26  27
HETATM   27  C22 UNL     1       7.603  18.342  -0.800  1.00  0.00     0.291 C 
HETATM   28  O4  UNL     1       7.299  19.550  -1.498  1.00  0.00    -0.356 OA
HETATM   29  C23 UNL     1       7.213  19.375  -2.911  1.00  0.00     0.205 C 
HETATM   30  C24 UNL     1       8.559  18.963  -3.521  1.00  0.00     0.173 C 
HETATM   31  C25 UNL     1       9.446  18.243  -2.495  1.00  0.00     0.182 C 
HETATM   32  C26 UNL     1       8.582  17.413  -1.556  1.00  0.00     0.204 C 
BRANCH  30  33
HETATM   33  O5  UNL     1       8.325  18.106  -4.648  1.00  0.00    -0.391 OA
HETATM   34  H37 UNL     1       9.160  17.599  -4.751  1.00  0.00     0.210 HD
ENDBRANCH  30  33
BRANCH  31  35
HETATM   35  O6  UNL     1      10.386  17.403  -3.189  1.00  0.00    -0.390 OA
HETATM   36  H39 UNL     1      10.802  16.865  -2.479  1.00  0.00     0.210 HD
ENDBRANCH  31  35
BRANCH  32  37
HETATM   37  O7  UNL     1       9.430  16.686  -0.642  1.00  0.00    -0.388 OA
HETATM   38  H41 UNL     1       8.841  16.353   0.058  1.00  0.00     0.210 HD
ENDBRANCH  32  37
ENDBRANCH  26  27
ENDBRANCH  17  26
BRANCH  18  39
HETATM   39  C29 UNL     1       6.144  13.889  -0.110  1.00  0.00     0.176 C 
BRANCH  39  40
HETATM   40  O8  UNL     1       5.495  12.985  -1.002  1.00  0.00    -0.400 OA
HETATM   41  H47 UNL     1       4.788  12.543  -0.500  1.00  0.00     0.209 HD
ENDBRANCH  39  40
ENDBRANCH  18  39
BRANCH   1  42
HETATM   42  C2  UNL     1       0.289  17.973   7.802  1.00  0.00    -0.088 C 
HETATM   43  C1  UNL     1       0.878  17.107   8.647  1.00  0.00     0.014 C 
HETATM   44  C3  UNL     1       0.615  19.445   7.872  1.00  0.00     0.043 C 
ENDBRANCH   1  42
BRANCH   4  45
HETATM   45  C8  UNL     1      -2.519  16.903   4.341  1.00  0.00     0.149 C 
HETATM   46  O1  UNL     1      -2.080  17.862   3.728  1.00  0.00    -0.649 OA
BRANCH  45  47
HETATM   47  O2  UNL     1      -3.843  16.635   4.280  1.00  0.00    -0.776 OA
HETATM   48  H11 UNL     1      -4.190  17.333   3.689  1.00  0.00     0.167 HD
ENDBRANCH  45  47
ENDBRANCH   4  45
TORSDOF 10
ENDMDL
MODEL 9
REMARK minimizedAffinity -6.03380442
REMARK CNNscore 0.2273601
REMARK CNNaffinity 6.20762825
REMARK  10 active torsions:
REMARK  status: ('A' for Active; 'I' for Inactive)
REMARK    1  A    between atoms: C2_2  and  C4_4 
REMARK    2  A    between atoms: C7_7  and  C8_8 
REMARK    3  A    between atoms: C8_8  and  O2_10 
REMARK    4  A    between atoms: C21_23  and  O3_24 
REMARK    5  A    between atoms: O3_24  and  C22_25 
REMARK    6  A    between atoms: C24_28  and  O5_29 
REMARK    7  A    between atoms: C25_30  and  O6_31 
REMARK    8  A    between atoms: C26_32  and  O7_33 
REMARK    9  A    between atoms: C27_34  and  C29_36 
REMARK   10  A    between atoms: C29_36  and  O8_37 
ROOT
HETATM    1  C4  UNL     1     -12.662 -10.052   2.228  1.00  0.00     0.019 C 
HETATM    2  C5  UNL     1     -14.134  -9.993   2.718  1.00  0.00     0.011 C 
HETATM    3  C6  UNL     1     -14.092  -9.932   4.257  1.00  0.00     0.021 C 
HETATM    4  C7  UNL     1     -12.720 -10.503   4.624  1.00  0.00     0.050 C 
HETATM    5  C9  UNL     1     -12.169 -10.083   5.994  1.00  0.00     0.022 C 
HETATM    6  C10 UNL     1     -10.704 -10.539   6.151  1.00  0.00     0.011 C 
HETATM    7  C11 UNL     1      -9.730 -10.050   5.017  1.00  0.00    -0.032 C 
HETATM    8  C12 UNL     1      -9.594  -8.508   5.221  1.00  0.00     0.016 C 
HETATM    9  C13 UNL     1     -10.384 -10.369   3.608  1.00  0.00     0.000 C 
HETATM   10  C14 UNL     1      -9.492  -9.916   2.447  1.00  0.00     0.006 C 
HETATM   11  C15 UNL     1      -8.114 -10.575   2.506  1.00  0.00     0.006 C 
HETATM   12  C16 UNL     1      -7.390 -10.316   3.846  1.00  0.00     0.003 C 
HETATM   13  C17 UNL     1      -5.851 -10.749   3.850  1.00  0.00    -0.035 C 
HETATM   14  C18 UNL     1      -5.679 -12.261   3.571  1.00  0.00     0.016 C 
HETATM   15  C19 UNL     1      -5.116  -9.969   2.705  1.00  0.00     0.012 C 
HETATM   16  C20 UNL     1      -3.698  -9.478   3.023  1.00  0.00     0.034 C 
HETATM   17  C21 UNL     1      -2.923 -10.358   4.000  1.00  0.00     0.135 C 
HETATM   18  C27 UNL     1      -3.667 -10.479   5.377  1.00  0.00     0.008 C 
HETATM   19  C28 UNL     1      -3.272 -11.800   6.077  1.00  0.00     0.020 C 
HETATM   20  C30 UNL     1      -5.233 -10.303   5.222  1.00  0.00     0.007 C 
HETATM   21  C31 UNL     1      -6.039 -10.845   6.423  1.00  0.00     0.007 C 
HETATM   22  C32 UNL     1      -7.499 -10.378   6.384  1.00  0.00     0.011 C 
HETATM   23  C33 UNL     1      -8.265 -10.772   5.090  1.00  0.00    -0.032 C 
HETATM   24  C34 UNL     1      -8.449 -12.319   5.126  1.00  0.00     0.016 C 
HETATM   25  C35 UNL     1     -11.840  -9.851   3.527  1.00  0.00     0.017 C 
ENDROOT
BRANCH  17  26
HETATM   26  O3  UNL     1      -2.690 -11.661   3.455  1.00  0.00    -0.352 OA
BRANCH  26  27
HETATM   27  C22 UNL     1      -2.309 -11.691   2.079  1.00  0.00     0.291 C 
HETATM   28  O4  UNL     1      -3.137 -12.572   1.319  1.00  0.00    -0.356 OA
HETATM   29  C23 UNL     1      -2.712 -13.931   1.377  1.00  0.00     0.205 C 
HETATM   30  C24 UNL     1      -1.332 -14.128   0.733  1.00  0.00     0.173 C 
HETATM   31  C25 UNL     1      -0.503 -12.837   0.774  1.00  0.00     0.182 C 
HETATM   32  C26 UNL     1      -0.808 -12.066   2.050  1.00  0.00     0.204 C 
BRANCH  30  33
HETATM   33  O5  UNL     1      -0.635 -15.177   1.421  1.00  0.00    -0.391 OA
HETATM   34  H37 UNL     1       0.314 -15.007   1.234  1.00  0.00     0.210 HD
ENDBRANCH  30  33
BRANCH  31  35
HETATM   35  O6  UNL     1       0.896 -13.171   0.710  1.00  0.00    -0.390 OA
HETATM   36  H39 UNL     1       1.358 -12.324   0.899  1.00  0.00     0.210 HD
ENDBRANCH  31  35
BRANCH  32  37
HETATM   37  O7  UNL     1       0.030 -10.891   2.111  1.00  0.00    -0.388 OA
HETATM   38  H41 UNL     1      -0.348 -10.333   2.814  1.00  0.00     0.210 HD
ENDBRANCH  32  37
ENDBRANCH  26  27
ENDBRANCH  17  26
BRANCH  18  39
HETATM   39  C29 UNL     1      -3.169  -9.308   6.292  1.00  0.00     0.176 C 
BRANCH  39  40
HETATM   40  O8  UNL     1      -2.519  -8.282   5.544  1.00  0.00    -0.400 OA
HETATM   41  H47 UNL     1      -1.569  -8.494   5.528  1.00  0.00     0.209 HD
ENDBRANCH  39  40
ENDBRANCH  18  39
BRANCH   1  42
HETATM   42  C2  UNL     1     -12.448  -9.104   1.055  1.00  0.00    -0.088 C 
HETATM   43  C1  UNL     1     -12.498  -7.761   1.125  1.00  0.00     0.014 C 
HETATM   44  C3  UNL     1     -12.136  -9.787  -0.255  1.00  0.00     0.043 C 
ENDBRANCH   1  42
BRANCH   4  45
HETATM   45  C8  UNL     1     -12.841 -12.032   4.559  1.00  0.00     0.149 C 
HETATM   46  O1  UNL     1     -13.639 -12.747   5.142  1.00  0.00    -0.649 OA
BRANCH  45  47
HETATM   47  O2  UNL     1     -11.892 -12.604   3.783  1.00  0.00    -0.776 OA
HETATM   48  H11 UNL     1     -12.083 -13.561   3.859  1.00  0.00     0.167 HD
ENDBRANCH  45  47
ENDBRANCH   4  45
TORSDOF 10
ENDMDL
