MODEL 1
REMARK minimizedAffinity -9.06188202
REMARK  11 active torsions:
REMARK  status: ('A' for Active; 'I' for Inactive)
REMARK    1  A    between atoms: C1_2  and  C2_3 
REMARK    2  A    between atoms: C1_2  and  O4_13 
REMARK    3  A    between atoms: C3_4  and  C4_5 
REMARK    4  A    between atoms: C7_8  and  O2_9 
REMARK    5  A    between atoms: C8_10  and  O3_11 
REMARK    6  A    between atoms: O4_13  and  C10_14 
REMARK    7  A    between atoms: C12_16  and  O5_17 
REMARK    8  A    between atoms: C12_16  and  C13_18 
REMARK    9  A    between atoms: C13_18  and  O7_20 
REMARK   10  A    between atoms: C15_22  and  O8_23 
REMARK   11  A    between atoms: C16_24  and  O9_25 
ROOT
HETATM    1  C10 UNL     1      -1.321  51.120 -26.132  1.00  0.00     0.166 C 
HETATM    2  C11 UNL     1       0.185  50.863 -26.002  1.00  0.00     0.084 C 
HETATM    3  C12 UNL     1       1.002  51.699 -26.988  1.00  0.00     0.147 C 
HETATM    4  C14 UNL     1       0.693  53.193 -26.842  1.00  0.00     0.083 C 
HETATM    5  C15 UNL     1      -0.804  53.476 -26.974  1.00  0.00     0.152 C 
HETATM    6  C16 UNL     1      -1.640  52.621 -26.010  1.00  0.00     0.176 C 
ENDROOT
BRANCH   1   7
HETATM    7  O4  UNL     1      -2.007  50.434 -25.059  1.00  0.00    -0.310 OA
BRANCH   7   8
HETATM    8  C1  UNL     1      -2.933  51.161 -24.389  1.00  0.00     0.283 C 
HETATM    9  O1  UNL     1      -4.108  51.294 -24.685  1.00  0.00    -0.260 OA
BRANCH   8  10
HETATM   10  C2  UNL     1      -2.276  51.760 -23.210  1.00  0.00     0.083 C 
HETATM   11  C3  UNL     1      -1.400  51.040 -22.495  1.00  0.00     0.017 C 
BRANCH  11  12
HETATM   12  C4  UNL     1      -0.709  51.540 -21.300  1.00  0.00    -0.033 A 
HETATM   13  C5  UNL     1      -0.825  50.908 -20.049  1.00  0.00     0.014 A 
HETATM   14  C6  UNL     1      -0.178  51.425 -18.924  1.00  0.00     0.040 A 
HETATM   15  C7  UNL     1       0.579  52.579 -19.051  1.00  0.00     0.098 A 
HETATM   16  C8  UNL     1       0.693  53.225 -20.278  1.00  0.00     0.099 A 
HETATM   17  C9  UNL     1       0.050  52.717 -21.403  1.00  0.00     0.050 A 
BRANCH  15  18
HETATM   18  O2  UNL     1       1.211  53.085 -17.951  1.00  0.00    -0.358 OA
HETATM   19  H5  UNL     1       1.671  53.884 -18.281  1.00  0.00     0.217 HD
ENDBRANCH  15  18
BRANCH  16  20
HETATM   20  O3  UNL     1       1.452  54.362 -20.329  1.00  0.00    -0.358 OA
HETATM   21  H6  UNL     1       1.448  54.689 -21.245  1.00  0.00     0.217 HD
ENDBRANCH  16  20
ENDBRANCH  11  12
ENDBRANCH   8  10
ENDBRANCH   7   8
ENDBRANCH   1   7
BRANCH   6  22
HETATM   22  O9  UNL     1      -3.030  52.841 -26.292  1.00  0.00    -0.390 OA
HETATM   23  H18 UNL     1      -3.084  52.956 -27.264  1.00  0.00     0.210 HD
ENDBRANCH   6  22
BRANCH   3  24
HETATM   24  O5  UNL     1       0.637  51.315 -28.323  1.00  0.00    -0.379 OA
HETATM   25  H11 UNL     1       1.188  50.532 -28.534  1.00  0.00     0.211 HD
ENDBRANCH   3  24
BRANCH   3  26
HETATM   26  C13 UNL     1       2.496  51.448 -26.733  1.00  0.00     0.176 C 
HETATM   27  O6  UNL     1       2.988  50.670 -25.935  1.00  0.00    -0.648 OA
BRANCH  26  28
HETATM   28  O7  UNL     1       3.277  52.184 -27.557  1.00  0.00    -0.774 OA
HETATM   29  H12 UNL     1       4.193  51.936 -27.306  1.00  0.00     0.167 HD
ENDBRANCH  26  28
ENDBRANCH   3  26
BRANCH   5  30
HETATM   30  O8  UNL     1      -1.258  53.235 -28.315  1.00  0.00    -0.393 OA
HETATM   31  H16 UNL     1      -0.707  52.513 -28.691  1.00  0.00     0.210 HD
ENDBRANCH   5  30
TORSDOF 11
ENDMDL
MODEL 2
REMARK minimizedAffinity -8.81305218
REMARK  11 active torsions:
REMARK  status: ('A' for Active; 'I' for Inactive)
REMARK    1  A    between atoms: C1_2  and  C2_3 
REMARK    2  A    between atoms: C1_2  and  O4_13 
REMARK    3  A    between atoms: C3_4  and  C4_5 
REMARK    4  A    between atoms: C7_8  and  O2_9 
REMARK    5  A    between atoms: C8_10  and  O3_11 
REMARK    6  A    between atoms: O4_13  and  C10_14 
REMARK    7  A    between atoms: C12_16  and  O5_17 
REMARK    8  A    between atoms: C12_16  and  C13_18 
REMARK    9  A    between atoms: C13_18  and  O7_20 
REMARK   10  A    between atoms: C15_22  and  O8_23 
REMARK   11  A    between atoms: C16_24  and  O9_25 
ROOT
HETATM    1  C10 UNL     1      -0.955  52.503 -24.695  1.00  0.00     0.166 C 
HETATM    2  C11 UNL     1      -1.784  51.452 -25.444  1.00  0.00     0.084 C 
HETATM    3  C12 UNL     1      -1.920  51.778 -26.932  1.00  0.00     0.147 C 
HETATM    4  C14 UNL     1      -0.548  51.958 -27.592  1.00  0.00     0.083 C 
HETATM    5  C15 UNL     1       0.295  53.005 -26.865  1.00  0.00     0.152 C 
HETATM    6  C16 UNL     1       0.416  52.707 -25.363  1.00  0.00     0.176 C 
ENDROOT
BRANCH   1   7
HETATM    7  O4  UNL     1      -0.723  52.038 -23.344  1.00  0.00    -0.310 OA
BRANCH   7   8
HETATM    8  C1  UNL     1      -1.801  52.041 -22.524  1.00  0.00     0.283 C 
HETATM    9  O1  UNL     1      -2.935  52.386 -22.811  1.00  0.00    -0.260 OA
BRANCH   8  10
HETATM   10  C2  UNL     1      -1.372  51.531 -21.206  1.00  0.00     0.083 C 
HETATM   11  C3  UNL     1      -0.524  52.250 -20.456  1.00  0.00     0.017 C 
BRANCH  11  12
HETATM   12  C4  UNL     1      -0.028  51.821 -19.142  1.00  0.00    -0.033 A 
HETATM   13  C5  UNL     1      -0.333  50.560 -18.602  1.00  0.00     0.014 A 
HETATM   14  C6  UNL     1       0.132  50.192 -17.336  1.00  0.00     0.040 A 
HETATM   15  C7  UNL     1       0.895  51.093 -16.609  1.00  0.00     0.098 A 
HETATM   16  C8  UNL     1       1.194  52.350 -17.123  1.00  0.00     0.099 A 
HETATM   17  C9  UNL     1       0.733  52.724 -18.383  1.00  0.00     0.050 A 
BRANCH  15  18
HETATM   18  O2  UNL     1       1.348  50.734 -15.372  1.00  0.00    -0.358 OA
HETATM   19  H5  UNL     1       1.850  51.515 -15.061  1.00  0.00     0.217 HD
ENDBRANCH  15  18
BRANCH  16  20
HETATM   20  O3  UNL     1       1.947  53.189 -16.349  1.00  0.00    -0.358 OA
HETATM   21  H6  UNL     1       2.083  54.017 -16.842  1.00  0.00     0.217 HD
ENDBRANCH  16  20
ENDBRANCH  11  12
ENDBRANCH   8  10
ENDBRANCH   7   8
ENDBRANCH   1   7
BRANCH   6  22
HETATM   22  O9  UNL     1       1.098  53.803 -24.733  1.00  0.00    -0.390 OA
HETATM   23  H18 UNL     1       0.799  54.605 -25.209  1.00  0.00     0.210 HD
ENDBRANCH   6  22
BRANCH   3  24
HETATM   24  O5  UNL     1      -2.624  53.022 -27.064  1.00  0.00    -0.379 OA
HETATM   25  H11 UNL     1      -3.578  52.793 -27.029  1.00  0.00     0.211 HD
ENDBRANCH   3  24
BRANCH   3  26
HETATM   26  C13 UNL     1      -2.685  50.638 -27.622  1.00  0.00     0.176 C 
HETATM   27  O6  UNL     1      -2.763  49.477 -27.260  1.00  0.00    -0.648 OA
BRANCH  26  28
HETATM   28  O7  UNL     1      -3.347  51.069 -28.720  1.00  0.00    -0.774 OA
HETATM   29  H12 UNL     1      -3.794  50.265 -29.063  1.00  0.00     0.167 HD
ENDBRANCH  26  28
ENDBRANCH   3  26
BRANCH   5  30
HETATM   30  O8  UNL     1      -0.260  54.319 -27.031  1.00  0.00    -0.393 OA
HETATM   31  H16 UNL     1      -1.235  54.224 -27.108  1.00  0.00     0.210 HD
ENDBRANCH   5  30
TORSDOF 11
ENDMDL
MODEL 3
REMARK minimizedAffinity -8.78817368
REMARK  11 active torsions:
REMARK  status: ('A' for Active; 'I' for Inactive)
REMARK    1  A    between atoms: C1_2  and  C2_3 
REMARK    2  A    between atoms: C1_2  and  O4_13 
REMARK    3  A    between atoms: C3_4  and  C4_5 
REMARK    4  A    between atoms: C7_8  and  O2_9 
REMARK    5  A    between atoms: C8_10  and  O3_11 
REMARK    6  A    between atoms: O4_13  and  C10_14 
REMARK    7  A    between atoms: C12_16  and  O5_17 
REMARK    8  A    between atoms: C12_16  and  C13_18 
REMARK    9  A    between atoms: C13_18  and  O7_20 
REMARK   10  A    between atoms: C15_22  and  O8_23 
REMARK   11  A    between atoms: C16_24  and  O9_25 
ROOT
HETATM    1  C10 UNL     1       5.838  65.382 -35.319  1.00  0.00     0.166 C 
HETATM    2  C11 UNL     1       5.245  65.348 -33.906  1.00  0.00     0.084 C 
HETATM    3  C12 UNL     1       4.601  64.000 -33.581  1.00  0.00     0.147 C 
HETATM    4  C14 UNL     1       5.592  62.846 -33.781  1.00  0.00     0.083 C 
HETATM    5  C15 UNL     1       6.192  62.855 -35.187  1.00  0.00     0.152 C 
HETATM    6  C16 UNL     1       6.817  64.214 -35.538  1.00  0.00     0.176 C 
ENDROOT
BRANCH   1   7
HETATM    7  O4  UNL     1       6.578  66.614 -35.486  1.00  0.00    -0.310 OA
BRANCH   7   8
HETATM    8  C1  UNL     1       5.837  67.719 -35.740  1.00  0.00     0.283 C 
HETATM    9  O1  UNL     1       5.735  68.707 -35.032  1.00  0.00    -0.260 OA
BRANCH   8  10
HETATM   10  C2  UNL     1       5.175  67.534 -37.047  1.00  0.00     0.083 C 
HETATM   11  C3  UNL     1       3.840  67.618 -37.137  1.00  0.00     0.017 C 
BRANCH  11  12
HETATM   12  C4  UNL     1       3.089  67.433 -38.386  1.00  0.00    -0.033 A 
HETATM   13  C5  UNL     1       3.486  68.036 -39.593  1.00  0.00     0.014 A 
HETATM   14  C6  UNL     1       2.734  67.863 -40.758  1.00  0.00     0.040 A 
HETATM   15  C7  UNL     1       1.582  67.094 -40.712  1.00  0.00     0.098 A 
HETATM   16  C8  UNL     1       1.169  66.502 -39.522  1.00  0.00     0.099 A 
HETATM   17  C9  UNL     1       1.911  66.671 -38.357  1.00  0.00     0.050 A 
BRANCH  15  18
HETATM   18  O2  UNL     1       0.848  66.926 -41.850  1.00  0.00    -0.358 OA
HETATM   19  H5  UNL     1       0.098  66.360 -41.575  1.00  0.00     0.217 HD
ENDBRANCH  15  18
BRANCH  16  20
HETATM   20  O3  UNL     1       0.019  65.761 -39.549  1.00  0.00    -0.358 OA
HETATM   21  H6  UNL     1      -0.132  65.404 -38.656  1.00  0.00     0.217 HD
ENDBRANCH  16  20
ENDBRANCH  11  12
ENDBRANCH   8  10
ENDBRANCH   7   8
ENDBRANCH   1   7
BRANCH   6  22
HETATM   22  O9  UNL     1       7.230  64.185 -36.913  1.00  0.00    -0.390 OA
HETATM   23  H18 UNL     1       6.556  63.646 -37.376  1.00  0.00     0.210 HD
ENDBRANCH   6  22
BRANCH   3  24
HETATM   24  O5  UNL     1       3.508  63.787 -34.487  1.00  0.00    -0.379 OA
HETATM   25  H11 UNL     1       2.739  64.247 -34.088  1.00  0.00     0.211 HD
ENDBRANCH   3  24
BRANCH   3  26
HETATM   26  C13 UNL     1       4.112  64.021 -32.125  1.00  0.00     0.176 C 
HETATM   27  O6  UNL     1       4.222  64.931 -31.322  1.00  0.00    -0.648 OA
BRANCH  26  28
HETATM   28  O7  UNL     1       3.466  62.878 -31.795  1.00  0.00    -0.774 OA
HETATM   29  H12 UNL     1       3.201  63.013 -30.859  1.00  0.00     0.167 HD
ENDBRANCH  26  28
ENDBRANCH   3  26
BRANCH   5  30
HETATM   30  O8  UNL     1       5.200  62.535 -36.174  1.00  0.00    -0.393 OA
HETATM   31  H16 UNL     1       4.335  62.867 -35.846  1.00  0.00     0.210 HD
ENDBRANCH   5  30
TORSDOF 11
ENDMDL
MODEL 4
REMARK minimizedAffinity -8.77431202
REMARK  11 active torsions:
REMARK  status: ('A' for Active; 'I' for Inactive)
REMARK    1  A    between atoms: C1_2  and  C2_3 
REMARK    2  A    between atoms: C1_2  and  O4_13 
REMARK    3  A    between atoms: C3_4  and  C4_5 
REMARK    4  A    between atoms: C7_8  and  O2_9 
REMARK    5  A    between atoms: C8_10  and  O3_11 
REMARK    6  A    between atoms: O4_13  and  C10_14 
REMARK    7  A    between atoms: C12_16  and  O5_17 
REMARK    8  A    between atoms: C12_16  and  C13_18 
REMARK    9  A    between atoms: C13_18  and  O7_20 
REMARK   10  A    between atoms: C15_22  and  O8_23 
REMARK   11  A    between atoms: C16_24  and  O9_25 
ROOT
HETATM    1  C10 UNL     1      -3.539  51.243 -26.667  1.00  0.00     0.166 C 
HETATM    2  C11 UNL     1      -3.327  50.785 -25.219  1.00  0.00     0.084 C 
HETATM    3  C12 UNL     1      -3.956  49.417 -24.948  1.00  0.00     0.147 C 
HETATM    4  C14 UNL     1      -3.439  48.361 -25.932  1.00  0.00     0.083 C 
HETATM    5  C15 UNL     1      -3.645  48.793 -27.384  1.00  0.00     0.152 C 
HETATM    6  C16 UNL     1      -3.044  50.179 -27.664  1.00  0.00     0.176 C 
ENDROOT
BRANCH   1   7
HETATM    7  O4  UNL     1      -2.772  52.449 -26.892  1.00  0.00    -0.310 OA
BRANCH   7   8
HETATM    8  C1  UNL     1      -1.425  52.305 -26.878  1.00  0.00     0.283 C 
HETATM    9  O1  UNL     1      -0.736  51.808 -27.754  1.00  0.00    -0.260 OA
BRANCH   8  10
HETATM   10  C2  UNL     1      -0.919  52.876 -25.615  1.00  0.00     0.083 C 
HETATM   11  C3  UNL     1      -0.469  52.064 -24.647  1.00  0.00     0.017 C 
BRANCH  11  12
HETATM   12  C4  UNL     1       0.038  52.534 -23.352  1.00  0.00    -0.033 A 
HETATM   13  C5  UNL     1      -0.309  51.909 -22.141  1.00  0.00     0.014 A 
HETATM   14  C6  UNL     1       0.167  52.397 -20.922  1.00  0.00     0.040 A 
HETATM   15  C7  UNL     1       0.985  53.517 -20.916  1.00  0.00     0.098 A 
HETATM   16  C8  UNL     1       1.327  54.155 -22.104  1.00  0.00     0.099 A 
HETATM   17  C9  UNL     1       0.855  53.676 -23.322  1.00  0.00     0.050 A 
BRANCH  15  18
HETATM   18  O2  UNL     1       1.450  53.994 -19.725  1.00  0.00    -0.358 OA
HETATM   19  H5  UNL     1       1.992  54.772 -19.969  1.00  0.00     0.217 HD
ENDBRANCH  15  18
BRANCH  16  20
HETATM   20  O3  UNL     1       2.133  55.257 -22.022  1.00  0.00    -0.358 OA
HETATM   21  H6  UNL     1       2.294  55.583 -22.925  1.00  0.00     0.217 HD
ENDBRANCH  16  20
ENDBRANCH  11  12
ENDBRANCH   8  10
ENDBRANCH   7   8
ENDBRANCH   1   7
BRANCH   6  22
HETATM   22  O9  UNL     1      -3.400  50.570 -28.999  1.00  0.00    -0.390 OA
HETATM   23  H18 UNL     1      -4.302  50.218 -29.142  1.00  0.00     0.210 HD
ENDBRANCH   6  22
BRANCH   3  24
HETATM   24  O5  UNL     1      -5.375  49.522 -25.139  1.00  0.00    -0.379 OA
HETATM   25  H11 UNL     1      -5.734  49.853 -24.288  1.00  0.00     0.211 HD
ENDBRANCH   3  24
BRANCH   3  26
HETATM   26  C13 UNL     1      -3.625  48.995 -23.509  1.00  0.00     0.176 C 
HETATM   27  O6  UNL     1      -2.556  48.591 -23.085  1.00  0.00    -0.648 OA
BRANCH  26  28
HETATM   28  O7  UNL     1      -4.683  49.159 -22.680  1.00  0.00    -0.774 OA
HETATM   29  H12 UNL     1      -4.350  48.866 -21.804  1.00  0.00     0.167 HD
ENDBRANCH  26  28
ENDBRANCH   3  26
BRANCH   5  30
HETATM   30  O8  UNL     1      -5.040  48.819 -27.722  1.00  0.00    -0.393 OA
HETATM   31  H16 UNL     1      -5.540  49.052 -26.908  1.00  0.00     0.210 HD
ENDBRANCH   5  30
TORSDOF 11
ENDMDL
MODEL 5
REMARK minimizedAffinity -8.65400219
REMARK  11 active torsions:
REMARK  status: ('A' for Active; 'I' for Inactive)
REMARK    1  A    between atoms: C1_2  and  C2_3 
REMARK    2  A    between atoms: C1_2  and  O4_13 
REMARK    3  A    between atoms: C3_4  and  C4_5 
REMARK    4  A    between atoms: C7_8  and  O2_9 
REMARK    5  A    between atoms: C8_10  and  O3_11 
REMARK    6  A    between atoms: O4_13  and  C10_14 
REMARK    7  A    between atoms: C12_16  and  O5_17 
REMARK    8  A    between atoms: C12_16  and  C13_18 
REMARK    9  A    between atoms: C13_18  and  O7_20 
REMARK   10  A    between atoms: C15_22  and  O8_23 
REMARK   11  A    between atoms: C16_24  and  O9_25 
ROOT
HETATM    1  C10 UNL     1      -2.081  50.431 -25.302  1.00  0.00     0.166 C 
HETATM    2  C11 UNL     1      -1.043  51.553 -25.182  1.00  0.00     0.084 C 
HETATM    3  C12 UNL     1      -0.685  52.156 -26.541  1.00  0.00     0.147 C 
HETATM    4  C14 UNL     1      -1.936  52.651 -27.278  1.00  0.00     0.083 C 
HETATM    5  C15 UNL     1      -2.984  51.547 -27.415  1.00  0.00     0.152 C 
HETATM    6  C16 UNL     1      -3.332  50.910 -26.060  1.00  0.00     0.176 C 
ENDROOT
BRANCH   1   7
HETATM    7  O4  UNL     1      -2.496  50.035 -23.973  1.00  0.00    -0.310 OA
BRANCH   7   8
HETATM    8  C1  UNL     1      -3.350  50.877 -23.345  1.00  0.00     0.283 C 
HETATM    9  O1  UNL     1      -4.514  51.092 -23.642  1.00  0.00    -0.260 OA
BRANCH   8  10
HETATM   10  C2  UNL     1      -2.633  51.489 -22.208  1.00  0.00     0.083 C 
HETATM   11  C3  UNL     1      -1.513  50.920 -21.741  1.00  0.00     0.017 C 
BRANCH  11  12
HETATM   12  C4  UNL     1      -0.739  51.443 -20.607  1.00  0.00    -0.033 A 
HETATM   13  C5  UNL     1      -0.794  50.857 -19.331  1.00  0.00     0.014 A 
HETATM   14  C6  UNL     1      -0.068  51.395 -18.265  1.00  0.00     0.040 A 
HETATM   15  C7  UNL     1       0.707  52.524 -18.477  1.00  0.00     0.098 A 
HETATM   16  C8  UNL     1       0.762  53.124 -19.731  1.00  0.00     0.099 A 
HETATM   17  C9  UNL     1       0.039  52.596 -20.798  1.00  0.00     0.050 A 
BRANCH  15  18
HETATM   18  O2  UNL     1       1.416  53.050 -17.436  1.00  0.00    -0.358 OA
HETATM   19  H5  UNL     1       1.873  53.826 -17.820  1.00  0.00     0.217 HD
ENDBRANCH  15  18
BRANCH  16  20
HETATM   20  O3  UNL     1       1.542  54.239 -19.867  1.00  0.00    -0.358 OA
HETATM   21  H6  UNL     1       1.490  54.535 -20.793  1.00  0.00     0.217 HD
ENDBRANCH  16  20
ENDBRANCH  11  12
ENDBRANCH   8  10
ENDBRANCH   7   8
ENDBRANCH   1   7
BRANCH   6  22
HETATM   22  O9  UNL     1      -4.210  49.798 -26.290  1.00  0.00    -0.390 OA
HETATM   23  H18 UNL     1      -3.909  49.398 -27.132  1.00  0.00     0.210 HD
ENDBRANCH   6  22
BRANCH   3  24
HETATM   24  O5  UNL     1      -0.088  51.133 -27.352  1.00  0.00    -0.379 OA
HETATM   25  H11 UNL     1       0.863  51.123 -27.109  1.00  0.00     0.211 HD
ENDBRANCH   3  24
BRANCH   3  26
HETATM   26  C13 UNL     1       0.289  53.324 -26.325  1.00  0.00     0.176 C 
HETATM   27  O6  UNL     1       0.070  54.510 -26.501  1.00  0.00    -0.648 OA
BRANCH  26  28
HETATM   28  O7  UNL     1       1.483  52.902 -25.850  1.00  0.00    -0.774 OA
HETATM   29  H12 UNL     1       2.008  53.726 -25.749  1.00  0.00     0.167 HD
ENDBRANCH  26  28
ENDBRANCH   3  26
BRANCH   5  30
HETATM   30  O8  UNL     1      -2.534  50.515 -28.307  1.00  0.00    -0.393 OA
HETATM   31  H16 UNL     1      -1.555  50.462 -28.232  1.00  0.00     0.210 HD
ENDBRANCH   5  30
TORSDOF 11
ENDMDL
MODEL 6
REMARK minimizedAffinity -8.58506584
REMARK  11 active torsions:
REMARK  status: ('A' for Active; 'I' for Inactive)
REMARK    1  A    between atoms: C1_2  and  C2_3 
REMARK    2  A    between atoms: C1_2  and  O4_13 
REMARK    3  A    between atoms: C3_4  and  C4_5 
REMARK    4  A    between atoms: C7_8  and  O2_9 
REMARK    5  A    between atoms: C8_10  and  O3_11 
REMARK    6  A    between atoms: O4_13  and  C10_14 
REMARK    7  A    between atoms: C12_16  and  O5_17 
REMARK    8  A    between atoms: C12_16  and  C13_18 
REMARK    9  A    between atoms: C13_18  and  O7_20 
REMARK   10  A    between atoms: C15_22  and  O8_23 
REMARK   11  A    between atoms: C16_24  and  O9_25 
ROOT
HETATM    1  C10 UNL     1      -3.340  51.380 -26.247  1.00  0.00     0.166 C 
HETATM    2  C11 UNL     1      -3.329  50.756 -24.847  1.00  0.00     0.084 C 
HETATM    3  C12 UNL     1      -3.968  49.366 -24.829  1.00  0.00     0.147 C 
HETATM    4  C14 UNL     1      -3.300  48.432 -25.845  1.00  0.00     0.083 C 
HETATM    5  C15 UNL     1      -3.304  49.031 -27.251  1.00  0.00     0.152 C 
HETATM    6  C16 UNL     1      -2.691  50.440 -27.279  1.00  0.00     0.176 C 
ENDROOT
BRANCH   1   7
HETATM    7  O4  UNL     1      -2.567  52.604 -26.218  1.00  0.00    -0.310 OA
BRANCH   7   8
HETATM    8  C1  UNL     1      -1.239  52.460 -25.999  1.00  0.00     0.283 C 
HETATM    9  O1  UNL     1      -0.405  52.072 -26.800  1.00  0.00    -0.260 OA
BRANCH   8  10
HETATM   10  C2  UNL     1      -0.959  52.874 -24.609  1.00  0.00     0.083 C 
HETATM   11  C3  UNL     1      -0.080  52.182 -23.870  1.00  0.00     0.017 C 
BRANCH  11  12
HETATM   12  C4  UNL     1       0.253  52.504 -22.477  1.00  0.00    -0.033 A 
HETATM   13  C5  UNL     1       1.045  53.614 -22.135  1.00  0.00     0.014 A 
HETATM   14  C6  UNL     1       1.368  53.879 -20.801  1.00  0.00     0.040 A 
HETATM   15  C7  UNL     1       0.904  53.026 -19.812  1.00  0.00     0.098 A 
HETATM   16  C8  UNL     1       0.131  51.915 -20.135  1.00  0.00     0.099 A 
HETATM   17  C9  UNL     1      -0.193  51.644 -21.461  1.00  0.00     0.050 A 
BRANCH  15  18
HETATM   18  O2  UNL     1       1.220  53.283 -18.509  1.00  0.00    -0.358 OA
HETATM   19  H5  UNL     1       0.791  52.560 -18.007  1.00  0.00     0.217 HD
ENDBRANCH  15  18
BRANCH  16  20
HETATM   20  O3  UNL     1      -0.288  51.114 -19.108  1.00  0.00    -0.358 OA
HETATM   21  H6  UNL     1      -0.824  50.394 -19.485  1.00  0.00     0.217 HD
ENDBRANCH  16  20
ENDBRANCH  11  12
ENDBRANCH   8  10
ENDBRANCH   7   8
ENDBRANCH   1   7
BRANCH   6  22
HETATM   22  O9  UNL     1      -2.859  50.985 -28.597  1.00  0.00    -0.390 OA
HETATM   23  H18 UNL     1      -3.726  50.653 -28.908  1.00  0.00     0.210 HD
ENDBRANCH   6  22
BRANCH   3  24
HETATM   24  O5  UNL     1      -5.347  49.494 -25.209  1.00  0.00    -0.379 OA
HETATM   25  H11 UNL     1      -5.829  49.723 -24.385  1.00  0.00     0.211 HD
ENDBRANCH   3  24
BRANCH   3  26
HETATM   26  C13 UNL     1      -3.839  48.778 -23.416  1.00  0.00     0.176 C 
HETATM   27  O6  UNL     1      -2.906  48.136 -22.966  1.00  0.00    -0.648 OA
BRANCH  26  28
HETATM   28  O7  UNL     1      -4.906  49.088 -22.643  1.00  0.00    -0.774 OA
HETATM   29  H12 UNL     1      -4.707  48.668 -21.778  1.00  0.00     0.167 HD
ENDBRANCH  26  28
ENDBRANCH   3  26
BRANCH   5  30
HETATM   30  O8  UNL     1      -4.637  49.098 -27.780  1.00  0.00    -0.393 OA
HETATM   31  H16 UNL     1      -5.251  49.235 -27.025  1.00  0.00     0.210 HD
ENDBRANCH   5  30
TORSDOF 11
ENDMDL
MODEL 7
REMARK minimizedAffinity -8.54070759
REMARK  11 active torsions:
REMARK  status: ('A' for Active; 'I' for Inactive)
REMARK    1  A    between atoms: C1_2  and  C2_3 
REMARK    2  A    between atoms: C1_2  and  O4_13 
REMARK    3  A    between atoms: C3_4  and  C4_5 
REMARK    4  A    between atoms: C7_8  and  O2_9 
REMARK    5  A    between atoms: C8_10  and  O3_11 
REMARK    6  A    between atoms: O4_13  and  C10_14 
REMARK    7  A    between atoms: C12_16  and  O5_17 
REMARK    8  A    between atoms: C12_16  and  C13_18 
REMARK    9  A    between atoms: C13_18  and  O7_20 
REMARK   10  A    between atoms: C15_22  and  O8_23 
REMARK   11  A    between atoms: C16_24  and  O9_25 
ROOT
HETATM    1  C10 UNL     1      -0.758  51.959 -25.508  1.00  0.00     0.166 C 
HETATM    2  C11 UNL     1      -1.900  51.698 -24.519  1.00  0.00     0.084 C 
HETATM    3  C12 UNL     1      -3.258  51.600 -25.216  1.00  0.00     0.147 C 
HETATM    4  C14 UNL     1      -3.242  50.535 -26.320  1.00  0.00     0.083 C 
HETATM    5  C15 UNL     1      -2.114  50.777 -27.322  1.00  0.00     0.152 C 
HETATM    6  C16 UNL     1      -0.748  50.908 -26.633  1.00  0.00     0.176 C 
ENDROOT
BRANCH   1   7
HETATM    7  O4  UNL     1       0.502  51.862 -24.803  1.00  0.00    -0.310 OA
BRANCH   7   8
HETATM    8  C1  UNL     1       0.726  52.808 -23.860  1.00  0.00     0.283 C 
HETATM    9  O1  UNL     1       0.995  53.982 -24.054  1.00  0.00    -0.260 OA
BRANCH   8  10
HETATM   10  C2  UNL     1       0.569  52.177 -22.535  1.00  0.00     0.083 C 
HETATM   11  C3  UNL     1       0.662  52.922 -21.424  1.00  0.00     0.017 C 
BRANCH  11  12
HETATM   12  C4  UNL     1       0.538  52.385 -20.063  1.00  0.00    -0.033 A 
HETATM   13  C5  UNL     1      -0.157  51.194 -19.789  1.00  0.00     0.014 A 
HETATM   14  C6  UNL     1      -0.282  50.724 -18.480  1.00  0.00     0.040 A 
HETATM   15  C7  UNL     1       0.283  51.451 -17.444  1.00  0.00     0.098 A 
HETATM   16  C8  UNL     1       0.963  52.639 -17.696  1.00  0.00     0.099 A 
HETATM   17  C9  UNL     1       1.089  53.115 -18.998  1.00  0.00     0.050 A 
BRANCH  15  18
HETATM   18  O2  UNL     1       0.161  50.993 -16.164  1.00  0.00    -0.358 OA
HETATM   19  H5  UNL     1       0.628  51.659 -15.620  1.00  0.00     0.217 HD
ENDBRANCH  15  18
BRANCH  16  20
HETATM   20  O3  UNL     1       1.490  53.308 -16.625  1.00  0.00    -0.358 OA
HETATM   21  H6  UNL     1       1.941  54.104 -16.957  1.00  0.00     0.217 HD
ENDBRANCH  16  20
ENDBRANCH  11  12
ENDBRANCH   8  10
ENDBRANCH   7   8
ENDBRANCH   1   7
BRANCH   6  22
HETATM   22  O9  UNL     1       0.229  51.271 -27.620  1.00  0.00    -0.390 OA
HETATM   23  H18 UNL     1      -0.238  51.865 -28.243  1.00  0.00     0.210 HD
ENDBRANCH   6  22
BRANCH   3  24
HETATM   24  O5  UNL     1      -3.541  52.861 -25.843  1.00  0.00    -0.379 OA
HETATM   25  H11 UNL     1      -3.943  53.420 -25.144  1.00  0.00     0.211 HD
ENDBRANCH   3  24
BRANCH   3  26
HETATM   26  C13 UNL     1      -4.329  51.253 -24.171  1.00  0.00     0.176 C 
HETATM   27  O6  UNL     1      -4.187  50.583 -23.163  1.00  0.00    -0.648 OA
BRANCH  26  28
HETATM   28  O7  UNL     1      -5.519  51.827 -24.462  1.00  0.00    -0.774 OA
HETATM   29  H12 UNL     1      -6.110  51.541 -23.731  1.00  0.00     0.167 HD
ENDBRANCH  26  28
ENDBRANCH   3  26
BRANCH   5  30
HETATM   30  O8  UNL     1      -2.356  51.964 -28.094  1.00  0.00    -0.393 OA
HETATM   31  H16 UNL     1      -2.854  52.593 -27.526  1.00  0.00     0.210 HD
ENDBRANCH   5  30
TORSDOF 11
ENDMDL
MODEL 8
REMARK minimizedAffinity -8.49722099
REMARK  11 active torsions:
REMARK  status: ('A' for Active; 'I' for Inactive)
REMARK    1  A    between atoms: C1_2  and  C2_3 
REMARK    2  A    between atoms: C1_2  and  O4_13 
REMARK    3  A    between atoms: C3_4  and  C4_5 
REMARK    4  A    between atoms: C7_8  and  O2_9 
REMARK    5  A    between atoms: C8_10  and  O3_11 
REMARK    6  A    between atoms: O4_13  and  C10_14 
REMARK    7  A    between atoms: C12_16  and  O5_17 
REMARK    8  A    between atoms: C12_16  and  C13_18 
REMARK    9  A    between atoms: C13_18  and  O7_20 
REMARK   10  A    between atoms: C15_22  and  O8_23 
REMARK   11  A    between atoms: C16_24  and  O9_25 
ROOT
HETATM    1  C10 UNL     1      -1.313  51.513 -25.205  1.00  0.00     0.166 C 
HETATM    2  C11 UNL     1      -0.861  52.915 -24.780  1.00  0.00     0.084 C 
HETATM    3  C12 UNL     1       0.237  53.468 -25.689  1.00  0.00     0.147 C 
HETATM    4  C14 UNL     1      -0.201  53.462 -27.159  1.00  0.00     0.083 C 
HETATM    5  C15 UNL     1      -0.651  52.072 -27.608  1.00  0.00     0.152 C 
HETATM    6  C16 UNL     1      -1.733  51.490 -26.685  1.00  0.00     0.176 C 
ENDROOT
BRANCH   1   7
HETATM    7  O4  UNL     1      -2.465  51.134 -24.414  1.00  0.00    -0.310 OA
BRANCH   7   8
HETATM    8  C1  UNL     1      -2.313  50.035 -23.637  1.00  0.00     0.283 C 
HETATM    9  O1  UNL     1      -2.836  48.946 -23.804  1.00  0.00    -0.260 OA
BRANCH   8  10
HETATM   10  C2  UNL     1      -1.380  50.375 -22.544  1.00  0.00     0.083 C 
HETATM   11  C3  UNL     1      -1.756  51.236 -21.588  1.00  0.00     0.017 C 
BRANCH  11  12
HETATM   12  C4  UNL     1      -0.895  51.649 -20.472  1.00  0.00    -0.033 A 
HETATM   13  C5  UNL     1      -0.947  51.021 -19.215  1.00  0.00     0.014 A 
HETATM   14  C6  UNL     1      -0.135  51.455 -18.164  1.00  0.00     0.040 A 
HETATM   15  C7  UNL     1       0.722  52.525 -18.371  1.00  0.00     0.098 A 
HETATM   16  C8  UNL     1       0.776  53.166 -19.605  1.00  0.00     0.099 A 
HETATM   17  C9  UNL     1      -0.031  52.740 -20.656  1.00  0.00     0.050 A 
BRANCH  15  18
HETATM   18  O2  UNL     1       1.515  52.950 -17.345  1.00  0.00    -0.358 OA
HETATM   19  H5  UNL     1       2.020  53.699 -17.721  1.00  0.00     0.217 HD
ENDBRANCH  15  18
BRANCH  16  20
HETATM   20  O3  UNL     1       1.642  54.217 -19.736  1.00  0.00    -0.358 OA
HETATM   21  H6  UNL     1       1.578  54.551 -20.647  1.00  0.00     0.217 HD
ENDBRANCH  16  20
ENDBRANCH  11  12
ENDBRANCH   8  10
ENDBRANCH   7   8
ENDBRANCH   1   7
BRANCH   6  22
HETATM   22  O9  UNL     1      -1.999  50.138 -27.088  1.00  0.00    -0.390 OA
HETATM   23  H18 UNL     1      -1.135  49.777 -27.376  1.00  0.00     0.210 HD
ENDBRANCH   6  22
BRANCH   3  24
HETATM   24  O5  UNL     1       1.389  52.618 -25.582  1.00  0.00    -0.379 OA
HETATM   25  H11 UNL     1       1.882  52.937 -24.796  1.00  0.00     0.211 HD
ENDBRANCH   3  24
BRANCH   3  26
HETATM   26  C13 UNL     1       0.569  54.902 -25.250  1.00  0.00     0.176 C 
HETATM   27  O6  UNL     1       0.201  55.939 -25.774  1.00  0.00    -0.648 OA
BRANCH  26  28
HETATM   28  O7  UNL     1       1.326  54.922 -24.128  1.00  0.00    -0.774 OA
HETATM   29  H12 UNL     1       1.465  55.877 -23.948  1.00  0.00     0.167 HD
ENDBRANCH  26  28
ENDBRANCH   3  26
BRANCH   5  30
HETATM   30  O8  UNL     1       0.457  51.159 -27.650  1.00  0.00    -0.393 OA
HETATM   31  H16 UNL     1       1.095  51.431 -26.953  1.00  0.00     0.210 HD
ENDBRANCH   5  30
TORSDOF 11
ENDMDL
MODEL 9
REMARK minimizedAffinity -8.48915577
REMARK  11 active torsions:
REMARK  status: ('A' for Active; 'I' for Inactive)
REMARK    1  A    between atoms: C1_2  and  C2_3 
REMARK    2  A    between atoms: C1_2  and  O4_13 
REMARK    3  A    between atoms: C3_4  and  C4_5 
REMARK    4  A    between atoms: C7_8  and  O2_9 
REMARK    5  A    between atoms: C8_10  and  O3_11 
REMARK    6  A    between atoms: O4_13  and  C10_14 
REMARK    7  A    between atoms: C12_16  and  O5_17 
REMARK    8  A    between atoms: C12_16  and  C13_18 
REMARK    9  A    between atoms: C13_18  and  O7_20 
REMARK   10  A    between atoms: C15_22  and  O8_23 
REMARK   11  A    between atoms: C16_24  and  O9_25 
ROOT
HETATM    1  C10 UNL     1       0.250  52.737 -25.537  1.00  0.00     0.166 C 
HETATM    2  C11 UNL     1      -1.170  52.305 -25.157  1.00  0.00     0.084 C 
HETATM    3  C12 UNL     1      -2.050  52.064 -26.385  1.00  0.00     0.147 C 
HETATM    4  C14 UNL     1      -1.410  51.048 -27.338  1.00  0.00     0.083 C 
HETATM    5  C15 UNL     1       0.007  51.461 -27.737  1.00  0.00     0.152 C 
HETATM    6  C16 UNL     1       0.894  51.735 -26.512  1.00  0.00     0.176 C 
ENDROOT
BRANCH   1   7
HETATM    7  O4  UNL     1       1.063  52.772 -24.340  1.00  0.00    -0.310 OA
BRANCH   7   8
HETATM    8  C1  UNL     1       1.056  53.940 -23.654  1.00  0.00     0.283 C 
HETATM    9  O1  UNL     1       1.052  55.064 -24.128  1.00  0.00    -0.260 OA
BRANCH   8  10
HETATM   10  C2  UNL     1       1.037  53.621 -22.213  1.00  0.00     0.083 C 
HETATM   11  C3  UNL     1       0.382  52.535 -21.777  1.00  0.00     0.017 C 
BRANCH  11  12
HETATM   12  C4  UNL     1       0.291  52.143 -20.365  1.00  0.00    -0.033 A 
HETATM   13  C5  UNL     1       0.844  52.924 -19.335  1.00  0.00     0.014 A 
HETATM   14  C6  UNL     1       0.765  52.510 -18.003  1.00  0.00     0.040 A 
HETATM   15  C7  UNL     1       0.139  51.310 -17.704  1.00  0.00     0.098 A 
HETATM   16  C8  UNL     1      -0.402  50.519 -18.713  1.00  0.00     0.099 A 
HETATM   17  C9  UNL     1      -0.326  50.924 -20.043  1.00  0.00     0.050 A 
BRANCH  15  18
HETATM   18  O2  UNL     1       0.063  50.905 -16.403  1.00  0.00    -0.358 OA
HETATM   19  H5  UNL     1      -0.411  50.049 -16.442  1.00  0.00     0.217 HD
ENDBRANCH  15  18
BRANCH  16  20
HETATM   20  O3  UNL     1      -1.001  49.345 -18.346  1.00  0.00    -0.358 OA
HETATM   21  H6  UNL     1      -1.339  48.913 -19.150  1.00  0.00     0.217 HD
ENDBRANCH  16  20
ENDBRANCH  11  12
ENDBRANCH   8  10
ENDBRANCH   7   8
ENDBRANCH   1   7
BRANCH   6  22
HETATM   22  O9  UNL     1       2.155  52.249 -26.966  1.00  0.00    -0.390 OA
HETATM   23  H18 UNL     1       1.945  52.802 -27.747  1.00  0.00     0.210 HD
ENDBRANCH   6  22
BRANCH   3  24
HETATM   24  O5  UNL     1      -2.178  53.302 -27.103  1.00  0.00    -0.379 OA
HETATM   25  H11 UNL     1      -2.916  53.783 -26.672  1.00  0.00     0.211 HD
ENDBRANCH   3  24
BRANCH   3  26
HETATM   26  C13 UNL     1      -3.422  51.553 -25.922  1.00  0.00     0.176 C 
HETATM   27  O6  UNL     1      -4.171  52.077 -25.116  1.00  0.00    -0.648 OA
BRANCH  26  28
HETATM   28  O7  UNL     1      -3.775  50.412 -26.559  1.00  0.00    -0.774 OA
HETATM   29  H12 UNL     1      -4.657  50.193 -26.188  1.00  0.00     0.167 HD
ENDBRANCH  26  28
ENDBRANCH   3  26
BRANCH   5  30
HETATM   30  O8  UNL     1      -0.010  52.635 -28.564  1.00  0.00    -0.393 OA
HETATM   31  H16 UNL     1      -0.784  53.178 -28.294  1.00  0.00     0.210 HD
ENDBRANCH   5  30
TORSDOF 11
ENDMDL
