MODEL 1
REMARK minimizedAffinity -6.90583897
REMARK  5 active torsions:
REMARK  status: ('A' for Active; 'I' for Inactive)
REMARK    1  A    between atoms: C1_2  and  C2_3 
REMARK       I    between atoms: C1_2  and  N3_15 
REMARK    2  A    between atoms: C2_3  and  C3_4 
REMARK    3  A    between atoms: C5_7  and  N1_8 
REMARK    4  A    between atoms: N3_15  and  C10_16 
REMARK    5  A    between atoms: C10_16  and  C11_17 
ROOT
HETATM    1  O1  UNL     1      13.630  36.133  18.052  1.00  0.00    -0.273 OA
HETATM    2  C1  UNL     1      12.783  36.165  17.161  1.00  0.00     0.223 C 
HETATM    3  N3  UNL     1      11.481  35.739  17.336  1.00  0.00    -0.360 N 
HETATM    4  H8  UNL     1      10.876  35.698  16.519  1.00  0.00     0.162 HD
ENDROOT
BRANCH   2   5
HETATM    5  C2  UNL     1      13.110  36.642  15.759  1.00  0.00     0.160 C 
BRANCH   5   6
HETATM    6  C3  UNL     1      14.550  36.435  15.430  1.00  0.00     0.026 A 
HETATM    7  C4  UNL     1      15.623  37.166  15.911  1.00  0.00     0.078 A 
HETATM    8  S1  UNL     1      17.090  36.569  15.250  1.00  0.00    -0.063 SA
HETATM    9  C5  UNL     1      16.200  35.408  14.376  1.00  0.00     0.154 A 
HETATM   10  N2  UNL     1      14.892  35.428  14.530  1.00  0.00    -0.339 N 
ATOM     11  H2  UNL     1      14.234  34.804  14.063  1.00  0.00     0.168 HD
BRANCH   9  12
HETATM   12  N1  UNL     1      16.859  34.494  13.539  1.00  0.00    -0.313 N 
HETATM   13  C6  UNL     1      16.456  33.978  12.316  1.00  0.00     0.098 A 
HETATM   14  C7  UNL     1      17.416  33.109  11.845  1.00  0.00     0.019 A 
HETATM   15  C8  UNL     1      18.455  33.074  12.798  1.00  0.00     0.019 A 
HETATM   16  C9  UNL     1      18.097  33.927  13.817  1.00  0.00     0.098 A 
ENDBRANCH   9  12
ENDBRANCH   5   6
ENDBRANCH   2   5
BRANCH   3  17
HETATM   17  C10 UNL     1      11.032  35.166  18.590  1.00  0.00     0.129 C 
BRANCH  17  18
HETATM   18  C11 UNL     1      10.698  36.234  19.649  1.00  0.00     0.037 C 
HETATM   19  C12 UNL     1      11.594  36.105  20.905  1.00  0.00     0.010 C 
HETATM   20  C13 UNL     1      10.921  35.387  22.075  1.00  0.00     0.031 C 
HETATM   21  C14 UNL     1       9.835  34.421  21.615  1.00  0.00     0.273 C 
HETATM   22  N4  UNL     1       8.770  35.123  20.900  1.00  0.00     0.093 N 
HETATM   23  C15 UNL     1       7.820  34.216  20.262  1.00  0.00     0.273 C 
HETATM   24  C19 UNL     1       9.200  36.258  20.063  1.00  0.00     0.228 C 
HETATM   25  C16 UNL     1       6.539  34.960  19.866  1.00  0.00     0.030 C 
HETATM   26  C17 UNL     1       6.795  36.359  19.302  1.00  0.00     0.004 C 
HETATM   27  C18 UNL     1       8.250  36.518  18.873  1.00  0.00     0.036 C 
ENDBRANCH  17  18
ENDBRANCH   3  17
TORSDOF 5
ENDMDL
MODEL 2
REMARK minimizedAffinity -6.85590315
REMARK  5 active torsions:
REMARK  status: ('A' for Active; 'I' for Inactive)
REMARK    1  A    between atoms: C1_2  and  C2_3 
REMARK       I    between atoms: C1_2  and  N3_15 
REMARK    2  A    between atoms: C2_3  and  C3_4 
REMARK    3  A    between atoms: C5_7  and  N1_8 
REMARK    4  A    between atoms: N3_15  and  C10_16 
REMARK    5  A    between atoms: C10_16  and  C11_17 
ROOT
HETATM    1  O1  UNL     1      11.792  34.243  17.917  1.00  0.00    -0.273 OA
HETATM    2  C1  UNL     1      12.599  34.106  18.835  1.00  0.00     0.223 C 
HETATM    3  N3  UNL     1      12.226  33.929  20.153  1.00  0.00    -0.360 N 
HETATM    4  H8  UNL     1      12.955  33.934  20.862  1.00  0.00     0.162 HD
ENDROOT
BRANCH   2   5
HETATM    5  C2  UNL     1      14.096  34.165  18.603  1.00  0.00     0.160 C 
BRANCH   5   6
HETATM    6  C3  UNL     1      14.476  35.336  17.759  1.00  0.00     0.026 A 
HETATM    7  C4  UNL     1      14.110  36.655  17.961  1.00  0.00     0.078 A 
HETATM    8  S1  UNL     1      14.778  37.649  16.731  1.00  0.00    -0.063 SA
HETATM    9  C5  UNL     1      15.483  36.268  16.026  1.00  0.00     0.154 A 
HETATM   10  N2  UNL     1      15.259  35.118  16.628  1.00  0.00    -0.339 N 
ATOM     11  H2  UNL     1      15.605  34.211  16.315  1.00  0.00     0.168 HD
BRANCH   9  12
HETATM   12  N1  UNL     1      16.254  36.385  14.859  1.00  0.00    -0.313 N 
HETATM   13  C6  UNL     1      17.001  37.463  14.407  1.00  0.00     0.098 A 
HETATM   14  C7  UNL     1      17.597  37.139  13.207  1.00  0.00     0.019 A 
HETATM   15  C8  UNL     1      17.214  35.818  12.891  1.00  0.00     0.019 A 
HETATM   16  C9  UNL     1      16.400  35.379  13.911  1.00  0.00     0.098 A 
ENDBRANCH   9  12
ENDBRANCH   5   6
ENDBRANCH   2   5
BRANCH   3  17
HETATM   17  C10 UNL     1      10.834  33.945  20.556  1.00  0.00     0.129 C 
BRANCH  17  18
HETATM   18  C11 UNL     1      10.431  35.254  21.262  1.00  0.00     0.037 C 
HETATM   19  C12 UNL     1      10.488  35.124  22.803  1.00  0.00     0.010 C 
HETATM   20  C13 UNL     1       9.126  34.886  23.456  1.00  0.00     0.031 C 
HETATM   21  C14 UNL     1       8.141  34.210  22.510  1.00  0.00     0.273 C 
HETATM   22  N4  UNL     1       7.889  35.034  21.329  1.00  0.00     0.093 N 
HETATM   23  C15 UNL     1       7.120  34.337  20.303  1.00  0.00     0.273 C 
HETATM   24  C19 UNL     1       9.043  35.800  20.824  1.00  0.00     0.228 C 
HETATM   25  C16 UNL     1       6.554  35.328  19.278  1.00  0.00     0.030 C 
HETATM   26  C17 UNL     1       7.531  36.447  18.908  1.00  0.00     0.004 C 
HETATM   27  C18 UNL     1       8.957  36.082  19.307  1.00  0.00     0.036 C 
ENDBRANCH  17  18
ENDBRANCH   3  17
TORSDOF 5
ENDMDL
MODEL 3
REMARK minimizedAffinity -6.60464287
REMARK  5 active torsions:
REMARK  status: ('A' for Active; 'I' for Inactive)
REMARK    1  A    between atoms: C1_2  and  C2_3 
REMARK       I    between atoms: C1_2  and  N3_15 
REMARK    2  A    between atoms: C2_3  and  C3_4 
REMARK    3  A    between atoms: C5_7  and  N1_8 
REMARK    4  A    between atoms: N3_15  and  C10_16 
REMARK    5  A    between atoms: C10_16  and  C11_17 
ROOT
HETATM    1  O1  UNL     1      15.119  35.132  16.832  1.00  0.00    -0.273 OA
HETATM    2  C1  UNL     1      14.540  35.739  15.932  1.00  0.00     0.223 C 
HETATM    3  N3  UNL     1      15.011  35.802  14.635  1.00  0.00    -0.360 N 
HETATM    4  H8  UNL     1      14.531  36.414  13.981  1.00  0.00     0.162 HD
ENDROOT
BRANCH   2   5
HETATM    5  C2  UNL     1      13.263  36.518  16.181  1.00  0.00     0.160 C 
BRANCH   5   6
HETATM    6  C3  UNL     1      12.617  36.120  17.466  1.00  0.00     0.026 A 
HETATM    7  C4  UNL     1      13.259  35.741  18.632  1.00  0.00     0.078 A 
HETATM    8  S1  UNL     1      12.107  35.366  19.847  1.00  0.00    -0.063 SA
HETATM    9  C5  UNL     1      10.858  35.718  18.743  1.00  0.00     0.154 A 
HETATM   10  N2  UNL     1      11.227  36.090  17.534  1.00  0.00    -0.339 N 
ATOM     11  H2  UNL     1      10.593  36.320  16.769  1.00  0.00     0.168 HD
BRANCH   9  12
HETATM   12  N1  UNL     1       9.515  35.603  19.133  1.00  0.00    -0.313 N 
HETATM   13  C6  UNL     1       8.956  34.809  20.125  1.00  0.00     0.098 A 
HETATM   14  C7  UNL     1       7.593  35.011  20.161  1.00  0.00     0.019 A 
HETATM   15  C8  UNL     1       7.282  35.959  19.164  1.00  0.00     0.019 A 
HETATM   16  C9  UNL     1       8.466  36.307  18.554  1.00  0.00     0.098 A 
ENDBRANCH   9  12
ENDBRANCH   5   6
ENDBRANCH   2   5
BRANCH   3  17
HETATM   17  C10 UNL     1      16.269  35.191  14.255  1.00  0.00     0.129 C 
BRANCH  17  18
HETATM   18  C11 UNL     1      16.454  35.106  12.727  1.00  0.00     0.037 C 
HETATM   19  C12 UNL     1      16.377  33.648  12.214  1.00  0.00     0.010 C 
HETATM   20  C13 UNL     1      17.742  33.008  11.958  1.00  0.00     0.031 C 
HETATM   21  C14 UNL     1      18.841  33.627  12.814  1.00  0.00     0.273 C 
HETATM   22  N4  UNL     1      18.998  35.051  12.525  1.00  0.00     0.093 N 
HETATM   23  C15 UNL     1      19.889  35.727  13.464  1.00  0.00     0.273 C 
HETATM   24  C19 UNL     1      17.757  35.783  12.216  1.00  0.00     0.228 C 
HETATM   25  C16 UNL     1      20.327  37.091  12.916  1.00  0.00     0.030 C 
HETATM   26  C17 UNL     1      19.204  37.851  12.207  1.00  0.00     0.004 C 
HETATM   27  C18 UNL     1      17.838  37.283  12.578  1.00  0.00     0.036 C 
ENDBRANCH  17  18
ENDBRANCH   3  17
TORSDOF 5
ENDMDL
MODEL 4
REMARK minimizedAffinity -6.51106834
REMARK  5 active torsions:
REMARK  status: ('A' for Active; 'I' for Inactive)
REMARK    1  A    between atoms: C1_2  and  C2_3 
REMARK       I    between atoms: C1_2  and  N3_15 
REMARK    2  A    between atoms: C2_3  and  C3_4 
REMARK    3  A    between atoms: C5_7  and  N1_8 
REMARK    4  A    between atoms: N3_15  and  C10_16 
REMARK    5  A    between atoms: C10_16  and  C11_17 
ROOT
HETATM    1  O1  UNL     1      12.146  33.960  17.727  1.00  0.00    -0.273 OA
HETATM    2  C1  UNL     1      12.107  35.186  17.630  1.00  0.00     0.223 C 
HETATM    3  N3  UNL     1      13.162  36.008  17.973  1.00  0.00    -0.360 N 
HETATM    4  H8  UNL     1      13.007  37.013  17.967  1.00  0.00     0.162 HD
ENDROOT
BRANCH   2   5
HETATM    5  C2  UNL     1      10.863  35.915  17.160  1.00  0.00     0.160 C 
BRANCH   5   6
HETATM    6  C3  UNL     1       9.755  35.809  18.153  1.00  0.00     0.026 A 
HETATM    7  C4  UNL     1       8.436  36.187  17.966  1.00  0.00     0.078 A 
HETATM    8  S1  UNL     1       7.526  35.885  19.389  1.00  0.00    -0.063 SA
HETATM    9  C5  UNL     1       8.936  35.294  20.141  1.00  0.00     0.154 A 
HETATM   10  N2  UNL     1      10.039  35.306  19.421  1.00  0.00    -0.339 N 
ATOM     11  H2  UNL     1      10.956  34.997  19.741  1.00  0.00     0.168 HD
BRANCH   9  12
HETATM   12  N1  UNL     1       8.890  34.830  21.465  1.00  0.00    -0.313 N 
HETATM   13  C6  UNL     1       7.788  34.492  22.238  1.00  0.00     0.098 A 
HETATM   14  C7  UNL     1       8.209  34.087  23.486  1.00  0.00     0.019 A 
HETATM   15  C8  UNL     1       9.617  34.171  23.503  1.00  0.00     0.019 A 
HETATM   16  C9  UNL     1      10.009  34.622  22.263  1.00  0.00     0.098 A 
ENDBRANCH   9  12
ENDBRANCH   5   6
ENDBRANCH   2   5
BRANCH   3  17
HETATM   17  C10 UNL     1      14.389  35.475  18.531  1.00  0.00     0.129 C 
BRANCH  17  18
HETATM   18  C11 UNL     1      15.531  36.509  18.557  1.00  0.00     0.037 C 
HETATM   19  C12 UNL     1      14.997  37.961  18.611  1.00  0.00     0.010 C 
HETATM   20  C13 UNL     1      14.996  38.672  17.258  1.00  0.00     0.031 C 
HETATM   21  C14 UNL     1      14.894  37.696  16.091  1.00  0.00     0.273 C 
HETATM   22  N4  UNL     1      16.031  36.777  16.068  1.00  0.00     0.093 N 
HETATM   23  C15 UNL     1      15.870  35.697  15.100  1.00  0.00     0.273 C 
HETATM   24  C19 UNL     1      16.541  36.356  17.385  1.00  0.00     0.228 C 
HETATM   25  C16 UNL     1      17.210  35.000  14.832  1.00  0.00     0.030 C 
HETATM   26  C17 UNL     1      18.061  34.812  16.089  1.00  0.00     0.004 C 
HETATM   27  C18 UNL     1      17.217  34.967  17.350  1.00  0.00     0.036 C 
ENDBRANCH  17  18
ENDBRANCH   3  17
TORSDOF 5
ENDMDL
MODEL 5
REMARK minimizedAffinity -6.49925756
REMARK  5 active torsions:
REMARK  status: ('A' for Active; 'I' for Inactive)
REMARK    1  A    between atoms: C1_2  and  C2_3 
REMARK       I    between atoms: C1_2  and  N3_15 
REMARK    2  A    between atoms: C2_3  and  C3_4 
REMARK    3  A    between atoms: C5_7  and  N1_8 
REMARK    4  A    between atoms: N3_15  and  C10_16 
REMARK    5  A    between atoms: C10_16  and  C11_17 
ROOT
HETATM    1  O1  UNL     1      18.987  49.020   5.333  1.00  0.00    -0.273 OA
HETATM    2  C1  UNL     1      17.920  49.559   5.624  1.00  0.00     0.223 C 
HETATM    3  N3  UNL     1      16.703  49.162   5.104  1.00  0.00    -0.360 N 
HETATM    4  H8  UNL     1      15.886  49.730   5.312  1.00  0.00     0.162 HD
ENDROOT
BRANCH   2   5
HETATM    5  C2  UNL     1      17.851  50.751   6.558  1.00  0.00     0.160 C 
BRANCH   5   6
HETATM    6  C3  UNL     1      17.821  52.039   5.805  1.00  0.00     0.026 A 
HETATM    7  C4  UNL     1      18.914  52.758   5.352  1.00  0.00     0.078 A 
HETATM    8  S1  UNL     1      18.393  54.179   4.544  1.00  0.00    -0.063 SA
HETATM    9  C5  UNL     1      16.777  53.745   4.864  1.00  0.00     0.154 A 
HETATM   10  N2  UNL     1      16.588  52.625   5.531  1.00  0.00    -0.339 N 
ATOM     11  H2  UNL     1      15.681  52.247   5.804  1.00  0.00     0.168 HD
BRANCH   9  12
HETATM   12  N1  UNL     1      15.725  54.565   4.429  1.00  0.00    -0.313 N 
HETATM   13  C6  UNL     1      15.756  55.640   3.553  1.00  0.00     0.098 A 
HETATM   14  C7  UNL     1      14.487  56.157   3.413  1.00  0.00     0.019 A 
HETATM   15  C8  UNL     1      13.628  55.387   4.225  1.00  0.00     0.019 A 
HETATM   16  C9  UNL     1      14.402  54.423   4.830  1.00  0.00     0.098 A 
ENDBRANCH   9  12
ENDBRANCH   5   6
ENDBRANCH   2   5
BRANCH   3  17
HETATM   17  C10 UNL     1      16.608  48.099   4.122  1.00  0.00     0.129 C 
BRANCH  17  18
HETATM   18  C11 UNL     1      15.613  46.996   4.532  1.00  0.00     0.037 C 
HETATM   19  C12 UNL     1      15.387  46.959   6.063  1.00  0.00     0.010 C 
HETATM   20  C13 UNL     1      16.188  45.872   6.781  1.00  0.00     0.031 C 
HETATM   21  C14 UNL     1      17.458  45.494   6.028  1.00  0.00     0.273 C 
HETATM   22  N4  UNL     1      17.149  44.964   4.701  1.00  0.00     0.093 N 
HETATM   23  C15 UNL     1      18.336  44.788   3.869  1.00  0.00     0.273 C 
HETATM   24  C19 UNL     1      16.000  45.582   4.016  1.00  0.00     0.228 C 
HETATM   25  C16 UNL     1      18.029  43.890   2.664  1.00  0.00     0.030 C 
HETATM   26  C17 UNL     1      16.658  44.158   2.038  1.00  0.00     0.004 C 
HETATM   27  C18 UNL     1      16.111  45.512   2.476  1.00  0.00     0.036 C 
ENDBRANCH  17  18
ENDBRANCH   3  17
TORSDOF 5
ENDMDL
MODEL 6
REMARK minimizedAffinity -6.48263645
REMARK  5 active torsions:
REMARK  status: ('A' for Active; 'I' for Inactive)
REMARK    1  A    between atoms: C1_2  and  C2_3 
REMARK       I    between atoms: C1_2  and  N3_15 
REMARK    2  A    between atoms: C2_3  and  C3_4 
REMARK    3  A    between atoms: C5_7  and  N1_8 
REMARK    4  A    between atoms: N3_15  and  C10_16 
REMARK    5  A    between atoms: C10_16  and  C11_17 
ROOT
HETATM    1  O1  UNL     1      14.409  37.793  17.581  1.00  0.00    -0.273 OA
HETATM    2  C1  UNL     1      14.241  37.509  16.396  1.00  0.00     0.223 C 
HETATM    3  N3  UNL     1      14.765  38.253  15.356  1.00  0.00    -0.360 N 
HETATM    4  H8  UNL     1      14.487  38.012  14.408  1.00  0.00     0.162 HD
ENDROOT
BRANCH   2   5
HETATM    5  C2  UNL     1      13.397  36.326  15.965  1.00  0.00     0.160 C 
BRANCH   5   6
HETATM    6  C3  UNL     1      12.662  35.726  17.117  1.00  0.00     0.026 A 
HETATM    7  C4  UNL     1      13.148  34.785  18.009  1.00  0.00     0.078 A 
HETATM    8  S1  UNL     1      11.942  34.387  19.164  1.00  0.00    -0.063 SA
HETATM    9  C5  UNL     1      10.876  35.470  18.394  1.00  0.00     0.154 A 
HETATM   10  N2  UNL     1      11.341  36.106  17.339  1.00  0.00    -0.339 N 
ATOM     11  H2  UNL     1      10.815  36.772  16.772  1.00  0.00     0.168 HD
BRANCH   9  12
HETATM   12  N1  UNL     1       9.572  35.647  18.883  1.00  0.00    -0.313 N 
HETATM   13  C6  UNL     1       8.980  35.106  20.015  1.00  0.00     0.098 A 
HETATM   14  C7  UNL     1       7.679  35.549  20.110  1.00  0.00     0.019 A 
HETATM   15  C8  UNL     1       7.442  36.394  19.006  1.00  0.00     0.019 A 
HETATM   16  C9  UNL     1       8.608  36.442  18.276  1.00  0.00     0.098 A 
ENDBRANCH   9  12
ENDBRANCH   5   6
ENDBRANCH   2   5
BRANCH   3  17
HETATM   17  C10 UNL     1      15.516  39.469  15.597  1.00  0.00     0.129 C 
BRANCH  17  18
HETATM   18  C11 UNL     1      16.989  39.358  15.158  1.00  0.00     0.037 C 
HETATM   19  C12 UNL     1      17.852  38.619  16.209  1.00  0.00     0.010 C 
HETATM   20  C13 UNL     1      18.664  39.549  17.110  1.00  0.00     0.031 C 
HETATM   21  C14 UNL     1      18.024  40.926  17.248  1.00  0.00     0.273 C 
HETATM   22  N4  UNL     1      17.925  41.597  15.953  1.00  0.00     0.093 N 
HETATM   23  C15 UNL     1      17.132  42.821  16.006  1.00  0.00     0.273 C 
HETATM   24  C19 UNL     1      17.639  40.724  14.800  1.00  0.00     0.228 C 
HETATM   25  C16 UNL     1      17.370  43.679  14.756  1.00  0.00     0.030 C 
HETATM   26  C17 UNL     1      17.475  42.862  13.467  1.00  0.00     0.004 C 
HETATM   27  C18 UNL     1      16.903  41.461  13.658  1.00  0.00     0.036 C 
ENDBRANCH  17  18
ENDBRANCH   3  17
TORSDOF 5
ENDMDL
MODEL 7
REMARK minimizedAffinity -6.47590303
REMARK  5 active torsions:
REMARK  status: ('A' for Active; 'I' for Inactive)
REMARK    1  A    between atoms: C1_2  and  C2_3 
REMARK       I    between atoms: C1_2  and  N3_15 
REMARK    2  A    between atoms: C2_3  and  C3_4 
REMARK    3  A    between atoms: C5_7  and  N1_8 
REMARK    4  A    between atoms: N3_15  and  C10_16 
REMARK    5  A    between atoms: C10_16  and  C11_17 
ROOT
HETATM    1  O1  UNL     1      11.707  35.802  17.049  1.00  0.00    -0.273 OA
HETATM    2  C1  UNL     1      12.647  35.263  17.631  1.00  0.00     0.223 C 
HETATM    3  N3  UNL     1      12.509  34.576  18.821  1.00  0.00    -0.360 N 
HETATM    4  H8  UNL     1      13.352  34.256  19.290  1.00  0.00     0.162 HD
ENDROOT
BRANCH   2   5
HETATM    5  C2  UNL     1      14.068  35.346  17.109  1.00  0.00     0.160 C 
BRANCH   5   6
HETATM    6  C3  UNL     1      14.613  36.731  17.213  1.00  0.00     0.026 A 
HETATM    7  C4  UNL     1      14.739  37.486  18.367  1.00  0.00     0.078 A 
HETATM    8  S1  UNL     1      15.411  39.021  17.999  1.00  0.00    -0.063 SA
HETATM    9  C5  UNL     1      15.473  38.578  16.355  1.00  0.00     0.154 A 
HETATM   10  N2  UNL     1      15.027  37.376  16.051  1.00  0.00    -0.339 N 
ATOM     11  H2  UNL     1      14.991  36.981  15.111  1.00  0.00     0.168 HD
BRANCH   9  12
HETATM   12  N1  UNL     1      15.974  39.474  15.399  1.00  0.00    -0.313 N 
HETATM   13  C6  UNL     1      16.450  39.217  14.121  1.00  0.00     0.098 A 
HETATM   14  C7  UNL     1      16.844  40.398  13.530  1.00  0.00     0.019 A 
HETATM   15  C8  UNL     1      16.612  41.431  14.462  1.00  0.00     0.019 A 
HETATM   16  C9  UNL     1      16.079  40.847  15.589  1.00  0.00     0.098 A 
ENDBRANCH   9  12
ENDBRANCH   5   6
ENDBRANCH   2   5
BRANCH   3  17
HETATM   17  C10 UNL     1      11.232  34.486  19.501  1.00  0.00     0.129 C 
BRANCH  17  18
HETATM   18  C11 UNL     1      10.910  35.743  20.333  1.00  0.00     0.037 C 
HETATM   19  C12 UNL     1      11.555  35.689  21.739  1.00  0.00     0.010 C 
HETATM   20  C13 UNL     1      10.592  35.263  22.847  1.00  0.00     0.031 C 
HETATM   21  C14 UNL     1       9.452  34.397  22.323  1.00  0.00     0.273 C 
HETATM   22  N4  UNL     1       8.647  35.120  21.339  1.00  0.00     0.093 N 
HETATM   23  C15 UNL     1       7.679  34.265  20.659  1.00  0.00     0.273 C 
HETATM   24  C19 UNL     1       9.388  36.038  20.456  1.00  0.00     0.228 C 
HETATM   25  C16 UNL     1       6.618  35.108  19.940  1.00  0.00     0.030 C 
HETATM   26  C17 UNL     1       7.189  36.352  19.256  1.00  0.00     0.004 C 
HETATM   27  C18 UNL     1       8.701  36.239  19.087  1.00  0.00     0.036 C 
ENDBRANCH  17  18
ENDBRANCH   3  17
TORSDOF 5
ENDMDL
MODEL 8
REMARK minimizedAffinity -6.41464472
REMARK  5 active torsions:
REMARK  status: ('A' for Active; 'I' for Inactive)
REMARK    1  A    between atoms: C1_2  and  C2_3 
REMARK       I    between atoms: C1_2  and  N3_15 
REMARK    2  A    between atoms: C2_3  and  C3_4 
REMARK    3  A    between atoms: C5_7  and  N1_8 
REMARK    4  A    between atoms: N3_15  and  C10_16 
REMARK    5  A    between atoms: C10_16  and  C11_17 
ROOT
HETATM    1  O1  UNL     1       3.328  65.854  -5.574  1.00  0.00    -0.273 OA
HETATM    2  C1  UNL     1       3.759  65.250  -4.593  1.00  0.00     0.223 C 
HETATM    3  N3  UNL     1       2.949  64.574  -3.702  1.00  0.00    -0.360 N 
HETATM    4  H8  UNL     1       3.375  64.195  -2.860  1.00  0.00     0.162 HD
ENDROOT
BRANCH   2   5
HETATM    5  C2  UNL     1       5.235  65.231  -4.246  1.00  0.00     0.160 C 
BRANCH   5   6
HETATM    6  C3  UNL     1       6.021  64.431  -5.231  1.00  0.00     0.026 A 
HETATM    7  C4  UNL     1       6.273  64.759  -6.551  1.00  0.00     0.078 A 
HETATM    8  S1  UNL     1       7.215  63.533  -7.297  1.00  0.00    -0.063 SA
HETATM    9  C5  UNL     1       7.206  62.663  -5.832  1.00  0.00     0.154 A 
HETATM   10  N2  UNL     1       6.552  63.208  -4.826  1.00  0.00    -0.339 N 
ATOM     11  H2  UNL     1       6.451  62.799  -3.897  1.00  0.00     0.168 HD
BRANCH   9  12
HETATM   12  N1  UNL     1       7.866  61.429  -5.737  1.00  0.00    -0.313 N 
HETATM   13  C6  UNL     1       7.378  60.205  -5.303  1.00  0.00     0.098 A 
HETATM   14  C7  UNL     1       8.378  59.259  -5.376  1.00  0.00     0.019 A 
HETATM   15  C8  UNL     1       9.531  59.904  -5.869  1.00  0.00     0.019 A 
HETATM   16  C9  UNL     1       9.196  61.222  -6.085  1.00  0.00     0.098 A 
ENDBRANCH   9  12
ENDBRANCH   5   6
ENDBRANCH   2   5
BRANCH   3  17
HETATM   17  C10 UNL     1       1.506  64.575  -3.837  1.00  0.00     0.129 C 
BRANCH  17  18
HETATM   18  C11 UNL     1       0.783  64.205  -2.527  1.00  0.00     0.037 C 
HETATM   19  C12 UNL     1      -0.421  63.264  -2.776  1.00  0.00     0.010 C 
HETATM   20  C13 UNL     1      -1.773  63.977  -2.788  1.00  0.00     0.031 C 
HETATM   21  C14 UNL     1      -1.652  65.443  -3.189  1.00  0.00     0.273 C 
HETATM   22  N4  UNL     1      -0.809  66.181  -2.250  1.00  0.00     0.093 N 
HETATM   23  C15 UNL     1      -0.495  67.531  -2.708  1.00  0.00     0.273 C 
HETATM   24  C19 UNL     1       0.333  65.436  -1.691  1.00  0.00     0.228 C 
HETATM   25  C16 UNL     1       0.045  68.386  -1.555  1.00  0.00     0.030 C 
HETATM   26  C17 UNL     1       0.995  67.627  -0.626  1.00  0.00     0.004 C 
HETATM   27  C18 UNL     1       1.510  66.354  -1.290  1.00  0.00     0.036 C 
ENDBRANCH  17  18
ENDBRANCH   3  17
TORSDOF 5
ENDMDL
MODEL 9
REMARK minimizedAffinity -6.41110516
REMARK  5 active torsions:
REMARK  status: ('A' for Active; 'I' for Inactive)
REMARK    1  A    between atoms: C1_2  and  C2_3 
REMARK       I    between atoms: C1_2  and  N3_15 
REMARK    2  A    between atoms: C2_3  and  C3_4 
REMARK    3  A    between atoms: C5_7  and  N1_8 
REMARK    4  A    between atoms: N3_15  and  C10_16 
REMARK    5  A    between atoms: C10_16  and  C11_17 
ROOT
HETATM    1  O1  UNL     1      13.774  36.953  17.876  1.00  0.00    -0.273 OA
HETATM    2  C1  UNL     1      13.305  36.301  16.944  1.00  0.00     0.223 C 
HETATM    3  N3  UNL     1      14.035  35.941  15.828  1.00  0.00    -0.360 N 
HETATM    4  H8  UNL     1      13.542  35.499  15.056  1.00  0.00     0.162 HD
ENDROOT
BRANCH   2   5
HETATM    5  C2  UNL     1      11.853  35.868  16.918  1.00  0.00     0.160 C 
BRANCH   5   6
HETATM    6  C3  UNL     1      11.434  35.271  18.220  1.00  0.00     0.026 A 
HETATM    7  C4  UNL     1      12.088  34.273  18.921  1.00  0.00     0.078 A 
HETATM    8  S1  UNL     1      11.232  33.904  20.362  1.00  0.00    -0.063 SA
HETATM    9  C5  UNL     1      10.065  35.074  19.945  1.00  0.00     0.154 A 
HETATM   10  N2  UNL     1      10.255  35.719  18.812  1.00  0.00    -0.339 N 
ATOM     11  H2  UNL     1       9.637  36.433  18.429  1.00  0.00     0.168 HD
BRANCH   9  12
HETATM   12  N1  UNL     1       8.966  35.309  20.785  1.00  0.00    -0.313 N 
HETATM   13  C6  UNL     1       7.725  35.846  20.475  1.00  0.00     0.098 A 
HETATM   14  C7  UNL     1       6.948  35.897  21.612  1.00  0.00     0.019 A 
HETATM   15  C8  UNL     1       7.721  35.377  22.672  1.00  0.00     0.019 A 
HETATM   16  C9  UNL     1       8.942  35.023  22.145  1.00  0.00     0.098 A 
ENDBRANCH   9  12
ENDBRANCH   5   6
ENDBRANCH   2   5
BRANCH   3  17
HETATM   17  C10 UNL     1      15.412  36.360  15.653  1.00  0.00     0.129 C 
BRANCH  17  18
HETATM   18  C11 UNL     1      16.396  35.175  15.613  1.00  0.00     0.037 C 
HETATM   19  C12 UNL     1      17.402  35.217  16.788  1.00  0.00     0.010 C 
HETATM   20  C13 UNL     1      18.773  35.780  16.411  1.00  0.00     0.031 C 
HETATM   21  C14 UNL     1      18.701  36.736  15.226  1.00  0.00     0.273 C 
HETATM   22  N4  UNL     1      18.194  36.062  14.032  1.00  0.00     0.093 N 
HETATM   23  C15 UNL     1      17.910  36.984  12.936  1.00  0.00     0.273 C 
HETATM   24  C19 UNL     1      17.157  35.040  14.264  1.00  0.00     0.228 C 
HETATM   25  C16 UNL     1      17.758  36.226  11.611  1.00  0.00     0.030 C 
HETATM   26  C17 UNL     1      16.998  34.905  11.748  1.00  0.00     0.004 C 
HETATM   27  C18 UNL     1      16.212  34.858  13.055  1.00  0.00     0.036 C 
ENDBRANCH  17  18
ENDBRANCH   3  17
TORSDOF 5
ENDMDL
