MODEL 1
REMARK minimizedAffinity -9.56729698
REMARK  4 active torsions:
REMARK  status: ('A' for Active; 'I' for Inactive)
REMARK    1  A    between atoms: C2_2  and  C3_3 
REMARK    2  A    between atoms: C2_2  and  C9_9 
REMARK    3  A    between atoms: C4_4  and  C5_5 
REMARK    4  A    between atoms: C23_23  and  O1_24 
ROOT
HETATM    1  C9  UNL     1      -5.840   6.861  13.815  1.00  0.00     0.001 C 
HETATM    2  C10 UNL     1      -5.786   8.402  14.050  1.00  0.00     0.006 C 
HETATM    3  C11 UNL     1      -4.349   8.857  13.763  1.00  0.00     0.009 C 
HETATM    4  C12 UNL     1      -3.679   7.609  13.204  1.00  0.00     0.036 C 
HETATM    5  C13 UNL     1      -4.343   6.432  13.965  1.00  0.00    -0.033 C 
HETATM    6  C14 UNL     1      -3.955   6.329  15.456  1.00  0.00     0.016 C 
HETATM    7  C15 UNL     1      -3.940   5.142  13.222  1.00  0.00     0.010 C 
HETATM    8  C16 UNL     1      -2.412   4.987  13.111  1.00  0.00     0.010 C 
HETATM    9  C17 UNL     1      -1.720   6.202  12.463  1.00  0.00     0.039 C 
HETATM   10  C18 UNL     1      -2.150   7.571  13.090  1.00  0.00     0.123 C 
HETATM   11  C19 UNL     1      -1.356   7.926  14.321  1.00  0.00     0.014 C 
HETATM   12  C20 UNL     1      -0.034   7.977  14.107  1.00  0.00     0.014 C 
HETATM   13  C21 UNL     1       0.374   7.583  12.700  1.00  0.00     0.124 C 
HETATM   14  C22 UNL     1       1.879   7.771  12.470  1.00  0.00     0.078 C 
HETATM   15  C23 UNL     1       2.386   7.138  11.170  1.00  0.00     0.121 C 
HETATM   16  C24 UNL     1       1.286   6.632  10.243  1.00  0.00     0.033 C 
HETATM   17  C25 UNL     1       0.306   5.685  10.943  1.00  0.00     0.015 C 
HETATM   18  C26 UNL     1      -0.134   6.136  12.376  1.00  0.00     0.001 C 
HETATM   19  C27 UNL     1       0.470   5.114  13.379  1.00  0.00     0.019 C 
HETATM   20  O2  UNL     1      -0.318   8.492  11.795  1.00  0.00    -0.223 OA
HETATM   21  O3  UNL     1      -1.772   8.589  12.123  1.00  0.00    -0.224 OA
ENDROOT
BRANCH   1  22
HETATM   22  C2  UNL     1      -6.930   6.170  14.682  1.00  0.00     0.008 C 
HETATM   23  C1  UNL     1      -6.442   5.821  16.092  1.00  0.00     0.014 C 
BRANCH  22  24
HETATM   24  C3  UNL     1      -7.492   4.961  13.950  1.00  0.00    -0.026 C 
HETATM   25  C4  UNL     1      -6.858   4.171  13.066  1.00  0.00    -0.025 C 
BRANCH  25  26
HETATM   26  C5  UNL     1      -7.450   3.016  12.384  1.00  0.00     0.012 A 
HETATM   27  C6  UNL     1      -7.176   1.628  12.912  1.00  0.00     0.013 A 
HETATM   28  C7  UNL     1      -6.580   2.058  11.600  1.00  0.00    -0.010 A 
HETATM   29  C8  UNL     1      -5.102   2.217  11.474  1.00  0.00     0.010 C 
ENDBRANCH  25  26
ENDBRANCH  22  24
ENDBRANCH   1  22
BRANCH  15  30
HETATM   30  O1  UNL     1       3.244   6.044  11.511  1.00  0.00    -0.395 OA
HETATM   31  H33 UNL     1       3.635   5.712  10.684  1.00  0.00     0.210 HD
ENDBRANCH  15  30
TORSDOF 4
ENDMDL
MODEL 2
REMARK minimizedAffinity -9.39570141
REMARK  4 active torsions:
REMARK  status: ('A' for Active; 'I' for Inactive)
REMARK    1  A    between atoms: C2_2  and  C3_3 
REMARK    2  A    between atoms: C2_2  and  C9_9 
REMARK    3  A    between atoms: C4_4  and  C5_5 
REMARK    4  A    between atoms: C23_23  and  O1_24 
ROOT
HETATM    1  C9  UNL     1      -5.993   6.324  13.766  1.00  0.00     0.001 C 
HETATM    2  C10 UNL     1      -6.210   7.826  14.126  1.00  0.00     0.006 C 
HETATM    3  C11 UNL     1      -4.888   8.556  13.853  1.00  0.00     0.009 C 
HETATM    4  C12 UNL     1      -4.021   7.498  13.184  1.00  0.00     0.036 C 
HETATM    5  C13 UNL     1      -4.439   6.164  13.857  1.00  0.00    -0.033 C 
HETATM    6  C14 UNL     1      -3.993   6.018  15.328  1.00  0.00     0.016 C 
HETATM    7  C15 UNL     1      -3.834   5.030  13.004  1.00  0.00     0.010 C 
HETATM    8  C16 UNL     1      -2.307   5.164  12.857  1.00  0.00     0.010 C 
HETATM    9  C17 UNL     1      -1.865   6.532  12.299  1.00  0.00     0.039 C 
HETATM   10  C18 UNL     1      -2.515   7.747  13.043  1.00  0.00     0.123 C 
HETATM   11  C19 UNL     1      -1.761   8.144  14.285  1.00  0.00     0.014 C 
HETATM   12  C20 UNL     1      -0.477   8.451  14.055  1.00  0.00     0.014 C 
HETATM   13  C21 UNL     1      -0.048   8.248  12.614  1.00  0.00     0.124 C 
HETATM   14  C22 UNL     1       1.391   8.724  12.376  1.00  0.00     0.078 C 
HETATM   15  C23 UNL     1       1.964   8.295  11.020  1.00  0.00     0.121 C 
HETATM   16  C24 UNL     1       0.945   7.671  10.073  1.00  0.00     0.033 C 
HETATM   17  C25 UNL     1       0.173   6.511  10.709  1.00  0.00     0.015 C 
HETATM   18  C26 UNL     1      -0.296   6.762  12.181  1.00  0.00     0.001 C 
HETATM   19  C27 UNL     1       0.512   5.793  13.088  1.00  0.00     0.019 C 
HETATM   20  O2  UNL     1      -0.919   9.083  11.797  1.00  0.00    -0.223 OA
HETATM   21  O3  UNL     1      -2.356   8.888  12.156  1.00  0.00    -0.224 OA
ENDROOT
BRANCH   1  22
HETATM   22  C2  UNL     1      -6.914   5.381  14.592  1.00  0.00     0.008 C 
HETATM   23  C1  UNL     1      -7.278   4.094  13.845  1.00  0.00     0.014 C 
BRANCH  22  24
HETATM   24  C3  UNL     1      -8.143   6.139  15.070  1.00  0.00    -0.026 C 
HETATM   25  C4  UNL     1      -9.159   6.606  14.324  1.00  0.00    -0.025 C 
BRANCH  25  26
HETATM   26  C5  UNL     1     -10.323   7.334  14.837  1.00  0.00     0.012 A 
HETATM   27  C6  UNL     1     -10.931   8.436  14.002  1.00  0.00     0.013 A 
HETATM   28  C7  UNL     1     -10.197   8.778  15.270  1.00  0.00    -0.010 A 
HETATM   29  C8  UNL     1      -8.916   9.540  15.201  1.00  0.00     0.010 C 
ENDBRANCH  25  26
ENDBRANCH  22  24
ENDBRANCH   1  22
BRANCH  15  30
HETATM   30  O1  UNL     1       3.015   7.353  11.257  1.00  0.00    -0.395 OA
HETATM   31  H33 UNL     1       3.434   7.162  10.399  1.00  0.00     0.210 HD
ENDBRANCH  15  30
TORSDOF 4
ENDMDL
MODEL 3
REMARK minimizedAffinity -9.21396637
REMARK  4 active torsions:
REMARK  status: ('A' for Active; 'I' for Inactive)
REMARK    1  A    between atoms: C2_2  and  C3_3 
REMARK    2  A    between atoms: C2_2  and  C9_9 
REMARK    3  A    between atoms: C4_4  and  C5_5 
REMARK    4  A    between atoms: C23_23  and  O1_24 
ROOT
HETATM    1  C9  UNL     1       1.632   7.153   9.696  1.00  0.00     0.001 C 
HETATM    2  C10 UNL     1       2.156   5.753  10.141  1.00  0.00     0.006 C 
HETATM    3  C11 UNL     1       1.248   5.265  11.278  1.00  0.00     0.009 C 
HETATM    4  C12 UNL     1       0.138   6.307  11.326  1.00  0.00     0.036 C 
HETATM    5  C13 UNL     1       0.834   7.641  10.951  1.00  0.00    -0.033 C 
HETATM    6  C14 UNL     1       1.796   8.190  12.026  1.00  0.00     0.016 C 
HETATM    7  C15 UNL     1      -0.288   8.662  10.673  1.00  0.00     0.010 C 
HETATM    8  C16 UNL     1      -1.248   8.812  11.867  1.00  0.00     0.010 C 
HETATM    9  C17 UNL     1      -1.860   7.475  12.332  1.00  0.00     0.039 C 
HETATM   10  C18 UNL     1      -0.797   6.344  12.541  1.00  0.00     0.123 C 
HETATM   11  C19 UNL     1      -0.157   6.388  13.905  1.00  0.00     0.014 C 
HETATM   12  C20 UNL     1      -1.039   6.307  14.911  1.00  0.00     0.014 C 
HETATM   13  C21 UNL     1      -2.486   6.275  14.456  1.00  0.00     0.124 C 
HETATM   14  C22 UNL     1      -3.447   6.061  15.632  1.00  0.00     0.078 C 
HETATM   15  C23 UNL     1      -4.919   6.293  15.272  1.00  0.00     0.121 C 
HETATM   16  C24 UNL     1      -5.184   6.476  13.781  1.00  0.00     0.033 C 
HETATM   17  C25 UNL     1      -4.310   7.565  13.151  1.00  0.00     0.015 C 
HETATM   18  C26 UNL     1      -2.811   7.549  13.603  1.00  0.00     0.001 C 
HETATM   19  C27 UNL     1      -2.576   8.836  14.442  1.00  0.00     0.019 C 
HETATM   20  O2  UNL     1      -2.621   5.124  13.574  1.00  0.00    -0.223 OA
HETATM   21  O3  UNL     1      -1.541   5.094  12.543  1.00  0.00    -0.224 OA
ENDROOT
BRANCH   1  22
HETATM   22  C2  UNL     1       2.760   8.045   9.106  1.00  0.00     0.008 C 
HETATM   23  C1  UNL     1       2.715   8.137   7.577  1.00  0.00     0.014 C 
BRANCH  22  24
HETATM   24  C3  UNL     1       4.116   7.578   9.616  1.00  0.00    -0.026 C 
HETATM   25  C4  UNL     1       4.362   6.744  10.641  1.00  0.00    -0.025 C 
BRANCH  25  26
HETATM   26  C5  UNL     1       5.693   6.327  11.095  1.00  0.00     0.012 A 
HETATM   27  C6  UNL     1       6.046   6.451  12.557  1.00  0.00     0.013 A 
HETATM   28  C7  UNL     1       6.705   7.354  11.551  1.00  0.00    -0.010 A 
HETATM   29  C8  UNL     1       6.425   8.819  11.575  1.00  0.00     0.010 C 
ENDBRANCH  25  26
ENDBRANCH  22  24
ENDBRANCH   1  22
BRANCH  15  30
HETATM   30  O1  UNL     1      -5.372   7.457  15.970  1.00  0.00    -0.395 OA
HETATM   31  H33 UNL     1      -6.329   7.539  15.811  1.00  0.00     0.210 HD
ENDBRANCH  15  30
TORSDOF 4
ENDMDL
MODEL 4
REMARK minimizedAffinity -9.07914257
REMARK  4 active torsions:
REMARK  status: ('A' for Active; 'I' for Inactive)
REMARK    1  A    between atoms: C2_2  and  C3_3 
REMARK    2  A    between atoms: C2_2  and  C9_9 
REMARK    3  A    between atoms: C4_4  and  C5_5 
REMARK    4  A    between atoms: C23_23  and  O1_24 
ROOT
HETATM    1  C9  UNL     1      -2.361   5.696  13.559  1.00  0.00     0.001 C 
HETATM    2  C10 UNL     1      -2.583   4.859  12.261  1.00  0.00     0.006 C 
HETATM    3  C11 UNL     1      -1.341   5.050  11.379  1.00  0.00     0.009 C 
HETATM    4  C12 UNL     1      -0.383   5.833  12.266  1.00  0.00     0.036 C 
HETATM    5  C13 UNL     1      -1.298   6.754  13.116  1.00  0.00    -0.033 C 
HETATM    6  C14 UNL     1      -1.968   7.900  12.327  1.00  0.00     0.016 C 
HETATM    7  C15 UNL     1      -0.418   7.330  14.244  1.00  0.00     0.010 C 
HETATM    8  C16 UNL     1       0.820   8.067  13.700  1.00  0.00     0.010 C 
HETATM    9  C17 UNL     1       1.679   7.202  12.756  1.00  0.00     0.039 C 
HETATM   10  C18 UNL     1       0.849   6.492  11.634  1.00  0.00     0.123 C 
HETATM   11  C19 UNL     1       0.622   7.369  10.430  1.00  0.00     0.014 C 
HETATM   12  C20 UNL     1       1.757   7.814   9.873  1.00  0.00     0.014 C 
HETATM   13  C21 UNL     1       3.009   7.408  10.627  1.00  0.00     0.124 C 
HETATM   14  C22 UNL     1       4.283   7.839   9.888  1.00  0.00     0.078 C 
HETATM   15  C23 UNL     1       5.557   7.699  10.728  1.00  0.00     0.121 C 
HETATM   16  C24 UNL     1       5.366   6.963  12.050  1.00  0.00     0.033 C 
HETATM   17  C25 UNL     1       4.236   7.552  12.901  1.00  0.00     0.015 C 
HETATM   18  C26 UNL     1       2.939   7.922  12.107  1.00  0.00     0.001 C 
HETATM   19  C27 UNL     1       2.814   9.470  12.136  1.00  0.00     0.019 C 
HETATM   20  O2  UNL     1       3.012   5.953  10.679  1.00  0.00    -0.223 OA
HETATM   21  O3  UNL     1       1.693   5.419  11.133  1.00  0.00    -0.224 OA
ENDROOT
BRANCH   1  22
HETATM   22  C2  UNL     1      -3.701   6.168  14.191  1.00  0.00     0.008 C 
HETATM   23  C1  UNL     1      -3.665   6.196  15.723  1.00  0.00     0.014 C 
BRANCH  22  24
HETATM   24  C3  UNL     1      -4.855   5.334  13.656  1.00  0.00    -0.026 C 
HETATM   25  C4  UNL     1      -6.151   5.682  13.580  1.00  0.00    -0.025 C 
BRANCH  25  26
HETATM   26  C5  UNL     1      -7.228   4.836  13.056  1.00  0.00     0.012 A 
HETATM   27  C6  UNL     1      -7.435   3.459  13.640  1.00  0.00     0.013 A 
HETATM   28  C7  UNL     1      -6.908   3.604  12.238  1.00  0.00    -0.010 A 
HETATM   29  C8  UNL     1      -5.514   3.176  11.922  1.00  0.00     0.010 C 
ENDBRANCH  25  26
ENDBRANCH  22  24
ENDBRANCH   1  22
BRANCH  15  30
HETATM   30  O1  UNL     1       6.061   9.012  10.997  1.00  0.00    -0.395 OA
HETATM   31  H33 UNL     1       6.918   8.909  11.446  1.00  0.00     0.210 HD
ENDBRANCH  15  30
TORSDOF 4
ENDMDL
MODEL 5
REMARK minimizedAffinity -8.67936897
REMARK  4 active torsions:
REMARK  status: ('A' for Active; 'I' for Inactive)
REMARK    1  A    between atoms: C2_2  and  C3_3 
REMARK    2  A    between atoms: C2_2  and  C9_9 
REMARK    3  A    between atoms: C4_4  and  C5_5 
REMARK    4  A    between atoms: C23_23  and  O1_24 
ROOT
HETATM    1  C9  UNL     1       0.335   7.391  14.441  1.00  0.00     0.001 C 
HETATM    2  C10 UNL     1       0.238   8.936  14.249  1.00  0.00     0.006 C 
HETATM    3  C11 UNL     1      -1.250   9.308  14.292  1.00  0.00     0.009 C 
HETATM    4  C12 UNL     1      -1.938   8.007  14.681  1.00  0.00     0.036 C 
HETATM    5  C13 UNL     1      -1.086   6.897  14.013  1.00  0.00    -0.033 C 
HETATM    6  C14 UNL     1      -1.200   6.837  12.474  1.00  0.00     0.016 C 
HETATM    7  C15 UNL     1      -1.541   5.558  14.631  1.00  0.00     0.010 C 
HETATM    8  C16 UNL     1      -3.054   5.324  14.463  1.00  0.00     0.010 C 
HETATM    9  C17 UNL     1      -3.915   6.476  15.017  1.00  0.00     0.039 C 
HETATM   10  C18 UNL     1      -3.458   7.889  14.521  1.00  0.00     0.123 C 
HETATM   11  C19 UNL     1      -4.042   8.256  13.181  1.00  0.00     0.014 C 
HETATM   12  C20 UNL     1      -5.382   8.233  13.158  1.00  0.00     0.014 C 
HETATM   13  C21 UNL     1      -6.008   7.762  14.457  1.00  0.00     0.124 C 
HETATM   14  C22 UNL     1      -7.538   7.866  14.421  1.00  0.00     0.078 C 
HETATM   15  C23 UNL     1      -8.230   7.154  15.590  1.00  0.00     0.121 C 
HETATM   16  C24 UNL     1      -7.284   6.665  16.680  1.00  0.00     0.033 C 
HETATM   17  C25 UNL     1      -6.145   5.797  16.135  1.00  0.00     0.015 C 
HETATM   18  C26 UNL     1      -5.486   6.328  14.819  1.00  0.00     0.001 C 
HETATM   19  C27 UNL     1      -5.847   5.321  13.692  1.00  0.00     0.019 C 
HETATM   20  O2  UNL     1      -5.538   8.664  15.499  1.00  0.00    -0.223 OA
HETATM   21  O3  UNL     1      -4.057   8.846  15.438  1.00  0.00    -0.224 OA
ENDROOT
BRANCH   1  22
HETATM   22  C2  UNL     1       1.597   6.792  13.759  1.00  0.00     0.008 C 
HETATM   23  C1  UNL     1       2.869   7.603  14.030  1.00  0.00     0.014 C 
BRANCH  22  24
HETATM   24  C3  UNL     1       1.344   6.595  12.272  1.00  0.00    -0.026 C 
HETATM   25  C4  UNL     1       2.252   6.598  11.279  1.00  0.00    -0.025 C 
BRANCH  25  26
HETATM   26  C5  UNL     1       1.953   6.405   9.857  1.00  0.00     0.012 A 
HETATM   27  C6  UNL     1       2.998   5.783   8.961  1.00  0.00     0.013 A 
HETATM   28  C7  UNL     1       2.652   7.239   8.806  1.00  0.00    -0.010 A 
HETATM   29  C8  UNL     1       3.667   8.281   9.135  1.00  0.00     0.010 C 
ENDBRANCH  25  26
ENDBRANCH  22  24
ENDBRANCH   1  22
BRANCH  15  30
HETATM   30  O1  UNL     1      -8.953   6.035  15.066  1.00  0.00    -0.395 OA
HETATM   31  H33 UNL     1      -9.464   5.650  15.800  1.00  0.00     0.210 HD
ENDBRANCH  15  30
TORSDOF 4
ENDMDL
MODEL 6
REMARK minimizedAffinity -8.6430254
REMARK  4 active torsions:
REMARK  status: ('A' for Active; 'I' for Inactive)
REMARK    1  A    between atoms: C2_2  and  C3_3 
REMARK    2  A    between atoms: C2_2  and  C9_9 
REMARK    3  A    between atoms: C4_4  and  C5_5 
REMARK    4  A    between atoms: C23_23  and  O1_24 
ROOT
HETATM    1  C9  UNL     1      -4.044   8.264  13.609  1.00  0.00     0.001 C 
HETATM    2  C10 UNL     1      -3.456   9.469  14.405  1.00  0.00     0.006 C 
HETATM    3  C11 UNL     1      -1.942   9.487  14.152  1.00  0.00     0.009 C 
HETATM    4  C12 UNL     1      -1.740   8.416  13.089  1.00  0.00     0.036 C 
HETATM    5  C13 UNL     1      -2.802   7.333  13.415  1.00  0.00    -0.033 C 
HETATM    6  C14 UNL     1      -2.523   6.525  14.701  1.00  0.00     0.016 C 
HETATM    7  C15 UNL     1      -2.858   6.389  12.197  1.00  0.00     0.010 C 
HETATM    8  C16 UNL     1      -1.481   5.784  11.864  1.00  0.00     0.010 C 
HETATM    9  C17 UNL     1      -0.383   6.846  11.653  1.00  0.00     0.039 C 
HETATM   10  C18 UNL     1      -0.321   7.913  12.797  1.00  0.00     0.123 C 
HETATM   11  C19 UNL     1       0.508   7.462  13.973  1.00  0.00     0.014 C 
HETATM   12  C20 UNL     1       1.768   7.144  13.646  1.00  0.00     0.014 C 
HETATM   13  C21 UNL     1       2.055   7.226  12.159  1.00  0.00     0.124 C 
HETATM   14  C22 UNL     1       3.535   6.970  11.850  1.00  0.00     0.078 C 
HETATM   15  C23 UNL     1       3.826   6.772  10.359  1.00  0.00     0.121 C 
HETATM   16  C24 UNL     1       2.649   7.077   9.439  1.00  0.00     0.033 C 
HETATM   17  C25 UNL     1       1.375   6.321   9.832  1.00  0.00     0.015 C 
HETATM   18  C26 UNL     1       1.078   6.288  11.368  1.00  0.00     0.001 C 
HETATM   19  C27 UNL     1       1.249   4.816  11.833  1.00  0.00     0.019 C 
HETATM   20  O2  UNL     1       1.759   8.593  11.752  1.00  0.00    -0.223 OA
HETATM   21  O3  UNL     1       0.424   9.037  12.254  1.00  0.00    -0.224 OA
ENDROOT
BRANCH   1  22
HETATM   22  C2  UNL     1      -5.335   7.698  14.265  1.00  0.00     0.008 C 
HETATM   23  C1  UNL     1      -5.097   7.139  15.672  1.00  0.00     0.014 C 
BRANCH  22  24
HETATM   24  C3  UNL     1      -5.988   6.680  13.342  1.00  0.00    -0.026 C 
HETATM   25  C4  UNL     1      -6.525   5.495  13.680  1.00  0.00    -0.025 C 
BRANCH  25  26
HETATM   26  C5  UNL     1      -7.142   4.547  12.747  1.00  0.00     0.012 A 
HETATM   27  C6  UNL     1      -7.333   3.111  13.172  1.00  0.00     0.013 A 
HETATM   28  C7  UNL     1      -6.320   3.447  12.113  1.00  0.00    -0.010 A 
HETATM   29  C8  UNL     1      -4.867   3.254  12.389  1.00  0.00     0.010 C 
ENDBRANCH  25  26
ENDBRANCH  22  24
ENDBRANCH   1  22
BRANCH  15  30
HETATM   30  O1  UNL     1       4.231   5.413  10.159  1.00  0.00    -0.395 OA
HETATM   31  H33 UNL     1       4.505   5.324   9.229  1.00  0.00     0.210 HD
ENDBRANCH  15  30
TORSDOF 4
ENDMDL
MODEL 7
REMARK minimizedAffinity -8.62264633
REMARK  4 active torsions:
REMARK  status: ('A' for Active; 'I' for Inactive)
REMARK    1  A    between atoms: C2_2  and  C3_3 
REMARK    2  A    between atoms: C2_2  and  C9_9 
REMARK    3  A    between atoms: C4_4  and  C5_5 
REMARK    4  A    between atoms: C23_23  and  O1_24 
ROOT
HETATM    1  C9  UNL     1      -3.118   8.774  15.116  1.00  0.00     0.001 C 
HETATM    2  C10 UNL     1      -3.183   7.388  15.828  1.00  0.00     0.006 C 
HETATM    3  C11 UNL     1      -2.156   6.475  15.144  1.00  0.00     0.009 C 
HETATM    4  C12 UNL     1      -1.418   7.408  14.194  1.00  0.00     0.036 C 
HETATM    5  C13 UNL     1      -2.493   8.422  13.726  1.00  0.00    -0.033 C 
HETATM    6  C14 UNL     1      -3.565   7.834  12.782  1.00  0.00     0.016 C 
HETATM    7  C15 UNL     1      -1.740   9.571  13.022  1.00  0.00     0.010 C 
HETATM    8  C16 UNL     1      -0.859   9.067  11.864  1.00  0.00     0.010 C 
HETATM    9  C17 UNL     1       0.138   7.970  12.289  1.00  0.00     0.039 C 
HETATM   10  C18 UNL     1      -0.525   6.807  13.102  1.00  0.00     0.123 C 
HETATM   11  C19 UNL     1      -1.132   5.747  12.219  1.00  0.00     0.014 C 
HETATM   12  C20 UNL     1      -0.256   5.197  11.367  1.00  0.00     0.014 C 
HETATM   13  C21 UNL     1       1.126   5.820  11.421  1.00  0.00     0.124 C 
HETATM   14  C22 UNL     1       2.120   5.081  10.517  1.00  0.00     0.078 C 
HETATM   15  C23 UNL     1       3.446   5.825  10.324  1.00  0.00     0.121 C 
HETATM   16  C24 UNL     1       3.625   7.042  11.225  1.00  0.00     0.033 C 
HETATM   17  C25 UNL     1       2.452   8.024  11.138  1.00  0.00     0.015 C 
HETATM   18  C26 UNL     1       1.036   7.358  11.128  1.00  0.00     0.001 C 
HETATM   19  C27 UNL     1       0.428   7.604   9.719  1.00  0.00     0.019 C 
HETATM   20  O2  UNL     1       1.597   5.674  12.792  1.00  0.00    -0.223 OA
HETATM   21  O3  UNL     1       0.565   6.120  13.776  1.00  0.00    -0.224 OA
ENDROOT
BRANCH   1  22
HETATM   22  C2  UNL     1      -4.472   9.534  15.183  1.00  0.00     0.008 C 
HETATM   23  C1  UNL     1      -4.418  10.779  16.076  1.00  0.00     0.014 C 
BRANCH  22  24
HETATM   24  C3  UNL     1      -5.587   8.582  15.586  1.00  0.00    -0.026 C 
HETATM   25  C4  UNL     1      -6.695   8.276  14.888  1.00  0.00    -0.025 C 
BRANCH  25  26
HETATM   26  C5  UNL     1      -7.744   7.350  15.325  1.00  0.00     0.012 A 
HETATM   27  C6  UNL     1      -7.398   6.247  16.297  1.00  0.00     0.013 A 
HETATM   28  C7  UNL     1      -7.734   5.907  14.871  1.00  0.00    -0.010 A 
HETATM   29  C8  UNL     1      -6.683   5.342  13.977  1.00  0.00     0.010 C 
ENDBRANCH  25  26
ENDBRANCH  22  24
ENDBRANCH   1  22
BRANCH  15  30
HETATM   30  O1  UNL     1       3.529   6.243   8.958  1.00  0.00    -0.395 OA
HETATM   31  H33 UNL     1       4.413   6.628   8.824  1.00  0.00     0.210 HD
ENDBRANCH  15  30
TORSDOF 4
ENDMDL
MODEL 8
REMARK minimizedAffinity -8.61606026
REMARK  4 active torsions:
REMARK  status: ('A' for Active; 'I' for Inactive)
REMARK    1  A    between atoms: C2_2  and  C3_3 
REMARK    2  A    between atoms: C2_2  and  C9_9 
REMARK    3  A    between atoms: C4_4  and  C5_5 
REMARK    4  A    between atoms: C23_23  and  O1_24 
ROOT
HETATM    1  C9  UNL     1      -1.685   5.090  13.748  1.00  0.00     0.001 C 
HETATM    2  C10 UNL     1      -0.160   5.058  13.422  1.00  0.00     0.006 C 
HETATM    3  C11 UNL     1       0.471   6.299  14.066  1.00  0.00     0.009 C 
HETATM    4  C12 UNL     1      -0.665   6.900  14.884  1.00  0.00     0.036 C 
HETATM    5  C13 UNL     1      -1.944   6.601  14.058  1.00  0.00    -0.033 C 
HETATM    6  C14 UNL     1      -2.068   7.410  12.748  1.00  0.00     0.016 C 
HETATM    7  C15 UNL     1      -3.144   6.898  14.980  1.00  0.00     0.010 C 
HETATM    8  C16 UNL     1      -3.117   8.338  15.527  1.00  0.00     0.010 C 
HETATM    9  C17 UNL     1      -1.802   8.691  16.250  1.00  0.00     0.039 C 
HETATM   10  C18 UNL     1      -0.521   8.327  15.425  1.00  0.00     0.123 C 
HETATM   11  C19 UNL     1      -0.132   9.402  14.444  1.00  0.00     0.014 C 
HETATM   12  C20 UNL     1       0.081  10.595  15.017  1.00  0.00     0.014 C 
HETATM   13  C21 UNL     1      -0.199  10.618  16.507  1.00  0.00     0.124 C 
HETATM   14  C22 UNL     1       0.172  11.967  17.136  1.00  0.00     0.078 C 
HETATM   15  C23 UNL     1      -0.341  12.138  18.571  1.00  0.00     0.121 C 
HETATM   16  C24 UNL     1      -0.929  10.873  19.187  1.00  0.00     0.033 C 
HETATM   17  C25 UNL     1      -2.013  10.234  18.313  1.00  0.00     0.015 C 
HETATM   18  C26 UNL     1      -1.680  10.183  16.784  1.00  0.00     0.001 C 
HETATM   19  C27 UNL     1      -2.668  11.148  16.072  1.00  0.00     0.019 C 
HETATM   20  O2  UNL     1       0.662   9.609  17.110  1.00  0.00    -0.223 OA
HETATM   21  O3  UNL     1       0.576   8.309  16.380  1.00  0.00    -0.224 OA
ENDROOT
BRANCH   1  22
HETATM   22  C2  UNL     1      -2.535   4.369  12.664  1.00  0.00     0.008 C 
HETATM   23  C1  UNL     1      -1.912   4.441  11.266  1.00  0.00     0.014 C 
BRANCH  22  24
HETATM   24  C3  UNL     1      -3.964   4.892  12.687  1.00  0.00    -0.026 C 
HETATM   25  C4  UNL     1      -5.088   4.195  12.928  1.00  0.00    -0.025 C 
BRANCH  25  26
HETATM   26  C5  UNL     1      -6.445   4.749  12.935  1.00  0.00     0.012 A 
HETATM   27  C6  UNL     1      -7.322   4.538  14.145  1.00  0.00     0.013 A 
HETATM   28  C7  UNL     1      -7.648   3.836  12.856  1.00  0.00    -0.010 A 
HETATM   29  C8  UNL     1      -7.540   2.351  12.773  1.00  0.00     0.010 C 
ENDBRANCH  25  26
ENDBRANCH  22  24
ENDBRANCH   1  22
BRANCH  15  30
HETATM   30  O1  UNL     1      -1.342  13.161  18.568  1.00  0.00    -0.395 OA
HETATM   31  H33 UNL     1      -1.590  13.328  19.495  1.00  0.00     0.210 HD
ENDBRANCH  15  30
TORSDOF 4
ENDMDL
MODEL 9
REMARK minimizedAffinity -8.56923199
REMARK  4 active torsions:
REMARK  status: ('A' for Active; 'I' for Inactive)
REMARK    1  A    between atoms: C2_2  and  C3_3 
REMARK    2  A    between atoms: C2_2  and  C9_9 
REMARK    3  A    between atoms: C4_4  and  C5_5 
REMARK    4  A    between atoms: C23_23  and  O1_24 
ROOT
HETATM    1  C9  UNL     1      -5.203   5.840  14.193  1.00  0.00     0.001 C 
HETATM    2  C10 UNL     1      -3.897   5.191  13.638  1.00  0.00     0.006 C 
HETATM    3  C11 UNL     1      -2.728   6.100  14.043  1.00  0.00     0.009 C 
HETATM    4  C12 UNL     1      -3.372   7.131  14.960  1.00  0.00     0.036 C 
HETATM    5  C13 UNL     1      -4.795   7.339  14.379  1.00  0.00    -0.033 C 
HETATM    6  C14 UNL     1      -4.836   8.085  13.027  1.00  0.00     0.016 C 
HETATM    7  C15 UNL     1      -5.595   8.122  15.440  1.00  0.00     0.010 C 
HETATM    8  C16 UNL     1      -4.914   9.449  15.823  1.00  0.00     0.010 C 
HETATM    9  C17 UNL     1      -3.455   9.273  16.291  1.00  0.00     0.039 C 
HETATM   10  C18 UNL     1      -2.591   8.400  15.320  1.00  0.00     0.123 C 
HETATM   11  C19 UNL     1      -2.004   9.197  14.183  1.00  0.00     0.014 C 
HETATM   12  C20 UNL     1      -1.245  10.225  14.587  1.00  0.00     0.014 C 
HETATM   13  C21 UNL     1      -1.215  10.409  16.093  1.00  0.00     0.124 C 
HETATM   14  C22 UNL     1      -0.243  11.519  16.511  1.00  0.00     0.078 C 
HETATM   15  C23 UNL     1      -0.375  11.930  17.982  1.00  0.00     0.121 C 
HETATM   16  C24 UNL     1      -1.282  11.027  18.811  1.00  0.00     0.033 C 
HETATM   17  C25 UNL     1      -2.670  10.843  18.188  1.00  0.00     0.015 C 
HETATM   18  C26 UNL     1      -2.671  10.611  16.641  1.00  0.00     0.001 C 
HETATM   19  C27 UNL     1      -3.322  11.864  15.993  1.00  0.00     0.019 C 
HETATM   20  O2  UNL     1      -0.715   9.162  16.656  1.00  0.00    -0.223 OA
HETATM   21  O3  UNL     1      -1.430   7.980  16.089  1.00  0.00    -0.224 OA
ENDROOT
BRANCH   1  22
HETATM   22  C2  UNL     1      -6.449   5.481  13.336  1.00  0.00     0.008 C 
HETATM   23  C1  UNL     1      -7.740   5.402  14.159  1.00  0.00     0.014 C 
BRANCH  22  24
HETATM   24  C3  UNL     1      -6.191   4.209  12.544  1.00  0.00    -0.026 C 
HETATM   25  C4  UNL     1      -6.853   3.042  12.630  1.00  0.00    -0.025 C 
BRANCH  25  26
HETATM   26  C5  UNL     1      -6.560   1.840  11.842  1.00  0.00     0.012 A 
HETATM   27  C6  UNL     1      -5.131   1.370  11.717  1.00  0.00     0.013 A 
HETATM   28  C7  UNL     1      -5.836   1.947  10.519  1.00  0.00    -0.010 A 
HETATM   29  C8  UNL     1      -5.377   3.244   9.944  1.00  0.00     0.010 C 
ENDBRANCH  25  26
ENDBRANCH  22  24
ENDBRANCH   1  22
BRANCH  15  30
HETATM   30  O1  UNL     1      -0.885  13.266  18.028  1.00  0.00    -0.395 OA
HETATM   31  H33 UNL     1      -0.874  13.551  18.959  1.00  0.00     0.210 HD
ENDBRANCH  15  30
TORSDOF 4
ENDMDL
