MODEL 1
REMARK minimizedAffinity -8.4214716
REMARK  12 active torsions:
REMARK  status: ('A' for Active; 'I' for Inactive)
REMARK    1  A    between atoms: C2_2  and  C3_3 
REMARK    2  A    between atoms: C2_2  and  C15_20 
REMARK    3  A    between atoms: C3_3  and  O1_4 
REMARK    4  A    between atoms: C3_3  and  C4_5 
REMARK    5  A    between atoms: C4_5  and  C6_7 
REMARK    6  A    between atoms: C6_7  and  O2_8 
REMARK    7  A    between atoms: C6_7  and  C7_9 
REMARK    8  A    between atoms: C7_9  and  C9_11 
REMARK    9  A    between atoms: C10_12  and  C11_13 
REMARK   10  A    between atoms: C12_14  and  C13_15 
REMARK   11  A    between atoms: C12_14  and  C14_17 
REMARK   12  A    between atoms: C13_15  and  O3_16 
REMARK       I    between atoms: C14_17  and  N1_18 
ROOT
HETATM    1  C4  UNL     1      -0.816   3.923  12.136  1.00  0.00     0.040 C 
HETATM    2  C5  UNL     1      -0.711   2.568  11.431  1.00  0.00     0.015 C 
ENDROOT
BRANCH   1   3
HETATM    3  C3  UNL     1       0.364   4.888  11.785  1.00  0.00     0.130 C 
BRANCH   3   4
HETATM    4  C2  UNL     1       0.080   6.271  11.120  1.00  0.00     0.040 C 
HETATM    5  C1  UNL     1      -0.481   7.300  12.104  1.00  0.00     0.015 C 
BRANCH   4   6
HETATM    6  C15 UNL     1       1.386   6.812  10.444  1.00  0.00     0.137 C 
HETATM    7  O5  UNL     1       1.446   6.297   9.102  1.00  0.00    -0.349 OA
HETATM    8  C16 UNL     1       2.695   6.507   8.439  1.00  0.00     0.161 C 
HETATM    9  C17 UNL     1       2.602   5.877   7.061  1.00  0.00     0.079 C 
HETATM   10  C18 UNL     1       3.097   7.981   8.392  1.00  0.00     0.071 C 
HETATM   11  O6  UNL     1       3.744   5.883   9.186  1.00  0.00    -0.350 OA
HETATM   12  C19 UNL     1       3.940   8.147   9.653  1.00  0.00     0.038 C 
HETATM   13  C20 UNL     1       3.906   6.767  10.305  1.00  0.00     0.131 C 
HETATM   14  C21 UNL     1       2.695   6.512  11.221  1.00  0.00     0.040 C 
HETATM   15  C22 UNL     1       2.799   7.293  12.529  1.00  0.00     0.015 C 
ENDBRANCH   4   6
ENDBRANCH   3   4
BRANCH   3  16
HETATM   16  O1  UNL     1       1.183   4.154  10.843  1.00  0.00    -0.395 OA
HETATM   17  H6  UNL     1       1.640   3.454  11.343  1.00  0.00     0.210 HD
ENDBRANCH   3  16
ENDBRANCH   1   3
BRANCH   1  18
HETATM   18  C6  UNL     1      -2.213   4.591  12.006  1.00  0.00     0.131 C 
BRANCH  18  19
HETATM   19  O2  UNL     1      -2.953   3.942  10.976  1.00  0.00    -0.394 OA
HETATM   20  H12 UNL     1      -3.658   4.549  10.688  1.00  0.00     0.210 HD
ENDBRANCH  18  19
BRANCH  18  21
HETATM   21  C7  UNL     1      -3.071   4.596  13.310  1.00  0.00     0.033 C 
HETATM   22  C8  UNL     1      -2.401   5.356  14.460  1.00  0.00     0.017 C 
BRANCH  21  23
HETATM   23  C9  UNL     1      -4.483   5.094  13.015  1.00  0.00    -0.020 C 
HETATM   24  C10 UNL     1      -5.306   5.749  13.851  1.00  0.00    -0.003 C 
BRANCH  24  25
HETATM   25  C11 UNL     1      -6.651   6.139  13.474  1.00  0.00     0.014 C 
HETATM   26  C12 UNL     1      -7.757   6.095  14.244  1.00  0.00     0.033 C 
BRANCH  26  27
HETATM   27  C13 UNL     1      -9.153   6.397  13.777  1.00  0.00     0.208 C 
BRANCH  27  28
HETATM   28  O3  UNL     1     -10.068   6.511  14.863  1.00  0.00    -0.396 OA
HETATM   29  H22 UNL     1      -9.919   7.391  15.253  1.00  0.00     0.209 HD
ENDBRANCH  27  28
ENDBRANCH  26  27
BRANCH  26  30
HETATM   30  C14 UNL     1      -7.722   5.685  15.671  1.00  0.00     0.247 C 
HETATM   31  N1  UNL     1      -7.979   4.370  15.896  1.00  0.00    -0.366 N 
HETATM   32  H23 UNL     1      -7.903   4.029  16.843  1.00  0.00     0.159 HD
HETATM   33  H24 UNL     1      -8.140   3.710  15.149  1.00  0.00     0.159 HD
HETATM   34  O4  UNL     1      -7.417   6.457  16.567  1.00  0.00    -0.268 OA
ENDBRANCH  26  30
ENDBRANCH  24  25
ENDBRANCH  21  23
ENDBRANCH  18  21
ENDBRANCH   1  18
TORSDOF 12
ENDMDL
MODEL 2
REMARK minimizedAffinity -8.30843925
REMARK  12 active torsions:
REMARK  status: ('A' for Active; 'I' for Inactive)
REMARK    1  A    between atoms: C2_2  and  C3_3 
REMARK    2  A    between atoms: C2_2  and  C15_20 
REMARK    3  A    between atoms: C3_3  and  O1_4 
REMARK    4  A    between atoms: C3_3  and  C4_5 
REMARK    5  A    between atoms: C4_5  and  C6_7 
REMARK    6  A    between atoms: C6_7  and  O2_8 
REMARK    7  A    between atoms: C6_7  and  C7_9 
REMARK    8  A    between atoms: C7_9  and  C9_11 
REMARK    9  A    between atoms: C10_12  and  C11_13 
REMARK   10  A    between atoms: C12_14  and  C13_15 
REMARK   11  A    between atoms: C12_14  and  C14_17 
REMARK   12  A    between atoms: C13_15  and  O3_16 
REMARK       I    between atoms: C14_17  and  N1_18 
ROOT
HETATM    1  C4  UNL     1      -0.531   7.189  13.828  1.00  0.00     0.040 C 
HETATM    2  C5  UNL     1      -0.397   8.176  14.991  1.00  0.00     0.015 C 
ENDROOT
BRANCH   1   3
HETATM    3  C3  UNL     1       0.848   6.729  13.252  1.00  0.00     0.130 C 
BRANCH   3   4
HETATM    4  C2  UNL     1       0.923   6.004  11.872  1.00  0.00     0.040 C 
HETATM    5  C1  UNL     1      -0.439   5.900  11.180  1.00  0.00     0.015 C 
BRANCH   4   6
HETATM    6  C15 UNL     1       1.955   6.734  10.946  1.00  0.00     0.137 C 
HETATM    7  O5  UNL     1       1.794   6.230   9.607  1.00  0.00    -0.349 OA
HETATM    8  C16 UNL     1       2.823   6.623   8.696  1.00  0.00     0.161 C 
HETATM    9  C17 UNL     1       2.523   5.983   7.352  1.00  0.00     0.079 C 
HETATM   10  C18 UNL     1       2.985   8.140   8.608  1.00  0.00     0.071 C 
HETATM   11  O6  UNL     1       4.090   6.165   9.177  1.00  0.00    -0.350 OA
HETATM   12  C19 UNL     1       4.050   8.434   9.660  1.00  0.00     0.038 C 
HETATM   13  C20 UNL     1       4.363   7.066  10.261  1.00  0.00     0.131 C 
HETATM   14  C21 UNL     1       3.433   6.634  11.411  1.00  0.00     0.040 C 
HETATM   15  C22 UNL     1       3.705   7.424  12.688  1.00  0.00     0.015 C 
ENDBRANCH   4   6
ENDBRANCH   3   4
BRANCH   3  16
HETATM   16  O1  UNL     1       1.367   5.789  14.224  1.00  0.00    -0.395 OA
HETATM   17  H6  UNL     1       1.638   6.303  15.005  1.00  0.00     0.210 HD
ENDBRANCH   3  16
ENDBRANCH   1   3
BRANCH   1  18
HETATM   18  C6  UNL     1      -1.499   6.007  14.118  1.00  0.00     0.131 C 
BRANCH  18  19
HETATM   19  O2  UNL     1      -1.214   5.469  15.406  1.00  0.00    -0.394 OA
HETATM   20  H12 UNL     1      -1.579   4.566  15.438  1.00  0.00     0.210 HD
ENDBRANCH  18  19
BRANCH  18  21
HETATM   21  C7  UNL     1      -3.018   6.360  14.050  1.00  0.00     0.033 C 
HETATM   22  C8  UNL     1      -3.316   7.522  13.095  1.00  0.00     0.017 C 
BRANCH  21  23
HETATM   23  C9  UNL     1      -3.840   5.113  13.737  1.00  0.00    -0.020 C 
HETATM   24  C10 UNL     1      -4.619   4.900  12.664  1.00  0.00    -0.003 C 
BRANCH  24  25
HETATM   25  C11 UNL     1      -5.393   3.686  12.492  1.00  0.00     0.014 C 
HETATM   26  C12 UNL     1      -6.697   3.504  12.780  1.00  0.00     0.033 C 
BRANCH  26  27
HETATM   27  C13 UNL     1      -7.432   2.196  12.697  1.00  0.00     0.208 C 
BRANCH  27  28
HETATM   28  O3  UNL     1      -6.768   1.262  11.850  1.00  0.00    -0.396 OA
HETATM   29  H22 UNL     1      -6.024   0.907  12.367  1.00  0.00     0.209 HD
ENDBRANCH  27  28
ENDBRANCH  26  27
BRANCH  26  30
HETATM   30  C14 UNL     1      -7.568   4.603  13.271  1.00  0.00     0.247 C 
HETATM   31  N1  UNL     1      -7.760   4.623  14.617  1.00  0.00    -0.366 N 
HETATM   32  H23 UNL     1      -8.290   5.388  15.007  1.00  0.00     0.159 HD
HETATM   33  H24 UNL     1      -7.312   3.969  15.242  1.00  0.00     0.159 HD
HETATM   34  O4  UNL     1      -8.020   5.462  12.531  1.00  0.00    -0.268 OA
ENDBRANCH  26  30
ENDBRANCH  24  25
ENDBRANCH  21  23
ENDBRANCH  18  21
ENDBRANCH   1  18
TORSDOF 12
ENDMDL
MODEL 3
REMARK minimizedAffinity -8.26557732
REMARK  12 active torsions:
REMARK  status: ('A' for Active; 'I' for Inactive)
REMARK    1  A    between atoms: C2_2  and  C3_3 
REMARK    2  A    between atoms: C2_2  and  C15_20 
REMARK    3  A    between atoms: C3_3  and  O1_4 
REMARK    4  A    between atoms: C3_3  and  C4_5 
REMARK    5  A    between atoms: C4_5  and  C6_7 
REMARK    6  A    between atoms: C6_7  and  O2_8 
REMARK    7  A    between atoms: C6_7  and  C7_9 
REMARK    8  A    between atoms: C7_9  and  C9_11 
REMARK    9  A    between atoms: C10_12  and  C11_13 
REMARK   10  A    between atoms: C12_14  and  C13_15 
REMARK   11  A    between atoms: C12_14  and  C14_17 
REMARK   12  A    between atoms: C13_15  and  O3_16 
REMARK       I    between atoms: C14_17  and  N1_18 
ROOT
HETATM    1  C4  UNL     1      -0.099   5.908  13.104  1.00  0.00     0.040 C 
HETATM    2  C5  UNL     1      -0.884   6.031  11.794  1.00  0.00     0.015 C 
ENDROOT
BRANCH   1   3
HETATM    3  C3  UNL     1       0.819   7.142  13.386  1.00  0.00     0.130 C 
BRANCH   3   4
HETATM    4  C2  UNL     1       1.201   8.120  12.231  1.00  0.00     0.040 C 
HETATM    5  C1  UNL     1       2.054   9.298  12.708  1.00  0.00     0.015 C 
BRANCH   4   6
HETATM    6  C15 UNL     1       1.937   7.334  11.093  1.00  0.00     0.137 C 
HETATM    7  O5  UNL     1       3.279   7.057  11.532  1.00  0.00    -0.349 OA
HETATM    8  C16 UNL     1       4.147   6.556  10.512  1.00  0.00     0.161 C 
HETATM    9  C17 UNL     1       5.520   6.353  11.128  1.00  0.00     0.079 C 
HETATM   10  C18 UNL     1       3.604   5.294   9.842  1.00  0.00     0.071 C 
HETATM   11  O6  UNL     1       4.232   7.508   9.447  1.00  0.00    -0.350 OA
HETATM   12  C19 UNL     1       2.819   5.846   8.655  1.00  0.00     0.038 C 
HETATM   13  C20 UNL     1       2.965   7.360   8.787  1.00  0.00     0.131 C 
HETATM   14  C21 UNL     1       1.931   8.034   9.708  1.00  0.00     0.040 C 
HETATM   15  C22 UNL     1       0.544   8.073   9.070  1.00  0.00     0.015 C 
ENDBRANCH   4   6
ENDBRANCH   3   4
BRANCH   3  16
HETATM   16  O1  UNL     1       2.066   6.581  13.862  1.00  0.00    -0.395 OA
HETATM   17  H6  UNL     1       1.906   6.243  14.761  1.00  0.00     0.210 HD
ENDBRANCH   3  16
ENDBRANCH   1   3
BRANCH   1  18
HETATM   18  C6  UNL     1      -0.975   5.503  14.323  1.00  0.00     0.131 C 
BRANCH  18  19
HETATM   19  O2  UNL     1      -0.320   5.897  15.526  1.00  0.00    -0.394 OA
HETATM   20  H12 UNL     1      -0.693   5.369  16.254  1.00  0.00     0.210 HD
ENDBRANCH  18  19
BRANCH  18  21
HETATM   21  C7  UNL     1      -2.420   6.091  14.327  1.00  0.00     0.033 C 
HETATM   22  C8  UNL     1      -2.534   7.398  13.533  1.00  0.00     0.017 C 
BRANCH  21  23
HETATM   23  C9  UNL     1      -3.425   5.034  13.872  1.00  0.00    -0.020 C 
HETATM   24  C10 UNL     1      -4.447   5.199  13.016  1.00  0.00    -0.003 C 
BRANCH  24  25
HETATM   25  C11 UNL     1      -5.368   4.128  12.689  1.00  0.00     0.014 C 
HETATM   26  C12 UNL     1      -6.654   4.013  13.079  1.00  0.00     0.033 C 
BRANCH  26  27
HETATM   27  C13 UNL     1      -7.539   2.828  12.814  1.00  0.00     0.208 C 
BRANCH  27  28
HETATM   28  O3  UNL     1      -8.920   3.178  12.827  1.00  0.00    -0.396 OA
HETATM   29  H22 UNL     1      -9.100   3.608  11.972  1.00  0.00     0.209 HD
ENDBRANCH  27  28
ENDBRANCH  26  27
BRANCH  26  30
HETATM   30  C14 UNL     1      -7.344   5.058  13.877  1.00  0.00     0.247 C 
HETATM   31  N1  UNL     1      -7.504   4.760  15.193  1.00  0.00    -0.366 N 
HETATM   32  H23 UNL     1      -7.909   5.465  15.792  1.00  0.00     0.159 HD
HETATM   33  H24 UNL     1      -7.145   3.912  15.609  1.00  0.00     0.159 HD
HETATM   34  O4  UNL     1      -7.679   6.131  13.401  1.00  0.00    -0.268 OA
ENDBRANCH  26  30
ENDBRANCH  24  25
ENDBRANCH  21  23
ENDBRANCH  18  21
ENDBRANCH   1  18
TORSDOF 12
ENDMDL
MODEL 4
REMARK minimizedAffinity -8.18800068
REMARK  12 active torsions:
REMARK  status: ('A' for Active; 'I' for Inactive)
REMARK    1  A    between atoms: C2_2  and  C3_3 
REMARK    2  A    between atoms: C2_2  and  C15_20 
REMARK    3  A    between atoms: C3_3  and  O1_4 
REMARK    4  A    between atoms: C3_3  and  C4_5 
REMARK    5  A    between atoms: C4_5  and  C6_7 
REMARK    6  A    between atoms: C6_7  and  O2_8 
REMARK    7  A    between atoms: C6_7  and  C7_9 
REMARK    8  A    between atoms: C7_9  and  C9_11 
REMARK    9  A    between atoms: C10_12  and  C11_13 
REMARK   10  A    between atoms: C12_14  and  C13_15 
REMARK   11  A    between atoms: C12_14  and  C14_17 
REMARK   12  A    between atoms: C13_15  and  O3_16 
REMARK       I    between atoms: C14_17  and  N1_18 
ROOT
HETATM    1  C4  UNL     1      -0.848   5.617  12.344  1.00  0.00     0.040 C 
HETATM    2  C5  UNL     1       0.212   5.293  13.401  1.00  0.00     0.015 C 
ENDROOT
BRANCH   1   3
HETATM    3  C3  UNL     1      -0.866   7.127  11.937  1.00  0.00     0.130 C 
BRANCH   3   4
HETATM    4  C2  UNL     1       0.470   7.924  11.811  1.00  0.00     0.040 C 
HETATM    5  C1  UNL     1       1.263   7.965  13.119  1.00  0.00     0.015 C 
BRANCH   4   6
HETATM    6  C15 UNL     1       1.342   7.318  10.659  1.00  0.00     0.137 C 
HETATM    7  O5  UNL     1       2.640   7.000  11.196  1.00  0.00    -0.349 OA
HETATM    8  C16 UNL     1       3.623   6.662  10.215  1.00  0.00     0.161 C 
HETATM    9  C17 UNL     1       4.930   6.392  10.939  1.00  0.00     0.079 C 
HETATM   10  C18 UNL     1       3.189   5.500   9.321  1.00  0.00     0.071 C 
HETATM   11  O6  UNL     1       3.790   7.755   9.308  1.00  0.00    -0.350 OA
HETATM   12  C19 UNL     1       2.516   6.203   8.146  1.00  0.00     0.038 C 
HETATM   13  C20 UNL     1       2.604   7.685   8.503  1.00  0.00     0.131 C 
HETATM   14  C21 UNL     1       1.460   8.207   9.393  1.00  0.00     0.040 C 
HETATM   15  C22 UNL     1       0.147   8.317   8.622  1.00  0.00     0.015 C 
ENDBRANCH   4   6
ENDBRANCH   3   4
BRANCH   3  16
HETATM   16  O1  UNL     1      -1.627   7.788  12.976  1.00  0.00    -0.395 OA
HETATM   17  H6  UNL     1      -2.560   7.537  12.853  1.00  0.00     0.210 HD
ENDBRANCH   3  16
ENDBRANCH   1   3
BRANCH   1  18
HETATM   18  C6  UNL     1      -0.833   4.653  11.124  1.00  0.00     0.131 C 
BRANCH  18  19
HETATM   19  O2  UNL     1       0.367   3.885  11.145  1.00  0.00    -0.394 OA
HETATM   20  H12 UNL     1       0.518   3.545  10.245  1.00  0.00     0.210 HD
ENDBRANCH  18  19
BRANCH  18  21
HETATM   21  C7  UNL     1      -2.047   3.678  11.033  1.00  0.00     0.033 C 
HETATM   22  C8  UNL     1      -1.631   2.202  11.079  1.00  0.00     0.017 C 
BRANCH  21  23
HETATM   23  C9  UNL     1      -3.092   4.029  12.089  1.00  0.00    -0.020 C 
HETATM   24  C10 UNL     1      -4.419   4.144  11.915  1.00  0.00    -0.003 C 
BRANCH  24  25
HETATM   25  C11 UNL     1      -5.315   4.527  12.988  1.00  0.00     0.014 C 
HETATM   26  C12 UNL     1      -6.510   3.978  13.287  1.00  0.00     0.033 C 
BRANCH  26  27
HETATM   27  C13 UNL     1      -7.461   4.483  14.335  1.00  0.00     0.208 C 
BRANCH  27  28
HETATM   28  O3  UNL     1      -8.624   5.074  13.762  1.00  0.00    -0.396 OA
HETATM   29  H22 UNL     1      -9.194   4.336  13.481  1.00  0.00     0.209 HD
ENDBRANCH  27  28
ENDBRANCH  26  27
BRANCH  26  30
HETATM   30  C14 UNL     1      -7.054   2.804  12.557  1.00  0.00     0.247 C 
HETATM   31  N1  UNL     1      -6.144   2.117  11.818  1.00  0.00    -0.366 N 
HETATM   32  H23 UNL     1      -6.451   1.274  11.356  1.00  0.00     0.159 HD
HETATM   33  H24 UNL     1      -5.164   2.358  11.797  1.00  0.00     0.159 HD
HETATM   34  O4  UNL     1      -8.216   2.444  12.670  1.00  0.00    -0.268 OA
ENDBRANCH  26  30
ENDBRANCH  24  25
ENDBRANCH  21  23
ENDBRANCH  18  21
ENDBRANCH   1  18
TORSDOF 12
ENDMDL
MODEL 5
REMARK minimizedAffinity -8.17055988
REMARK  12 active torsions:
REMARK  status: ('A' for Active; 'I' for Inactive)
REMARK    1  A    between atoms: C2_2  and  C3_3 
REMARK    2  A    between atoms: C2_2  and  C15_20 
REMARK    3  A    between atoms: C3_3  and  O1_4 
REMARK    4  A    between atoms: C3_3  and  C4_5 
REMARK    5  A    between atoms: C4_5  and  C6_7 
REMARK    6  A    between atoms: C6_7  and  O2_8 
REMARK    7  A    between atoms: C6_7  and  C7_9 
REMARK    8  A    between atoms: C7_9  and  C9_11 
REMARK    9  A    between atoms: C10_12  and  C11_13 
REMARK   10  A    between atoms: C12_14  and  C13_15 
REMARK   11  A    between atoms: C12_14  and  C14_17 
REMARK   12  A    between atoms: C13_15  and  O3_16 
REMARK       I    between atoms: C14_17  and  N1_18 
ROOT
HETATM    1  C4  UNL     1      -0.802   3.482  11.622  1.00  0.00     0.040 C 
HETATM    2  C5  UNL     1      -0.256   2.087  11.304  1.00  0.00     0.015 C 
ENDROOT
BRANCH   1   3
HETATM    3  C3  UNL     1       0.307   4.585  11.638  1.00  0.00     0.130 C 
BRANCH   3   4
HETATM    4  C2  UNL     1       0.011   6.008  11.070  1.00  0.00     0.040 C 
HETATM    5  C1  UNL     1      -0.576   6.956  12.119  1.00  0.00     0.015 C 
BRANCH   4   6
HETATM    6  C15 UNL     1       1.317   6.615  10.453  1.00  0.00     0.137 C 
HETATM    7  O5  UNL     1       1.449   6.123   9.106  1.00  0.00    -0.349 OA
HETATM    8  C16 UNL     1       2.711   6.396   8.494  1.00  0.00     0.161 C 
HETATM    9  C17 UNL     1       2.696   5.785   7.104  1.00  0.00     0.079 C 
HETATM   10  C18 UNL     1       3.052   7.886   8.483  1.00  0.00     0.071 C 
HETATM   11  O6  UNL     1       3.757   5.805   9.270  1.00  0.00    -0.350 OA
HETATM   12  C19 UNL     1       3.841   8.067   9.777  1.00  0.00     0.038 C 
HETATM   13  C20 UNL     1       3.841   6.677  10.408  1.00  0.00     0.131 C 
HETATM   14  C21 UNL     1       2.608   6.357  11.274  1.00  0.00     0.040 C 
HETATM   15  C22 UNL     1       2.631   7.120  12.596  1.00  0.00     0.015 C 
ENDBRANCH   4   6
ENDBRANCH   3   4
BRANCH   3  16
HETATM   16  O1  UNL     1       1.382   4.049  10.828  1.00  0.00    -0.395 OA
HETATM   17  H6  UNL     1       1.801   3.336  11.342  1.00  0.00     0.210 HD
ENDBRANCH   3  16
ENDBRANCH   1   3
BRANCH   1  18
HETATM   18  C6  UNL     1      -2.046   3.877  10.778  1.00  0.00     0.131 C 
BRANCH  18  19
HETATM   19  O2  UNL     1      -2.269   2.889   9.776  1.00  0.00    -0.394 OA
HETATM   20  H12 UNL     1      -2.815   3.291   9.078  1.00  0.00     0.210 HD
ENDBRANCH  18  19
BRANCH  18  21
HETATM   21  C7  UNL     1      -3.365   4.071  11.589  1.00  0.00     0.033 C 
HETATM   22  C8  UNL     1      -4.065   2.746  11.914  1.00  0.00     0.017 C 
BRANCH  21  23
HETATM   23  C9  UNL     1      -3.105   4.921  12.831  1.00  0.00    -0.020 C 
HETATM   24  C10 UNL     1      -4.018   5.523  13.610  1.00  0.00    -0.003 C 
BRANCH  24  25
HETATM   25  C11 UNL     1      -3.651   6.346  14.746  1.00  0.00     0.014 C 
HETATM   26  C12 UNL     1      -3.953   7.646  14.941  1.00  0.00     0.033 C 
BRANCH  26  27
HETATM   27  C13 UNL     1      -3.452   8.494  16.077  1.00  0.00     0.208 C 
BRANCH  27  28
HETATM   28  O3  UNL     1      -2.651   7.748  16.989  1.00  0.00    -0.396 OA
HETATM   29  H22 UNL     1      -1.779   7.650  16.567  1.00  0.00     0.209 HD
ENDBRANCH  27  28
ENDBRANCH  26  27
BRANCH  26  30
HETATM   30  C14 UNL     1      -4.802   8.420  13.999  1.00  0.00     0.247 C 
HETATM   31  N1  UNL     1      -6.000   8.818  14.504  1.00  0.00    -0.366 N 
HETATM   32  H23 UNL     1      -6.585   9.402  13.925  1.00  0.00     0.159 HD
HETATM   33  H24 UNL     1      -6.276   8.640  15.459  1.00  0.00     0.159 HD
HETATM   34  O4  UNL     1      -4.424   8.732  12.881  1.00  0.00    -0.268 OA
ENDBRANCH  26  30
ENDBRANCH  24  25
ENDBRANCH  21  23
ENDBRANCH  18  21
ENDBRANCH   1  18
TORSDOF 12
ENDMDL
MODEL 6
REMARK minimizedAffinity -8.01689243
REMARK  12 active torsions:
REMARK  status: ('A' for Active; 'I' for Inactive)
REMARK    1  A    between atoms: C2_2  and  C3_3 
REMARK    2  A    between atoms: C2_2  and  C15_20 
REMARK    3  A    between atoms: C3_3  and  O1_4 
REMARK    4  A    between atoms: C3_3  and  C4_5 
REMARK    5  A    between atoms: C4_5  and  C6_7 
REMARK    6  A    between atoms: C6_7  and  O2_8 
REMARK    7  A    between atoms: C6_7  and  C7_9 
REMARK    8  A    between atoms: C7_9  and  C9_11 
REMARK    9  A    between atoms: C10_12  and  C11_13 
REMARK   10  A    between atoms: C12_14  and  C13_15 
REMARK   11  A    between atoms: C12_14  and  C14_17 
REMARK   12  A    between atoms: C13_15  and  O3_16 
REMARK       I    between atoms: C14_17  and  N1_18 
ROOT
HETATM    1  C4  UNL     1      -1.713   7.297  14.159  1.00  0.00     0.040 C 
HETATM    2  C5  UNL     1      -1.937   8.209  12.949  1.00  0.00     0.015 C 
ENDROOT
BRANCH   1   3
HETATM    3  C3  UNL     1      -2.526   5.962  14.079  1.00  0.00     0.130 C 
BRANCH   3   4
HETATM    4  C2  UNL     1      -3.686   5.807  13.047  1.00  0.00     0.040 C 
HETATM    5  C1  UNL     1      -3.535   4.565  12.166  1.00  0.00     0.015 C 
BRANCH   4   6
HETATM    6  C15 UNL     1      -5.062   5.786  13.795  1.00  0.00     0.137 C 
HETATM    7  O5  UNL     1      -5.732   4.554  13.472  1.00  0.00    -0.349 OA
HETATM    8  C16 UNL     1      -7.098   4.494  13.886  1.00  0.00     0.161 C 
HETATM    9  C17 UNL     1      -7.662   3.156  13.440  1.00  0.00     0.079 C 
HETATM   10  C18 UNL     1      -7.272   4.740  15.384  1.00  0.00     0.071 C 
HETATM   11  O6  UNL     1      -7.833   5.556  13.271  1.00  0.00    -0.350 OA
HETATM   12  C19 UNL     1      -7.501   6.247  15.461  1.00  0.00     0.038 C 
HETATM   13  C20 UNL     1      -7.402   6.709  14.009  1.00  0.00     0.131 C 
HETATM   14  C21 UNL     1      -5.973   7.012  13.520  1.00  0.00     0.040 C 
HETATM   15  C22 UNL     1      -5.428   8.303  14.125  1.00  0.00     0.015 C 
ENDBRANCH   4   6
ENDBRANCH   3   4
BRANCH   3  16
HETATM   16  O1  UNL     1      -3.132   5.813  15.386  1.00  0.00    -0.395 OA
HETATM   17  H6  UNL     1      -2.422   5.577  16.008  1.00  0.00     0.210 HD
ENDBRANCH   3  16
ENDBRANCH   1   3
BRANCH   1  18
HETATM   18  C6  UNL     1      -0.215   7.082  14.513  1.00  0.00     0.131 C 
BRANCH  18  19
HETATM   19  O2  UNL     1      -0.116   6.455  15.789  1.00  0.00    -0.394 OA
HETATM   20  H12 UNL     1       0.779   6.621  16.133  1.00  0.00     0.210 HD
ENDBRANCH  18  19
BRANCH  18  21
HETATM   21  C7  UNL     1       0.598   6.240  13.480  1.00  0.00     0.033 C 
HETATM   22  C8  UNL     1       0.065   4.811  13.326  1.00  0.00     0.017 C 
BRANCH  21  23
HETATM   23  C9  UNL     1       0.693   6.981  12.149  1.00  0.00    -0.020 C 
HETATM   24  C10 UNL     1       0.503   6.473  10.920  1.00  0.00    -0.003 C 
BRANCH  24  25
HETATM   25  C11 UNL     1       0.663   7.266   9.716  1.00  0.00     0.014 C 
HETATM   26  C12 UNL     1       1.770   7.374   8.954  1.00  0.00     0.033 C 
BRANCH  26  27
HETATM   27  C13 UNL     1       1.930   8.300   7.780  1.00  0.00     0.208 C 
BRANCH  27  28
HETATM   28  O3  UNL     1       3.227   8.888   7.735  1.00  0.00    -0.396 OA
HETATM   29  H22 UNL     1       3.824   8.204   7.384  1.00  0.00     0.209 HD
ENDBRANCH  27  28
ENDBRANCH  26  27
BRANCH  26  30
HETATM   30  C14 UNL     1       3.008   6.600   9.227  1.00  0.00     0.247 C 
HETATM   31  N1  UNL     1       3.215   5.542   8.400  1.00  0.00    -0.366 N 
HETATM   32  H23 UNL     1       4.076   5.024   8.503  1.00  0.00     0.159 HD
HETATM   33  H24 UNL     1       2.600   5.321   7.631  1.00  0.00     0.159 HD
HETATM   34  O4  UNL     1       3.811   6.931  10.085  1.00  0.00    -0.268 OA
ENDBRANCH  26  30
ENDBRANCH  24  25
ENDBRANCH  21  23
ENDBRANCH  18  21
ENDBRANCH   1  18
TORSDOF 12
ENDMDL
MODEL 7
REMARK minimizedAffinity -7.99737692
REMARK  12 active torsions:
REMARK  status: ('A' for Active; 'I' for Inactive)
REMARK    1  A    between atoms: C2_2  and  C3_3 
REMARK    2  A    between atoms: C2_2  and  C15_20 
REMARK    3  A    between atoms: C3_3  and  O1_4 
REMARK    4  A    between atoms: C3_3  and  C4_5 
REMARK    5  A    between atoms: C4_5  and  C6_7 
REMARK    6  A    between atoms: C6_7  and  O2_8 
REMARK    7  A    between atoms: C6_7  and  C7_9 
REMARK    8  A    between atoms: C7_9  and  C9_11 
REMARK    9  A    between atoms: C10_12  and  C11_13 
REMARK   10  A    between atoms: C12_14  and  C13_15 
REMARK   11  A    between atoms: C12_14  and  C14_17 
REMARK   12  A    between atoms: C13_15  and  O3_16 
REMARK       I    between atoms: C14_17  and  N1_18 
ROOT
HETATM    1  C4  UNL     1      -0.376   7.303  13.638  1.00  0.00     0.040 C 
HETATM    2  C5  UNL     1       0.143   8.287  14.691  1.00  0.00     0.015 C 
ENDROOT
BRANCH   1   3
HETATM    3  C3  UNL     1       0.750   6.398  13.038  1.00  0.00     0.130 C 
BRANCH   3   4
HETATM    4  C2  UNL     1       0.465   5.514  11.784  1.00  0.00     0.040 C 
HETATM    5  C1  UNL     1      -1.003   5.555  11.349  1.00  0.00     0.015 C 
BRANCH   4   6
HETATM    6  C15 UNL     1       1.399   5.949  10.605  1.00  0.00     0.137 C 
HETATM    7  O5  UNL     1       2.242   4.834  10.262  1.00  0.00    -0.349 OA
HETATM    8  C16 UNL     1       3.311   5.149   9.366  1.00  0.00     0.161 C 
HETATM    9  C17 UNL     1       4.116   3.882   9.139  1.00  0.00     0.079 C 
HETATM   10  C18 UNL     1       2.823   5.783   8.064  1.00  0.00     0.071 C 
HETATM   11  O6  UNL     1       4.145   6.153   9.952  1.00  0.00    -0.350 OA
HETATM   12  C19 UNL     1       2.875   7.277   8.370  1.00  0.00     0.038 C 
HETATM   13  C20 UNL     1       3.353   7.342   9.818  1.00  0.00     0.131 C 
HETATM   14  C21 UNL     1       2.239   7.226  10.875  1.00  0.00     0.040 C 
HETATM   15  C22 UNL     1       1.387   8.491  10.943  1.00  0.00     0.015 C 
ENDBRANCH   4   6
ENDBRANCH   3   4
BRANCH   3  16
HETATM   16  O1  UNL     1       1.100   5.480  14.102  1.00  0.00    -0.395 OA
HETATM   17  H6  UNL     1       1.589   5.989  14.772  1.00  0.00     0.210 HD
ENDBRANCH   3  16
ENDBRANCH   1   3
BRANCH   1  18
HETATM   18  C6  UNL     1      -1.630   6.503  14.091  1.00  0.00     0.131 C 
BRANCH  18  19
HETATM   19  O2  UNL     1      -1.480   6.126  15.457  1.00  0.00    -0.394 OA
HETATM   20  H12 UNL     1      -2.081   5.379  15.626  1.00  0.00     0.210 HD
ENDBRANCH  18  19
BRANCH  18  21
HETATM   21  C7  UNL     1      -2.990   7.250  13.927  1.00  0.00     0.033 C 
HETATM   22  C8  UNL     1      -2.923   8.389  12.901  1.00  0.00     0.017 C 
BRANCH  21  23
HETATM   23  C9  UNL     1      -4.110   6.256  13.633  1.00  0.00    -0.020 C 
HETATM   24  C10 UNL     1      -3.983   4.951  13.339  1.00  0.00    -0.003 C 
BRANCH  24  25
HETATM   25  C11 UNL     1      -5.123   4.108  13.034  1.00  0.00     0.014 C 
HETATM   26  C12 UNL     1      -5.230   3.217  12.028  1.00  0.00     0.033 C 
BRANCH  26  27
HETATM   27  C13 UNL     1      -6.473   2.448  11.677  1.00  0.00     0.208 C 
BRANCH  27  28
HETATM   28  O3  UNL     1      -6.211   1.058  11.502  1.00  0.00    -0.396 OA
HETATM   29  H22 UNL     1      -6.130   0.682  12.397  1.00  0.00     0.209 HD
ENDBRANCH  27  28
ENDBRANCH  26  27
BRANCH  26  30
HETATM   30  C14 UNL     1      -4.110   2.922  11.098  1.00  0.00     0.247 C 
HETATM   31  N1  UNL     1      -3.414   1.790  11.382  1.00  0.00    -0.366 N 
HETATM   32  H23 UNL     1      -2.684   1.511  10.741  1.00  0.00     0.159 HD
HETATM   33  H24 UNL     1      -3.663   1.170  12.139  1.00  0.00     0.159 HD
HETATM   34  O4  UNL     1      -3.877   3.608  10.115  1.00  0.00    -0.268 OA
ENDBRANCH  26  30
ENDBRANCH  24  25
ENDBRANCH  21  23
ENDBRANCH  18  21
ENDBRANCH   1  18
TORSDOF 12
ENDMDL
MODEL 8
REMARK minimizedAffinity -7.96850681
REMARK  12 active torsions:
REMARK  status: ('A' for Active; 'I' for Inactive)
REMARK    1  A    between atoms: C2_2  and  C3_3 
REMARK    2  A    between atoms: C2_2  and  C15_20 
REMARK    3  A    between atoms: C3_3  and  O1_4 
REMARK    4  A    between atoms: C3_3  and  C4_5 
REMARK    5  A    between atoms: C4_5  and  C6_7 
REMARK    6  A    between atoms: C6_7  and  O2_8 
REMARK    7  A    between atoms: C6_7  and  C7_9 
REMARK    8  A    between atoms: C7_9  and  C9_11 
REMARK    9  A    between atoms: C10_12  and  C11_13 
REMARK   10  A    between atoms: C12_14  and  C13_15 
REMARK   11  A    between atoms: C12_14  and  C14_17 
REMARK   12  A    between atoms: C13_15  and  O3_16 
REMARK       I    between atoms: C14_17  and  N1_18 
ROOT
HETATM    1  C4  UNL     1      -2.069   7.193  14.332  1.00  0.00     0.040 C 
HETATM    2  C5  UNL     1      -2.161   8.357  13.340  1.00  0.00     0.015 C 
ENDROOT
BRANCH   1   3
HETATM    3  C3  UNL     1      -3.327   6.264  14.304  1.00  0.00     0.130 C 
BRANCH   3   4
HETATM    4  C2  UNL     1      -4.760   6.879  14.224  1.00  0.00     0.040 C 
HETATM    5  C1  UNL     1      -4.865   8.007  13.195  1.00  0.00     0.015 C 
BRANCH   4   6
HETATM    6  C15 UNL     1      -5.804   5.753  13.914  1.00  0.00     0.137 C 
HETATM    7  O5  UNL     1      -5.243   4.881  12.915  1.00  0.00    -0.349 OA
HETATM    8  C16 UNL     1      -6.167   3.946  12.356  1.00  0.00     0.161 C 
HETATM    9  C17 UNL     1      -5.430   3.135  11.304  1.00  0.00     0.079 C 
HETATM   10  C18 UNL     1      -6.838   3.072  13.415  1.00  0.00     0.071 C 
HETATM   11  O6  UNL     1      -7.253   4.652  11.747  1.00  0.00    -0.350 OA
HETATM   12  C19 UNL     1      -8.105   3.853  13.752  1.00  0.00     0.038 C 
HETATM   13  C20 UNL     1      -8.013   5.102  12.879  1.00  0.00     0.131 C 
HETATM   14  C21 UNL     1      -7.207   6.263  13.491  1.00  0.00     0.040 C 
HETATM   15  C22 UNL     1      -7.961   6.936  14.635  1.00  0.00     0.015 C 
ENDBRANCH   4   6
ENDBRANCH   3   4
BRANCH   3  16
HETATM   16  O1  UNL     1      -3.278   5.527  15.550  1.00  0.00    -0.395 OA
HETATM   17  H6  UNL     1      -2.553   4.883  15.475  1.00  0.00     0.210 HD
ENDBRANCH   3  16
ENDBRANCH   1   3
BRANCH   1  18
HETATM   18  C6  UNL     1      -0.728   6.411  14.258  1.00  0.00     0.131 C 
BRANCH  18  19
HETATM   19  O2  UNL     1      -0.707   5.412  15.273  1.00  0.00    -0.394 OA
HETATM   20  H12 UNL     1       0.222   5.165  15.429  1.00  0.00     0.210 HD
ENDBRANCH  18  19
BRANCH  18  21
HETATM   21  C7  UNL     1      -0.429   5.733  12.885  1.00  0.00     0.033 C 
HETATM   22  C8  UNL     1      -1.686   5.162  12.217  1.00  0.00     0.017 C 
BRANCH  21  23
HETATM   23  C9  UNL     1       0.340   6.688  11.976  1.00  0.00    -0.020 C 
HETATM   24  C10 UNL     1       0.693   6.486  10.696  1.00  0.00    -0.003 C 
BRANCH  24  25
HETATM   25  C11 UNL     1       1.465   7.453   9.939  1.00  0.00     0.014 C 
HETATM   26  C12 UNL     1       2.652   7.250   9.333  1.00  0.00     0.033 C 
BRANCH  26  27
HETATM   27  C13 UNL     1       3.476   8.311   8.659  1.00  0.00     0.208 C 
BRANCH  27  28
HETATM   28  O3  UNL     1       2.856   8.797   7.471  1.00  0.00    -0.396 OA
HETATM   29  H22 UNL     1       2.154   9.408   7.761  1.00  0.00     0.209 HD
ENDBRANCH  27  28
ENDBRANCH  26  27
BRANCH  26  30
HETATM   30  C14 UNL     1       3.319   5.923   9.303  1.00  0.00     0.247 C 
HETATM   31  N1  UNL     1       3.994   5.597  10.437  1.00  0.00    -0.366 N 
HETATM   32  H23 UNL     1       4.409   4.678  10.492  1.00  0.00     0.159 HD
HETATM   33  H24 UNL     1       4.007   6.190  11.255  1.00  0.00     0.159 HD
HETATM   34  O4  UNL     1       3.211   5.157   8.359  1.00  0.00    -0.268 OA
ENDBRANCH  26  30
ENDBRANCH  24  25
ENDBRANCH  21  23
ENDBRANCH  18  21
ENDBRANCH   1  18
TORSDOF 12
ENDMDL
MODEL 9
REMARK minimizedAffinity -7.92815876
REMARK  12 active torsions:
REMARK  status: ('A' for Active; 'I' for Inactive)
REMARK    1  A    between atoms: C2_2  and  C3_3 
REMARK    2  A    between atoms: C2_2  and  C15_20 
REMARK    3  A    between atoms: C3_3  and  O1_4 
REMARK    4  A    between atoms: C3_3  and  C4_5 
REMARK    5  A    between atoms: C4_5  and  C6_7 
REMARK    6  A    between atoms: C6_7  and  O2_8 
REMARK    7  A    between atoms: C6_7  and  C7_9 
REMARK    8  A    between atoms: C7_9  and  C9_11 
REMARK    9  A    between atoms: C10_12  and  C11_13 
REMARK   10  A    between atoms: C12_14  and  C13_15 
REMARK   11  A    between atoms: C12_14  and  C14_17 
REMARK   12  A    between atoms: C13_15  and  O3_16 
REMARK       I    between atoms: C14_17  and  N1_18 
ROOT
HETATM    1  C4  UNL     1      -2.434   7.836  14.085  1.00  0.00     0.040 C 
HETATM    2  C5  UNL     1      -2.416   8.957  15.128  1.00  0.00     0.015 C 
ENDROOT
BRANCH   1   3
HETATM    3  C3  UNL     1      -3.862   7.244  13.846  1.00  0.00     0.130 C 
BRANCH   3   4
HETATM    4  C2  UNL     1      -4.033   5.857  13.152  1.00  0.00     0.040 C 
HETATM    5  C1  UNL     1      -3.181   4.760  13.796  1.00  0.00     0.015 C 
BRANCH   4   6
HETATM    6  C15 UNL     1      -5.545   5.447  13.152  1.00  0.00     0.137 C 
HETATM    7  O5  UNL     1      -6.145   5.937  14.366  1.00  0.00    -0.349 OA
HETATM    8  C16 UNL     1      -7.459   5.438  14.623  1.00  0.00     0.161 C 
HETATM    9  C17 UNL     1      -7.926   6.018  15.947  1.00  0.00     0.079 C 
HETATM   10  C18 UNL     1      -8.431   5.717  13.478  1.00  0.00     0.071 C 
HETATM   11  O6  UNL     1      -7.421   4.011  14.709  1.00  0.00    -0.350 OA
HETATM   12  C19 UNL     1      -8.316   4.462  12.617  1.00  0.00     0.038 C 
HETATM   13  C20 UNL     1      -7.272   3.614  13.337  1.00  0.00     0.131 C 
HETATM   14  C21 UNL     1      -5.810   3.929  12.966  1.00  0.00     0.040 C 
HETATM   15  C22 UNL     1      -5.462   3.435  11.564  1.00  0.00     0.015 C 
ENDBRANCH   4   6
ENDBRANCH   3   4
BRANCH   3  16
HETATM   16  O1  UNL     1      -4.527   8.203  12.988  1.00  0.00    -0.395 OA
HETATM   17  H6  UNL     1      -4.725   8.986  13.532  1.00  0.00     0.210 HD
ENDBRANCH   3  16
ENDBRANCH   1   3
BRANCH   1  18
HETATM   18  C6  UNL     1      -1.690   8.194  12.767  1.00  0.00     0.131 C 
BRANCH  18  19
HETATM   19  O2  UNL     1      -1.711   9.606  12.582  1.00  0.00    -0.394 OA
HETATM   20  H12 UNL     1      -1.548   9.785  11.639  1.00  0.00     0.210 HD
ENDBRANCH  18  19
BRANCH  18  21
HETATM   21  C7  UNL     1      -0.212   7.702  12.684  1.00  0.00     0.033 C 
HETATM   22  C8  UNL     1       0.095   6.569  13.671  1.00  0.00     0.017 C 
BRANCH  21  23
HETATM   23  C9  UNL     1       0.150   7.345  11.245  1.00  0.00    -0.020 C 
HETATM   24  C10 UNL     1       1.025   7.977  10.445  1.00  0.00    -0.003 C 
BRANCH  24  25
HETATM   25  C11 UNL     1       1.258   7.573   9.072  1.00  0.00     0.014 C 
HETATM   26  C12 UNL     1       2.128   6.641   8.634  1.00  0.00     0.033 C 
BRANCH  26  27
HETATM   27  C13 UNL     1       2.422   6.336   7.192  1.00  0.00     0.208 C 
BRANCH  27  28
HETATM   28  O3  UNL     1       1.629   7.120   6.306  1.00  0.00    -0.396 OA
HETATM   29  H22 UNL     1       2.035   8.005   6.289  1.00  0.00     0.209 HD
ENDBRANCH  27  28
ENDBRANCH  26  27
BRANCH  26  30
HETATM   30  C14 UNL     1       2.951   5.819   9.558  1.00  0.00     0.247 C 
HETATM   31  N1  UNL     1       4.185   6.323   9.827  1.00  0.00    -0.366 N 
HETATM   32  H23 UNL     1       4.758   5.835  10.500  1.00  0.00     0.159 HD
HETATM   33  H24 UNL     1       4.504   7.209   9.462  1.00  0.00     0.159 HD
HETATM   34  O4  UNL     1       2.526   4.806  10.089  1.00  0.00    -0.268 OA
ENDBRANCH  26  30
ENDBRANCH  24  25
ENDBRANCH  21  23
ENDBRANCH  18  21
ENDBRANCH   1  18
TORSDOF 12
ENDMDL
