MODEL 1
REMARK minimizedAffinity -9.12561131
REMARK CNNscore 0.622313619
REMARK CNNaffinity 7.2420516
REMARK  12 active torsions:
REMARK  status: ('A' for Active; 'I' for Inactive)
REMARK    1  A    between atoms: O1_2  and  C2_3 
REMARK    2  A    between atoms: C2_3  and  C3_4 
REMARK    3  A    between atoms: C2_3  and  C7_8 
REMARK    4  A    between atoms: C7_8  and  C8_9 
REMARK    5  A    between atoms: C8_9  and  C10_11 
REMARK    6  A    between atoms: C28_30  and  O3_31 
REMARK    7  A    between atoms: O3_31  and  C29_32 
REMARK    8  A    between atoms: C30_34  and  C31_35 
REMARK    9  A    between atoms: C31_35  and  O5_36 
REMARK   10  A    between atoms: C32_37  and  O6_38 
REMARK   11  A    between atoms: C33_39  and  O7_40 
REMARK   12  A    between atoms: C34_41  and  O8_42 
ROOT
HETATM    1  C10 UNL     1      -1.745   5.785  12.984  1.00  0.00    -0.002 C 
HETATM    2  C11 UNL     1      -1.274   4.326  12.661  1.00  0.00     0.006 C 
HETATM    3  C12 UNL     1       0.086   4.416  11.943  1.00  0.00     0.011 C 
HETATM    4  C13 UNL     1       0.558   5.863  12.176  1.00  0.00    -0.029 C 
HETATM    5  C14 UNL     1       1.192   5.882  13.605  1.00  0.00     0.016 C 
HETATM    6  C15 UNL     1       1.567   6.410  11.116  1.00  0.00     0.028 C 
HETATM    7  C16 UNL     1       2.880   5.648  11.083  1.00  0.00    -0.021 C 
HETATM    8  C17 UNL     1       4.070   6.280  11.083  1.00  0.00     0.008 C 
HETATM    9  C18 UNL     1       4.155   7.801  11.124  1.00  0.00     0.092 C 
HETATM   10  O2  UNL     1       3.717   8.200   9.803  1.00  0.00    -0.374 OA
HETATM   11  C19 UNL     1       2.317   8.505   9.863  1.00  0.00     0.179 C 
HETATM   12  C20 UNL     1       1.775   7.987  11.221  1.00  0.00    -0.004 C 
HETATM   13  C21 UNL     1       0.480   8.775  11.563  1.00  0.00     0.014 C 
HETATM   14  C22 UNL     1      -0.543   8.098  12.490  1.00  0.00     0.011 C 
HETATM   15  C23 UNL     1      -0.809   6.643  12.066  1.00  0.00    -0.032 C 
HETATM   16  C24 UNL     1      -1.412   6.649  10.623  1.00  0.00     0.016 C 
HETATM   17  C25 UNL     1       3.026   8.269  12.095  1.00  0.00     0.036 C 
HETATM   18  C26 UNL     1       3.234   9.699  12.591  1.00  0.00     0.011 C 
HETATM   19  C27 UNL     1       4.573   9.847  13.323  1.00  0.00     0.033 C 
HETATM   20  C28 UNL     1       5.630   8.805  12.929  1.00  0.00     0.136 C 
HETATM   21  C35 UNL     1       5.572   8.440  11.420  1.00  0.00     0.014 C 
HETATM   22  C36 UNL     1       5.840   9.699  10.549  1.00  0.00     0.021 C 
HETATM   23  C37 UNL     1       6.748   7.485  11.085  1.00  0.00     0.021 C 
ENDROOT
BRANCH  20  24
HETATM   24  O3  UNL     1       6.936   9.297  13.244  1.00  0.00    -0.352 OA
BRANCH  24  25
HETATM   25  C29 UNL     1       7.134   9.665  14.608  1.00  0.00     0.292 C 
HETATM   26  O4  UNL     1       8.083  10.734  14.712  1.00  0.00    -0.348 OA
HETATM   27  C30 UNL     1       9.461  10.334  14.654  1.00  0.00     0.179 C 
HETATM   28  C32 UNL     1       9.810   9.429  15.858  1.00  0.00     0.180 C 
HETATM   29  C33 UNL     1       8.574   8.732  16.452  1.00  0.00     0.183 C 
HETATM   30  C34 UNL     1       7.560   8.390  15.369  1.00  0.00     0.204 C 
BRANCH  27  31
HETATM   31  C31 UNL     1       9.851   9.726  13.293  1.00  0.00     0.198 C 
BRANCH  31  32
HETATM   32  O5  UNL     1      10.881   8.751  13.433  1.00  0.00    -0.398 OA
HETATM   33  H48 UNL     1      10.480   7.926  13.753  1.00  0.00     0.209 HD
ENDBRANCH  31  32
ENDBRANCH  27  31
BRANCH  28  34
HETATM   34  O6  UNL     1      10.405  10.224  16.909  1.00  0.00    -0.390 OA
HETATM   35  H50 UNL     1       9.828  10.993  17.069  1.00  0.00     0.210 HD
ENDBRANCH  28  34
BRANCH  29  36
HETATM   36  O7  UNL     1       8.981   7.508  17.098  1.00  0.00    -0.390 OA
HETATM   37  H52 UNL     1       8.612   7.522  18.004  1.00  0.00     0.210 HD
ENDBRANCH  29  36
BRANCH  30  38
HETATM   38  O8  UNL     1       6.418   7.762  15.982  1.00  0.00    -0.388 OA
HETATM   39  H54 UNL     1       6.723   6.877  16.257  1.00  0.00     0.210 HD
ENDBRANCH  30  38
ENDBRANCH  24  25
ENDBRANCH  20  24
BRANCH   1  40
HETATM   40  C8  UNL     1      -3.291   5.931  12.843  1.00  0.00    -0.011 C 
HETATM   41  C9  UNL     1      -3.778   7.342  13.202  1.00  0.00     0.010 C 
BRANCH  40  42
HETATM   42  C7  UNL     1      -4.066   4.898  13.715  1.00  0.00     0.040 C 
BRANCH  42  43
HETATM   43  C2  UNL     1      -5.148   4.153  12.905  1.00  0.00     0.144 C 
BRANCH  43  44
HETATM   44  O1  UNL     1      -4.648   3.836  11.605  1.00  0.00    -0.387 OA
HETATM   45  C1  UNL     1      -4.247   2.481  11.479  1.00  0.00     0.202 C 
ENDBRANCH  43  44
BRANCH  43  46
HETATM   46  C3  UNL     1      -6.416   4.971  12.839  1.00  0.00     0.007 C 
HETATM   47  C4  UNL     1      -7.703   4.565  12.891  1.00  0.00    -0.089 C 
HETATM   48  C5  UNL     1      -8.149   3.131  12.941  1.00  0.00     0.042 C 
HETATM   49  C6  UNL     1      -8.836   5.562  12.884  1.00  0.00     0.042 C 
ENDBRANCH  43  46
ENDBRANCH  42  43
ENDBRANCH  40  42
ENDBRANCH   1  40
TORSDOF 12
ENDMDL
MODEL 2
REMARK minimizedAffinity -8.46661377
REMARK CNNscore 0.413128972
REMARK CNNaffinity 6.86480713
REMARK  12 active torsions:
REMARK  status: ('A' for Active; 'I' for Inactive)
REMARK    1  A    between atoms: O1_2  and  C2_3 
REMARK    2  A    between atoms: C2_3  and  C3_4 
REMARK    3  A    between atoms: C2_3  and  C7_8 
REMARK    4  A    between atoms: C7_8  and  C8_9 
REMARK    5  A    between atoms: C8_9  and  C10_11 
REMARK    6  A    between atoms: C28_30  and  O3_31 
REMARK    7  A    between atoms: O3_31  and  C29_32 
REMARK    8  A    between atoms: C30_34  and  C31_35 
REMARK    9  A    between atoms: C31_35  and  O5_36 
REMARK   10  A    between atoms: C32_37  and  O6_38 
REMARK   11  A    between atoms: C33_39  and  O7_40 
REMARK   12  A    between atoms: C34_41  and  O8_42 
ROOT
HETATM    1  C10 UNL     1      -2.659  12.841  17.784  1.00  0.00    -0.002 C 
HETATM    2  C11 UNL     1      -1.586  12.402  18.837  1.00  0.00     0.006 C 
HETATM    3  C12 UNL     1      -1.100  10.990  18.457  1.00  0.00     0.011 C 
HETATM    4  C13 UNL     1      -1.607  10.774  17.019  1.00  0.00    -0.029 C 
HETATM    5  C14 UNL     1      -0.577  11.494  16.089  1.00  0.00     0.016 C 
HETATM    6  C15 UNL     1      -1.784   9.281  16.596  1.00  0.00     0.028 C 
HETATM    7  C16 UNL     1      -0.484   8.495  16.597  1.00  0.00    -0.021 C 
HETATM    8  C17 UNL     1      -0.127   7.711  15.562  1.00  0.00     0.008 C 
HETATM    9  C18 UNL     1      -1.012   7.579  14.328  1.00  0.00     0.092 C 
HETATM   10  O2  UNL     1      -2.133   6.792  14.797  1.00  0.00    -0.374 OA
HETATM   11  C19 UNL     1      -3.187   7.686  15.178  1.00  0.00     0.179 C 
HETATM   12  C20 UNL     1      -2.598   9.120  15.235  1.00  0.00    -0.004 C 
HETATM   13  C21 UNL     1      -3.764  10.134  15.071  1.00  0.00     0.014 C 
HETATM   14  C22 UNL     1      -3.572  11.542  15.659  1.00  0.00     0.011 C 
HETATM   15  C23 UNL     1      -3.016  11.481  17.092  1.00  0.00    -0.032 C 
HETATM   16  C24 UNL     1      -4.047  10.729  17.994  1.00  0.00     0.016 C 
HETATM   17  C25 UNL     1      -1.590   9.005  14.061  1.00  0.00     0.036 C 
HETATM   18  C26 UNL     1      -2.136   9.160  12.642  1.00  0.00     0.011 C 
HETATM   19  C27 UNL     1      -1.051   8.889  11.593  1.00  0.00     0.033 C 
HETATM   20  C28 UNL     1       0.101   8.001  12.086  1.00  0.00     0.136 C 
HETATM   21  C35 UNL     1      -0.382   6.885  13.054  1.00  0.00     0.014 C 
HETATM   22  C36 UNL     1      -1.393   5.948  12.337  1.00  0.00     0.021 C 
HETATM   23  C37 UNL     1       0.817   5.962  13.400  1.00  0.00     0.021 C 
ENDROOT
BRANCH  20  24
HETATM   24  O3  UNL     1       0.761   7.400  10.968  1.00  0.00    -0.352 OA
BRANCH  24  25
HETATM   25  C29 UNL     1       2.035   7.955  10.645  1.00  0.00     0.292 C 
HETATM   26  O4  UNL     1       2.666   7.202   9.601  1.00  0.00    -0.348 OA
HETATM   27  C30 UNL     1       3.333   6.005  10.031  1.00  0.00     0.179 C 
HETATM   28  C32 UNL     1       4.505   6.352  10.977  1.00  0.00     0.180 C 
HETATM   29  C33 UNL     1       4.326   7.718  11.663  1.00  0.00     0.183 C 
HETATM   30  C34 UNL     1       2.859   8.003  11.950  1.00  0.00     0.204 C 
BRANCH  27  31
HETATM   31  C31 UNL     1       2.365   4.955  10.607  1.00  0.00     0.198 C 
BRANCH  31  32
HETATM   32  O5  UNL     1       2.754   3.632  10.244  1.00  0.00    -0.398 OA
HETATM   33  H48 UNL     1       3.488   3.359  10.820  1.00  0.00     0.209 HD
ENDBRANCH  31  32
ENDBRANCH  27  31
BRANCH  28  34
HETATM   34  O6  UNL     1       5.739   6.403  10.228  1.00  0.00    -0.390 OA
HETATM   35  H50 UNL     1       5.597   6.974   9.451  1.00  0.00     0.210 HD
ENDBRANCH  28  34
BRANCH  29  36
HETATM   36  O7  UNL     1       5.044   7.721  12.914  1.00  0.00    -0.390 OA
HETATM   37  H52 UNL     1       5.617   8.514  12.918  1.00  0.00     0.210 HD
ENDBRANCH  29  36
BRANCH  30  38
HETATM   38  O8  UNL     1       2.749   9.299  12.570  1.00  0.00    -0.388 OA
HETATM   39  H54 UNL     1       3.111   9.189  13.470  1.00  0.00     0.210 HD
ENDBRANCH  30  38
ENDBRANCH  24  25
ENDBRANCH  20  24
BRANCH   1  40
HETATM   40  C8  UNL     1      -3.797  13.680  18.442  1.00  0.00    -0.011 C 
HETATM   41  C9  UNL     1      -4.285  14.816  17.531  1.00  0.00     0.010 C 
BRANCH  40  42
HETATM   42  C7  UNL     1      -3.369  14.287  19.812  1.00  0.00     0.040 C 
BRANCH  42  43
HETATM   43  C2  UNL     1      -4.461  15.201  20.407  1.00  0.00     0.144 C 
BRANCH  43  44
HETATM   44  O1  UNL     1      -3.884  16.441  20.819  1.00  0.00    -0.387 OA
HETATM   45  C1  UNL     1      -2.798  16.278  21.718  1.00  0.00     0.202 C 
ENDBRANCH  43  44
BRANCH  43  46
HETATM   46  C3  UNL     1      -5.172  14.503  21.543  1.00  0.00     0.007 C 
HETATM   47  C4  UNL     1      -6.300  13.761  21.522  1.00  0.00    -0.089 C 
HETATM   48  C5  UNL     1      -7.162  13.544  20.310  1.00  0.00     0.042 C 
HETATM   49  C6  UNL     1      -6.810  13.083  22.770  1.00  0.00     0.042 C 
ENDBRANCH  43  46
ENDBRANCH  42  43
ENDBRANCH  40  42
ENDBRANCH   1  40
TORSDOF 12
ENDMDL
MODEL 3
REMARK minimizedAffinity -9.88859749
REMARK CNNscore 0.361274868
REMARK CNNaffinity 7.27296638
REMARK  12 active torsions:
REMARK  status: ('A' for Active; 'I' for Inactive)
REMARK    1  A    between atoms: O1_2  and  C2_3 
REMARK    2  A    between atoms: C2_3  and  C3_4 
REMARK    3  A    between atoms: C2_3  and  C7_8 
REMARK    4  A    between atoms: C7_8  and  C8_9 
REMARK    5  A    between atoms: C8_9  and  C10_11 
REMARK    6  A    between atoms: C28_30  and  O3_31 
REMARK    7  A    between atoms: O3_31  and  C29_32 
REMARK    8  A    between atoms: C30_34  and  C31_35 
REMARK    9  A    between atoms: C31_35  and  O5_36 
REMARK   10  A    between atoms: C32_37  and  O6_38 
REMARK   11  A    between atoms: C33_39  and  O7_40 
REMARK   12  A    between atoms: C34_41  and  O8_42 
ROOT
HETATM    1  C10 UNL     1      -4.836   6.714  15.270  1.00  0.00    -0.002 C 
HETATM    2  C11 UNL     1      -5.079   5.325  14.589  1.00  0.00     0.006 C 
HETATM    3  C12 UNL     1      -4.070   5.182  13.433  1.00  0.00     0.011 C 
HETATM    4  C13 UNL     1      -3.033   6.294  13.676  1.00  0.00    -0.029 C 
HETATM    5  C14 UNL     1      -2.045   5.732  14.749  1.00  0.00     0.016 C 
HETATM    6  C15 UNL     1      -2.259   6.767  12.405  1.00  0.00     0.028 C 
HETATM    7  C16 UNL     1      -1.412   5.676  11.773  1.00  0.00    -0.021 C 
HETATM    8  C17 UNL     1      -0.131   5.887  11.416  1.00  0.00     0.008 C 
HETATM    9  C18 UNL     1       0.539   7.238  11.639  1.00  0.00     0.092 C 
HETATM   10  O2  UNL     1      -0.086   8.092  10.652  1.00  0.00    -0.374 OA
HETATM   11  C19 UNL     1      -1.175   8.785  11.276  1.00  0.00     0.179 C 
HETATM   12  C20 UNL     1      -1.442   8.114  12.648  1.00  0.00    -0.004 C 
HETATM   13  C21 UNL     1      -2.170   9.140  13.560  1.00  0.00     0.014 C 
HETATM   14  C22 UNL     1      -3.046   8.588  14.697  1.00  0.00     0.011 C 
HETATM   15  C23 UNL     1      -3.963   7.456  14.200  1.00  0.00    -0.032 C 
HETATM   16  C24 UNL     1      -4.918   8.035  13.106  1.00  0.00     0.016 C 
HETATM   17  C25 UNL     1       0.021   7.751  13.020  1.00  0.00     0.036 C 
HETATM   18  C26 UNL     1       0.898   8.859  13.600  1.00  0.00     0.011 C 
HETATM   19  C27 UNL     1       2.344   8.386  13.789  1.00  0.00     0.033 C 
HETATM   20  C28 UNL     1       2.752   7.214  12.882  1.00  0.00     0.136 C 
HETATM   21  C35 UNL     1       2.111   7.305  11.470  1.00  0.00     0.014 C 
HETATM   22  C36 UNL     1       2.567   8.606  10.752  1.00  0.00     0.021 C 
HETATM   23  C37 UNL     1       2.673   6.162  10.585  1.00  0.00     0.021 C 
ENDROOT
BRANCH  20  24
HETATM   24  O3  UNL     1       4.176   7.177  12.751  1.00  0.00    -0.352 OA
BRANCH  24  25
HETATM   25  C29 UNL     1       4.885   8.118  13.554  1.00  0.00     0.292 C 
HETATM   26  O4  UNL     1       5.457   9.151  12.740  1.00  0.00    -0.348 OA
HETATM   27  C30 UNL     1       6.698   8.809  12.104  1.00  0.00     0.179 C 
HETATM   28  C32 UNL     1       7.791   8.544  13.164  1.00  0.00     0.180 C 
HETATM   29  C33 UNL     1       7.207   8.147  14.531  1.00  0.00     0.183 C 
HETATM   30  C34 UNL     1       5.933   7.329  14.368  1.00  0.00     0.204 C 
BRANCH  27  31
HETATM   31  C31 UNL     1       6.549   7.672  11.075  1.00  0.00     0.198 C 
BRANCH  31  32
HETATM   32  O5  UNL     1       7.507   6.640  11.295  1.00  0.00    -0.398 OA
HETATM   33  H48 UNL     1       7.200   6.090  12.036  1.00  0.00     0.209 HD
ENDBRANCH  31  32
ENDBRANCH  27  31
BRANCH  28  34
HETATM   34  O6  UNL     1       8.578   9.740  13.362  1.00  0.00    -0.390 OA
HETATM   35  H50 UNL     1       7.965  10.483  13.515  1.00  0.00     0.210 HD
ENDBRANCH  28  34
BRANCH  29  36
HETATM   36  O7  UNL     1       8.171   7.350  15.248  1.00  0.00    -0.390 OA
HETATM   37  H52 UNL     1       8.281   7.754  16.133  1.00  0.00     0.210 HD
ENDBRANCH  29  36
BRANCH  30  38
HETATM   38  O8  UNL     1       5.419   7.004  15.674  1.00  0.00    -0.388 OA
HETATM   39  H54 UNL     1       6.036   6.342  16.040  1.00  0.00     0.210 HD
ENDBRANCH  30  38
ENDBRANCH  24  25
ENDBRANCH  20  24
BRANCH   1  40
HETATM   40  C8  UNL     1      -6.173   7.361  15.742  1.00  0.00    -0.011 C 
HETATM   41  C9  UNL     1      -7.069   6.366  16.493  1.00  0.00     0.010 C 
BRANCH  40  42
HETATM   42  C7  UNL     1      -6.985   7.973  14.560  1.00  0.00     0.040 C 
BRANCH  42  43
HETATM   43  C2  UNL     1      -8.378   7.324  14.419  1.00  0.00     0.144 C 
BRANCH  43  44
HETATM   44  O1  UNL     1      -9.160   7.595  15.583  1.00  0.00    -0.387 OA
HETATM   45  C1  UNL     1     -10.462   8.072  15.279  1.00  0.00     0.202 C 
ENDBRANCH  43  44
BRANCH  43  46
HETATM   46  C3  UNL     1      -8.247   5.842  14.158  1.00  0.00     0.007 C 
HETATM   47  C4  UNL     1      -8.353   5.162  12.996  1.00  0.00    -0.089 C 
HETATM   48  C5  UNL     1      -8.729   5.773  11.675  1.00  0.00     0.042 C 
HETATM   49  C6  UNL     1      -8.111   3.674  12.938  1.00  0.00     0.042 C 
ENDBRANCH  43  46
ENDBRANCH  42  43
ENDBRANCH  40  42
ENDBRANCH   1  40
TORSDOF 12
ENDMDL
MODEL 4
REMARK minimizedAffinity -7.04358053
REMARK CNNscore 0.361230552
REMARK CNNaffinity 7.39668703
REMARK  12 active torsions:
REMARK  status: ('A' for Active; 'I' for Inactive)
REMARK    1  A    between atoms: O1_2  and  C2_3 
REMARK    2  A    between atoms: C2_3  and  C3_4 
REMARK    3  A    between atoms: C2_3  and  C7_8 
REMARK    4  A    between atoms: C7_8  and  C8_9 
REMARK    5  A    between atoms: C8_9  and  C10_11 
REMARK    6  A    between atoms: C28_30  and  O3_31 
REMARK    7  A    between atoms: O3_31  and  C29_32 
REMARK    8  A    between atoms: C30_34  and  C31_35 
REMARK    9  A    between atoms: C31_35  and  O5_36 
REMARK   10  A    between atoms: C32_37  and  O6_38 
REMARK   11  A    between atoms: C33_39  and  O7_40 
REMARK   12  A    between atoms: C34_41  and  O8_42 
ROOT
HETATM    1  C10 UNL     1      -3.274   7.301  14.251  1.00  0.00    -0.002 C 
HETATM    2  C11 UNL     1      -3.352   6.304  13.045  1.00  0.00     0.006 C 
HETATM    3  C12 UNL     1      -4.821   5.863  12.890  1.00  0.00     0.011 C 
HETATM    4  C13 UNL     1      -5.623   6.862  13.744  1.00  0.00    -0.029 C 
HETATM    5  C14 UNL     1      -5.801   8.138  12.859  1.00  0.00     0.016 C 
HETATM    6  C15 UNL     1      -7.006   6.342  14.248  1.00  0.00     0.028 C 
HETATM    7  C16 UNL     1      -7.980   6.030  13.125  1.00  0.00    -0.021 C 
HETATM    8  C17 UNL     1      -9.254   6.467  13.146  1.00  0.00     0.008 C 
HETATM    9  C18 UNL     1      -9.781   7.308  14.303  1.00  0.00     0.092 C 
HETATM   10  O2  UNL     1      -9.877   6.361  15.393  1.00  0.00    -0.374 OA
HETATM   11  C19 UNL     1      -8.679   6.447  16.176  1.00  0.00     0.179 C 
HETATM   12  C20 UNL     1      -7.644   7.276  15.371  1.00  0.00    -0.004 C 
HETATM   13  C21 UNL     1      -6.607   7.864  16.368  1.00  0.00     0.014 C 
HETATM   14  C22 UNL     1      -5.209   8.203  15.826  1.00  0.00     0.011 C 
HETATM   15  C23 UNL     1      -4.646   7.057  14.968  1.00  0.00    -0.032 C 
HETATM   16  C24 UNL     1      -4.508   5.785  15.867  1.00  0.00     0.016 C 
HETATM   17  C25 UNL     1      -8.619   8.275  14.695  1.00  0.00     0.036 C 
HETATM   18  C26 UNL     1      -9.102   9.464  15.524  1.00  0.00     0.011 C 
HETATM   19  C27 UNL     1     -10.158  10.281  14.770  1.00  0.00     0.033 C 
HETATM   20  C28 UNL     1     -10.916   9.494  13.690  1.00  0.00     0.136 C 
HETATM   21  C35 UNL     1     -11.180   8.020  14.104  1.00  0.00     0.014 C 
HETATM   22  C36 UNL     1     -12.052   7.967  15.389  1.00  0.00     0.021 C 
HETATM   23  C37 UNL     1     -12.055   7.339  13.019  1.00  0.00     0.021 C 
ENDROOT
BRANCH  20  24
HETATM   24  O3  UNL     1     -12.164  10.135  13.411  1.00  0.00    -0.352 OA
BRANCH  24  25
HETATM   25  C29 UNL     1     -12.538  11.162  14.327  1.00  0.00     0.292 C 
HETATM   26  O4  UNL     1     -13.440  10.653  15.318  1.00  0.00    -0.348 OA
HETATM   27  C30 UNL     1     -14.813  10.567  14.906  1.00  0.00     0.179 C 
HETATM   28  C32 UNL     1     -15.374  11.975  14.603  1.00  0.00     0.180 C 
HETATM   29  C33 UNL     1     -14.270  12.989  14.254  1.00  0.00     0.183 C 
HETATM   30  C34 UNL     1     -13.129  12.323  13.498  1.00  0.00     0.204 C 
BRANCH  27  31
HETATM   31  C31 UNL     1     -15.031   9.557  13.764  1.00  0.00     0.198 C 
BRANCH  31  32
HETATM   32  O5  UNL     1     -15.255  10.216  12.520  1.00  0.00    -0.398 OA
HETATM   33  H48 UNL     1     -14.397  10.513  12.173  1.00  0.00     0.209 HD
ENDBRANCH  31  32
ENDBRANCH  27  31
BRANCH  28  34
HETATM   34  O6  UNL     1     -16.074  12.480  15.762  1.00  0.00    -0.390 OA
HETATM   35  H50 UNL     1     -15.490  12.380  16.535  1.00  0.00     0.210 HD
ENDBRANCH  28  34
BRANCH  29  36
HETATM   36  O7  UNL     1     -14.824  14.028  13.421  1.00  0.00    -0.390 OA
HETATM   37  H52 UNL     1     -14.590  14.885  13.831  1.00  0.00     0.210 HD
ENDBRANCH  29  36
BRANCH  30  38
HETATM   38  O8  UNL     1     -12.118  13.310  13.217  1.00  0.00    -0.388 OA
HETATM   39  H54 UNL     1     -12.503  13.889  12.531  1.00  0.00     0.210 HD
ENDBRANCH  30  38
ENDBRANCH  24  25
ENDBRANCH  20  24
BRANCH   1  40
HETATM   40  C8  UNL     1      -1.952   7.121  15.057  1.00  0.00    -0.011 C 
HETATM   41  C9  UNL     1      -1.853   8.095  16.240  1.00  0.00     0.010 C 
BRANCH  40  42
HETATM   42  C7  UNL     1      -0.686   7.289  14.164  1.00  0.00     0.040 C 
BRANCH  42  43
HETATM   43  C2  UNL     1      -0.636   6.246  13.028  1.00  0.00     0.144 C 
BRANCH  43  44
HETATM   44  O1  UNL     1      -0.086   5.022  13.518  1.00  0.00    -0.387 OA
HETATM   45  C1  UNL     1      -0.044   3.999  12.534  1.00  0.00     0.202 C 
ENDBRANCH  43  44
BRANCH  43  46
HETATM   46  C3  UNL     1       0.142   6.784  11.850  1.00  0.00     0.007 C 
HETATM   47  C4  UNL     1      -0.054   7.913  11.136  1.00  0.00    -0.089 C 
HETATM   48  C5  UNL     1      -1.202   8.864  11.331  1.00  0.00     0.042 C 
HETATM   49  C6  UNL     1       0.892   8.310  10.030  1.00  0.00     0.042 C 
ENDBRANCH  43  46
ENDBRANCH  42  43
ENDBRANCH  40  42
ENDBRANCH   1  40
TORSDOF 12
ENDMDL
MODEL 5
REMARK minimizedAffinity -8.25651169
REMARK CNNscore 0.320690751
REMARK CNNaffinity 6.90580702
REMARK  12 active torsions:
REMARK  status: ('A' for Active; 'I' for Inactive)
REMARK    1  A    between atoms: O1_2  and  C2_3 
REMARK    2  A    between atoms: C2_3  and  C3_4 
REMARK    3  A    between atoms: C2_3  and  C7_8 
REMARK    4  A    between atoms: C7_8  and  C8_9 
REMARK    5  A    between atoms: C8_9  and  C10_11 
REMARK    6  A    between atoms: C28_30  and  O3_31 
REMARK    7  A    between atoms: O3_31  and  C29_32 
REMARK    8  A    between atoms: C30_34  and  C31_35 
REMARK    9  A    between atoms: C31_35  and  O5_36 
REMARK   10  A    between atoms: C32_37  and  O6_38 
REMARK   11  A    between atoms: C33_39  and  O7_40 
REMARK   12  A    between atoms: C34_41  and  O8_42 
ROOT
HETATM    1  C10 UNL     1      -2.494  13.272  17.595  1.00  0.00    -0.002 C 
HETATM    2  C11 UNL     1      -1.265  12.974  18.518  1.00  0.00     0.006 C 
HETATM    3  C12 UNL     1      -0.821  11.521  18.260  1.00  0.00     0.011 C 
HETATM    4  C13 UNL     1      -1.540  11.116  16.960  1.00  0.00    -0.029 C 
HETATM    5  C14 UNL     1      -0.677  11.698  15.794  1.00  0.00     0.016 C 
HETATM    6  C15 UNL     1      -1.756   9.580  16.773  1.00  0.00     0.028 C 
HETATM    7  C16 UNL     1      -0.460   8.795  16.679  1.00  0.00    -0.021 C 
HETATM    8  C17 UNL     1      -0.254   7.876  15.716  1.00  0.00     0.008 C 
HETATM    9  C18 UNL     1      -1.316   7.584  14.662  1.00  0.00     0.092 C 
HETATM   10  O2  UNL     1      -2.339   6.873  15.401  1.00  0.00    -0.374 OA
HETATM   11  C19 UNL     1      -3.336   7.816  15.816  1.00  0.00     0.179 C 
HETATM   12  C20 UNL     1      -2.767   9.241  15.589  1.00  0.00    -0.004 C 
HETATM   13  C21 UNL     1      -3.961  10.230  15.473  1.00  0.00     0.014 C 
HETATM   14  C22 UNL     1      -3.703  11.703  15.830  1.00  0.00     0.011 C 
HETATM   15  C23 UNL     1      -2.932  11.833  17.155  1.00  0.00    -0.032 C 
HETATM   16  C24 UNL     1      -3.800  11.215  18.298  1.00  0.00     0.016 C 
HETATM   17  C25 UNL     1      -1.951   8.964  14.299  1.00  0.00     0.036 C 
HETATM   18  C26 UNL     1      -2.711   8.928  12.974  1.00  0.00     0.011 C 
HETATM   19  C27 UNL     1      -1.797   8.513  11.816  1.00  0.00     0.033 C 
HETATM   20  C28 UNL     1      -0.569   7.693  12.239  1.00  0.00     0.136 C 
HETATM   21  C35 UNL     1      -0.879   6.721  13.410  1.00  0.00     0.014 C 
HETATM   22  C36 UNL     1      -1.974   5.701  12.991  1.00  0.00     0.021 C 
HETATM   23  C37 UNL     1       0.373   5.847  13.687  1.00  0.00     0.021 C 
ENDROOT
BRANCH  20  24
HETATM   24  O3  UNL     1      -0.079   6.944  11.123  1.00  0.00    -0.352 OA
BRANCH  24  25
HETATM   25  C29 UNL     1       1.286   7.180  10.784  1.00  0.00     0.292 C 
HETATM   26  O4  UNL     1       1.462   8.514  10.289  1.00  0.00    -0.348 OA
HETATM   27  C30 UNL     1       1.122   8.700   8.907  1.00  0.00     0.179 C 
HETATM   28  C32 UNL     1       2.053   7.859   8.004  1.00  0.00     0.180 C 
HETATM   29  C33 UNL     1       2.670   6.660   8.746  1.00  0.00     0.183 C 
HETATM   30  C34 UNL     1       1.703   6.090   9.773  1.00  0.00     0.204 C 
BRANCH  27  31
HETATM   31  C31 UNL     1      -0.376   8.478   8.624  1.00  0.00     0.198 C 
BRANCH  31  32
HETATM   32  O5  UNL     1      -0.597   8.060   7.279  1.00  0.00    -0.398 OA
HETATM   33  H48 UNL     1      -0.383   7.114   7.214  1.00  0.00     0.209 HD
ENDBRANCH  31  32
ENDBRANCH  27  31
BRANCH  28  34
HETATM   34  O6  UNL     1       3.143   8.680   7.528  1.00  0.00    -0.390 OA
HETATM   35  H50 UNL     1       3.539   9.131   8.296  1.00  0.00     0.210 HD
ENDBRANCH  28  34
BRANCH  29  36
HETATM   36  O7  UNL     1       2.988   5.623   7.795  1.00  0.00    -0.390 OA
HETATM   37  H52 UNL     1       3.923   5.373   7.940  1.00  0.00     0.210 HD
ENDBRANCH  29  36
BRANCH  30  38
HETATM   38  O8  UNL     1       2.338   4.988  10.450  1.00  0.00    -0.388 OA
HETATM   39  H54 UNL     1       2.380   4.267   9.793  1.00  0.00     0.210 HD
ENDBRANCH  30  38
ENDBRANCH  24  25
ENDBRANCH  20  24
BRANCH   1  40
HETATM   40  C8  UNL     1      -3.530  14.198  18.302  1.00  0.00    -0.011 C 
HETATM   41  C9  UNL     1      -3.860  15.446  17.470  1.00  0.00     0.010 C 
BRANCH  40  42
HETATM   42  C7  UNL     1      -3.051  14.652  19.715  1.00  0.00     0.040 C 
BRANCH  42  43
HETATM   43  C2  UNL     1      -4.122  15.485  20.449  1.00  0.00     0.144 C 
BRANCH  43  44
HETATM   44  O1  UNL     1      -3.531  16.667  20.989  1.00  0.00    -0.387 OA
HETATM   45  C1  UNL     1      -3.489  16.669  22.408  1.00  0.00     0.202 C 
ENDBRANCH  43  44
BRANCH  43  46
HETATM   46  C3  UNL     1      -4.801  14.655  21.513  1.00  0.00     0.007 C 
HETATM   47  C4  UNL     1      -5.886  13.857  21.416  1.00  0.00    -0.089 C 
HETATM   48  C5  UNL     1      -6.727  13.698  20.181  1.00  0.00     0.042 C 
HETATM   49  C6  UNL     1      -6.365  13.046  22.595  1.00  0.00     0.042 C 
ENDBRANCH  43  46
ENDBRANCH  42  43
ENDBRANCH  40  42
ENDBRANCH   1  40
TORSDOF 12
ENDMDL
MODEL 6
REMARK minimizedAffinity -8.39124775
REMARK CNNscore 0.308528781
REMARK CNNaffinity 6.68220949
REMARK  12 active torsions:
REMARK  status: ('A' for Active; 'I' for Inactive)
REMARK    1  A    between atoms: O1_2  and  C2_3 
REMARK    2  A    between atoms: C2_3  and  C3_4 
REMARK    3  A    between atoms: C2_3  and  C7_8 
REMARK    4  A    between atoms: C7_8  and  C8_9 
REMARK    5  A    between atoms: C8_9  and  C10_11 
REMARK    6  A    between atoms: C28_30  and  O3_31 
REMARK    7  A    between atoms: O3_31  and  C29_32 
REMARK    8  A    between atoms: C30_34  and  C31_35 
REMARK    9  A    between atoms: C31_35  and  O5_36 
REMARK   10  A    between atoms: C32_37  and  O6_38 
REMARK   11  A    between atoms: C33_39  and  O7_40 
REMARK   12  A    between atoms: C34_41  and  O8_42 
ROOT
HETATM    1  C10 UNL     1      -0.269   6.552  11.735  1.00  0.00    -0.002 C 
HETATM    2  C11 UNL     1      -1.309   5.541  12.327  1.00  0.00     0.006 C 
HETATM    3  C12 UNL     1      -1.723   6.051  13.721  1.00  0.00     0.011 C 
HETATM    4  C13 UNL     1      -1.218   7.505  13.773  1.00  0.00    -0.029 C 
HETATM    5  C14 UNL     1      -2.292   8.359  13.025  1.00  0.00     0.016 C 
HETATM    6  C15 UNL     1      -0.967   8.067  15.208  1.00  0.00     0.028 C 
HETATM    7  C16 UNL     1      -2.223   8.136  16.059  1.00  0.00    -0.021 C 
HETATM    8  C17 UNL     1      -2.548   9.239  16.760  1.00  0.00     0.008 C 
HETATM    9  C18 UNL     1      -1.668  10.483  16.728  1.00  0.00     0.092 C 
HETATM   10  O2  UNL     1      -0.503  10.095  17.495  1.00  0.00    -0.374 OA
HETATM   11  C19 UNL     1       0.506   9.635  16.586  1.00  0.00     0.179 C 
HETATM   12  C20 UNL     1      -0.157   9.441  15.197  1.00  0.00    -0.004 C 
HETATM   13  C21 UNL     1       0.953   9.512  14.112  1.00  0.00     0.014 C 
HETATM   14  C22 UNL     1       0.693   8.793  12.778  1.00  0.00     0.011 C 
HETATM   15  C23 UNL     1       0.152   7.370  13.003  1.00  0.00    -0.032 C 
HETATM   16  C24 UNL     1       1.229   6.547  13.781  1.00  0.00     0.016 C 
HETATM   17  C25 UNL     1      -1.168  10.617  15.254  1.00  0.00     0.036 C 
HETATM   18  C26 UNL     1      -0.643  12.016  14.938  1.00  0.00     0.011 C 
HETATM   19  C27 UNL     1      -1.720  13.083  15.166  1.00  0.00     0.033 C 
HETATM   20  C28 UNL     1      -2.820  12.672  16.157  1.00  0.00     0.136 C 
HETATM   21  C35 UNL     1      -2.272  11.815  17.331  1.00  0.00     0.014 C 
HETATM   22  C36 UNL     1      -1.218  12.621  18.142  1.00  0.00     0.021 C 
HETATM   23  C37 UNL     1      -3.417  11.554  18.345  1.00  0.00     0.021 C 
ENDROOT
BRANCH  20  24
HETATM   24  O3  UNL     1      -3.458  13.839  16.684  1.00  0.00    -0.352 OA
BRANCH  24  25
HETATM   25  C29 UNL     1      -4.883  13.820  16.651  1.00  0.00     0.292 C 
HETATM   26  O4  UNL     1      -5.361  13.960  15.306  1.00  0.00    -0.348 OA
HETATM   27  C30 UNL     1      -5.401  15.308  14.811  1.00  0.00     0.179 C 
HETATM   28  C32 UNL     1      -6.398  16.155  15.635  1.00  0.00     0.180 C 
HETATM   29  C33 UNL     1      -6.640  15.582  17.042  1.00  0.00     0.183 C 
HETATM   30  C34 UNL     1      -5.379  14.935  17.598  1.00  0.00     0.204 C 
BRANCH  27  31
HETATM   31  C31 UNL     1      -4.003  15.943  14.694  1.00  0.00     0.198 C 
BRANCH  31  32
HETATM   32  O5  UNL     1      -3.378  15.605  13.458  1.00  0.00    -0.398 OA
HETATM   33  H48 UNL     1      -3.757  16.166  12.760  1.00  0.00     0.209 HD
ENDBRANCH  31  32
ENDBRANCH  27  31
BRANCH  28  34
HETATM   34  O6  UNL     1      -7.676  16.197  14.960  1.00  0.00    -0.390 OA
HETATM   35  H50 UNL     1      -7.930  15.282  14.738  1.00  0.00     0.210 HD
ENDBRANCH  28  34
BRANCH  29  36
HETATM   36  O7  UNL     1      -7.033  16.649  17.930  1.00  0.00    -0.390 OA
HETATM   37  H52 UNL     1      -7.859  16.368  18.373  1.00  0.00     0.210 HD
ENDBRANCH  29  36
BRANCH  30  38
HETATM   38  O8  UNL     1      -5.667  14.398  18.903  1.00  0.00    -0.388 OA
HETATM   39  H54 UNL     1      -5.768  15.174  19.487  1.00  0.00     0.210 HD
ENDBRANCH  30  38
ENDBRANCH  24  25
ENDBRANCH  20  24
BRANCH   1  40
HETATM   40  C8  UNL     1       0.828   5.821  10.902  1.00  0.00    -0.011 C 
HETATM   41  C9  UNL     1       1.049   4.375  11.371  1.00  0.00     0.010 C 
BRANCH  40  42
HETATM   42  C7  UNL     1       2.194   6.571  10.935  1.00  0.00     0.040 C 
BRANCH  42  43
HETATM   43  C2  UNL     1       3.170   6.042   9.863  1.00  0.00     0.144 C 
BRANCH  43  44
HETATM   44  O1  UNL     1       4.408   6.751   9.942  1.00  0.00    -0.387 OA
HETATM   45  C1  UNL     1       5.187   6.384  11.070  1.00  0.00     0.202 C 
ENDBRANCH  43  44
BRANCH  43  46
HETATM   46  C3  UNL     1       2.550   6.137   8.489  1.00  0.00     0.007 C 
HETATM   47  C4  UNL     1       2.366   7.220   7.704  1.00  0.00    -0.089 C 
HETATM   48  C5  UNL     1       2.683   8.634   8.104  1.00  0.00     0.042 C 
HETATM   49  C6  UNL     1       1.787   7.089   6.317  1.00  0.00     0.042 C 
ENDBRANCH  43  46
ENDBRANCH  42  43
ENDBRANCH  40  42
ENDBRANCH   1  40
TORSDOF 12
ENDMDL
MODEL 7
REMARK minimizedAffinity -7.708951
REMARK CNNscore 0.30130145
REMARK CNNaffinity 6.74483347
REMARK  12 active torsions:
REMARK  status: ('A' for Active; 'I' for Inactive)
REMARK    1  A    between atoms: O1_2  and  C2_3 
REMARK    2  A    between atoms: C2_3  and  C3_4 
REMARK    3  A    between atoms: C2_3  and  C7_8 
REMARK    4  A    between atoms: C7_8  and  C8_9 
REMARK    5  A    between atoms: C8_9  and  C10_11 
REMARK    6  A    between atoms: C28_30  and  O3_31 
REMARK    7  A    between atoms: O3_31  and  C29_32 
REMARK    8  A    between atoms: C30_34  and  C31_35 
REMARK    9  A    between atoms: C31_35  and  O5_36 
REMARK   10  A    between atoms: C32_37  and  O6_38 
REMARK   11  A    between atoms: C33_39  and  O7_40 
REMARK   12  A    between atoms: C34_41  and  O8_42 
ROOT
HETATM    1  C10 UNL     1      -6.896 -12.188  -0.940  1.00  0.00    -0.002 C 
HETATM    2  C11 UNL     1      -6.036 -13.497  -0.941  1.00  0.00     0.006 C 
HETATM    3  C12 UNL     1      -5.072 -13.430   0.259  1.00  0.00     0.011 C 
HETATM    4  C13 UNL     1      -5.617 -12.290   1.138  1.00  0.00    -0.029 C 
HETATM    5  C14 UNL     1      -6.783 -12.911   1.973  1.00  0.00     0.016 C 
HETATM    6  C15 UNL     1      -4.565 -11.614   2.074  1.00  0.00     0.028 C 
HETATM    7  C16 UNL     1      -3.981 -12.561   3.109  1.00  0.00    -0.021 C 
HETATM    8  C17 UNL     1      -3.886 -12.223   4.409  1.00  0.00     0.008 C 
HETATM    9  C18 UNL     1      -4.371 -10.868   4.910  1.00  0.00     0.092 C 
HETATM   10  O2  UNL     1      -3.386  -9.943   4.391  1.00  0.00    -0.374 OA
HETATM   11  C19 UNL     1      -3.875  -9.405   3.156  1.00  0.00     0.179 C 
HETATM   12  C20 UNL     1      -5.096 -10.256   2.717  1.00  0.00    -0.004 C 
HETATM   13  C21 UNL     1      -5.968  -9.400   1.757  1.00  0.00     0.014 C 
HETATM   14  C22 UNL     1      -6.861 -10.144   0.751  1.00  0.00     0.011 C 
HETATM   15  C23 UNL     1      -6.088 -11.265   0.034  1.00  0.00    -0.032 C 
HETATM   16  C24 UNL     1      -4.909 -10.622  -0.766  1.00  0.00     0.016 C 
HETATM   17  C25 UNL     1      -5.683 -10.562   4.120  1.00  0.00     0.036 C 
HETATM   18  C26 UNL     1      -6.529  -9.478   4.786  1.00  0.00     0.011 C 
HETATM   19  C27 UNL     1      -6.922  -9.874   6.214  1.00  0.00     0.033 C 
HETATM   20  C28 UNL     1      -5.982 -10.895   6.871  1.00  0.00     0.136 C 
HETATM   21  C35 UNL     1      -4.496 -10.676   6.476  1.00  0.00     0.014 C 
HETATM   22  C36 UNL     1      -4.017  -9.269   6.933  1.00  0.00     0.021 C 
HETATM   23  C37 UNL     1      -3.608 -11.662   7.278  1.00  0.00     0.021 C 
ENDROOT
BRANCH  20  24
HETATM   24  O3  UNL     1      -6.106 -10.821   8.294  1.00  0.00    -0.352 OA
BRANCH  24  25
HETATM   25  C29 UNL     1      -7.142  -9.964   8.771  1.00  0.00     0.292 C 
HETATM   26  O4  UNL     1      -6.590  -8.768   9.337  1.00  0.00    -0.348 OA
HETATM   27  C30 UNL     1      -6.119  -8.895  10.688  1.00  0.00     0.179 C 
HETATM   28  C32 UNL     1      -7.292  -9.231  11.637  1.00  0.00     0.180 C 
HETATM   29  C33 UNL     1      -8.474  -9.893  10.907  1.00  0.00     0.183 C 
HETATM   30  C34 UNL     1      -7.990 -10.781   9.770  1.00  0.00     0.204 C 
BRANCH  27  31
HETATM   31  C31 UNL     1      -4.926  -9.859  10.817  1.00  0.00     0.198 C 
BRANCH  31  32
HETATM   32  O5  UNL     1      -3.939  -9.351  11.712  1.00  0.00    -0.398 OA
HETATM   33  H48 UNL     1      -4.242  -9.509  12.623  1.00  0.00     0.209 HD
ENDBRANCH  31  32
ENDBRANCH  27  31
BRANCH  28  34
HETATM   34  O6  UNL     1      -7.787  -8.019  12.250  1.00  0.00    -0.390 OA
HETATM   35  H50 UNL     1      -7.946  -7.367  11.543  1.00  0.00     0.210 HD
ENDBRANCH  28  34
BRANCH  29  36
HETATM   36  O7  UNL     1      -9.213 -10.708  11.839  1.00  0.00    -0.390 OA
HETATM   37  H52 UNL     1     -10.153 -10.444  11.773  1.00  0.00     0.210 HD
ENDBRANCH  29  36
BRANCH  30  38
HETATM   38  O8  UNL     1      -9.135 -11.356   9.109  1.00  0.00    -0.388 OA
HETATM   39  H54 UNL     1      -9.495 -12.012   9.736  1.00  0.00     0.210 HD
ENDBRANCH  30  38
ENDBRANCH  24  25
ENDBRANCH  20  24
BRANCH   1  40
HETATM   40  C8  UNL     1      -7.187 -11.694  -2.390  1.00  0.00    -0.011 C 
HETATM   41  C9  UNL     1      -6.353 -12.443  -3.439  1.00  0.00     0.010 C 
BRANCH  40  42
HETATM   42  C7  UNL     1      -6.941 -10.164  -2.555  1.00  0.00     0.040 C 
BRANCH  42  43
HETATM   43  C2  UNL     1      -7.955  -9.516  -3.520  1.00  0.00     0.144 C 
BRANCH  43  44
HETATM   44  O1  UNL     1      -7.391  -8.338  -4.098  1.00  0.00    -0.387 OA
HETATM   45  C1  UNL     1      -8.052  -7.928  -5.285  1.00  0.00     0.202 C 
ENDBRANCH  43  44
BRANCH  43  46
HETATM   46  C3  UNL     1      -9.255  -9.228  -2.807  1.00  0.00     0.007 C 
HETATM   47  C4  UNL     1      -9.550  -8.254  -1.919  1.00  0.00    -0.089 C 
HETATM   48  C5  UNL     1      -8.562  -7.263  -1.374  1.00  0.00     0.042 C 
HETATM   49  C6  UNL     1     -10.948  -8.095  -1.373  1.00  0.00     0.042 C 
ENDBRANCH  43  46
ENDBRANCH  42  43
ENDBRANCH  40  42
ENDBRANCH   1  40
TORSDOF 12
ENDMDL
MODEL 8
REMARK minimizedAffinity -7.81600857
REMARK CNNscore 0.285118729
REMARK CNNaffinity 6.6366787
REMARK  12 active torsions:
REMARK  status: ('A' for Active; 'I' for Inactive)
REMARK    1  A    between atoms: O1_2  and  C2_3 
REMARK    2  A    between atoms: C2_3  and  C3_4 
REMARK    3  A    between atoms: C2_3  and  C7_8 
REMARK    4  A    between atoms: C7_8  and  C8_9 
REMARK    5  A    between atoms: C8_9  and  C10_11 
REMARK    6  A    between atoms: C28_30  and  O3_31 
REMARK    7  A    between atoms: O3_31  and  C29_32 
REMARK    8  A    between atoms: C30_34  and  C31_35 
REMARK    9  A    between atoms: C31_35  and  O5_36 
REMARK   10  A    between atoms: C32_37  and  O6_38 
REMARK   11  A    between atoms: C33_39  and  O7_40 
REMARK   12  A    between atoms: C34_41  and  O8_42 
ROOT
HETATM    1  C10 UNL     1      -2.548   6.275  12.996  1.00  0.00    -0.002 C 
HETATM    2  C11 UNL     1      -4.090   6.413  12.761  1.00  0.00     0.006 C 
HETATM    3  C12 UNL     1      -4.618   7.501  13.716  1.00  0.00     0.011 C 
HETATM    4  C13 UNL     1      -3.358   8.227  14.221  1.00  0.00    -0.029 C 
HETATM    5  C14 UNL     1      -2.973   9.247  13.102  1.00  0.00     0.016 C 
HETATM    6  C15 UNL     1      -3.515   8.949  15.597  1.00  0.00     0.028 C 
HETATM    7  C16 UNL     1      -4.540  10.069  15.577  1.00  0.00    -0.021 C 
HETATM    8  C17 UNL     1      -4.275  11.285  16.092  1.00  0.00     0.008 C 
HETATM    9  C18 UNL     1      -2.921  11.600  16.718  1.00  0.00     0.092 C 
HETATM   10  O2  UNL     1      -2.941  10.856  17.960  1.00  0.00    -0.374 OA
HETATM   11  C19 UNL     1      -2.293   9.596  17.745  1.00  0.00     0.179 C 
HETATM   12  C20 UNL     1      -2.118   9.406  16.215  1.00  0.00    -0.004 C 
HETATM   13  C21 UNL     1      -0.961   8.397  15.978  1.00  0.00     0.014 C 
HETATM   14  C22 UNL     1      -0.965   7.603  14.661  1.00  0.00     0.011 C 
HETATM   15  C23 UNL     1      -2.356   7.015  14.364  1.00  0.00    -0.032 C 
HETATM   16  C24 UNL     1      -2.732   6.024  15.513  1.00  0.00     0.016 C 
HETATM   17  C25 UNL     1      -1.859  10.885  15.824  1.00  0.00     0.036 C 
HETATM   18  C26 UNL     1      -0.449  11.435  16.036  1.00  0.00     0.011 C 
HETATM   19  C27 UNL     1      -0.384  12.936  15.732  1.00  0.00     0.033 C 
HETATM   20  C28 UNL     1      -1.728  13.668  15.858  1.00  0.00     0.136 C 
HETATM   21  C35 UNL     1      -2.598  13.118  17.022  1.00  0.00     0.014 C 
HETATM   22  C36 UNL     1      -1.861  13.300  18.379  1.00  0.00     0.021 C 
HETATM   23  C37 UNL     1      -3.872  13.992  17.159  1.00  0.00     0.021 C 
ENDROOT
BRANCH  20  24
HETATM   24  O3  UNL     1      -1.501  15.066  16.060  1.00  0.00    -0.352 OA
BRANCH  24  25
HETATM   25  C29 UNL     1      -1.185  15.807  14.883  1.00  0.00     0.292 C 
HETATM   26  O4  UNL     1      -0.661  17.098  15.222  1.00  0.00    -0.348 OA
HETATM   27  C30 UNL     1      -1.648  18.091  15.543  1.00  0.00     0.179 C 
HETATM   28  C32 UNL     1      -2.540  18.380  14.314  1.00  0.00     0.180 C 
HETATM   29  C33 UNL     1      -2.562  17.213  13.311  1.00  0.00     0.183 C 
HETATM   30  C34 UNL     1      -2.467  15.872  14.024  1.00  0.00     0.204 C 
BRANCH  27  31
HETATM   31  C31 UNL     1      -2.444  17.753  16.817  1.00  0.00     0.198 C 
BRANCH  31  32
HETATM   32  O5  UNL     1      -1.774  18.213  17.989  1.00  0.00    -0.398 OA
HETATM   33  H48 UNL     1      -1.929  19.170  18.074  1.00  0.00     0.209 HD
ENDBRANCH  31  32
ENDBRANCH  27  31
BRANCH  28  34
HETATM   34  O6  UNL     1      -2.044  19.543  13.614  1.00  0.00    -0.390 OA
HETATM   35  H50 UNL     1      -1.089  19.420  13.464  1.00  0.00     0.210 HD
ENDBRANCH  28  34
BRANCH  29  36
HETATM   36  O7  UNL     1      -3.797  17.247  12.567  1.00  0.00    -0.390 OA
HETATM   37  H52 UNL     1      -3.564  17.216  11.617  1.00  0.00     0.210 HD
ENDBRANCH  29  36
BRANCH  30  38
HETATM   38  O8  UNL     1      -2.470  14.820  13.040  1.00  0.00    -0.388 OA
HETATM   39  H54 UNL     1      -3.379  14.795  12.687  1.00  0.00     0.210 HD
ENDBRANCH  30  38
ENDBRANCH  24  25
ENDBRANCH  20  24
BRANCH   1  40
HETATM   40  C8  UNL     1      -2.079   4.794  12.860  1.00  0.00    -0.011 C 
HETATM   41  C9  UNL     1      -0.550   4.672  12.785  1.00  0.00     0.010 C 
BRANCH  40  42
HETATM   42  C7  UNL     1      -2.699   4.088  11.618  1.00  0.00     0.040 C 
BRANCH  42  43
HETATM   43  C2  UNL     1      -2.400   2.574  11.603  1.00  0.00     0.144 C 
BRANCH  43  44
HETATM   44  O1  UNL     1      -1.391   2.289  10.634  1.00  0.00    -0.387 OA
HETATM   45  C1  UNL     1      -0.909   0.956  10.709  1.00  0.00     0.202 C 
ENDBRANCH  43  44
BRANCH  43  46
HETATM   46  C3  UNL     1      -3.665   1.787  11.352  1.00  0.00     0.007 C 
HETATM   47  C4  UNL     1      -4.948   2.121  11.608  1.00  0.00    -0.089 C 
HETATM   48  C5  UNL     1      -5.385   3.375  12.312  1.00  0.00     0.042 C 
HETATM   49  C6  UNL     1      -6.085   1.212  11.207  1.00  0.00     0.042 C 
ENDBRANCH  43  46
ENDBRANCH  42  43
ENDBRANCH  40  42
ENDBRANCH   1  40
TORSDOF 12
ENDMDL
MODEL 9
REMARK minimizedAffinity -7.24171019
REMARK CNNscore 0.270696551
REMARK CNNaffinity 6.48118448
REMARK  12 active torsions:
REMARK  status: ('A' for Active; 'I' for Inactive)
REMARK    1  A    between atoms: O1_2  and  C2_3 
REMARK    2  A    between atoms: C2_3  and  C3_4 
REMARK    3  A    between atoms: C2_3  and  C7_8 
REMARK    4  A    between atoms: C7_8  and  C8_9 
REMARK    5  A    between atoms: C8_9  and  C10_11 
REMARK    6  A    between atoms: C28_30  and  O3_31 
REMARK    7  A    between atoms: O3_31  and  C29_32 
REMARK    8  A    between atoms: C30_34  and  C31_35 
REMARK    9  A    between atoms: C31_35  and  O5_36 
REMARK   10  A    between atoms: C32_37  and  O6_38 
REMARK   11  A    between atoms: C33_39  and  O7_40 
REMARK   12  A    between atoms: C34_41  and  O8_42 
ROOT
HETATM    1  C10 UNL     1      -7.392 -12.174  -0.658  1.00  0.00    -0.002 C 
HETATM    2  C11 UNL     1      -6.492 -13.453  -0.751  1.00  0.00     0.006 C 
HETATM    3  C12 UNL     1      -5.429 -13.365   0.361  1.00  0.00     0.011 C 
HETATM    4  C13 UNL     1      -5.932 -12.253   1.299  1.00  0.00    -0.029 C 
HETATM    5  C14 UNL     1      -6.999 -12.923   2.225  1.00  0.00     0.016 C 
HETATM    6  C15 UNL     1      -4.826 -11.551   2.148  1.00  0.00     0.028 C 
HETATM    7  C16 UNL     1      -4.121 -12.488   3.115  1.00  0.00    -0.021 C 
HETATM    8  C17 UNL     1      -3.924 -12.160   4.406  1.00  0.00     0.008 C 
HETATM    9  C18 UNL     1      -4.408 -10.828   4.966  1.00  0.00     0.092 C 
HETATM   10  O2  UNL     1      -3.503  -9.864   4.375  1.00  0.00    -0.374 OA
HETATM   11  C19 UNL     1      -4.117  -9.331   3.194  1.00  0.00     0.179 C 
HETATM   12  C20 UNL     1      -5.343 -10.218   2.853  1.00  0.00    -0.004 C 
HETATM   13  C21 UNL     1      -6.324  -9.383   1.984  1.00  0.00     0.014 C 
HETATM   14  C22 UNL     1      -7.277 -10.147   1.050  1.00  0.00     0.011 C 
HETATM   15  C23 UNL     1      -6.533 -11.234   0.254  1.00  0.00    -0.032 C 
HETATM   16  C24 UNL     1      -5.452 -10.543  -0.638  1.00  0.00     0.016 C 
HETATM   17  C25 UNL     1      -5.794 -10.560   4.298  1.00  0.00     0.036 C 
HETATM   18  C26 UNL     1      -6.613  -9.512   5.049  1.00  0.00     0.011 C 
HETATM   19  C27 UNL     1      -6.866  -9.935   6.501  1.00  0.00     0.033 C 
HETATM   20  C28 UNL     1      -5.838 -10.931   7.060  1.00  0.00     0.136 C 
HETATM   21  C35 UNL     1      -4.401 -10.656   6.538  1.00  0.00     0.014 C 
HETATM   22  C36 UNL     1      -3.931  -9.238   6.971  1.00  0.00     0.021 C 
HETATM   23  C37 UNL     1      -3.413 -11.619   7.247  1.00  0.00     0.021 C 
ENDROOT
BRANCH  20  24
HETATM   24  O3  UNL     1      -5.839 -10.875   8.489  1.00  0.00    -0.352 OA
BRANCH  24  25
HETATM   25  C29 UNL     1      -6.872 -10.079   9.066  1.00  0.00     0.292 C 
HETATM   26  O4  UNL     1      -6.340  -8.846   9.569  1.00  0.00    -0.348 OA
HETATM   27  C30 UNL     1      -5.727  -8.930  10.865  1.00  0.00     0.179 C 
HETATM   28  C32 UNL     1      -6.773  -9.329  11.931  1.00  0.00     0.180 C 
HETATM   29  C33 UNL     1      -7.980 -10.069  11.328  1.00  0.00     0.183 C 
HETATM   30  C34 UNL     1      -7.561 -10.937  10.150  1.00  0.00     0.204 C 
BRANCH  27  31
HETATM   31  C31 UNL     1      -4.468  -9.818  10.874  1.00  0.00     0.198 C 
BRANCH  31  32
HETATM   32  O5  UNL     1      -3.482  -9.317  11.773  1.00  0.00    -0.398 OA
HETATM   33  H48 UNL     1      -3.738  -9.566  12.678  1.00  0.00     0.209 HD
ENDBRANCH  31  32
ENDBRANCH  27  31
BRANCH  28  34
HETATM   34  O6  UNL     1      -7.277  -8.143  12.587  1.00  0.00    -0.390 OA
HETATM   35  H50 UNL     1      -7.547  -7.509  11.897  1.00  0.00     0.210 HD
ENDBRANCH  28  34
BRANCH  29  36
HETATM   36  O7  UNL     1      -8.568 -10.919  12.333  1.00  0.00    -0.390 OA
HETATM   37  H52 UNL     1      -9.525 -10.714  12.363  1.00  0.00     0.210 HD
ENDBRANCH  29  36
BRANCH  30  38
HETATM   38  O8  UNL     1      -8.729 -11.587   9.612  1.00  0.00    -0.388 OA
HETATM   39  H54 UNL     1      -8.982 -12.257  10.275  1.00  0.00     0.210 HD
ENDBRANCH  30  38
ENDBRANCH  24  25
ENDBRANCH  20  24
BRANCH   1  40
HETATM   40  C8  UNL     1      -7.826 -11.676  -2.070  1.00  0.00    -0.011 C 
HETATM   41  C9  UNL     1      -9.269 -11.152  -2.085  1.00  0.00     0.010 C 
BRANCH  40  42
HETATM   42  C7  UNL     1      -7.685 -12.782  -3.158  1.00  0.00     0.040 C 
BRANCH  42  43
HETATM   43  C2  UNL     1      -7.164 -12.215  -4.496  1.00  0.00     0.144 C 
BRANCH  43  44
HETATM   44  O1  UNL     1      -5.858 -12.727  -4.763  1.00  0.00    -0.387 OA
HETATM   45  C1  UNL     1      -4.844 -12.086  -4.004  1.00  0.00     0.202 C 
ENDBRANCH  43  44
BRANCH  43  46
HETATM   46  C3  UNL     1      -7.187 -10.705  -4.474  1.00  0.00     0.007 C 
HETATM   47  C4  UNL     1      -7.477  -9.837  -5.467  1.00  0.00    -0.089 C 
HETATM   48  C5  UNL     1      -7.766 -10.226  -6.890  1.00  0.00     0.042 C 
HETATM   49  C6  UNL     1      -7.515  -8.349  -5.216  1.00  0.00     0.042 C 
ENDBRANCH  43  46
ENDBRANCH  42  43
ENDBRANCH  40  42
ENDBRANCH   1  40
TORSDOF 12
ENDMDL
