MODEL 1
REMARK minimizedAffinity -9.20121288
REMARK  10 active torsions:
REMARK  status: ('A' for Active; 'I' for Inactive)
REMARK    1  A    between atoms: C5_5  and  C6_6 
REMARK    2  A    between atoms: C6_6  and  C8_8 
REMARK    3  A    between atoms: C8_8  and  O1_9 
REMARK    4  A    between atoms: C15_17  and  O3_18 
REMARK    5  A    between atoms: C18_21  and  O4_23 
REMARK    6  A    between atoms: O4_23  and  C20_24 
REMARK    7  A    between atoms: C20_24  and  C21_26 
REMARK    8  A    between atoms: C21_26  and  C22_27 
REMARK    9  A    between atoms: C21_26  and  O6_29 
REMARK   10  A    between atoms: O6_29  and  C24_30 
ROOT
HETATM    1  C1  UNL     1      -5.058  50.744 -20.375  1.00  0.00     0.015 C 
HETATM    2  C2  UNL     1      -4.260  50.815 -21.453  1.00  0.00    -0.082 C 
HETATM    3  C3  UNL     1      -4.607  51.652 -22.648  1.00  0.00     0.034 C 
HETATM    4  C4  UNL     1      -4.775  50.719 -23.835  1.00  0.00     0.010 C 
HETATM    5  C5  UNL     1      -3.507  49.923 -24.228  1.00  0.00    -0.001 C 
HETATM    6  C9  UNL     1      -2.482  49.772 -23.069  1.00  0.00     0.033 C 
HETATM    7  C10 UNL     1      -1.182  50.619 -23.130  1.00  0.00     0.162 C 
HETATM    8  O2  UNL     1      -1.394  51.471 -22.035  1.00  0.00    -0.376 OA
HETATM    9  C11 UNL     1      -1.774  50.686 -20.933  1.00  0.00     0.134 C 
HETATM   10  C12 UNL     1      -1.752  51.723 -19.817  1.00  0.00     0.068 C 
HETATM   11  C13 UNL     1      -0.336  52.377 -19.742  1.00  0.00    -0.059 C 
HETATM   12  C14 UNL     1       0.371  52.305 -18.600  1.00  0.00     0.017 C 
HETATM   13  C15 UNL     1       0.204  53.114 -21.010  1.00  0.00     0.146 C 
HETATM   14  C16 UNL     1       1.071  52.241 -21.982  1.00  0.00     0.039 C 
HETATM   15  C17 UNL     1       0.753  52.297 -23.527  1.00  0.00     0.044 C 
HETATM   16  C18 UNL     1      -0.579  51.619 -24.137  1.00  0.00     0.093 C 
HETATM   17  C19 UNL     1      -1.530  52.791 -24.469  1.00  0.00     0.049 C 
HETATM   18  C26 UNL     1      -2.994  50.004 -21.566  1.00  0.00     0.050 C 
ENDROOT
BRANCH  16  19
HETATM   19  O4  UNL     1      -0.297  51.034 -25.438  1.00  0.00    -0.306 OA
BRANCH  19  20
HETATM   20  C20 UNL     1      -0.770  51.608 -26.582  1.00  0.00     0.289 C 
HETATM   21  O5  UNL     1      -1.882  51.408 -27.048  1.00  0.00    -0.262 OA
BRANCH  20  22
HETATM   22  C21 UNL     1       0.310  52.489 -27.224  1.00  0.00     0.231 C 
BRANCH  22  23
HETATM   23  C22 UNL     1       1.469  51.654 -27.782  1.00  0.00     0.038 C 
HETATM   24  C23 UNL     1       2.661  51.586 -26.837  1.00  0.00     0.008 C 
ENDBRANCH  22  23
BRANCH  22  25
HETATM   25  O6  UNL     1      -0.300  53.209 -28.318  1.00  0.00    -0.306 OA
BRANCH  25  26
HETATM   26  C24 UNL     1      -0.878  54.396 -27.994  1.00  0.00     0.255 C 
HETATM   27  C25 UNL     1      -0.005  55.146 -27.036  1.00  0.00     0.126 C 
HETATM   28  O7  UNL     1      -1.963  54.788 -28.396  1.00  0.00    -0.266 OA
ENDBRANCH  25  26
ENDBRANCH  22  25
ENDBRANCH  20  22
ENDBRANCH  19  20
ENDBRANCH  16  19
BRANCH   5  29
HETATM   29  C6  UNL     1      -3.895  48.529 -24.851  1.00  0.00     0.010 C 
HETATM   30  C7  UNL     1      -5.350  48.125 -24.549  1.00  0.00     0.012 C 
BRANCH  29  31
HETATM   31  C8  UNL     1      -3.681  48.465 -26.379  1.00  0.00     0.168 C 
BRANCH  31  32
HETATM   32  O1  UNL     1      -4.910  48.498 -27.092  1.00  0.00    -0.400 OA
HETATM   33  H14 UNL     1      -5.359  49.339 -26.900  1.00  0.00     0.209 HD
ENDBRANCH  31  32
ENDBRANCH  29  31
ENDBRANCH   5  29
BRANCH  13  34
HETATM   34  O3  UNL     1       1.026  54.211 -20.584  1.00  0.00    -0.391 OA
HETATM   35  H23 UNL     1       0.511  54.687 -19.910  1.00  0.00     0.210 HD
ENDBRANCH  13  34
TORSDOF 10
ENDMDL
MODEL 2
REMARK minimizedAffinity -8.9745903
REMARK  10 active torsions:
REMARK  status: ('A' for Active; 'I' for Inactive)
REMARK    1  A    between atoms: C5_5  and  C6_6 
REMARK    2  A    between atoms: C6_6  and  C8_8 
REMARK    3  A    between atoms: C8_8  and  O1_9 
REMARK    4  A    between atoms: C15_17  and  O3_18 
REMARK    5  A    between atoms: C18_21  and  O4_23 
REMARK    6  A    between atoms: O4_23  and  C20_24 
REMARK    7  A    between atoms: C20_24  and  C21_26 
REMARK    8  A    between atoms: C21_26  and  C22_27 
REMARK    9  A    between atoms: C21_26  and  O6_29 
REMARK   10  A    between atoms: O6_29  and  C24_30 
ROOT
HETATM    1  C1  UNL     1      -5.676  47.545 -21.095  1.00  0.00     0.015 C 
HETATM    2  C2  UNL     1      -4.901  48.342 -21.849  1.00  0.00    -0.082 C 
HETATM    3  C3  UNL     1      -5.426  49.593 -22.488  1.00  0.00     0.034 C 
HETATM    4  C4  UNL     1      -5.324  49.423 -23.994  1.00  0.00     0.010 C 
HETATM    5  C5  UNL     1      -3.886  49.240 -24.537  1.00  0.00    -0.001 C 
HETATM    6  C9  UNL     1      -2.881  48.712 -23.476  1.00  0.00     0.033 C 
HETATM    7  C10 UNL     1      -1.841  49.709 -22.896  1.00  0.00     0.162 C 
HETATM    8  O2  UNL     1      -2.288  49.784 -21.568  1.00  0.00    -0.376 OA
HETATM    9  C11 UNL     1      -2.476  48.474 -21.093  1.00  0.00     0.134 C 
HETATM   10  C12 UNL     1      -2.744  48.737 -19.616  1.00  0.00     0.068 C 
HETATM   11  C13 UNL     1      -1.547  49.528 -19.002  1.00  0.00    -0.059 C 
HETATM   12  C14 UNL     1      -0.868  49.008 -17.963  1.00  0.00     0.017 C 
HETATM   13  C15 UNL     1      -1.188  50.918 -19.617  1.00  0.00     0.146 C 
HETATM   14  C16 UNL     1      -0.106  50.898 -20.752  1.00  0.00     0.039 C 
HETATM   15  C17 UNL     1      -0.395  51.699 -22.080  1.00  0.00     0.044 C 
HETATM   16  C18 UNL     1      -1.494  51.191 -23.147  1.00  0.00     0.093 C 
HETATM   17  C19 UNL     1      -2.708  52.133 -22.977  1.00  0.00     0.049 C 
HETATM   18  C26 UNL     1      -3.466  47.998 -22.164  1.00  0.00     0.050 C 
ENDROOT
BRANCH  16  19
HETATM   19  O4  UNL     1      -1.045  51.460 -24.504  1.00  0.00    -0.306 OA
BRANCH  19  20
HETATM   20  C20 UNL     1      -0.728  52.726 -24.898  1.00  0.00     0.289 C 
HETATM   21  O5  UNL     1      -1.452  53.700 -24.749  1.00  0.00    -0.262 OA
BRANCH  20  22
HETATM   22  C21 UNL     1       0.635  52.742 -25.604  1.00  0.00     0.231 C 
BRANCH  22  23
HETATM   23  C22 UNL     1       1.053  51.340 -26.065  1.00  0.00     0.038 C 
HETATM   24  C23 UNL     1       2.557  51.202 -26.259  1.00  0.00     0.008 C 
ENDBRANCH  22  23
BRANCH  22  25
HETATM   25  O6  UNL     1       0.521  53.589 -26.768  1.00  0.00    -0.306 OA
BRANCH  25  26
HETATM   26  C24 UNL     1      -0.405  53.209 -27.687  1.00  0.00     0.255 C 
HETATM   27  C25 UNL     1       0.154  52.128 -28.559  1.00  0.00     0.126 C 
HETATM   28  O7  UNL     1      -1.520  53.692 -27.811  1.00  0.00    -0.266 OA
ENDBRANCH  25  26
ENDBRANCH  22  25
ENDBRANCH  20  22
ENDBRANCH  19  20
ENDBRANCH  16  19
BRANCH   5  29
HETATM   29  C6  UNL     1      -3.890  48.345 -25.834  1.00  0.00     0.010 C 
HETATM   30  C7  UNL     1      -5.309  48.065 -26.362  1.00  0.00     0.012 C 
BRANCH  29  31
HETATM   31  C8  UNL     1      -3.054  48.942 -26.987  1.00  0.00     0.168 C 
BRANCH  31  32
HETATM   32  O1  UNL     1      -3.715  48.830 -28.240  1.00  0.00    -0.400 OA
HETATM   33  H14 UNL     1      -4.547  49.332 -28.200  1.00  0.00     0.209 HD
ENDBRANCH  31  32
ENDBRANCH  29  31
ENDBRANCH   5  29
BRANCH  13  34
HETATM   34  O3  UNL     1      -0.684  51.764 -18.572  1.00  0.00    -0.391 OA
HETATM   35  H23 UNL     1      -1.318  51.689 -17.838  1.00  0.00     0.210 HD
ENDBRANCH  13  34
TORSDOF 10
ENDMDL
MODEL 3
REMARK minimizedAffinity -8.78384399
REMARK  10 active torsions:
REMARK  status: ('A' for Active; 'I' for Inactive)
REMARK    1  A    between atoms: C5_5  and  C6_6 
REMARK    2  A    between atoms: C6_6  and  C8_8 
REMARK    3  A    between atoms: C8_8  and  O1_9 
REMARK    4  A    between atoms: C15_17  and  O3_18 
REMARK    5  A    between atoms: C18_21  and  O4_23 
REMARK    6  A    between atoms: O4_23  and  C20_24 
REMARK    7  A    between atoms: C20_24  and  C21_26 
REMARK    8  A    between atoms: C21_26  and  C22_27 
REMARK    9  A    between atoms: C21_26  and  O6_29 
REMARK   10  A    between atoms: O6_29  and  C24_30 
ROOT
HETATM    1  C1  UNL     1      -3.861  48.734 -27.420  1.00  0.00     0.015 C 
HETATM    2  C2  UNL     1      -3.548  49.269 -26.228  1.00  0.00    -0.082 C 
HETATM    3  C3  UNL     1      -3.139  48.426 -25.058  1.00  0.00     0.034 C 
HETATM    4  C4  UNL     1      -4.176  48.616 -23.964  1.00  0.00     0.010 C 
HETATM    5  C5  UNL     1      -4.301  50.061 -23.423  1.00  0.00    -0.001 C 
HETATM    6  C9  UNL     1      -3.793  51.144 -24.415  1.00  0.00     0.033 C 
HETATM    7  C10 UNL     1      -2.438  51.837 -24.107  1.00  0.00     0.162 C 
HETATM    8  O2  UNL     1      -1.666  51.349 -25.172  1.00  0.00    -0.376 OA
HETATM    9  C11 UNL     1      -2.393  51.531 -26.362  1.00  0.00     0.134 C 
HETATM   10  C12 UNL     1      -1.344  51.156 -27.402  1.00  0.00     0.068 C 
HETATM   11  C13 UNL     1      -0.083  52.059 -27.220  1.00  0.00    -0.059 C 
HETATM   12  C14 UNL     1       0.338  52.828 -28.240  1.00  0.00     0.017 C 
HETATM   13  C15 UNL     1       0.658  52.021 -25.845  1.00  0.00     0.146 C 
HETATM   14  C16 UNL     1       0.200  53.096 -24.799  1.00  0.00     0.039 C 
HETATM   15  C17 UNL     1      -0.098  52.628 -23.322  1.00  0.00     0.044 C 
HETATM   16  C18 UNL     1      -1.405  51.752 -22.965  1.00  0.00     0.093 C 
HETATM   17  C19 UNL     1      -0.891  50.314 -22.721  1.00  0.00     0.049 C 
HETATM   18  C26 UNL     1      -3.652  50.750 -25.964  1.00  0.00     0.050 C 
ENDROOT
BRANCH  16  19
HETATM   19  O4  UNL     1      -1.938  52.144 -21.670  1.00  0.00    -0.306 OA
BRANCH  19  20
HETATM   20  C20 UNL     1      -1.855  51.308 -20.595  1.00  0.00     0.289 C 
HETATM   21  O5  UNL     1      -2.750  50.558 -20.231  1.00  0.00    -0.262 OA
BRANCH  20  22
HETATM   22  C21 UNL     1      -0.509  51.486 -19.880  1.00  0.00     0.231 C 
BRANCH  22  23
HETATM   23  C22 UNL     1      -0.403  52.855 -19.198  1.00  0.00     0.038 C 
HETATM   24  C23 UNL     1       0.488  53.829 -19.957  1.00  0.00     0.008 C 
ENDBRANCH  22  23
BRANCH  22  25
HETATM   25  O6  UNL     1      -0.408  50.462 -18.866  1.00  0.00    -0.306 OA
BRANCH  25  26
HETATM   26  C24 UNL     1       0.199  50.836 -17.709  1.00  0.00     0.255 C 
HETATM   27  C25 UNL     1      -0.123  49.857 -16.623  1.00  0.00     0.126 C 
HETATM   28  O7  UNL     1       0.884  51.837 -17.559  1.00  0.00    -0.266 OA
ENDBRANCH  25  26
ENDBRANCH  22  25
ENDBRANCH  20  22
ENDBRANCH  19  20
ENDBRANCH  16  19
BRANCH   5  29
HETATM   29  C6  UNL     1      -5.775  50.351 -22.946  1.00  0.00     0.010 C 
HETATM   30  C7  UNL     1      -6.823  49.513 -23.701  1.00  0.00     0.012 C 
BRANCH  29  31
HETATM   31  C8  UNL     1      -5.977  50.130 -21.431  1.00  0.00     0.168 C 
BRANCH  31  32
HETATM   32  O1  UNL     1      -5.375  51.159 -20.657  1.00  0.00    -0.400 OA
HETATM   33  H14 UNL     1      -5.796  52.006 -20.882  1.00  0.00     0.209 HD
ENDBRANCH  31  32
ENDBRANCH  29  31
ENDBRANCH   5  29
BRANCH  13  34
HETATM   34  O3  UNL     1       2.059  52.231 -26.077  1.00  0.00    -0.391 OA
HETATM   35  H23 UNL     1       2.306  51.624 -26.796  1.00  0.00     0.210 HD
ENDBRANCH  13  34
TORSDOF 10
ENDMDL
MODEL 4
REMARK minimizedAffinity -8.74679661
REMARK  10 active torsions:
REMARK  status: ('A' for Active; 'I' for Inactive)
REMARK    1  A    between atoms: C5_5  and  C6_6 
REMARK    2  A    between atoms: C6_6  and  C8_8 
REMARK    3  A    between atoms: C8_8  and  O1_9 
REMARK    4  A    between atoms: C15_17  and  O3_18 
REMARK    5  A    between atoms: C18_21  and  O4_23 
REMARK    6  A    between atoms: O4_23  and  C20_24 
REMARK    7  A    between atoms: C20_24  and  C21_26 
REMARK    8  A    between atoms: C21_26  and  C22_27 
REMARK    9  A    between atoms: C21_26  and  O6_29 
REMARK   10  A    between atoms: O6_29  and  C24_30 
ROOT
HETATM    1  C1  UNL     1      -2.787  48.506 -18.649  1.00  0.00     0.015 C 
HETATM    2  C2  UNL     1      -2.304  49.277 -19.638  1.00  0.00    -0.082 C 
HETATM    3  C3  UNL     1      -1.159  48.841 -20.501  1.00  0.00     0.034 C 
HETATM    4  C4  UNL     1      -0.013  49.813 -20.277  1.00  0.00     0.010 C 
HETATM    5  C5  UNL     1      -0.310  51.280 -20.672  1.00  0.00    -0.001 C 
HETATM    6  C9  UNL     1      -1.825  51.624 -20.695  1.00  0.00     0.033 C 
HETATM    7  C10 UNL     1      -2.514  51.793 -22.077  1.00  0.00     0.162 C 
HETATM    8  O2  UNL     1      -3.375  50.685 -22.057  1.00  0.00    -0.376 OA
HETATM    9  C11 UNL     1      -4.059  50.681 -20.829  1.00  0.00     0.134 C 
HETATM   10  C12 UNL     1      -5.074  49.569 -21.067  1.00  0.00     0.068 C 
HETATM   11  C13 UNL     1      -5.927  49.903 -22.330  1.00  0.00    -0.059 C 
HETATM   12  C14 UNL     1      -7.264  50.007 -22.222  1.00  0.00     0.017 C 
HETATM   13  C15 UNL     1      -5.186  50.092 -23.692  1.00  0.00     0.146 C 
HETATM   14  C16 UNL     1      -4.775  51.565 -24.041  1.00  0.00     0.039 C 
HETATM   15  C17 UNL     1      -3.304  51.835 -24.545  1.00  0.00     0.044 C 
HETATM   16  C18 UNL     1      -2.041  51.741 -23.544  1.00  0.00     0.093 C 
HETATM   17  C19 UNL     1      -1.323  50.420 -23.902  1.00  0.00     0.049 C 
HETATM   18  C26 UNL     1      -2.836  50.663 -19.903  1.00  0.00     0.050 C 
ENDROOT
BRANCH  16  19
HETATM   19  O4  UNL     1      -1.058  52.761 -23.874  1.00  0.00    -0.306 OA
BRANCH  19  20
HETATM   20  C20 UNL     1       0.265  52.448 -23.986  1.00  0.00     0.289 C 
HETATM   21  O5  UNL     1       0.973  52.091 -23.055  1.00  0.00    -0.262 OA
BRANCH  20  22
HETATM   22  C21 UNL     1       0.745  52.664 -25.427  1.00  0.00     0.231 C 
BRANCH  22  23
HETATM   23  C22 UNL     1       1.287  51.369 -26.046  1.00  0.00     0.038 C 
HETATM   24  C23 UNL     1       2.543  51.588 -26.877  1.00  0.00     0.008 C 
ENDBRANCH  22  23
BRANCH  22  25
HETATM   25  O6  UNL     1      -0.386  53.105 -26.209  1.00  0.00    -0.306 OA
BRANCH  25  26
HETATM   26  C24 UNL     1      -0.169  54.185 -27.005  1.00  0.00     0.255 C 
HETATM   27  C25 UNL     1      -0.306  53.796 -28.445  1.00  0.00     0.126 C 
HETATM   28  O7  UNL     1       0.125  55.305 -26.615  1.00  0.00    -0.266 OA
ENDBRANCH  25  26
ENDBRANCH  22  25
ENDBRANCH  20  22
ENDBRANCH  19  20
ENDBRANCH  16  19
BRANCH   5  29
HETATM   29  C6  UNL     1       0.503  52.277 -19.763  1.00  0.00     0.010 C 
HETATM   30  C7  UNL     1       0.285  53.751 -20.150  1.00  0.00     0.012 C 
BRANCH  29  31
HETATM   31  C8  UNL     1       0.193  52.119 -18.259  1.00  0.00     0.168 C 
BRANCH  31  32
HETATM   32  O1  UNL     1       1.094  52.862 -17.448  1.00  0.00    -0.400 OA
HETATM   33  H14 UNL     1       1.000  53.805 -17.662  1.00  0.00     0.209 HD
ENDBRANCH  31  32
ENDBRANCH  29  31
ENDBRANCH   5  29
BRANCH  13  34
HETATM   34  O3  UNL     1      -6.046  49.635 -24.747  1.00  0.00    -0.391 OA
HETATM   35  H23 UNL     1      -6.369  48.760 -24.470  1.00  0.00     0.210 HD
ENDBRANCH  13  34
TORSDOF 10
ENDMDL
MODEL 5
REMARK minimizedAffinity -8.70522976
REMARK  10 active torsions:
REMARK  status: ('A' for Active; 'I' for Inactive)
REMARK    1  A    between atoms: C5_5  and  C6_6 
REMARK    2  A    between atoms: C6_6  and  C8_8 
REMARK    3  A    between atoms: C8_8  and  O1_9 
REMARK    4  A    between atoms: C15_17  and  O3_18 
REMARK    5  A    between atoms: C18_21  and  O4_23 
REMARK    6  A    between atoms: O4_23  and  C20_24 
REMARK    7  A    between atoms: C20_24  and  C21_26 
REMARK    8  A    between atoms: C21_26  and  C22_27 
REMARK    9  A    between atoms: C21_26  and  O6_29 
REMARK   10  A    between atoms: O6_29  and  C24_30 
ROOT
HETATM    1  C1  UNL     1      -4.881  50.242 -19.622  1.00  0.00     0.015 C 
HETATM    2  C2  UNL     1      -4.136  50.459 -20.719  1.00  0.00    -0.082 C 
HETATM    3  C3  UNL     1      -4.583  51.376 -21.817  1.00  0.00     0.034 C 
HETATM    4  C4  UNL     1      -4.748  50.544 -23.078  1.00  0.00     0.010 C 
HETATM    5  C5  UNL     1      -3.454  49.866 -23.590  1.00  0.00    -0.001 C 
HETATM    6  C9  UNL     1      -2.372  49.677 -22.490  1.00  0.00     0.033 C 
HETATM    7  C10 UNL     1      -1.127  50.605 -22.523  1.00  0.00     0.162 C 
HETATM    8  O2  UNL     1      -1.342  51.342 -21.347  1.00  0.00    -0.376 OA
HETATM    9  C11 UNL     1      -1.626  50.439 -20.308  1.00  0.00     0.134 C 
HETATM   10  C12 UNL     1      -1.616  51.373 -19.103  1.00  0.00     0.068 C 
HETATM   11  C13 UNL     1      -0.240  52.105 -19.023  1.00  0.00    -0.059 C 
HETATM   12  C14 UNL     1       0.520  51.975 -17.920  1.00  0.00     0.017 C 
HETATM   13  C15 UNL     1       0.200  52.983 -20.237  1.00  0.00     0.146 C 
HETATM   14  C16 UNL     1       1.074  52.256 -21.318  1.00  0.00     0.039 C 
HETATM   15  C17 UNL     1       0.686  52.430 -22.838  1.00  0.00     0.044 C 
HETATM   16  C18 UNL     1      -0.629  51.727 -23.456  1.00  0.00     0.093 C 
HETATM   17  C19 UNL     1      -1.661  52.862 -23.643  1.00  0.00     0.049 C 
HETATM   18  C26 UNL     1      -2.830  49.742 -20.954  1.00  0.00     0.050 C 
ENDROOT
BRANCH  16  19
HETATM   19  O4  UNL     1      -0.370  51.278 -24.815  1.00  0.00    -0.306 OA
BRANCH  19  20
HETATM   20  C20 UNL     1      -0.951  51.901 -25.881  1.00  0.00     0.289 C 
HETATM   21  O5  UNL     1      -2.149  51.878 -26.128  1.00  0.00    -0.262 OA
BRANCH  20  22
HETATM   22  C21 UNL     1       0.115  52.580 -26.751  1.00  0.00     0.231 C 
BRANCH  22  23
HETATM   23  C22 UNL     1      -0.165  54.077 -26.929  1.00  0.00     0.038 C 
HETATM   24  C23 UNL     1      -0.687  54.423 -28.317  1.00  0.00     0.008 C 
ENDBRANCH  22  23
BRANCH  22  25
HETATM   25  O6  UNL     1       1.389  52.431 -26.086  1.00  0.00    -0.306 OA
BRANCH  25  26
HETATM   26  C24 UNL     1       2.266  51.578 -26.676  1.00  0.00     0.255 C 
HETATM   27  C25 UNL     1       2.203  51.726 -28.165  1.00  0.00     0.126 C 
HETATM   28  O7  UNL     1       2.984  50.782 -26.089  1.00  0.00    -0.266 OA
ENDBRANCH  25  26
ENDBRANCH  22  25
ENDBRANCH  20  22
ENDBRANCH  19  20
ENDBRANCH  16  19
BRANCH   5  29
HETATM   29  C6  UNL     1      -3.786  48.512 -24.322  1.00  0.00     0.010 C 
HETATM   30  C7  UNL     1      -5.252  48.077 -24.137  1.00  0.00     0.012 C 
BRANCH  29  31
HETATM   31  C8  UNL     1      -3.478  48.547 -25.835  1.00  0.00     0.168 C 
BRANCH  31  32
HETATM   32  O1  UNL     1      -4.094  49.655 -26.479  1.00  0.00    -0.400 OA
HETATM   33  H14 UNL     1      -3.739  50.475 -26.095  1.00  0.00     0.209 HD
ENDBRANCH  31  32
ENDBRANCH  29  31
ENDBRANCH   5  29
BRANCH  13  34
HETATM   34  O3  UNL     1       0.975  54.088 -19.745  1.00  0.00    -0.391 OA
HETATM   35  H23 UNL     1       0.462  54.468 -19.011  1.00  0.00     0.210 HD
ENDBRANCH  13  34
TORSDOF 10
ENDMDL
MODEL 6
REMARK minimizedAffinity -8.64017487
REMARK  10 active torsions:
REMARK  status: ('A' for Active; 'I' for Inactive)
REMARK    1  A    between atoms: C5_5  and  C6_6 
REMARK    2  A    between atoms: C6_6  and  C8_8 
REMARK    3  A    between atoms: C8_8  and  O1_9 
REMARK    4  A    between atoms: C15_17  and  O3_18 
REMARK    5  A    between atoms: C18_21  and  O4_23 
REMARK    6  A    between atoms: O4_23  and  C20_24 
REMARK    7  A    between atoms: C20_24  and  C21_26 
REMARK    8  A    between atoms: C21_26  and  C22_27 
REMARK    9  A    between atoms: C21_26  and  O6_29 
REMARK   10  A    between atoms: O6_29  and  C24_30 
ROOT
HETATM    1  C1  UNL     1      -3.953  49.212 -28.097  1.00  0.00     0.015 C 
HETATM    2  C2  UNL     1      -3.293  49.888 -27.142  1.00  0.00    -0.082 C 
HETATM    3  C3  UNL     1      -3.238  51.385 -27.118  1.00  0.00     0.034 C 
HETATM    4  C4  UNL     1      -1.786  51.800 -27.284  1.00  0.00     0.010 C 
HETATM    5  C5  UNL     1      -0.835  51.321 -26.161  1.00  0.00    -0.001 C 
HETATM    6  C9  UNL     1      -1.361  50.082 -25.385  1.00  0.00     0.033 C 
HETATM    7  C10 UNL     1      -1.902  50.299 -23.945  1.00  0.00     0.162 C 
HETATM    8  O2  UNL     1      -3.259  50.004 -24.148  1.00  0.00    -0.376 OA
HETATM    9  C11 UNL     1      -3.345  48.789 -24.849  1.00  0.00     0.134 C 
HETATM   10  C12 UNL     1      -4.846  48.527 -24.790  1.00  0.00     0.068 C 
HETATM   11  C13 UNL     1      -5.312  48.497 -23.301  1.00  0.00    -0.059 C 
HETATM   12  C14 UNL     1      -5.910  47.396 -22.812  1.00  0.00     0.017 C 
HETATM   13  C15 UNL     1      -5.074  49.771 -22.429  1.00  0.00     0.146 C 
HETATM   14  C16 UNL     1      -3.732  49.796 -21.617  1.00  0.00     0.039 C 
HETATM   15  C17 UNL     1      -2.847  51.101 -21.669  1.00  0.00     0.044 C 
HETATM   16  C18 UNL     1      -2.028  51.510 -22.999  1.00  0.00     0.093 C 
HETATM   17  C19 UNL     1      -2.808  52.688 -23.625  1.00  0.00     0.049 C 
HETATM   18  C26 UNL     1      -2.502  49.185 -26.067  1.00  0.00     0.050 C 
ENDROOT
BRANCH  16  19
HETATM   19  O4  UNL     1      -0.749  52.103 -22.642  1.00  0.00    -0.306 OA
BRANCH  19  20
HETATM   20  C20 UNL     1       0.061  51.517 -21.713  1.00  0.00     0.289 C 
HETATM   21  O5  UNL     1      -0.077  50.376 -21.296  1.00  0.00    -0.262 OA
BRANCH  20  22
HETATM   22  C21 UNL     1       1.126  52.510 -21.229  1.00  0.00     0.231 C 
BRANCH  22  23
HETATM   23  C22 UNL     1       0.703  53.963 -21.475  1.00  0.00     0.038 C 
HETATM   24  C23 UNL     1       1.687  54.729 -22.349  1.00  0.00     0.008 C 
ENDBRANCH  22  23
BRANCH  22  25
HETATM   25  O6  UNL     1       1.295  52.319 -19.808  1.00  0.00    -0.306 OA
BRANCH  25  26
HETATM   26  C24 UNL     1       0.252  52.712 -19.031  1.00  0.00     0.255 C 
HETATM   27  C25 UNL     1      -0.117  51.618 -18.077  1.00  0.00     0.126 C 
HETATM   28  O7  UNL     1      -0.327  53.785 -19.112  1.00  0.00    -0.266 OA
ENDBRANCH  25  26
ENDBRANCH  22  25
ENDBRANCH  20  22
ENDBRANCH  19  20
ENDBRANCH  16  19
BRANCH   5  29
HETATM   29  C6  UNL     1       0.618  51.086 -26.724  1.00  0.00     0.010 C 
HETATM   30  C7  UNL     1       0.784  51.579 -28.173  1.00  0.00     0.012 C 
BRANCH  29  31
HETATM   31  C8  UNL     1       1.718  51.739 -25.860  1.00  0.00     0.168 C 
BRANCH  31  32
HETATM   32  O1  UNL     1       2.841  52.135 -26.636  1.00  0.00    -0.400 OA
HETATM   33  H14 UNL     1       2.553  52.800 -27.284  1.00  0.00     0.209 HD
ENDBRANCH  31  32
ENDBRANCH  29  31
ENDBRANCH   5  29
BRANCH  13  34
HETATM   34  O3  UNL     1      -6.143  49.878 -21.476  1.00  0.00    -0.391 OA
HETATM   35  H23 UNL     1      -6.966  49.763 -21.982  1.00  0.00     0.210 HD
ENDBRANCH  13  34
TORSDOF 10
ENDMDL
MODEL 7
REMARK minimizedAffinity -8.4913187
REMARK  10 active torsions:
REMARK  status: ('A' for Active; 'I' for Inactive)
REMARK    1  A    between atoms: C5_5  and  C6_6 
REMARK    2  A    between atoms: C6_6  and  C8_8 
REMARK    3  A    between atoms: C8_8  and  O1_9 
REMARK    4  A    between atoms: C15_17  and  O3_18 
REMARK    5  A    between atoms: C18_21  and  O4_23 
REMARK    6  A    between atoms: O4_23  and  C20_24 
REMARK    7  A    between atoms: C20_24  and  C21_26 
REMARK    8  A    between atoms: C21_26  and  C22_27 
REMARK    9  A    between atoms: C21_26  and  O6_29 
REMARK   10  A    between atoms: O6_29  and  C24_30 
ROOT
HETATM    1  C1  UNL     1      -3.655  49.685 -27.765  1.00  0.00     0.015 C 
HETATM    2  C2  UNL     1      -3.334  50.200 -26.567  1.00  0.00    -0.082 C 
HETATM    3  C3  UNL     1      -3.406  51.671 -26.285  1.00  0.00     0.034 C 
HETATM    4  C4  UNL     1      -2.001  52.152 -25.967  1.00  0.00     0.010 C 
HETATM    5  C5  UNL     1      -1.355  51.510 -24.715  1.00  0.00    -0.001 C 
HETATM    6  C9  UNL     1      -1.973  50.137 -24.330  1.00  0.00     0.033 C 
HETATM    7  C10 UNL     1      -2.900  50.078 -23.084  1.00  0.00     0.162 C 
HETATM    8  O2  UNL     1      -4.123  49.783 -23.706  1.00  0.00    -0.376 OA
HETATM    9  C11 UNL     1      -3.920  48.710 -24.591  1.00  0.00     0.134 C 
HETATM   10  C12 UNL     1      -5.355  48.396 -24.999  1.00  0.00     0.068 C 
HETATM   11  C13 UNL     1      -6.203  48.088 -23.726  1.00  0.00    -0.059 C 
HETATM   12  C14 UNL     1      -6.824  46.900 -23.610  1.00  0.00     0.017 C 
HETATM   13  C15 UNL     1      -6.312  49.193 -22.627  1.00  0.00     0.146 C 
HETATM   14  C16 UNL     1      -5.248  49.114 -21.478  1.00  0.00     0.039 C 
HETATM   15  C17 UNL     1      -4.487  50.434 -21.067  1.00  0.00     0.044 C 
HETATM   16  C18 UNL     1      -3.372  51.097 -22.028  1.00  0.00     0.093 C 
HETATM   17  C19 UNL     1      -4.043  52.344 -22.648  1.00  0.00     0.049 C 
HETATM   18  C26 UNL     1      -2.811  49.341 -25.442  1.00  0.00     0.050 C 
ENDROOT
BRANCH  16  19
HETATM   19  O4  UNL     1      -2.289  51.656 -21.235  1.00  0.00    -0.306 OA
BRANCH  19  20
HETATM   20  C20 UNL     1      -2.213  51.427 -19.893  1.00  0.00     0.289 C 
HETATM   21  O5  UNL     1      -3.067  51.762 -19.084  1.00  0.00    -0.262 OA
BRANCH  20  22
HETATM   22  C21 UNL     1      -0.884  50.745 -19.540  1.00  0.00     0.231 C 
BRANCH  22  23
HETATM   23  C22 UNL     1      -0.345  49.912 -20.709  1.00  0.00     0.038 C 
HETATM   24  C23 UNL     1      -0.804  48.461 -20.667  1.00  0.00     0.008 C 
ENDBRANCH  22  23
BRANCH  22  25
HETATM   25  O6  UNL     1       0.077  51.779 -19.236  1.00  0.00    -0.306 OA
BRANCH  25  26
HETATM   26  C24 UNL     1       0.581  52.449 -20.304  1.00  0.00     0.255 C 
HETATM   27  C25 UNL     1       0.503  53.926 -20.067  1.00  0.00     0.126 C 
HETATM   28  O7  UNL     1       1.010  51.934 -21.326  1.00  0.00    -0.266 OA
ENDBRANCH  25  26
ENDBRANCH  22  25
ENDBRANCH  20  22
ENDBRANCH  19  20
ENDBRANCH  16  19
BRANCH   5  29
HETATM   29  C6  UNL     1       0.210  51.423 -24.878  1.00  0.00     0.010 C 
HETATM   30  C7  UNL     1       0.638  50.895 -26.259  1.00  0.00     0.012 C 
BRANCH  29  31
HETATM   31  C8  UNL     1       0.923  52.770 -24.632  1.00  0.00     0.168 C 
BRANCH  31  32
HETATM   32  O1  UNL     1       0.805  53.647 -25.744  1.00  0.00    -0.400 OA
HETATM   33  H14 UNL     1      -0.136  53.843 -25.888  1.00  0.00     0.209 HD
ENDBRANCH  31  32
ENDBRANCH  29  31
ENDBRANCH   5  29
BRANCH  13  34
HETATM   34  O3  UNL     1      -7.605  49.096 -22.009  1.00  0.00    -0.391 OA
HETATM   35  H23 UNL     1      -8.248  49.049 -22.737  1.00  0.00     0.210 HD
ENDBRANCH  13  34
TORSDOF 10
ENDMDL
MODEL 8
REMARK minimizedAffinity -8.45892239
REMARK  10 active torsions:
REMARK  status: ('A' for Active; 'I' for Inactive)
REMARK    1  A    between atoms: C5_5  and  C6_6 
REMARK    2  A    between atoms: C6_6  and  C8_8 
REMARK    3  A    between atoms: C8_8  and  O1_9 
REMARK    4  A    between atoms: C15_17  and  O3_18 
REMARK    5  A    between atoms: C18_21  and  O4_23 
REMARK    6  A    between atoms: O4_23  and  C20_24 
REMARK    7  A    between atoms: C20_24  and  C21_26 
REMARK    8  A    between atoms: C21_26  and  C22_27 
REMARK    9  A    between atoms: C21_26  and  O6_29 
REMARK   10  A    between atoms: O6_29  and  C24_30 
ROOT
HETATM    1  C1  UNL     1      -3.979  48.699 -27.406  1.00  0.00     0.015 C 
HETATM    2  C2  UNL     1      -3.660  49.219 -26.209  1.00  0.00    -0.082 C 
HETATM    3  C3  UNL     1      -3.242  48.361 -25.053  1.00  0.00     0.034 C 
HETATM    4  C4  UNL     1      -4.274  48.533 -23.951  1.00  0.00     0.010 C 
HETATM    5  C5  UNL     1      -4.402  49.970 -23.390  1.00  0.00    -0.001 C 
HETATM    6  C9  UNL     1      -3.902  51.068 -24.369  1.00  0.00     0.033 C 
HETATM    7  C10 UNL     1      -2.547  51.762 -24.058  1.00  0.00     0.162 C 
HETATM    8  O2  UNL     1      -1.780  51.291 -25.135  1.00  0.00    -0.376 OA
HETATM    9  C11 UNL     1      -2.514  51.487 -26.318  1.00  0.00     0.134 C 
HETATM   10  C12 UNL     1      -1.470  51.130 -27.369  1.00  0.00     0.068 C 
HETATM   11  C13 UNL     1      -0.211  52.034 -27.181  1.00  0.00    -0.059 C 
HETATM   12  C14 UNL     1       0.203  52.818 -28.193  1.00  0.00     0.017 C 
HETATM   13  C15 UNL     1       0.538  51.980 -25.811  1.00  0.00     0.146 C 
HETATM   14  C16 UNL     1       0.082  53.039 -24.748  1.00  0.00     0.039 C 
HETATM   15  C17 UNL     1      -0.206  52.549 -23.276  1.00  0.00     0.044 C 
HETATM   16  C18 UNL     1      -1.508  51.664 -22.923  1.00  0.00     0.093 C 
HETATM   17  C19 UNL     1      -0.988  50.225 -22.702  1.00  0.00     0.049 C 
HETATM   18  C26 UNL     1      -3.768  50.697 -25.924  1.00  0.00     0.050 C 
ENDROOT
BRANCH  16  19
HETATM   19  O4  UNL     1      -2.035  52.037 -21.620  1.00  0.00    -0.306 OA
BRANCH  19  20
HETATM   20  C20 UNL     1      -2.275  51.093 -20.665  1.00  0.00     0.289 C 
HETATM   21  O5  UNL     1      -3.388  50.772 -20.273  1.00  0.00    -0.262 OA
BRANCH  20  22
HETATM   22  C21 UNL     1      -0.954  50.537 -20.117  1.00  0.00     0.231 C 
BRANCH  22  23
HETATM   23  C22 UNL     1      -0.184  51.591 -19.311  1.00  0.00     0.038 C 
HETATM   24  C23 UNL     1       0.001  51.203 -17.851  1.00  0.00     0.008 C 
ENDBRANCH  22  23
BRANCH  22  25
HETATM   25  O6  UNL     1      -1.268  49.433 -19.241  1.00  0.00    -0.306 OA
BRANCH  25  26
HETATM   26  C24 UNL     1      -1.335  48.211 -19.831  1.00  0.00     0.255 C 
HETATM   27  C25 UNL     1      -2.504  47.446 -19.291  1.00  0.00     0.126 C 
HETATM   28  O7  UNL     1      -0.547  47.779 -20.658  1.00  0.00    -0.266 OA
ENDBRANCH  25  26
ENDBRANCH  22  25
ENDBRANCH  20  22
ENDBRANCH  19  20
ENDBRANCH  16  19
BRANCH   5  29
HETATM   29  C6  UNL     1      -5.873  50.248 -22.900  1.00  0.00     0.010 C 
HETATM   30  C7  UNL     1      -6.938  49.647 -23.836  1.00  0.00     0.012 C 
BRANCH  29  31
HETATM   31  C8  UNL     1      -6.144  49.740 -21.467  1.00  0.00     0.168 C 
BRANCH  31  32
HETATM   32  O1  UNL     1      -6.525  50.792 -20.591  1.00  0.00    -0.400 OA
HETATM   33  H14 UNL     1      -7.352  51.185 -20.917  1.00  0.00     0.209 HD
ENDBRANCH  31  32
ENDBRANCH  29  31
ENDBRANCH   5  29
BRANCH  13  34
HETATM   34  O3  UNL     1       1.938  52.198 -26.048  1.00  0.00    -0.391 OA
HETATM   35  H23 UNL     1       2.182  51.602 -26.776  1.00  0.00     0.210 HD
ENDBRANCH  13  34
TORSDOF 10
ENDMDL
MODEL 9
REMARK minimizedAffinity -8.33490944
REMARK  10 active torsions:
REMARK  status: ('A' for Active; 'I' for Inactive)
REMARK    1  A    between atoms: C5_5  and  C6_6 
REMARK    2  A    between atoms: C6_6  and  C8_8 
REMARK    3  A    between atoms: C8_8  and  O1_9 
REMARK    4  A    between atoms: C15_17  and  O3_18 
REMARK    5  A    between atoms: C18_21  and  O4_23 
REMARK    6  A    between atoms: O4_23  and  C20_24 
REMARK    7  A    between atoms: C20_24  and  C21_26 
REMARK    8  A    between atoms: C21_26  and  C22_27 
REMARK    9  A    between atoms: C21_26  and  O6_29 
REMARK   10  A    between atoms: O6_29  and  C24_30 
ROOT
HETATM    1  C1  UNL     1      -3.533  50.026 -17.649  1.00  0.00     0.015 C 
HETATM    2  C2  UNL     1      -3.223  50.152 -18.950  1.00  0.00    -0.082 C 
HETATM    3  C3  UNL     1      -4.147  50.808 -19.930  1.00  0.00     0.034 C 
HETATM    4  C4  UNL     1      -4.550  49.763 -20.958  1.00  0.00     0.010 C 
HETATM    5  C5  UNL     1      -3.384  49.183 -21.795  1.00  0.00    -0.001 C 
HETATM    6  C9  UNL     1      -1.996  49.321 -21.110  1.00  0.00     0.033 C 
HETATM    7  C10 UNL     1      -1.010  50.384 -21.666  1.00  0.00     0.162 C 
HETATM    8  O2  UNL     1      -0.971  51.272 -20.580  1.00  0.00    -0.376 OA
HETATM    9  C11 UNL     1      -0.749  50.526 -19.409  1.00  0.00     0.134 C 
HETATM   10  C12 UNL     1      -0.526  51.640 -18.393  1.00  0.00     0.068 C 
HETATM   11  C13 UNL     1       0.653  52.547 -18.866  1.00  0.00    -0.059 C 
HETATM   12  C14 UNL     1       1.732  52.702 -18.077  1.00  0.00     0.017 C 
HETATM   13  C15 UNL     1       0.526  53.261 -20.250  1.00  0.00     0.146 C 
HETATM   14  C16 UNL     1       1.129  52.483 -21.471  1.00  0.00     0.039 C 
HETATM   15  C17 UNL     1       0.259  52.350 -22.780  1.00  0.00     0.044 C 
HETATM   16  C18 UNL     1      -1.037  51.390 -22.835  1.00  0.00     0.093 C 
HETATM   17  C19 UNL     1      -2.260  52.335 -22.791  1.00  0.00     0.049 C 
HETATM   18  C26 UNL     1      -1.952  49.581 -19.527  1.00  0.00     0.050 C 
ENDROOT
BRANCH  16  19
HETATM   19  O4  UNL     1      -1.145  50.759 -24.141  1.00  0.00    -0.306 OA
BRANCH  19  20
HETATM   20  C20 UNL     1      -1.601  51.457 -25.220  1.00  0.00     0.289 C 
HETATM   21  O5  UNL     1      -1.997  52.612 -25.181  1.00  0.00    -0.262 OA
BRANCH  20  22
HETATM   22  C21 UNL     1      -1.597  50.568 -26.472  1.00  0.00     0.231 C 
BRANCH  22  23
HETATM   23  C22 UNL     1      -2.928  49.825 -26.645  1.00  0.00     0.038 C 
HETATM   24  C23 UNL     1      -3.035  48.587 -25.766  1.00  0.00     0.008 C 
ENDBRANCH  22  23
BRANCH  22  25
HETATM   25  O6  UNL     1      -1.400  51.422 -27.620  1.00  0.00    -0.306 OA
BRANCH  25  26
HETATM   26  C24 UNL     1      -0.129  51.860 -27.818  1.00  0.00     0.255 C 
HETATM   27  C25 UNL     1      -0.135  53.325 -28.130  1.00  0.00     0.126 C 
HETATM   28  O7  UNL     1       0.875  51.164 -27.780  1.00  0.00    -0.266 OA
ENDBRANCH  25  26
ENDBRANCH  22  25
ENDBRANCH  20  22
ENDBRANCH  19  20
ENDBRANCH  16  19
BRANCH   5  29
HETATM   29  C6  UNL     1      -3.685  47.694 -22.212  1.00  0.00     0.010 C 
HETATM   30  C7  UNL     1      -3.021  46.666 -21.278  1.00  0.00     0.012 C 
BRANCH  29  31
HETATM   31  C8  UNL     1      -5.195  47.377 -22.288  1.00  0.00     0.168 C 
BRANCH  31  32
HETATM   32  O1  UNL     1      -5.753  47.733 -23.546  1.00  0.00    -0.400 OA
HETATM   33  H14 UNL     1      -5.315  47.211 -24.239  1.00  0.00     0.209 HD
ENDBRANCH  31  32
ENDBRANCH  29  31
ENDBRANCH   5  29
BRANCH  13  34
HETATM   34  O3  UNL     1       1.208  54.523 -20.177  1.00  0.00    -0.391 OA
HETATM   35  H23 UNL     1       0.894  54.950 -19.362  1.00  0.00     0.210 HD
ENDBRANCH  13  34
TORSDOF 10
ENDMDL
