MODEL 1
REMARK minimizedAffinity -9.95146465
REMARK  6 active torsions:
REMARK  status: ('A' for Active; 'I' for Inactive)
REMARK    1  A    between atoms: C9_10  and  C10_11 
REMARK    2  A    between atoms: C11_13  and  O3_14 
REMARK    3  A    between atoms: C12_15  and  C13_16 
REMARK    4  A    between atoms: C14_18  and  O5_19 
REMARK    5  A    between atoms: C16_21  and  C17_22 
REMARK    6  A    between atoms: C17_22  and  C18_23 
ROOT
HETATM    1  C1  UNL     1      -6.974  47.453 -24.690  1.00  0.00     0.043 C 
HETATM    2  C2  UNL     1      -5.847  48.460 -24.777  1.00  0.00    -0.087 C 
HETATM    3  C3  UNL     1      -4.746  48.157 -25.498  1.00  0.00    -0.024 C 
HETATM    4  C4  UNL     1      -3.463  48.888 -25.819  1.00  0.00     0.030 C 
HETATM    5  C5  UNL     1      -3.451  50.414 -25.782  1.00  0.00     0.042 C 
HETATM    6  C6  UNL     1      -2.747  51.135 -24.583  1.00  0.00     0.069 C 
HETATM    7  C7  UNL     1      -3.433  52.529 -24.484  1.00  0.00     0.047 C 
HETATM    8  O1  UNL     1      -1.400  51.411 -25.117  1.00  0.00    -0.338 OA
HETATM    9  C8  UNL     1      -0.569  52.006 -24.201  1.00  0.00     0.095 A 
HETATM   10  C9  UNL     1       0.137  53.162 -24.539  1.00  0.00     0.070 A 
HETATM   11  C11 UNL     1       0.906  53.807 -23.563  1.00  0.00     0.097 A 
HETATM   12  C12 UNL     1       0.953  53.285 -22.265  1.00  0.00     0.069 A 
HETATM   13  C14 UNL     1       0.262  52.095 -21.952  1.00  0.00     0.091 A 
HETATM   14  C15 UNL     1      -0.463  51.414 -22.935  1.00  0.00     0.015 A 
HETATM   15  C16 UNL     1      -1.174  50.078 -22.837  1.00  0.00     0.032 C 
HETATM   16  C21 UNL     1      -2.683  50.305 -23.192  1.00  0.00     0.034 C 
HETATM   17  C22 UNL     1      -3.475  50.985 -22.078  1.00  0.00     0.006 A 
HETATM   18  C23 UNL     1      -4.966  50.688 -21.907  1.00  0.00    -0.001 A 
HETATM   19  C24 UNL     1      -5.703  49.513 -22.502  1.00  0.00     0.010 C 
HETATM   20  C25 UNL     1      -6.103  49.713 -23.962  1.00  0.00     0.034 C 
HETATM   21  C26 UNL     1      -4.016  50.437 -20.745  1.00  0.00    -0.039 A 
HETATM   22  C27 UNL     1      -4.080  51.419 -19.593  1.00  0.00     0.015 C 
HETATM   23  C28 UNL     1      -3.806  49.022 -20.265  1.00  0.00     0.015 C 
ENDROOT
BRANCH  15  24
HETATM   24  C17 UNL     1      -0.901  49.168 -21.627  1.00  0.00     0.014 C 
BRANCH  24  25
HETATM   25  C18 UNL     1      -1.445  49.680 -20.270  1.00  0.00    -0.022 C 
HETATM   26  C19 UNL     1      -0.453  50.600 -19.553  1.00  0.00     0.009 C 
HETATM   27  C20 UNL     1      -1.772  48.483 -19.371  1.00  0.00     0.009 C 
ENDBRANCH  24  25
ENDBRANCH  15  24
BRANCH  13  28
HETATM   28  O5  UNL     1       0.267  51.596 -20.677  1.00  0.00    -0.359 OA
HETATM   29  H15 UNL     1       0.828  52.171 -20.107  1.00  0.00     0.217 HD
ENDBRANCH  13  28
BRANCH  10  30
HETATM   30  C10 UNL     1       0.037  53.701 -25.908  1.00  0.00     0.275 C 
HETATM   31  O2  UNL     1       0.137  54.910 -26.104  1.00  0.00    -0.301 OA
ENDBRANCH  10  30
BRANCH  12  32
HETATM   32  C13 UNL     1       1.736  53.997 -21.232  1.00  0.00     0.275 C 
HETATM   33  O4  UNL     1       1.216  54.319 -20.166  1.00  0.00    -0.301 OA
ENDBRANCH  12  32
BRANCH  11  34
HETATM   34  O3  UNL     1       1.604  54.957 -23.838  1.00  0.00    -0.359 OA
HETATM   35  H13 UNL     1       1.461  55.196 -24.785  1.00  0.00     0.217 HD
ENDBRANCH  11  34
TORSDOF 6
ENDMDL
MODEL 2
REMARK minimizedAffinity -8.59668159
REMARK  6 active torsions:
REMARK  status: ('A' for Active; 'I' for Inactive)
REMARK    1  A    between atoms: C9_10  and  C10_11 
REMARK    2  A    between atoms: C11_13  and  O3_14 
REMARK    3  A    between atoms: C12_15  and  C13_16 
REMARK    4  A    between atoms: C14_18  and  O5_19 
REMARK    5  A    between atoms: C16_21  and  C17_22 
REMARK    6  A    between atoms: C17_22  and  C18_23 
ROOT
HETATM    1  C1  UNL     1      -3.096  50.594 -28.244  1.00  0.00     0.043 C 
HETATM    2  C2  UNL     1      -2.402  51.003 -26.962  1.00  0.00    -0.087 C 
HETATM    3  C3  UNL     1      -1.123  50.622 -26.755  1.00  0.00    -0.024 C 
HETATM    4  C4  UNL     1      -0.127  50.842 -25.640  1.00  0.00     0.030 C 
HETATM    5  C5  UNL     1      -0.282  52.065 -24.739  1.00  0.00     0.042 C 
HETATM    6  C6  UNL     1      -0.819  51.866 -23.281  1.00  0.00     0.069 C 
HETATM    7  C7  UNL     1      -1.453  53.233 -22.889  1.00  0.00     0.047 C 
HETATM    8  O1  UNL     1       0.422  51.780 -22.488  1.00  0.00    -0.338 OA
HETATM    9  C8  UNL     1       0.194  51.547 -21.155  1.00  0.00     0.095 A 
HETATM   10  C9  UNL     1       0.800  52.351 -20.187  1.00  0.00     0.070 A 
HETATM   11  C11 UNL     1       0.482  52.158 -18.838  1.00  0.00     0.097 A 
HETATM   12  C12 UNL     1      -0.438  51.166 -18.480  1.00  0.00     0.069 A 
HETATM   13  C14 UNL     1      -1.013  50.340 -19.469  1.00  0.00     0.091 A 
HETATM   14  C15 UNL     1      -0.658  50.489 -20.814  1.00  0.00     0.015 A 
HETATM   15  C16 UNL     1      -1.068  49.642 -22.004  1.00  0.00     0.032 C 
HETATM   16  C21 UNL     1      -1.773  50.578 -23.044  1.00  0.00     0.034 C 
HETATM   17  C22 UNL     1      -3.190  50.976 -22.642  1.00  0.00     0.006 A 
HETATM   18  C23 UNL     1      -4.243  51.255 -23.718  1.00  0.00    -0.001 A 
HETATM   19  C24 UNL     1      -4.150  50.842 -25.167  1.00  0.00     0.010 C 
HETATM   20  C25 UNL     1      -3.300  51.781 -26.021  1.00  0.00     0.034 C 
HETATM   21  C26 UNL     1      -4.510  50.182 -22.672  1.00  0.00    -0.039 A 
HETATM   22  C27 UNL     1      -5.521  50.521 -21.596  1.00  0.00     0.015 C 
HETATM   23  C28 UNL     1      -4.621  48.744 -23.113  1.00  0.00     0.015 C 
ENDROOT
BRANCH  15  24
HETATM   24  C17 UNL     1      -1.743  48.282 -21.761  1.00  0.00     0.014 C 
BRANCH  24  25
HETATM   25  C18 UNL     1      -3.161  48.341 -21.140  1.00  0.00    -0.022 C 
HETATM   26  C19 UNL     1      -3.132  48.263 -19.611  1.00  0.00     0.009 C 
HETATM   27  C20 UNL     1      -4.007  47.190 -21.693  1.00  0.00     0.009 C 
ENDBRANCH  24  25
ENDBRANCH  15  24
BRANCH  13  28
HETATM   28  O5  UNL     1      -1.945  49.394 -19.137  1.00  0.00    -0.359 OA
HETATM   29  H15 UNL     1      -2.076  49.398 -18.161  1.00  0.00     0.217 HD
ENDBRANCH  13  28
BRANCH  10  30
HETATM   30  C10 UNL     1       1.741  53.407 -20.604  1.00  0.00     0.275 C 
HETATM   31  O2  UNL     1       1.365  54.575 -20.676  1.00  0.00    -0.301 OA
ENDBRANCH  10  30
BRANCH  12  32
HETATM   32  C13 UNL     1      -0.797  50.999 -17.056  1.00  0.00     0.275 C 
HETATM   33  O4  UNL     1      -1.938  50.675 -16.732  1.00  0.00    -0.301 OA
ENDBRANCH  12  32
BRANCH  11  34
HETATM   34  O3  UNL     1       1.036  52.933 -17.849  1.00  0.00    -0.359 OA
HETATM   35  H13 UNL     1       1.651  53.585 -18.263  1.00  0.00     0.217 HD
ENDBRANCH  11  34
TORSDOF 6
ENDMDL
MODEL 3
REMARK minimizedAffinity -8.14871407
REMARK  6 active torsions:
REMARK  status: ('A' for Active; 'I' for Inactive)
REMARK    1  A    between atoms: C9_10  and  C10_11 
REMARK    2  A    between atoms: C11_13  and  O3_14 
REMARK    3  A    between atoms: C12_15  and  C13_16 
REMARK    4  A    between atoms: C14_18  and  O5_19 
REMARK    5  A    between atoms: C16_21  and  C17_22 
REMARK    6  A    between atoms: C17_22  and  C18_23 
ROOT
HETATM    1  C1  UNL     1      -4.540  46.516 -18.526  1.00  0.00     0.043 C 
HETATM    2  C2  UNL     1      -3.610  47.595 -19.038  1.00  0.00    -0.087 C 
HETATM    3  C3  UNL     1      -3.678  48.833 -18.503  1.00  0.00    -0.024 C 
HETATM    4  C4  UNL     1      -2.928  50.123 -18.738  1.00  0.00     0.030 C 
HETATM    5  C5  UNL     1      -1.515  50.066 -19.314  1.00  0.00     0.042 C 
HETATM    6  C6  UNL     1      -1.293  50.475 -20.809  1.00  0.00     0.069 C 
HETATM    7  C7  UNL     1      -0.000  49.727 -21.250  1.00  0.00     0.047 C 
HETATM    8  O1  UNL     1      -0.895  51.891 -20.701  1.00  0.00    -0.338 OA
HETATM    9  C8  UNL     1      -0.695  52.489 -21.920  1.00  0.00     0.095 A 
HETATM   10  C9  UNL     1       0.480  53.202 -22.169  1.00  0.00     0.070 A 
HETATM   11  C11 UNL     1       0.708  53.724 -23.448  1.00  0.00     0.097 A 
HETATM   12  C12 UNL     1      -0.241  53.522 -24.456  1.00  0.00     0.069 A 
HETATM   13  C14 UNL     1      -1.439  52.830 -24.176  1.00  0.00     0.091 A 
HETATM   14  C15 UNL     1      -1.700  52.353 -22.887  1.00  0.00     0.015 A 
HETATM   15  C16 UNL     1      -2.957  51.692 -22.354  1.00  0.00     0.032 C 
HETATM   16  C21 UNL     1      -2.563  50.282 -21.797  1.00  0.00     0.034 C 
HETATM   17  C22 UNL     1      -2.295  49.249 -22.888  1.00  0.00     0.006 A 
HETATM   18  C23 UNL     1      -2.578  47.768 -22.627  1.00  0.00    -0.001 A 
HETATM   19  C24 UNL     1      -3.438  47.219 -21.515  1.00  0.00     0.010 C 
HETATM   20  C25 UNL     1      -2.719  47.124 -20.171  1.00  0.00     0.034 C 
HETATM   21  C26 UNL     1      -3.259  48.464 -23.796  1.00  0.00    -0.039 A 
HETATM   22  C27 UNL     1      -2.748  48.122 -25.180  1.00  0.00     0.015 C 
HETATM   23  C28 UNL     1      -4.759  48.627 -23.777  1.00  0.00     0.015 C 
ENDROOT
BRANCH  15  24
HETATM   24  C17 UNL     1      -4.246  51.744 -23.193  1.00  0.00     0.014 C 
BRANCH  24  25
HETATM   25  C18 UNL     1      -5.567  51.610 -22.395  1.00  0.00    -0.022 C 
HETATM   26  C19 UNL     1      -5.357  50.965 -21.022  1.00  0.00     0.009 C 
HETATM   27  C20 UNL     1      -6.565  50.773 -23.203  1.00  0.00     0.009 C 
ENDBRANCH  24  25
ENDBRANCH  15  24
BRANCH  13  28
HETATM   28  O5  UNL     1      -2.357  52.589 -25.162  1.00  0.00    -0.359 OA
HETATM   29  H15 UNL     1      -2.042  52.996 -26.002  1.00  0.00     0.217 HD
ENDBRANCH  13  28
BRANCH  10  30
HETATM   30  C10 UNL     1       1.472  53.367 -21.091  1.00  0.00     0.275 C 
HETATM   31  O2  UNL     1       1.825  54.492 -20.744  1.00  0.00    -0.301 OA
ENDBRANCH  10  30
BRANCH  12  32
HETATM   32  C13 UNL     1       0.029  54.043 -25.813  1.00  0.00     0.275 C 
HETATM   33  O4  UNL     1       0.276  55.234 -25.987  1.00  0.00    -0.301 OA
ENDBRANCH  12  32
BRANCH  11  34
HETATM   34  O3  UNL     1       1.855  54.417 -23.749  1.00  0.00    -0.359 OA
HETATM   35  H13 UNL     1       2.419  54.464 -22.941  1.00  0.00     0.217 HD
ENDBRANCH  11  34
TORSDOF 6
ENDMDL
MODEL 4
REMARK minimizedAffinity -7.96595478
REMARK  6 active torsions:
REMARK  status: ('A' for Active; 'I' for Inactive)
REMARK    1  A    between atoms: C9_10  and  C10_11 
REMARK    2  A    between atoms: C11_13  and  O3_14 
REMARK    3  A    between atoms: C12_15  and  C13_16 
REMARK    4  A    between atoms: C14_18  and  O5_19 
REMARK    5  A    between atoms: C16_21  and  C17_22 
REMARK    6  A    between atoms: C17_22  and  C18_23 
ROOT
HETATM    1  C1  UNL     1      -2.471  52.395 -25.720  1.00  0.00     0.043 C 
HETATM    2  C2  UNL     1      -1.950  52.318 -24.300  1.00  0.00    -0.087 C 
HETATM    3  C3  UNL     1      -0.652  52.008 -24.091  1.00  0.00    -0.024 C 
HETATM    4  C4  UNL     1       0.207  51.856 -22.857  1.00  0.00     0.030 C 
HETATM    5  C5  UNL     1      -0.189  52.595 -21.581  1.00  0.00     0.042 C 
HETATM    6  C6  UNL     1      -0.814  51.779 -20.399  1.00  0.00     0.069 C 
HETATM    7  C7  UNL     1      -1.661  52.807 -19.595  1.00  0.00     0.047 C 
HETATM    8  O1  UNL     1       0.356  51.498 -19.546  1.00  0.00    -0.338 OA
HETATM    9  C8  UNL     1       0.052  50.730 -18.450  1.00  0.00     0.095 A 
HETATM   10  C9  UNL     1       0.458  51.132 -17.175  1.00  0.00     0.070 A 
HETATM   11  C11 UNL     1       0.059  50.385 -16.061  1.00  0.00     0.097 A 
HETATM   12  C12 UNL     1      -0.743  49.252 -16.240  1.00  0.00     0.069 A 
HETATM   13  C14 UNL     1      -1.113  48.841 -17.539  1.00  0.00     0.091 A 
HETATM   14  C15 UNL     1      -0.671  49.549 -18.661  1.00  0.00     0.015 A 
HETATM   15  C16 UNL     1      -0.859  49.217 -20.129  1.00  0.00     0.032 C 
HETATM   16  C21 UNL     1      -1.597  50.419 -20.808  1.00  0.00     0.034 C 
HETATM   17  C22 UNL     1      -3.085  50.489 -20.473  1.00  0.00     0.006 A 
HETATM   18  C23 UNL     1      -4.072  51.076 -21.484  1.00  0.00    -0.001 A 
HETATM   19  C24 UNL     1      -3.802  51.289 -22.954  1.00  0.00     0.010 C 
HETATM   20  C25 UNL     1      -3.022  52.566 -23.258  1.00  0.00     0.034 C 
HETATM   21  C26 UNL     1      -4.274  49.654 -20.982  1.00  0.00    -0.039 A 
HETATM   22  C27 UNL     1      -5.409  49.437 -20.002  1.00  0.00     0.015 C 
HETATM   23  C28 UNL     1      -4.148  48.509 -21.956  1.00  0.00     0.015 C 
ENDROOT
BRANCH  15  24
HETATM   24  C17 UNL     1      -1.357  47.816 -20.524  1.00  0.00     0.014 C 
BRANCH  24  25
HETATM   25  C18 UNL     1      -2.820  47.492 -20.129  1.00  0.00    -0.022 C 
HETATM   26  C19 UNL     1      -2.932  46.946 -18.703  1.00  0.00     0.009 C 
HETATM   27  C20 UNL     1      -3.397  46.469 -21.113  1.00  0.00     0.009 C 
ENDBRANCH  24  25
ENDBRANCH  15  24
BRANCH  13  28
HETATM   28  O5  UNL     1      -1.929  47.759 -17.725  1.00  0.00    -0.359 OA
HETATM   29  H15 UNL     1      -2.141  47.359 -16.851  1.00  0.00     0.217 HD
ENDBRANCH  13  28
BRANCH  10  30
HETATM   30  C10 UNL     1       1.275  52.350 -17.023  1.00  0.00     0.275 C 
HETATM   31  O2  UNL     1       2.362  52.297 -16.452  1.00  0.00    -0.301 OA
ENDBRANCH  10  30
BRANCH  12  32
HETATM   32  C13 UNL     1      -1.192  48.495 -15.053  1.00  0.00     0.275 C 
HETATM   33  O4  UNL     1      -2.388  48.281 -14.864  1.00  0.00    -0.301 OA
ENDBRANCH  12  32
BRANCH  11  34
HETATM   34  O3  UNL     1       0.415  50.747 -14.785  1.00  0.00    -0.359 OA
HETATM   35  H13 UNL     1       0.966  51.565 -14.830  1.00  0.00     0.217 HD
ENDBRANCH  11  34
TORSDOF 6
ENDMDL
MODEL 5
REMARK minimizedAffinity -7.71787596
REMARK  6 active torsions:
REMARK  status: ('A' for Active; 'I' for Inactive)
REMARK    1  A    between atoms: C9_10  and  C10_11 
REMARK    2  A    between atoms: C11_13  and  O3_14 
REMARK    3  A    between atoms: C12_15  and  C13_16 
REMARK    4  A    between atoms: C14_18  and  O5_19 
REMARK    5  A    between atoms: C16_21  and  C17_22 
REMARK    6  A    between atoms: C17_22  and  C18_23 
ROOT
HETATM    1  C1  UNL     1      -5.854  47.792 -26.420  1.00  0.00     0.043 C 
HETATM    2  C2  UNL     1      -4.752  48.711 -25.935  1.00  0.00    -0.087 C 
HETATM    3  C3  UNL     1      -3.464  48.353 -26.129  1.00  0.00    -0.024 C 
HETATM    4  C4  UNL     1      -2.134  48.996 -25.807  1.00  0.00     0.030 C 
HETATM    5  C5  UNL     1      -2.061  50.513 -25.657  1.00  0.00     0.042 C 
HETATM    6  C6  UNL     1      -1.916  51.124 -24.222  1.00  0.00     0.069 C 
HETATM    7  C7  UNL     1      -2.504  52.561 -24.329  1.00  0.00     0.047 C 
HETATM    8  O1  UNL     1      -0.459  51.316 -24.098  1.00  0.00    -0.338 OA
HETATM    9  C8  UNL     1      -0.082  51.803 -22.872  1.00  0.00     0.095 A 
HETATM   10  C9  UNL     1       0.759  52.915 -22.784  1.00  0.00     0.070 A 
HETATM   11  C11 UNL     1       1.056  53.454 -21.528  1.00  0.00     0.097 A 
HETATM   12  C12 UNL     1       0.504  52.874 -20.379  1.00  0.00     0.069 A 
HETATM   13  C14 UNL     1      -0.315  51.729 -20.485  1.00  0.00     0.091 A 
HETATM   14  C15 UNL     1      -0.571  51.151 -21.732  1.00  0.00     0.015 A 
HETATM   15  C16 UNL     1      -1.321  49.872 -22.050  1.00  0.00     0.032 C 
HETATM   16  C21 UNL     1      -2.509  50.232 -23.006  1.00  0.00     0.034 C 
HETATM   17  C22 UNL     1      -3.672  50.922 -22.298  1.00  0.00     0.006 A 
HETATM   18  C23 UNL     1      -5.102  50.736 -22.812  1.00  0.00    -0.001 A 
HETATM   19  C24 UNL     1      -5.563  49.649 -23.752  1.00  0.00     0.010 C 
HETATM   20  C25 UNL     1      -5.274  49.943 -25.223  1.00  0.00     0.034 C 
HETATM   21  C26 UNL     1      -4.770  50.361 -21.375  1.00  0.00    -0.039 A 
HETATM   22  C27 UNL     1      -5.280  51.294 -20.297  1.00  0.00     0.015 C 
HETATM   23  C28 UNL     1      -4.864  48.915 -20.957  1.00  0.00     0.015 C 
ENDROOT
BRANCH  15  24
HETATM   24  C17 UNL     1      -1.652  48.892 -20.911  1.00  0.00     0.014 C 
BRANCH  24  25
HETATM   25  C18 UNL     1      -1.561  49.476 -19.479  1.00  0.00    -0.022 C 
HETATM   26  C19 UNL     1      -0.300  49.018 -18.741  1.00  0.00     0.009 C 
HETATM   27  C20 UNL     1      -2.799  49.058 -18.681  1.00  0.00     0.009 C 
ENDBRANCH  24  25
ENDBRANCH  15  24
BRANCH  13  28
HETATM   28  O5  UNL     1      -0.894  51.177 -19.374  1.00  0.00    -0.359 OA
HETATM   29  H15 UNL     1      -0.609  51.681 -18.577  1.00  0.00     0.217 HD
ENDBRANCH  13  28
BRANCH  10  30
HETATM   30  C10 UNL     1       1.296  53.518 -24.018  1.00  0.00     0.275 C 
HETATM   31  O2  UNL     1       0.552  54.134 -24.778  1.00  0.00    -0.301 OA
ENDBRANCH  10  30
BRANCH  12  32
HETATM   32  C13 UNL     1       0.791  53.477 -19.061  1.00  0.00     0.275 C 
HETATM   33  O4  UNL     1       0.503  52.882 -18.025  1.00  0.00    -0.301 OA
ENDBRANCH  12  32
BRANCH  11  34
HETATM   34  O3  UNL     1       1.862  54.557 -21.388  1.00  0.00    -0.359 OA
HETATM   35  H13 UNL     1       2.159  54.847 -22.284  1.00  0.00     0.217 HD
ENDBRANCH  11  34
TORSDOF 6
ENDMDL
MODEL 6
REMARK minimizedAffinity -7.44851685
REMARK  6 active torsions:
REMARK  status: ('A' for Active; 'I' for Inactive)
REMARK    1  A    between atoms: C9_10  and  C10_11 
REMARK    2  A    between atoms: C11_13  and  O3_14 
REMARK    3  A    between atoms: C12_15  and  C13_16 
REMARK    4  A    between atoms: C14_18  and  O5_19 
REMARK    5  A    between atoms: C16_21  and  C17_22 
REMARK    6  A    between atoms: C17_22  and  C18_23 
ROOT
HETATM    1  C1  UNL     1      -2.697  49.253 -16.003  1.00  0.00     0.043 C 
HETATM    2  C2  UNL     1      -2.129  49.904 -17.247  1.00  0.00    -0.087 C 
HETATM    3  C3  UNL     1      -2.502  51.163 -17.561  1.00  0.00    -0.024 C 
HETATM    4  C4  UNL     1      -2.149  52.118 -18.678  1.00  0.00     0.030 C 
HETATM    5  C5  UNL     1      -0.811  51.958 -19.395  1.00  0.00     0.042 C 
HETATM    6  C6  UNL     1      -0.796  51.356 -20.841  1.00  0.00     0.069 C 
HETATM    7  C7  UNL     1       0.623  50.741 -21.013  1.00  0.00     0.047 C 
HETATM    8  O1  UNL     1      -0.796  52.560 -21.692  1.00  0.00    -0.338 OA
HETATM    9  C8  UNL     1      -0.838  52.272 -23.033  1.00  0.00     0.095 A 
HETATM   10  C9  UNL     1       0.080  52.857 -23.908  1.00  0.00     0.070 A 
HETATM   11  C11 UNL     1       0.082  52.480 -25.256  1.00  0.00     0.097 A 
HETATM   12  C12 UNL     1      -0.833  51.520 -25.705  1.00  0.00     0.069 A 
HETATM   13  C14 UNL     1      -1.777  50.966 -24.814  1.00  0.00     0.091 A 
HETATM   14  C15 UNL     1      -1.823  51.379 -23.478  1.00  0.00     0.015 A 
HETATM   15  C16 UNL     1      -2.817  50.998 -22.398  1.00  0.00     0.032 C 
HETATM   16  C21 UNL     1      -2.021  50.360 -21.210  1.00  0.00     0.034 C 
HETATM   17  C22 UNL     1      -1.543  48.938 -21.490  1.00  0.00     0.006 A 
HETATM   18  C23 UNL     1      -1.395  47.938 -20.341  1.00  0.00    -0.001 A 
HETATM   19  C24 UNL     1      -2.006  48.080 -18.968  1.00  0.00     0.010 C 
HETATM   20  C25 UNL     1      -1.211  48.988 -18.031  1.00  0.00     0.034 C 
HETATM   21  C26 UNL     1      -2.308  47.601 -21.511  1.00  0.00    -0.039 A 
HETATM   22  C27 UNL     1      -1.804  46.555 -22.484  1.00  0.00     0.015 C 
HETATM   23  C28 UNL     1      -3.791  47.472 -21.267  1.00  0.00     0.015 C 
ENDROOT
BRANCH  15  24
HETATM   24  C17 UNL     1      -4.118  50.279 -22.796  1.00  0.00     0.014 C 
BRANCH  24  25
HETATM   25  C18 UNL     1      -5.408  50.811 -22.122  1.00  0.00    -0.022 C 
HETATM   26  C19 UNL     1      -5.425  50.557 -20.612  1.00  0.00     0.009 C 
HETATM   27  C20 UNL     1      -6.628  50.143 -22.765  1.00  0.00     0.009 C 
ENDBRANCH  24  25
ENDBRANCH  15  24
BRANCH  13  28
HETATM   28  O5  UNL     1      -2.650  49.997 -25.231  1.00  0.00    -0.359 OA
HETATM   29  H15 UNL     1      -2.508  49.826 -26.190  1.00  0.00     0.217 HD
ENDBRANCH  13  28
BRANCH  10  30
HETATM   30  C10 UNL     1       1.050  53.841 -23.392  1.00  0.00     0.275 C 
HETATM   31  O2  UNL     1       1.298  54.859 -24.034  1.00  0.00    -0.301 OA
ENDBRANCH  10  30
BRANCH  12  32
HETATM   32  C13 UNL     1      -0.795  51.099 -27.121  1.00  0.00     0.275 C 
HETATM   33  O4  UNL     1       0.093  51.503 -27.870  1.00  0.00    -0.301 OA
ENDBRANCH  12  32
BRANCH  11  34
HETATM   34  O3  UNL     1       0.975  53.011 -26.152  1.00  0.00    -0.359 OA
HETATM   35  H13 UNL     1       1.551  53.659 -25.680  1.00  0.00     0.217 HD
ENDBRANCH  11  34
TORSDOF 6
ENDMDL
MODEL 7
REMARK minimizedAffinity -7.43844795
REMARK  6 active torsions:
REMARK  status: ('A' for Active; 'I' for Inactive)
REMARK    1  A    between atoms: C9_10  and  C10_11 
REMARK    2  A    between atoms: C11_13  and  O3_14 
REMARK    3  A    between atoms: C12_15  and  C13_16 
REMARK    4  A    between atoms: C14_18  and  O5_19 
REMARK    5  A    between atoms: C16_21  and  C17_22 
REMARK    6  A    between atoms: C17_22  and  C18_23 
ROOT
HETATM    1  C1  UNL     1       1.195  51.827 -20.570  1.00  0.00     0.043 C 
HETATM    2  C2  UNL     1      -0.076  51.025 -20.755  1.00  0.00    -0.087 C 
HETATM    3  C3  UNL     1      -0.006  49.676 -20.782  1.00  0.00    -0.024 C 
HETATM    4  C4  UNL     1      -1.028  48.573 -20.929  1.00  0.00     0.030 C 
HETATM    5  C5  UNL     1      -2.475  48.843 -20.524  1.00  0.00     0.042 C 
HETATM    6  C6  UNL     1      -3.549  49.039 -21.647  1.00  0.00     0.069 C 
HETATM    7  C7  UNL     1      -4.673  49.894 -20.992  1.00  0.00     0.047 C 
HETATM    8  O1  UNL     1      -4.127  47.689 -21.781  1.00  0.00    -0.338 OA
HETATM    9  C8  UNL     1      -5.077  47.605 -22.768  1.00  0.00     0.095 A 
HETATM   10  C9  UNL     1      -6.325  47.038 -22.498  1.00  0.00     0.070 A 
HETATM   11  C11 UNL     1      -7.312  47.046 -23.490  1.00  0.00     0.097 A 
HETATM   12  C12 UNL     1      -7.035  47.624 -24.734  1.00  0.00     0.069 A 
HETATM   13  C14 UNL     1      -5.756  48.159 -25.001  1.00  0.00     0.091 A 
HETATM   14  C15 UNL     1      -4.747  48.105 -24.035  1.00  0.00     0.015 A 
HETATM   15  C16 UNL     1      -3.292  48.515 -24.156  1.00  0.00     0.032 C 
HETATM   16  C21 UNL     1      -3.002  49.601 -23.065  1.00  0.00     0.034 C 
HETATM   17  C22 UNL     1      -3.578  50.973 -23.403  1.00  0.00     0.006 A 
HETATM   18  C23 UNL     1      -2.881  52.241 -22.906  1.00  0.00    -0.001 A 
HETATM   19  C24 UNL     1      -1.462  52.323 -22.397  1.00  0.00     0.010 C 
HETATM   20  C25 UNL     1      -1.306  51.892 -20.940  1.00  0.00     0.034 C 
HETATM   21  C26 UNL     1      -3.108  52.049 -24.398  1.00  0.00    -0.039 A 
HETATM   22  C27 UNL     1      -4.192  52.896 -25.034  1.00  0.00     0.015 C 
HETATM   23  C28 UNL     1      -1.912  51.896 -25.305  1.00  0.00     0.015 C 
ENDROOT
BRANCH  15  24
HETATM   24  C17 UNL     1      -2.704  48.793 -25.550  1.00  0.00     0.014 C 
BRANCH  24  25
HETATM   25  C18 UNL     1      -3.740  49.043 -26.675  1.00  0.00    -0.022 C 
HETATM   26  C19 UNL     1      -3.745  47.926 -27.722  1.00  0.00     0.009 C 
HETATM   27  C20 UNL     1      -3.435  50.380 -27.358  1.00  0.00     0.009 C 
ENDBRANCH  24  25
ENDBRANCH  15  24
BRANCH  13  28
HETATM   28  O5  UNL     1      -5.486  48.763 -26.199  1.00  0.00    -0.359 OA
HETATM   29  H15 UNL     1      -6.282  48.710 -26.776  1.00  0.00     0.217 HD
ENDBRANCH  13  28
BRANCH  10  30
HETATM   30  C10 UNL     1      -6.590  46.468 -21.164  1.00  0.00     0.275 C 
HETATM   31  O2  UNL     1      -6.237  45.320 -20.902  1.00  0.00    -0.301 OA
ENDBRANCH  10  30
BRANCH  12  32
HETATM   32  C13 UNL     1      -8.099  47.664 -25.760  1.00  0.00     0.275 C 
HETATM   33  O4  UNL     1      -8.538  46.623 -26.245  1.00  0.00    -0.301 OA
ENDBRANCH  12  32
BRANCH  11  34
HETATM   34  O3  UNL     1      -8.560  46.519 -23.269  1.00  0.00    -0.359 OA
HETATM   35  H13 UNL     1      -8.596  46.163 -22.349  1.00  0.00     0.217 HD
ENDBRANCH  11  34
TORSDOF 6
ENDMDL
MODEL 8
REMARK minimizedAffinity -7.35177279
REMARK  6 active torsions:
REMARK  status: ('A' for Active; 'I' for Inactive)
REMARK    1  A    between atoms: C9_10  and  C10_11 
REMARK    2  A    between atoms: C11_13  and  O3_14 
REMARK    3  A    between atoms: C12_15  and  C13_16 
REMARK    4  A    between atoms: C14_18  and  O5_19 
REMARK    5  A    between atoms: C16_21  and  C17_22 
REMARK    6  A    between atoms: C17_22  and  C18_23 
ROOT
HETATM    1  C1  UNL     1      -0.448  52.036 -22.614  1.00  0.00     0.043 C 
HETATM    2  C2  UNL     1      -1.794  51.463 -23.005  1.00  0.00    -0.087 C 
HETATM    3  C3  UNL     1      -2.874  52.273 -23.022  1.00  0.00    -0.024 C 
HETATM    4  C4  UNL     1      -4.334  52.074 -23.361  1.00  0.00     0.030 C 
HETATM    5  C5  UNL     1      -4.727  50.940 -24.305  1.00  0.00     0.042 C 
HETATM    6  C6  UNL     1      -5.408  49.662 -23.707  1.00  0.00     0.069 C 
HETATM    7  C7  UNL     1      -5.091  48.520 -24.716  1.00  0.00     0.047 C 
HETATM    8  O1  UNL     1      -6.844  49.945 -23.890  1.00  0.00    -0.338 OA
HETATM    9  C8  UNL     1      -7.656  48.964 -23.380  1.00  0.00     0.095 A 
HETATM   10  C9  UNL     1      -8.674  48.415 -24.164  1.00  0.00     0.070 A 
HETATM   11  C11 UNL     1      -9.431  47.351 -23.660  1.00  0.00     0.097 A 
HETATM   12  C12 UNL     1      -9.154  46.852 -22.382  1.00  0.00     0.069 A 
HETATM   13  C14 UNL     1      -8.146  47.443 -21.591  1.00  0.00     0.091 A 
HETATM   14  C15 UNL     1      -7.423  48.542 -22.065  1.00  0.00     0.015 A 
HETATM   15  C16 UNL     1      -6.390  49.384 -21.341  1.00  0.00     0.032 C 
HETATM   16  C21 UNL     1      -5.057  49.325 -22.161  1.00  0.00     0.034 C 
HETATM   17  C22 UNL     1      -4.309  48.002 -22.015  1.00  0.00     0.006 A 
HETATM   18  C23 UNL     1      -2.783  47.968 -22.119  1.00  0.00    -0.001 A 
HETATM   19  C24 UNL     1      -1.867  49.162 -22.002  1.00  0.00     0.010 C 
HETATM   20  C25 UNL     1      -1.748  49.975 -23.290  1.00  0.00     0.034 C 
HETATM   21  C26 UNL     1      -3.458  47.445 -20.859  1.00  0.00    -0.039 A 
HETATM   22  C27 UNL     1      -3.478  45.941 -20.676  1.00  0.00     0.015 C 
HETATM   23  C28 UNL     1      -3.230  48.166 -19.554  1.00  0.00     0.015 C 
ENDROOT
BRANCH  15  24
HETATM   24  C17 UNL     1      -6.244  49.247 -19.816  1.00  0.00     0.014 C 
BRANCH  24  25
HETATM   25  C18 UNL     1      -5.620  47.917 -19.321  1.00  0.00    -0.022 C 
HETATM   26  C19 UNL     1      -6.674  46.832 -19.083  1.00  0.00     0.009 C 
HETATM   27  C20 UNL     1      -4.848  48.171 -18.023  1.00  0.00     0.009 C 
ENDBRANCH  24  25
ENDBRANCH  15  24
BRANCH  13  28
HETATM   28  O5  UNL     1      -7.838  46.938 -20.356  1.00  0.00    -0.359 OA
HETATM   29  H15 UNL     1      -8.438  46.183 -20.157  1.00  0.00     0.217 HD
ENDBRANCH  13  28
BRANCH  10  30
HETATM   30  C10 UNL     1      -8.915  48.947 -25.518  1.00  0.00     0.275 C 
HETATM   31  O2  UNL     1     -10.063  49.163 -25.902  1.00  0.00    -0.301 OA
ENDBRANCH  10  30
BRANCH  12  32
HETATM   32  C13 UNL     1      -9.933  45.701 -21.876  1.00  0.00     0.275 C 
HETATM   33  O4  UNL     1      -9.835  44.598 -22.410  1.00  0.00    -0.301 OA
ENDBRANCH  12  32
BRANCH  11  34
HETATM   34  O3  UNL     1     -10.430  46.765 -24.396  1.00  0.00    -0.359 OA
HETATM   35  H13 UNL     1     -10.492  47.222 -25.268  1.00  0.00     0.217 HD
ENDBRANCH  11  34
TORSDOF 6
ENDMDL
MODEL 9
REMARK minimizedAffinity -7.19054556
REMARK  6 active torsions:
REMARK  status: ('A' for Active; 'I' for Inactive)
REMARK    1  A    between atoms: C9_10  and  C10_11 
REMARK    2  A    between atoms: C11_13  and  O3_14 
REMARK    3  A    between atoms: C12_15  and  C13_16 
REMARK    4  A    between atoms: C14_18  and  O5_19 
REMARK    5  A    between atoms: C16_21  and  C17_22 
REMARK    6  A    between atoms: C17_22  and  C18_23 
ROOT
HETATM    1  C1  UNL     1      -8.758  44.600 -24.487  1.00  0.00     0.043 C 
HETATM    2  C2  UNL     1      -8.292  45.110 -25.834  1.00  0.00    -0.087 C 
HETATM    3  C3  UNL     1      -8.173  46.441 -26.030  1.00  0.00    -0.024 C 
HETATM    4  C4  UNL     1      -7.739  47.298 -27.196  1.00  0.00     0.030 C 
HETATM    5  C5  UNL     1      -6.806  46.702 -28.247  1.00  0.00     0.042 C 
HETATM    6  C6  UNL     1      -7.394  46.316 -29.647  1.00  0.00     0.069 C 
HETATM    7  C7  UNL     1      -6.445  45.212 -30.198  1.00  0.00     0.047 C 
HETATM    8  O1  UNL     1      -7.101  47.510 -30.461  1.00  0.00    -0.338 OA
HETATM    9  C8  UNL     1      -7.583  47.420 -31.743  1.00  0.00     0.095 A 
HETATM   10  C9  UNL     1      -6.747  47.689 -32.830  1.00  0.00     0.070 A 
HETATM   11  C11 UNL     1      -7.230  47.500 -34.130  1.00  0.00     0.097 A 
HETATM   12  C12 UNL     1      -8.539  47.043 -34.321  1.00  0.00     0.069 A 
HETATM   13  C14 UNL     1      -9.380  46.811 -33.212  1.00  0.00     0.091 A 
HETATM   14  C15 UNL     1      -8.924  47.051 -31.911  1.00  0.00     0.015 A 
HETATM   15  C16 UNL     1      -9.692  46.975 -30.606  1.00  0.00     0.032 C 
HETATM   16  C21 UNL     1      -8.970  45.940 -29.678  1.00  0.00     0.034 C 
HETATM   17  C22 UNL     1      -9.209  44.488 -30.083  1.00  0.00     0.006 A 
HETATM   18  C23 UNL     1      -9.213  43.387 -29.021  1.00  0.00    -0.001 A 
HETATM   19  C24 UNL     1      -9.357  43.600 -27.534  1.00  0.00     0.010 C 
HETATM   20  C25 UNL     1      -8.057  44.001 -26.841  1.00  0.00     0.034 C 
HETATM   21  C26 UNL     1     -10.438  43.578 -29.904  1.00  0.00    -0.039 A 
HETATM   22  C27 UNL     1     -10.666  42.538 -30.982  1.00  0.00     0.015 C 
HETATM   23  C28 UNL     1     -11.733  44.023 -29.272  1.00  0.00     0.015 C 
ENDROOT
BRANCH  15  24
HETATM   24  C17 UNL     1     -11.228  46.884 -30.642  1.00  0.00     0.014 C 
BRANCH  24  25
HETATM   25  C18 UNL     1     -11.973  47.741 -29.588  1.00  0.00    -0.022 C 
HETATM   26  C19 UNL     1     -11.177  47.888 -28.288  1.00  0.00     0.009 C 
HETATM   27  C20 UNL     1     -13.332  47.104 -29.285  1.00  0.00     0.009 C 
ENDBRANCH  24  25
ENDBRANCH  15  24
BRANCH  13  28
HETATM   28  O5  UNL     1     -10.648  46.326 -33.383  1.00  0.00    -0.359 OA
HETATM   29  H15 UNL     1     -10.828  46.224 -34.346  1.00  0.00     0.217 HD
ENDBRANCH  13  28
BRANCH  10  30
HETATM   30  C10 UNL     1      -5.364  48.138 -32.588  1.00  0.00     0.275 C 
HETATM   31  O2  UNL     1      -4.774  47.798 -31.565  1.00  0.00    -0.301 OA
ENDBRANCH  10  30
BRANCH  12  32
HETATM   32  C13 UNL     1      -9.024  46.808 -35.698  1.00  0.00     0.275 C 
HETATM   33  O4  UNL     1      -9.495  45.718 -36.017  1.00  0.00    -0.301 OA
ENDBRANCH  12  32
BRANCH  11  34
HETATM   34  O3  UNL     1      -6.443  47.732 -35.231  1.00  0.00    -0.359 OA
HETATM   35  H13 UNL     1      -5.555  48.038 -34.928  1.00  0.00     0.217 HD
ENDBRANCH  11  34
TORSDOF 6
ENDMDL
