MODEL 1
REMARK minimizedAffinity -10.2379274
REMARK  8 active torsions:
REMARK  status: ('A' for Active; 'I' for Inactive)
REMARK    1  A    between atoms: C2_2  and  C3_3 
REMARK    2  A    between atoms: C2_2  and  C9_12 
REMARK    3  A    between atoms: C3_3  and  C4_4 
REMARK    4  A    between atoms: C4_4  and  C5_5 
REMARK    5  A    between atoms: C6_6  and  C7_7 
REMARK    6  A    between atoms: C6_6  and  C8_9 
REMARK    7  A    between atoms: C7_7  and  O1_8 
REMARK    8  A    between atoms: C8_9  and  O3_11 
ROOT
HETATM    1  C9  UNL     1      -0.081  51.788 -21.155  1.00  0.00    -0.002 C 
HETATM    2  C10 UNL     1       0.195  53.272 -20.903  1.00  0.00     0.006 C 
HETATM    3  C11 UNL     1       0.872  53.242 -19.539  1.00  0.00     0.006 C 
HETATM    4  C12 UNL     1       0.058  52.225 -18.728  1.00  0.00    -0.001 C 
HETATM    5  C13 UNL     1       0.891  51.425 -17.706  1.00  0.00    -0.000 C 
HETATM    6  C14 UNL     1       1.583  52.310 -16.673  1.00  0.00     0.006 C 
HETATM    7  C15 UNL     1       2.255  51.447 -15.607  1.00  0.00     0.007 C 
HETATM    8  C16 UNL     1       1.209  50.742 -14.718  1.00  0.00     0.010 C 
HETATM    9  C17 UNL     1       1.846  49.898 -13.556  1.00  0.00     0.018 C 
HETATM   10  C18 UNL     1       0.891  49.837 -12.343  1.00  0.00     0.023 C 
HETATM   11  C19 UNL     1       3.160  50.525 -13.028  1.00  0.00     0.023 C 
HETATM   12  C20 UNL     1       2.160  48.459 -13.995  1.00  0.00     0.135 C 
HETATM   13  O4  UNL     1       3.087  47.818 -13.497  1.00  0.00    -0.297 OA
HETATM   14  C21 UNL     1       1.310  47.814 -15.060  1.00  0.00     0.080 C 
HETATM   15  C22 UNL     1      -0.022  48.516 -15.205  1.00  0.00     0.018 C 
HETATM   16  C23 UNL     1       0.197  49.960 -15.598  1.00  0.00    -0.026 A 
HETATM   17  C24 UNL     1      -1.021  50.745 -16.036  1.00  0.00     0.021 A 
HETATM   18  C25 UNL     1      -0.002  50.355 -17.086  1.00  0.00    -0.028 A 
HETATM   19  C26 UNL     1      -0.477  49.331 -18.117  1.00  0.00     0.011 C 
HETATM   20  C27 UNL     1      -0.308  49.809 -19.564  1.00  0.00     0.011 C 
HETATM   21  C28 UNL     1      -0.654  51.301 -19.780  1.00  0.00    -0.036 C 
HETATM   22  C29 UNL     1      -2.180  51.495 -19.650  1.00  0.00     0.016 C 
ENDROOT
BRANCH   1  23
HETATM   23  C2  UNL     1      -0.897  51.416 -22.425  1.00  0.00    -0.014 C 
HETATM   24  C1  UNL     1      -2.379  51.795 -22.375  1.00  0.00     0.010 C 
BRANCH  23  25
HETATM   25  C3  UNL     1      -0.210  51.923 -23.722  1.00  0.00     0.008 C 
BRANCH  25  26
HETATM   26  C4  UNL     1      -0.581  51.235 -25.045  1.00  0.00     0.028 C 
BRANCH  26  27
HETATM   27  C5  UNL     1       0.565  51.159 -26.017  1.00  0.00    -0.011 C 
HETATM   28  C6  UNL     1       0.894  52.020 -27.002  1.00  0.00     0.035 C 
BRANCH  28  29
HETATM   29  C7  UNL     1       2.082  51.795 -27.895  1.00  0.00     0.209 C 
BRANCH  29  30
HETATM   30  O1  UNL     1       3.214  51.407 -27.125  1.00  0.00    -0.396 OA
HETATM   31  H12 UNL     1       2.924  50.638 -26.595  1.00  0.00     0.209 HD
ENDBRANCH  29  30
ENDBRANCH  28  29
BRANCH  28  32
HETATM   32  C8  UNL     1       0.142  53.271 -27.232  1.00  0.00     0.173 C 
HETATM   33  O2  UNL     1       0.137  54.271 -26.540  1.00  0.00    -0.646 OA
BRANCH  32  34
HETATM   34  O3  UNL     1      -0.589  53.198 -28.362  1.00  0.00    -0.773 OA
HETATM   35  H13 UNL     1      -1.047  54.066 -28.388  1.00  0.00     0.167 HD
ENDBRANCH  32  34
ENDBRANCH  28  32
ENDBRANCH  26  27
ENDBRANCH  25  26
ENDBRANCH  23  25
ENDBRANCH   1  23
TORSDOF 8
ENDMDL
MODEL 2
REMARK minimizedAffinity -10.0860147
REMARK  8 active torsions:
REMARK  status: ('A' for Active; 'I' for Inactive)
REMARK    1  A    between atoms: C2_2  and  C3_3 
REMARK    2  A    between atoms: C2_2  and  C9_12 
REMARK    3  A    between atoms: C3_3  and  C4_4 
REMARK    4  A    between atoms: C4_4  and  C5_5 
REMARK    5  A    between atoms: C6_6  and  C7_7 
REMARK    6  A    between atoms: C6_6  and  C8_9 
REMARK    7  A    between atoms: C7_7  and  O1_8 
REMARK    8  A    between atoms: C8_9  and  O3_11 
ROOT
HETATM    1  C9  UNL     1      -0.694  50.948 -22.405  1.00  0.00    -0.002 C 
HETATM    2  C10 UNL     1      -0.513  52.467 -22.464  1.00  0.00     0.006 C 
HETATM    3  C11 UNL     1       0.107  52.765 -21.105  1.00  0.00     0.006 C 
HETATM    4  C12 UNL     1      -0.682  51.890 -20.121  1.00  0.00    -0.001 C 
HETATM    5  C13 UNL     1       0.152  51.375 -18.930  1.00  0.00    -0.000 C 
HETATM    6  C14 UNL     1       0.749  52.499 -18.087  1.00  0.00     0.006 C 
HETATM    7  C15 UNL     1       1.423  51.922 -16.844  1.00  0.00     0.007 C 
HETATM    8  C16 UNL     1       0.382  51.353 -15.857  1.00  0.00     0.010 C 
HETATM    9  C17 UNL     1       1.018  50.813 -14.525  1.00  0.00     0.018 C 
HETATM   10  C18 UNL     1       0.018  50.946 -13.355  1.00  0.00     0.023 C 
HETATM   11  C19 UNL     1       2.271  51.618 -14.104  1.00  0.00     0.023 C 
HETATM   12  C20 UNL     1       1.430  49.337 -14.642  1.00  0.00     0.135 C 
HETATM   13  O4  UNL     1       2.371  48.874 -13.993  1.00  0.00    -0.297 OA
HETATM   14  C21 UNL     1       0.663  48.431 -15.571  1.00  0.00     0.080 C 
HETATM   15  C22 UNL     1      -0.699  49.000 -15.899  1.00  0.00     0.018 C 
HETATM   16  C23 UNL     1      -0.546  50.342 -16.581  1.00  0.00    -0.026 A 
HETATM   17  C24 UNL     1      -1.787  50.938 -17.210  1.00  0.00     0.021 A 
HETATM   18  C25 UNL     1      -0.705  50.403 -18.124  1.00  0.00    -0.028 A 
HETATM   19  C26 UNL     1      -1.078  49.159 -18.930  1.00  0.00     0.011 C 
HETATM   20  C27 UNL     1      -0.876  49.334 -20.439  1.00  0.00     0.011 C 
HETATM   21  C28 UNL     1      -1.296  50.723 -20.975  1.00  0.00    -0.036 C 
HETATM   22  C29 UNL     1      -2.834  50.842 -20.933  1.00  0.00     0.016 C 
ENDROOT
BRANCH   1  23
HETATM   23  C2  UNL     1      -1.435  50.268 -23.591  1.00  0.00    -0.014 C 
HETATM   24  C1  UNL     1      -2.741  49.563 -23.219  1.00  0.00     0.010 C 
BRANCH  23  25
HETATM   25  C3  UNL     1      -1.619  51.238 -24.789  1.00  0.00     0.008 C 
BRANCH  25  26
HETATM   26  C4  UNL     1      -1.186  50.748 -26.180  1.00  0.00     0.028 C 
BRANCH  26  27
HETATM   27  C5  UNL     1       0.298  50.848 -26.409  1.00  0.00    -0.011 C 
HETATM   28  C6  UNL     1       1.000  51.859 -26.959  1.00  0.00     0.035 C 
BRANCH  28  29
HETATM   29  C7  UNL     1       2.494  51.800 -27.119  1.00  0.00     0.209 C 
BRANCH  29  30
HETATM   30  O1  UNL     1       3.050  50.842 -26.226  1.00  0.00    -0.396 OA
HETATM   31  H12 UNL     1       2.567  50.008 -26.396  1.00  0.00     0.209 HD
ENDBRANCH  29  30
ENDBRANCH  28  29
BRANCH  28  32
HETATM   32  C8  UNL     1       0.356  53.117 -27.389  1.00  0.00     0.173 C 
HETATM   33  O2  UNL     1       0.278  54.161 -26.769  1.00  0.00    -0.646 OA
BRANCH  32  34
HETATM   34  O3  UNL     1      -0.177  52.994 -28.622  1.00  0.00    -0.773 OA
HETATM   35  H13 UNL     1      -0.584  53.874 -28.777  1.00  0.00     0.167 HD
ENDBRANCH  32  34
ENDBRANCH  28  32
ENDBRANCH  26  27
ENDBRANCH  25  26
ENDBRANCH  23  25
ENDBRANCH   1  23
TORSDOF 8
ENDMDL
MODEL 3
REMARK minimizedAffinity -9.77072525
REMARK  8 active torsions:
REMARK  status: ('A' for Active; 'I' for Inactive)
REMARK    1  A    between atoms: C2_2  and  C3_3 
REMARK    2  A    between atoms: C2_2  and  C9_12 
REMARK    3  A    between atoms: C3_3  and  C4_4 
REMARK    4  A    between atoms: C4_4  and  C5_5 
REMARK    5  A    between atoms: C6_6  and  C7_7 
REMARK    6  A    between atoms: C6_6  and  C8_9 
REMARK    7  A    between atoms: C7_7  and  O1_8 
REMARK    8  A    between atoms: C8_9  and  O3_11 
ROOT
HETATM    1  C9  UNL     1      -1.808  51.817 -21.553  1.00  0.00    -0.002 C 
HETATM    2  C10 UNL     1      -3.109  51.018 -21.653  1.00  0.00     0.006 C 
HETATM    3  C11 UNL     1      -3.486  50.842 -20.187  1.00  0.00     0.006 C 
HETATM    4  C12 UNL     1      -2.161  50.511 -19.487  1.00  0.00    -0.001 C 
HETATM    5  C13 UNL     1      -2.063  51.047 -18.044  1.00  0.00    -0.000 C 
HETATM    6  C14 UNL     1      -3.156  50.504 -17.127  1.00  0.00     0.006 C 
HETATM    7  C15 UNL     1      -2.904  50.949 -15.688  1.00  0.00     0.007 C 
HETATM    8  C16 UNL     1      -1.664  50.247 -15.095  1.00  0.00     0.010 C 
HETATM    9  C17 UNL     1      -1.402  50.613 -13.589  1.00  0.00     0.018 C 
HETATM   10  C18 UNL     1      -0.703  49.443 -12.861  1.00  0.00     0.023 C 
HETATM   11  C19 UNL     1      -2.716  50.870 -12.811  1.00  0.00     0.023 C 
HETATM   12  C20 UNL     1      -0.523  51.865 -13.447  1.00  0.00     0.135 C 
HETATM   13  O4  UNL     1      -0.622  52.618 -12.475  1.00  0.00    -0.297 OA
HETATM   14  C21 UNL     1       0.489  52.179 -14.519  1.00  0.00     0.080 C 
HETATM   15  C22 UNL     1       0.813  50.956 -15.348  1.00  0.00     0.018 C 
HETATM   16  C23 UNL     1      -0.439  50.446 -16.026  1.00  0.00    -0.026 A 
HETATM   17  C24 UNL     1      -0.259  49.388 -17.094  1.00  0.00     0.021 A 
HETATM   18  C25 UNL     1      -0.652  50.786 -17.526  1.00  0.00    -0.028 A 
HETATM   19  C26 UNL     1       0.405  51.552 -18.320  1.00  0.00     0.011 C 
HETATM   20  C27 UNL     1      -0.109  52.068 -19.669  1.00  0.00     0.011 C 
HETATM   21  C28 UNL     1      -1.027  51.073 -20.416  1.00  0.00    -0.036 C 
HETATM   22  C29 UNL     1      -0.183  49.887 -20.930  1.00  0.00     0.016 C 
ENDROOT
BRANCH   1  23
HETATM   23  C2  UNL     1      -1.032  52.091 -22.872  1.00  0.00    -0.014 C 
HETATM   24  C1  UNL     1       0.387  52.632 -22.687  1.00  0.00     0.010 C 
BRANCH  23  25
HETATM   25  C3  UNL     1      -1.068  50.868 -23.829  1.00  0.00     0.008 C 
BRANCH  25  26
HETATM   26  C4  UNL     1      -1.075  51.141 -25.340  1.00  0.00     0.028 C 
BRANCH  26  27
HETATM   27  C5  UNL     1       0.297  51.101 -25.957  1.00  0.00    -0.011 C 
HETATM   28  C6  UNL     1       0.873  51.989 -26.793  1.00  0.00     0.035 C 
BRANCH  28  29
HETATM   29  C7  UNL     1       2.266  51.799 -27.324  1.00  0.00     0.209 C 
BRANCH  29  30
HETATM   30  O1  UNL     1       3.056  51.067 -26.394  1.00  0.00    -0.396 OA
HETATM   31  H12 UNL     1       2.554  50.250 -26.204  1.00  0.00     0.209 HD
ENDBRANCH  29  30
ENDBRANCH  28  29
BRANCH  28  32
HETATM   32  C8  UNL     1       0.195  53.238 -27.195  1.00  0.00     0.173 C 
HETATM   33  O2  UNL     1       0.100  54.270 -26.558  1.00  0.00    -0.646 OA
BRANCH  32  34
HETATM   34  O3  UNL     1      -0.349  53.122 -28.424  1.00  0.00    -0.773 OA
HETATM   35  H13 UNL     1      -0.778  53.995 -28.561  1.00  0.00     0.167 HD
ENDBRANCH  32  34
ENDBRANCH  28  32
ENDBRANCH  26  27
ENDBRANCH  25  26
ENDBRANCH  23  25
ENDBRANCH   1  23
TORSDOF 8
ENDMDL
MODEL 4
REMARK minimizedAffinity -9.37941074
REMARK  8 active torsions:
REMARK  status: ('A' for Active; 'I' for Inactive)
REMARK    1  A    between atoms: C2_2  and  C3_3 
REMARK    2  A    between atoms: C2_2  and  C9_12 
REMARK    3  A    between atoms: C3_3  and  C4_4 
REMARK    4  A    between atoms: C4_4  and  C5_5 
REMARK    5  A    between atoms: C6_6  and  C7_7 
REMARK    6  A    between atoms: C6_6  and  C8_9 
REMARK    7  A    between atoms: C7_7  and  O1_8 
REMARK    8  A    between atoms: C8_9  and  O3_11 
ROOT
HETATM    1  C9  UNL     1      -0.766  50.956 -21.903  1.00  0.00    -0.002 C 
HETATM    2  C10 UNL     1      -0.142  49.856 -21.042  1.00  0.00     0.006 C 
HETATM    3  C11 UNL     1      -1.196  48.759 -21.116  1.00  0.00     0.006 C 
HETATM    4  C12 UNL     1      -2.533  49.500 -20.975  1.00  0.00    -0.001 C 
HETATM    5  C13 UNL     1      -3.693  48.860 -21.766  1.00  0.00    -0.000 C 
HETATM    6  C14 UNL     1      -3.979  47.420 -21.348  1.00  0.00     0.006 C 
HETATM    7  C15 UNL     1      -5.232  46.907 -22.055  1.00  0.00     0.007 C 
HETATM    8  C16 UNL     1      -6.499  47.611 -21.526  1.00  0.00     0.010 C 
HETATM    9  C17 UNL     1      -7.827  47.067 -22.168  1.00  0.00     0.018 C 
HETATM   10  C18 UNL     1      -9.006  47.214 -21.180  1.00  0.00     0.023 C 
HETATM   11  C19 UNL     1      -7.742  45.558 -22.503  1.00  0.00     0.023 C 
HETATM   12  C20 UNL     1      -8.186  47.812 -23.463  1.00  0.00     0.135 C 
HETATM   13  O4  UNL     1      -8.812  47.263 -24.373  1.00  0.00    -0.297 OA
HETATM   14  C21 UNL     1      -7.768  49.252 -23.623  1.00  0.00     0.080 C 
HETATM   15  C22 UNL     1      -7.463  49.891 -22.287  1.00  0.00     0.018 C 
HETATM   16  C23 UNL     1      -6.331  49.152 -21.609  1.00  0.00    -0.026 A 
HETATM   17  C24 UNL     1      -5.721  49.802 -20.385  1.00  0.00     0.021 A 
HETATM   18  C25 UNL     1      -4.909  49.774 -21.664  1.00  0.00    -0.028 A 
HETATM   19  C26 UNL     1      -4.668  51.132 -22.321  1.00  0.00     0.011 C 
HETATM   20  C27 UNL     1      -3.183  51.430 -22.564  1.00  0.00     0.011 C 
HETATM   21  C28 UNL     1      -2.254  50.984 -21.411  1.00  0.00    -0.036 C 
HETATM   22  C29 UNL     1      -2.478  51.902 -20.190  1.00  0.00     0.016 C 
ENDROOT
BRANCH   1  23
HETATM   23  C2  UNL     1      -0.026  52.322 -21.970  1.00  0.00    -0.014 C 
HETATM   24  C1  UNL     1       1.171  52.455 -21.027  1.00  0.00     0.010 C 
BRANCH  23  25
HETATM   25  C3  UNL     1       0.336  52.712 -23.428  1.00  0.00     0.008 C 
BRANCH  25  26
HETATM   26  C4  UNL     1      -0.217  51.836 -24.562  1.00  0.00     0.028 C 
BRANCH  26  27
HETATM   27  C5  UNL     1       0.770  51.612 -25.676  1.00  0.00    -0.011 C 
HETATM   28  C6  UNL     1       0.892  52.280 -26.841  1.00  0.00     0.035 C 
BRANCH  28  29
HETATM   29  C7  UNL     1       1.942  51.927 -27.858  1.00  0.00     0.209 C 
BRANCH  29  30
HETATM   30  O1  UNL     1       3.233  51.939 -27.261  1.00  0.00    -0.396 OA
HETATM   31  H12 UNL     1       3.173  51.348 -26.484  1.00  0.00     0.209 HD
ENDBRANCH  29  30
ENDBRANCH  28  29
BRANCH  28  32
HETATM   32  C8  UNL     1       0.041  53.442 -27.171  1.00  0.00     0.173 C 
HETATM   33  O2  UNL     1       0.126  54.572 -26.731  1.00  0.00    -0.646 OA
BRANCH  32  34
HETATM   34  O3  UNL     1      -0.907  53.110 -28.071  1.00  0.00    -0.773 OA
HETATM   35  H13 UNL     1      -1.407  53.947 -28.187  1.00  0.00     0.167 HD
ENDBRANCH  32  34
ENDBRANCH  28  32
ENDBRANCH  26  27
ENDBRANCH  25  26
ENDBRANCH  23  25
ENDBRANCH   1  23
TORSDOF 8
ENDMDL
MODEL 5
REMARK minimizedAffinity -9.28717041
REMARK  8 active torsions:
REMARK  status: ('A' for Active; 'I' for Inactive)
REMARK    1  A    between atoms: C2_2  and  C3_3 
REMARK    2  A    between atoms: C2_2  and  C9_12 
REMARK    3  A    between atoms: C3_3  and  C4_4 
REMARK    4  A    between atoms: C4_4  and  C5_5 
REMARK    5  A    between atoms: C6_6  and  C7_7 
REMARK    6  A    between atoms: C6_6  and  C8_9 
REMARK    7  A    between atoms: C7_7  and  O1_8 
REMARK    8  A    between atoms: C8_9  and  O3_11 
ROOT
HETATM    1  C9  UNL     1       0.245  52.202 -23.218  1.00  0.00    -0.002 C 
HETATM    2  C10 UNL     1       0.572  53.126 -22.043  1.00  0.00     0.006 C 
HETATM    3  C11 UNL     1       0.112  52.297 -20.851  1.00  0.00     0.006 C 
HETATM    4  C12 UNL     1      -1.222  51.685 -21.299  1.00  0.00    -0.001 C 
HETATM    5  C13 UNL     1      -1.498  50.284 -20.716  1.00  0.00    -0.000 C 
HETATM    6  C14 UNL     1      -1.534  50.266 -19.191  1.00  0.00     0.006 C 
HETATM    7  C15 UNL     1      -1.965  48.889 -18.691  1.00  0.00     0.007 C 
HETATM    8  C16 UNL     1      -3.451  48.619 -19.011  1.00  0.00     0.010 C 
HETATM    9  C17 UNL     1      -3.968  47.244 -18.453  1.00  0.00     0.018 C 
HETATM   10  C18 UNL     1      -5.478  47.322 -18.135  1.00  0.00     0.023 C 
HETATM   11  C19 UNL     1      -3.276  46.852 -17.124  1.00  0.00     0.023 C 
HETATM   12  C20 UNL     1      -3.744  46.097 -19.451  1.00  0.00     0.135 C 
HETATM   13  O4  UNL     1      -3.564  44.937 -19.074  1.00  0.00    -0.297 OA
HETATM   14  C21 UNL     1      -3.748  46.397 -20.928  1.00  0.00     0.080 C 
HETATM   15  C22 UNL     1      -4.441  47.709 -21.224  1.00  0.00     0.018 C 
HETATM   16  C23 UNL     1      -3.722  48.841 -20.523  1.00  0.00    -0.026 A 
HETATM   17  C24 UNL     1      -4.119  50.249 -20.910  1.00  0.00     0.021 A 
HETATM   18  C25 UNL     1      -2.767  49.734 -21.359  1.00  0.00    -0.028 A 
HETATM   19  C26 UNL     1      -2.609  49.527 -22.865  1.00  0.00     0.011 C 
HETATM   20  C27 UNL     1      -1.406  50.273 -23.454  1.00  0.00     0.011 C 
HETATM   21  C28 UNL     1      -1.195  51.689 -22.870  1.00  0.00    -0.036 C 
HETATM   22  C29 UNL     1      -2.315  52.622 -23.376  1.00  0.00     0.016 C 
ENDROOT
BRANCH   1  23
HETATM   23  C2  UNL     1       0.460  52.763 -24.652  1.00  0.00    -0.014 C 
HETATM   24  C1  UNL     1       0.607  54.283 -24.737  1.00  0.00     0.010 C 
BRANCH  23  25
HETATM   25  C3  UNL     1       1.608  52.025 -25.394  1.00  0.00     0.008 C 
BRANCH  25  26
HETATM   26  C4  UNL     1       1.325  51.500 -26.810  1.00  0.00     0.028 C 
BRANCH  26  27
HETATM   27  C5  UNL     1      -0.002  50.799 -26.929  1.00  0.00    -0.011 C 
HETATM   28  C6  UNL     1      -1.191  51.302 -27.316  1.00  0.00     0.035 C 
BRANCH  28  29
HETATM   29  C7  UNL     1      -2.433  50.459 -27.380  1.00  0.00     0.209 C 
BRANCH  29  30
HETATM   30  O1  UNL     1      -3.098  50.651 -28.624  1.00  0.00    -0.396 OA
HETATM   31  H12 UNL     1      -2.427  50.479 -29.314  1.00  0.00     0.209 HD
ENDBRANCH  29  30
ENDBRANCH  28  29
BRANCH  28  32
HETATM   32  C8  UNL     1      -1.340  52.704 -27.761  1.00  0.00     0.173 C 
HETATM   33  O2  UNL     1      -2.201  53.498 -27.434  1.00  0.00    -0.646 OA
BRANCH  32  34
HETATM   34  O3  UNL     1      -0.362  53.046 -28.624  1.00  0.00    -0.773 OA
HETATM   35  H13 UNL     1      -0.584  53.975 -28.854  1.00  0.00     0.167 HD
ENDBRANCH  32  34
ENDBRANCH  28  32
ENDBRANCH  26  27
ENDBRANCH  25  26
ENDBRANCH  23  25
ENDBRANCH   1  23
TORSDOF 8
ENDMDL
MODEL 6
REMARK minimizedAffinity -9.2012949
REMARK  8 active torsions:
REMARK  status: ('A' for Active; 'I' for Inactive)
REMARK    1  A    between atoms: C2_2  and  C3_3 
REMARK    2  A    between atoms: C2_2  and  C9_12 
REMARK    3  A    between atoms: C3_3  and  C4_4 
REMARK    4  A    between atoms: C4_4  and  C5_5 
REMARK    5  A    between atoms: C6_6  and  C7_7 
REMARK    6  A    between atoms: C6_6  and  C8_9 
REMARK    7  A    between atoms: C7_7  and  O1_8 
REMARK    8  A    between atoms: C8_9  and  O3_11 
ROOT
HETATM    1  C9  UNL     1      -0.056  51.932 -21.075  1.00  0.00    -0.002 C 
HETATM    2  C10 UNL     1       0.272  53.404 -20.819  1.00  0.00     0.006 C 
HETATM    3  C11 UNL     1       0.983  53.342 -19.473  1.00  0.00     0.006 C 
HETATM    4  C12 UNL     1       0.158  52.344 -18.649  1.00  0.00    -0.001 C 
HETATM    5  C13 UNL     1       0.992  51.510 -17.654  1.00  0.00    -0.000 C 
HETATM    6  C14 UNL     1       1.736  52.366 -16.633  1.00  0.00     0.006 C 
HETATM    7  C15 UNL     1       2.408  51.474 -15.591  1.00  0.00     0.007 C 
HETATM    8  C16 UNL     1       1.364  50.794 -14.680  1.00  0.00     0.010 C 
HETATM    9  C17 UNL     1       2.004  49.922 -13.541  1.00  0.00     0.018 C 
HETATM   10  C18 UNL     1       1.079  49.880 -12.305  1.00  0.00     0.023 C 
HETATM   11  C19 UNL     1       3.350  50.503 -13.043  1.00  0.00     0.023 C 
HETATM   12  C20 UNL     1       2.262  48.477 -13.999  1.00  0.00     0.135 C 
HETATM   13  O4  UNL     1       3.182  47.804 -13.529  1.00  0.00    -0.297 OA
HETATM   14  C21 UNL     1       1.366  47.867 -15.046  1.00  0.00     0.080 C 
HETATM   15  C22 UNL     1       0.053  48.611 -15.152  1.00  0.00     0.018 C 
HETATM   16  C23 UNL     1       0.306  50.051 -15.540  1.00  0.00    -0.026 A 
HETATM   17  C24 UNL     1      -0.898  50.876 -15.941  1.00  0.00     0.021 A 
HETATM   18  C25 UNL     1       0.082  50.463 -17.020  1.00  0.00    -0.028 A 
HETATM   19  C26 UNL     1      -0.450  49.463 -18.046  1.00  0.00     0.011 C 
HETATM   20  C27 UNL     1      -0.303  49.947 -19.493  1.00  0.00     0.011 C 
HETATM   21  C28 UNL     1      -0.608  51.450 -19.689  1.00  0.00    -0.036 C 
HETATM   22  C29 UNL     1      -2.123  51.691 -19.519  1.00  0.00     0.016 C 
ENDROOT
BRANCH   1  23
HETATM   23  C2  UNL     1      -0.915  51.595 -22.326  1.00  0.00    -0.014 C 
HETATM   24  C1  UNL     1      -2.424  51.752 -22.135  1.00  0.00     0.010 C 
BRANCH  23  25
HETATM   25  C3  UNL     1      -0.408  52.339 -23.592  1.00  0.00     0.008 C 
BRANCH  25  26
HETATM   26  C4  UNL     1      -0.040  51.493 -24.820  1.00  0.00     0.028 C 
BRANCH  26  27
HETATM   27  C5  UNL     1      -1.195  50.692 -25.358  1.00  0.00    -0.011 C 
HETATM   28  C6  UNL     1      -1.969  50.944 -26.433  1.00  0.00     0.035 C 
BRANCH  28  29
HETATM   29  C7  UNL     1      -3.095  50.035 -26.838  1.00  0.00     0.209 C 
BRANCH  29  30
HETATM   30  O1  UNL     1      -2.753  48.678 -26.578  1.00  0.00    -0.396 OA
HETATM   31  H12 UNL     1      -2.493  48.645 -25.636  1.00  0.00     0.209 HD
ENDBRANCH  29  30
ENDBRANCH  28  29
BRANCH  28  32
HETATM   32  C8  UNL     1      -1.725  52.102 -27.318  1.00  0.00     0.173 C 
HETATM   33  O2  UNL     1      -2.245  53.200 -27.264  1.00  0.00    -0.646 OA
BRANCH  32  34
HETATM   34  O3  UNL     1      -0.805  51.808 -28.260  1.00  0.00    -0.773 OA
HETATM   35  H13 UNL     1      -0.752  52.637 -28.784  1.00  0.00     0.167 HD
ENDBRANCH  32  34
ENDBRANCH  28  32
ENDBRANCH  26  27
ENDBRANCH  25  26
ENDBRANCH  23  25
ENDBRANCH   1  23
TORSDOF 8
ENDMDL
MODEL 7
REMARK minimizedAffinity -9.18887043
REMARK  8 active torsions:
REMARK  status: ('A' for Active; 'I' for Inactive)
REMARK    1  A    between atoms: C2_2  and  C3_3 
REMARK    2  A    between atoms: C2_2  and  C9_12 
REMARK    3  A    between atoms: C3_3  and  C4_4 
REMARK    4  A    between atoms: C4_4  and  C5_5 
REMARK    5  A    between atoms: C6_6  and  C7_7 
REMARK    6  A    between atoms: C6_6  and  C8_9 
REMARK    7  A    between atoms: C7_7  and  O1_8 
REMARK    8  A    between atoms: C8_9  and  O3_11 
ROOT
HETATM    1  C9  UNL     1      -1.947  50.623 -17.161  1.00  0.00    -0.002 C 
HETATM    2  C10 UNL     1      -0.430  50.720 -16.988  1.00  0.00     0.006 C 
HETATM    3  C11 UNL     1       0.016  51.193 -18.365  1.00  0.00     0.006 C 
HETATM    4  C12 UNL     1      -0.827  50.368 -19.348  1.00  0.00    -0.001 C 
HETATM    5  C13 UNL     1      -1.187  51.117 -20.647  1.00  0.00    -0.000 C 
HETATM    6  C14 UNL     1       0.037  51.567 -21.439  1.00  0.00     0.006 C 
HETATM    7  C15 UNL     1      -0.392  52.155 -22.781  1.00  0.00     0.007 C 
HETATM    8  C16 UNL     1      -0.947  51.062 -23.719  1.00  0.00     0.010 C 
HETATM    9  C17 UNL     1      -1.335  51.602 -25.143  1.00  0.00     0.018 C 
HETATM   10  C18 UNL     1      -1.175  50.492 -26.205  1.00  0.00     0.023 C 
HETATM   11  C19 UNL     1      -0.418  52.762 -25.601  1.00  0.00     0.023 C 
HETATM   12  C20 UNL     1      -2.786  52.108 -25.190  1.00  0.00     0.135 C 
HETATM   13  O4  UNL     1      -3.132  53.010 -25.956  1.00  0.00    -0.297 OA
HETATM   14  C21 UNL     1      -3.812  51.485 -24.279  1.00  0.00     0.080 C 
HETATM   15  C22 UNL     1      -3.361  50.128 -23.785  1.00  0.00     0.018 C 
HETATM   16  C23 UNL     1      -2.072  50.265 -23.006  1.00  0.00    -0.026 A 
HETATM   17  C24 UNL     1      -1.611  49.055 -22.222  1.00  0.00     0.021 A 
HETATM   18  C25 UNL     1      -2.145  50.247 -21.455  1.00  0.00    -0.028 A 
HETATM   19  C26 UNL     1      -3.472  50.023 -20.730  1.00  0.00     0.011 C 
HETATM   20  C27 UNL     1      -3.407  50.354 -19.235  1.00  0.00     0.011 C 
HETATM   21  C28 UNL     1      -2.096  49.905 -18.547  1.00  0.00    -0.036 C 
HETATM   22  C29 UNL     1      -2.075  48.365 -18.444  1.00  0.00     0.016 C 
ENDROOT
BRANCH   1  23
HETATM   23  C2  UNL     1      -2.768  50.036 -15.978  1.00  0.00    -0.014 C 
HETATM   24  C1  UNL     1      -2.202  48.750 -15.373  1.00  0.00     0.010 C 
BRANCH  23  25
HETATM   25  C3  UNL     1      -3.064  51.108 -14.893  1.00  0.00     0.008 C 
BRANCH  25  26
HETATM   26  C4  UNL     1      -2.974  50.680 -13.421  1.00  0.00     0.028 C 
BRANCH  26  27
HETATM   27  C5  UNL     1      -2.049  51.545 -12.607  1.00  0.00    -0.011 C 
HETATM   28  C6  UNL     1      -2.347  52.621 -11.851  1.00  0.00     0.035 C 
BRANCH  28  29
HETATM   29  C7  UNL     1      -1.295  53.382 -11.094  1.00  0.00     0.209 C 
BRANCH  29  30
HETATM   30  O1  UNL     1      -1.703  54.731 -10.899  1.00  0.00    -0.396 OA
HETATM   31  H12 UNL     1      -2.585  54.684 -10.479  1.00  0.00     0.209 HD
ENDBRANCH  29  30
ENDBRANCH  28  29
BRANCH  28  32
HETATM   32  C8  UNL     1      -3.737  53.089 -11.669  1.00  0.00     0.173 C 
HETATM   33  O2  UNL     1      -4.518  52.770 -10.793  1.00  0.00    -0.646 OA
BRANCH  32  34
HETATM   34  O3  UNL     1      -4.084  53.965 -12.632  1.00  0.00    -0.773 OA
HETATM   35  H13 UNL     1      -5.017  54.179 -12.413  1.00  0.00     0.167 HD
ENDBRANCH  32  34
ENDBRANCH  28  32
ENDBRANCH  26  27
ENDBRANCH  25  26
ENDBRANCH  23  25
ENDBRANCH   1  23
TORSDOF 8
ENDMDL
MODEL 8
REMARK minimizedAffinity -9.09125042
REMARK  8 active torsions:
REMARK  status: ('A' for Active; 'I' for Inactive)
REMARK    1  A    between atoms: C2_2  and  C3_3 
REMARK    2  A    between atoms: C2_2  and  C9_12 
REMARK    3  A    between atoms: C3_3  and  C4_4 
REMARK    4  A    between atoms: C4_4  and  C5_5 
REMARK    5  A    between atoms: C6_6  and  C7_7 
REMARK    6  A    between atoms: C6_6  and  C8_9 
REMARK    7  A    between atoms: C7_7  and  O1_8 
REMARK    8  A    between atoms: C8_9  and  O3_11 
ROOT
HETATM    1  C9  UNL     1      -6.761  49.320 -21.895  1.00  0.00    -0.002 C 
HETATM    2  C10 UNL     1      -6.266  49.782 -20.524  1.00  0.00     0.006 C 
HETATM    3  C11 UNL     1      -5.120  50.714 -20.899  1.00  0.00     0.006 C 
HETATM    4  C12 UNL     1      -4.386  49.985 -22.033  1.00  0.00    -0.001 C 
HETATM    5  C13 UNL     1      -3.764  50.925 -23.085  1.00  0.00    -0.000 C 
HETATM    6  C14 UNL     1      -2.742  51.893 -22.494  1.00  0.00     0.006 C 
HETATM    7  C15 UNL     1      -2.056  52.679 -23.610  1.00  0.00     0.007 C 
HETATM    8  C16 UNL     1      -1.132  51.770 -24.447  1.00  0.00     0.010 C 
HETATM    9  C17 UNL     1      -0.343  52.543 -25.564  1.00  0.00     0.018 C 
HETATM   10  C18 UNL     1       1.007  51.850 -25.853  1.00  0.00     0.023 C 
HETATM   11  C19 UNL     1       0.007  53.991 -25.140  1.00  0.00     0.023 C 
HETATM   12  C20 UNL     1      -1.136  52.622 -26.878  1.00  0.00     0.135 C 
HETATM   13  O4  UNL     1      -0.999  53.564 -27.661  1.00  0.00    -0.297 OA
HETATM   14  C21 UNL     1      -2.103  51.517 -27.221  1.00  0.00     0.080 C 
HETATM   15  C22 UNL     1      -1.802  50.257 -26.439  1.00  0.00     0.018 C 
HETATM   16  C23 UNL     1      -1.917  50.531 -24.956  1.00  0.00    -0.026 A 
HETATM   17  C24 UNL     1      -1.902  49.331 -24.033  1.00  0.00     0.021 A 
HETATM   18  C25 UNL     1      -3.207  50.076 -24.223  1.00  0.00    -0.028 A 
HETATM   19  C26 UNL     1      -4.304  49.307 -24.959  1.00  0.00     0.011 C 
HETATM   20  C27 UNL     1      -5.617  49.226 -24.172  1.00  0.00     0.011 C 
HETATM   21  C28 UNL     1      -5.430  48.990 -22.655  1.00  0.00    -0.036 C 
HETATM   22  C29 UNL     1      -4.933  47.548 -22.421  1.00  0.00     0.016 C 
ENDROOT
BRANCH   1  23
HETATM   23  C2  UNL     1      -7.872  48.233 -21.927  1.00  0.00    -0.014 C 
HETATM   24  C1  UNL     1      -8.723  48.140 -20.658  1.00  0.00     0.010 C 
BRANCH  23  25
HETATM   25  C3  UNL     1      -8.746  48.337 -23.206  1.00  0.00     0.008 C 
BRANCH  25  26
HETATM   26  C4  UNL     1      -8.943  47.065 -24.044  1.00  0.00     0.028 C 
BRANCH  26  27
HETATM   27  C5  UNL     1      -8.454  47.205 -25.461  1.00  0.00    -0.011 C 
HETATM   28  C6  UNL     1      -8.961  47.956 -26.459  1.00  0.00     0.035 C 
BRANCH  28  29
HETATM   29  C7  UNL     1      -8.348  47.983 -27.830  1.00  0.00     0.209 C 
BRANCH  29  30
HETATM   30  O1  UNL     1      -8.617  49.226 -28.469  1.00  0.00    -0.396 OA
HETATM   31  H12 UNL     1      -8.310  49.916 -27.848  1.00  0.00     0.209 HD
ENDBRANCH  29  30
ENDBRANCH  28  29
BRANCH  28  32
HETATM   32  C8  UNL     1     -10.121  48.849 -26.254  1.00  0.00     0.173 C 
HETATM   33  O2  UNL     1     -11.299  48.546 -26.251  1.00  0.00    -0.646 OA
BRANCH  32  34
HETATM   34  O3  UNL     1      -9.725  50.122 -26.056  1.00  0.00    -0.773 OA
HETATM   35  H13 UNL     1     -10.574  50.607 -25.956  1.00  0.00     0.167 HD
ENDBRANCH  32  34
ENDBRANCH  28  32
ENDBRANCH  26  27
ENDBRANCH  25  26
ENDBRANCH  23  25
ENDBRANCH   1  23
TORSDOF 8
ENDMDL
MODEL 9
REMARK minimizedAffinity -8.94264412
REMARK  8 active torsions:
REMARK  status: ('A' for Active; 'I' for Inactive)
REMARK    1  A    between atoms: C2_2  and  C3_3 
REMARK    2  A    between atoms: C2_2  and  C9_12 
REMARK    3  A    between atoms: C3_3  and  C4_4 
REMARK    4  A    between atoms: C4_4  and  C5_5 
REMARK    5  A    between atoms: C6_6  and  C7_7 
REMARK    6  A    between atoms: C6_6  and  C8_9 
REMARK    7  A    between atoms: C7_7  and  O1_8 
REMARK    8  A    between atoms: C8_9  and  O3_11 
ROOT
HETATM    1  C9  UNL     1      -4.672  48.059 -22.107  1.00  0.00    -0.002 C 
HETATM    2  C10 UNL     1      -5.614  47.722 -23.264  1.00  0.00     0.006 C 
HETATM    3  C11 UNL     1      -4.829  48.225 -24.469  1.00  0.00     0.006 C 
HETATM    4  C12 UNL     1      -4.247  49.571 -24.014  1.00  0.00    -0.001 C 
HETATM    5  C13 UNL     1      -2.869  49.898 -24.627  1.00  0.00    -0.000 C 
HETATM    6  C14 UNL     1      -2.891  49.958 -26.151  1.00  0.00     0.006 C 
HETATM    7  C15 UNL     1      -1.540  50.439 -26.677  1.00  0.00     0.007 C 
HETATM    8  C16 UNL     1      -1.308  51.927 -26.341  1.00  0.00     0.010 C 
HETATM    9  C17 UNL     1       0.037  52.495 -26.924  1.00  0.00     0.018 C 
HETATM   10  C18 UNL     1      -0.095  54.006 -27.216  1.00  0.00     0.023 C 
HETATM   11  C19 UNL     1       0.417  51.836 -28.272  1.00  0.00     0.023 C 
HETATM   12  C20 UNL     1       1.214  52.291 -25.957  1.00  0.00     0.135 C 
HETATM   13  O4  UNL     1       2.369  52.153 -26.365  1.00  0.00    -0.297 OA
HETATM   14  C21 UNL     1       0.951  52.264 -24.473  1.00  0.00     0.080 C 
HETATM   15  C22 UNL     1      -0.374  52.911 -24.135  1.00  0.00     0.018 C 
HETATM   16  C23 UNL     1      -1.500  52.169 -24.819  1.00  0.00    -0.026 A 
HETATM   17  C24 UNL     1      -2.910  52.516 -24.392  1.00  0.00     0.021 A 
HETATM   18  C25 UNL     1      -2.343  51.174 -23.977  1.00  0.00    -0.028 A 
HETATM   19  C26 UNL     1      -2.094  50.999 -22.479  1.00  0.00     0.011 C 
HETATM   20  C27 UNL     1      -2.788  49.765 -21.892  1.00  0.00     0.011 C 
HETATM   21  C28 UNL     1      -4.212  49.519 -22.445  1.00  0.00    -0.036 C 
HETATM   22  C29 UNL     1      -5.165  50.603 -21.898  1.00  0.00     0.016 C 
ENDROOT
BRANCH   1  23
HETATM   23  C2  UNL     1      -5.189  47.805 -20.663  1.00  0.00    -0.014 C 
HETATM   24  C1  UNL     1      -4.994  46.378 -20.149  1.00  0.00     0.010 C 
BRANCH  23  25
HETATM   25  C3  UNL     1      -4.651  48.863 -19.662  1.00  0.00     0.008 C 
BRANCH  25  26
HETATM   26  C4  UNL     1      -4.123  48.364 -18.309  1.00  0.00     0.028 C 
BRANCH  26  27
HETATM   27  C5  UNL     1      -2.638  48.547 -18.147  1.00  0.00    -0.011 C 
HETATM   28  C6  UNL     1      -1.961  49.644 -17.750  1.00  0.00     0.035 C 
BRANCH  28  29
HETATM   29  C7  UNL     1      -0.462  49.662 -17.641  1.00  0.00     0.209 C 
BRANCH  29  30
HETATM   30  O1  UNL     1      -0.010  48.572 -16.846  1.00  0.00    -0.396 OA
HETATM   31  H12 UNL     1      -0.401  47.770 -17.246  1.00  0.00     0.209 HD
ENDBRANCH  29  30
ENDBRANCH  28  29
BRANCH  28  32
HETATM   32  C8  UNL     1      -2.652  50.884 -17.339  1.00  0.00     0.173 C 
HETATM   33  O2  UNL     1      -3.019  51.193 -16.222  1.00  0.00    -0.646 OA
BRANCH  32  34
HETATM   34  O3  UNL     1      -2.850  51.701 -18.393  1.00  0.00    -0.773 OA
HETATM   35  H13 UNL     1      -3.326  52.464 -17.997  1.00  0.00     0.167 HD
ENDBRANCH  32  34
ENDBRANCH  28  32
ENDBRANCH  26  27
ENDBRANCH  25  26
ENDBRANCH  23  25
ENDBRANCH   1  23
TORSDOF 8
ENDMDL
