MODEL 1
REMARK minimizedAffinity -7.3131094
REMARK CNNscore 0.653017819
REMARK CNNaffinity 6.21146631
REMARK  8 active torsions:
REMARK  status: ('A' for Active; 'I' for Inactive)
REMARK    1  A    between atoms: C2_2  and  C3_3 
REMARK    2  A    between atoms: C2_2  and  C28_31 
REMARK    3  A    between atoms: C3_3  and  C4_4 
REMARK    4  A    between atoms: C4_4  and  O1_5 
REMARK    5  A    between atoms: C4_4  and  C5_6 
REMARK    6  A    between atoms: C5_6  and  C7_8 
REMARK    7  A    between atoms: C21_22  and  C23_24 
REMARK    8  A    between atoms: C23_24  and  O3_26 
ROOT
HETATM    1  C7  UNL     1     -10.120  46.895 -27.411  1.00  0.00     0.001 C 
HETATM    2  C8  UNL     1     -10.418  46.723 -28.937  1.00  0.00     0.007 C 
HETATM    3  C9  UNL     1     -11.876  46.252 -29.074  1.00  0.00     0.015 C 
HETATM    4  C10 UNL     1     -12.513  46.584 -27.717  1.00  0.00    -0.013 C 
HETATM    5  C11 UNL     1     -12.879  48.103 -27.738  1.00  0.00     0.021 C 
HETATM    6  C12 UNL     1     -13.806  45.884 -27.318  1.00  0.00    -0.068 C 
HETATM    7  C13 UNL     1     -14.085  45.706 -25.999  1.00  0.00    -0.068 C 
HETATM    8  C14 UNL     1     -13.104  46.075 -24.892  1.00  0.00     0.036 C 
HETATM    9  C15 UNL     1     -11.744  46.662 -25.332  1.00  0.00     0.015 C 
HETATM   10  C16 UNL     1     -11.336  46.183 -26.735  1.00  0.00    -0.029 C 
HETATM   11  C17 UNL     1     -11.099  44.646 -26.675  1.00  0.00     0.016 C 
HETATM   12  C18 UNL     1     -15.390  45.039 -25.578  1.00  0.00    -0.015 C 
HETATM   13  C19 UNL     1     -15.094  43.528 -25.418  1.00  0.00     0.020 C 
HETATM   14  C20 UNL     1     -16.098  45.572 -24.309  1.00  0.00     0.034 C 
HETATM   15  C21 UNL     1     -17.619  45.301 -24.521  1.00  0.00     0.043 C 
HETATM   16  C22 UNL     1     -18.136  44.187 -23.601  1.00  0.00     0.027 C 
HETATM   17  C24 UNL     1     -17.768  44.885 -26.010  1.00  0.00     0.025 C 
HETATM   18  C25 UNL     1     -16.465  45.369 -26.634  1.00  0.00    -0.001 C 
HETATM   19  C26 UNL     1     -16.086  44.840 -28.002  1.00  0.00     0.010 C 
HETATM   20  C27 UNL     1     -14.759  45.484 -28.440  1.00  0.00     0.036 C 
ENDROOT
BRANCH   1  21
HETATM   21  C5  UNL     1      -8.617  46.623 -27.078  1.00  0.00     0.015 C 
HETATM   22  C6  UNL     1      -8.336  45.711 -25.872  1.00  0.00     0.013 C 
BRANCH  21  23
HETATM   23  C4  UNL     1      -7.687  47.865 -27.003  1.00  0.00     0.126 C 
BRANCH  23  24
HETATM   24  C3  UNL     1      -6.185  47.519 -26.962  1.00  0.00     0.065 C 
BRANCH  24  25
HETATM   25  C2  UNL     1      -5.466  48.133 -25.766  1.00  0.00    -0.083 C 
HETATM   26  C1  UNL     1      -6.136  48.371 -24.625  1.00  0.00     0.015 C 
BRANCH  25  27
HETATM   27  C28 UNL     1      -3.993  48.476 -25.973  1.00  0.00     0.005 C 
HETATM   28  C29 UNL     1      -3.628  48.386 -27.458  1.00  0.00     0.014 C 
HETATM   29  C30 UNL     1      -3.579  49.842 -25.411  1.00  0.00     0.014 C 
ENDBRANCH  25  27
ENDBRANCH  24  25
ENDBRANCH  23  24
BRANCH  23  30
HETATM   30  O1  UNL     1      -7.967  48.747 -28.087  1.00  0.00    -0.395 OA
HETATM   31  H6  UNL     1      -7.401  49.531 -27.967  1.00  0.00     0.210 HD
ENDBRANCH  23  30
ENDBRANCH  21  23
ENDBRANCH   1  21
BRANCH  15  32
HETATM   32  C23 UNL     1     -18.406  46.574 -24.213  1.00  0.00     0.148 C 
HETATM   33  O2  UNL     1     -18.815  47.391 -25.024  1.00  0.00    -0.649 OA
BRANCH  32  34
HETATM   34  O3  UNL     1     -18.683  46.745 -22.907  1.00  0.00    -0.776 OA
HETATM   35  H34 UNL     1     -19.196  47.579 -22.879  1.00  0.00     0.167 HD
ENDBRANCH  32  34
ENDBRANCH  15  32
TORSDOF 8
ENDMDL
MODEL 2
REMARK minimizedAffinity -6.98208284
REMARK CNNscore 0.50539583
REMARK CNNaffinity 6.10739756
REMARK  8 active torsions:
REMARK  status: ('A' for Active; 'I' for Inactive)
REMARK    1  A    between atoms: C2_2  and  C3_3 
REMARK    2  A    between atoms: C2_2  and  C28_31 
REMARK    3  A    between atoms: C3_3  and  C4_4 
REMARK    4  A    between atoms: C4_4  and  O1_5 
REMARK    5  A    between atoms: C4_4  and  C5_6 
REMARK    6  A    between atoms: C5_6  and  C7_8 
REMARK    7  A    between atoms: C21_22  and  C23_24 
REMARK    8  A    between atoms: C23_24  and  O3_26 
ROOT
HETATM    1  C7  UNL     1       3.667  67.138 -35.568  1.00  0.00     0.001 C 
HETATM    2  C8  UNL     1       2.610  65.986 -35.624  1.00  0.00     0.007 C 
HETATM    3  C9  UNL     1       3.361  64.660 -35.414  1.00  0.00     0.015 C 
HETATM    4  C10 UNL     1       4.710  65.076 -34.811  1.00  0.00    -0.013 C 
HETATM    5  C11 UNL     1       4.477  65.321 -33.285  1.00  0.00     0.021 C 
HETATM    6  C12 UNL     1       5.877  64.098 -34.868  1.00  0.00    -0.068 C 
HETATM    7  C13 UNL     1       7.148  64.581 -34.881  1.00  0.00    -0.068 C 
HETATM    8  C14 UNL     1       7.462  66.071 -34.954  1.00  0.00     0.036 C 
HETATM    9  C15 UNL     1       6.257  67.036 -35.029  1.00  0.00     0.015 C 
HETATM   10  C16 UNL     1       5.026  66.372 -35.666  1.00  0.00    -0.029 C 
HETATM   11  C17 UNL     1       5.360  66.047 -37.150  1.00  0.00     0.016 C 
HETATM   12  C18 UNL     1       8.330  63.619 -34.902  1.00  0.00    -0.015 C 
HETATM   13  C19 UNL     1       8.710  63.405 -36.388  1.00  0.00     0.020 C 
HETATM   14  C20 UNL     1       9.590  64.001 -34.089  1.00  0.00     0.034 C 
HETATM   15  C21 UNL     1      10.257  62.655 -33.673  1.00  0.00     0.043 C 
HETATM   16  C22 UNL     1      11.569  62.408 -34.432  1.00  0.00     0.027 C 
HETATM   17  C24 UNL     1       9.221  61.550 -34.012  1.00  0.00     0.025 C 
HETATM   18  C25 UNL     1       7.921  62.331 -34.158  1.00  0.00    -0.001 C 
HETATM   19  C26 UNL     1       6.745  61.648 -34.827  1.00  0.00     0.010 C 
HETATM   20  C27 UNL     1       5.544  62.610 -34.835  1.00  0.00     0.036 C 
ENDROOT
BRANCH   1  21
HETATM   21  C5  UNL     1       3.252  68.352 -36.463  1.00  0.00     0.015 C 
HETATM   22  C6  UNL     1       3.958  69.688 -36.178  1.00  0.00     0.013 C 
BRANCH  21  23
HETATM   23  C4  UNL     1       1.727  68.606 -36.622  1.00  0.00     0.126 C 
BRANCH  23  24
HETATM   24  C3  UNL     1       1.329  70.093 -36.532  1.00  0.00     0.065 C 
BRANCH  24  25
HETATM   25  C2  UNL     1      -0.002  70.310 -35.821  1.00  0.00    -0.083 C 
HETATM   26  C1  UNL     1      -1.156  70.207 -36.504  1.00  0.00     0.015 C 
BRANCH  25  27
HETATM   27  C28 UNL     1       0.079  70.676 -34.342  1.00  0.00     0.005 C 
HETATM   28  C29 UNL     1       1.470  71.221 -34.003  1.00  0.00     0.014 C 
HETATM   29  C30 UNL     1      -1.000  71.660 -33.875  1.00  0.00     0.014 C 
ENDBRANCH  25  27
ENDBRANCH  24  25
ENDBRANCH  23  24
BRANCH  23  30
HETATM   30  O1  UNL     1       1.265  68.039 -37.846  1.00  0.00    -0.395 OA
HETATM   31  H6  UNL     1       0.301  68.176 -37.874  1.00  0.00     0.210 HD
ENDBRANCH  23  30
ENDBRANCH  21  23
ENDBRANCH   1  21
BRANCH  15  32
HETATM   32  C23 UNL     1      10.573  62.688 -32.179  1.00  0.00     0.148 C 
HETATM   33  O2  UNL     1      11.190  63.559 -31.585  1.00  0.00    -0.649 OA
BRANCH  32  34
HETATM   34  O3  UNL     1      10.066  61.651 -31.487  1.00  0.00    -0.776 OA
HETATM   35  H34 UNL     1      10.337  61.827 -30.562  1.00  0.00     0.167 HD
ENDBRANCH  32  34
ENDBRANCH  15  32
TORSDOF 8
ENDMDL
MODEL 3
REMARK minimizedAffinity -8.84269524
REMARK CNNscore 0.423265278
REMARK CNNaffinity 7.27279329
REMARK  8 active torsions:
REMARK  status: ('A' for Active; 'I' for Inactive)
REMARK    1  A    between atoms: C2_2  and  C3_3 
REMARK    2  A    between atoms: C2_2  and  C28_31 
REMARK    3  A    between atoms: C3_3  and  C4_4 
REMARK    4  A    between atoms: C4_4  and  O1_5 
REMARK    5  A    between atoms: C4_4  and  C5_6 
REMARK    6  A    between atoms: C5_6  and  C7_8 
REMARK    7  A    between atoms: C21_22  and  C23_24 
REMARK    8  A    between atoms: C23_24  and  O3_26 
ROOT
HETATM    1  C7  UNL     1      -3.661  50.612 -24.759  1.00  0.00     0.001 C 
HETATM    2  C8  UNL     1      -5.181  50.658 -24.392  1.00  0.00     0.007 C 
HETATM    3  C9  UNL     1      -5.297  50.444 -22.873  1.00  0.00     0.015 C 
HETATM    4  C10 UNL     1      -3.884  50.722 -22.340  1.00  0.00    -0.013 C 
HETATM    5  C11 UNL     1      -3.731  52.274 -22.227  1.00  0.00     0.021 C 
HETATM    6  C12 UNL     1      -3.500  50.198 -20.962  1.00  0.00    -0.068 C 
HETATM    7  C13 UNL     1      -2.194  49.923 -20.697  1.00  0.00    -0.068 C 
HETATM    8  C14 UNL     1      -1.103  50.008 -21.758  1.00  0.00     0.036 C 
HETATM    9  C15 UNL     1      -1.543  50.415 -23.182  1.00  0.00     0.015 C 
HETATM   10  C16 UNL     1      -3.005  50.033 -23.464  1.00  0.00    -0.029 C 
HETATM   11  C17 UNL     1      -3.116  48.481 -23.448  1.00  0.00     0.016 C 
HETATM   12  C18 UNL     1      -1.783  49.432 -19.314  1.00  0.00    -0.015 C 
HETATM   13  C19 UNL     1      -1.795  47.884 -19.363  1.00  0.00     0.020 C 
HETATM   14  C20 UNL     1      -0.435  49.928 -18.740  1.00  0.00     0.034 C 
HETATM   15  C21 UNL     1      -0.602  49.929 -17.189  1.00  0.00     0.043 C 
HETATM   16  C22 UNL     1       0.222  48.817 -16.525  1.00  0.00     0.027 C 
HETATM   17  C24 UNL     1      -2.117  49.707 -16.931  1.00  0.00     0.025 C 
HETATM   18  C25 UNL     1      -2.749  50.042 -18.276  1.00  0.00    -0.001 C 
HETATM   19  C26 UNL     1      -4.180  49.612 -18.523  1.00  0.00     0.010 C 
HETATM   20  C27 UNL     1      -4.611  50.080 -19.924  1.00  0.00     0.036 C 
ENDROOT
BRANCH   1  21
HETATM   21  C5  UNL     1      -3.428  50.068 -26.207  1.00  0.00     0.015 C 
HETATM   22  C6  UNL     1      -3.060  48.581 -26.330  1.00  0.00     0.013 C 
BRANCH  21  23
HETATM   23  C4  UNL     1      -2.486  50.902 -27.118  1.00  0.00     0.126 C 
BRANCH  23  24
HETATM   24  C3  UNL     1      -0.987  50.692 -26.826  1.00  0.00     0.065 C 
BRANCH  24  25
HETATM   25  C2  UNL     1      -0.276  51.976 -26.413  1.00  0.00    -0.083 C 
HETATM   26  C1  UNL     1      -0.873  52.838 -25.571  1.00  0.00     0.015 C 
BRANCH  25  27
HETATM   27  C28 UNL     1       1.097  52.212 -27.036  1.00  0.00     0.005 C 
HETATM   28  C29 UNL     1       2.177  51.469 -26.244  1.00  0.00     0.014 C 
HETATM   29  C30 UNL     1       1.187  51.843 -28.522  1.00  0.00     0.014 C 
ENDBRANCH  25  27
ENDBRANCH  24  25
ENDBRANCH  23  24
BRANCH  23  30
HETATM   30  O1  UNL     1      -2.770  50.631 -28.488  1.00  0.00    -0.395 OA
HETATM   31  H6  UNL     1      -2.196  51.213 -29.017  1.00  0.00     0.210 HD
ENDBRANCH  23  30
ENDBRANCH  21  23
ENDBRANCH   1  21
BRANCH  15  32
HETATM   32  C23 UNL     1      -0.127  51.269 -16.631  1.00  0.00     0.148 C 
HETATM   33  O2  UNL     1      -0.066  51.585 -15.453  1.00  0.00    -0.649 OA
BRANCH  32  34
HETATM   34  O3  UNL     1       0.289  52.138 -17.571  1.00  0.00    -0.776 OA
HETATM   35  H34 UNL     1       0.572  52.925 -17.058  1.00  0.00     0.167 HD
ENDBRANCH  32  34
ENDBRANCH  15  32
TORSDOF 8
ENDMDL
MODEL 4
REMARK minimizedAffinity -7.6790247
REMARK CNNscore 0.350796938
REMARK CNNaffinity 6.44126081
REMARK  8 active torsions:
REMARK  status: ('A' for Active; 'I' for Inactive)
REMARK    1  A    between atoms: C2_2  and  C3_3 
REMARK    2  A    between atoms: C2_2  and  C28_31 
REMARK    3  A    between atoms: C3_3  and  C4_4 
REMARK    4  A    between atoms: C4_4  and  O1_5 
REMARK    5  A    between atoms: C4_4  and  C5_6 
REMARK    6  A    between atoms: C5_6  and  C7_8 
REMARK    7  A    between atoms: C21_22  and  C23_24 
REMARK    8  A    between atoms: C23_24  and  O3_26 
ROOT
HETATM    1  C7  UNL     1      -3.062  48.925 -23.936  1.00  0.00     0.001 C 
HETATM    2  C8  UNL     1      -1.951  49.552 -23.031  1.00  0.00     0.007 C 
HETATM    3  C9  UNL     1      -2.429  49.449 -21.573  1.00  0.00     0.015 C 
HETATM    4  C10 UNL     1      -3.550  48.400 -21.612  1.00  0.00    -0.013 C 
HETATM    5  C11 UNL     1      -2.866  46.994 -21.610  1.00  0.00     0.021 C 
HETATM    6  C12 UNL     1      -4.547  48.342 -20.462  1.00  0.00    -0.068 C 
HETATM    7  C13 UNL     1      -5.802  47.872 -20.694  1.00  0.00    -0.068 C 
HETATM    8  C14 UNL     1      -6.298  47.501 -22.087  1.00  0.00     0.036 C 
HETATM    9  C15 UNL     1      -5.306  47.695 -23.256  1.00  0.00     0.015 C 
HETATM   10  C16 UNL     1      -4.278  48.799 -22.962  1.00  0.00    -0.029 C 
HETATM   11  C17 UNL     1      -5.033  50.155 -22.860  1.00  0.00     0.016 C 
HETATM   12  C18 UNL     1      -6.804  47.773 -19.550  1.00  0.00    -0.015 C 
HETATM   13  C19 UNL     1      -7.616  49.091 -19.546  1.00  0.00     0.020 C 
HETATM   14  C20 UNL     1      -7.768  46.563 -19.534  1.00  0.00     0.034 C 
HETATM   15  C21 UNL     1      -8.100  46.298 -18.033  1.00  0.00     0.043 C 
HETATM   16  C22 UNL     1      -9.547  46.678 -17.691  1.00  0.00     0.027 C 
HETATM   17  C24 UNL     1      -7.105  47.172 -17.223  1.00  0.00     0.025 C 
HETATM   18  C25 UNL     1      -6.025  47.502 -18.246  1.00  0.00    -0.001 C 
HETATM   19  C26 UNL     1      -5.057  48.624 -17.929  1.00  0.00     0.010 C 
HETATM   20  C27 UNL     1      -4.046  48.756 -19.082  1.00  0.00     0.036 C 
ENDROOT
BRANCH   1  21
HETATM   21  C5  UNL     1      -3.106  49.592 -25.350  1.00  0.00     0.015 C 
HETATM   22  C6  UNL     1      -2.872  48.665 -26.554  1.00  0.00     0.013 C 
BRANCH  21  23
HETATM   23  C4  UNL     1      -2.265  50.885 -25.533  1.00  0.00     0.126 C 
BRANCH  23  24
HETATM   24  C3  UNL     1      -0.918  50.659 -26.248  1.00  0.00     0.065 C 
BRANCH  24  25
HETATM   25  C2  UNL     1       0.171  51.620 -25.783  1.00  0.00    -0.083 C 
HETATM   26  C1  UNL     1       0.168  52.083 -24.520  1.00  0.00     0.015 C 
BRANCH  25  27
HETATM   27  C28 UNL     1       1.199  52.026 -26.834  1.00  0.00     0.005 C 
HETATM   28  C29 UNL     1       2.550  51.367 -26.541  1.00  0.00     0.014 C 
HETATM   29  C30 UNL     1       0.774  51.736 -28.279  1.00  0.00     0.014 C 
ENDBRANCH  25  27
ENDBRANCH  24  25
ENDBRANCH  23  24
BRANCH  23  30
HETATM   30  O1  UNL     1      -3.034  51.872 -26.217  1.00  0.00    -0.395 OA
HETATM   31  H6  UNL     1      -2.487  52.677 -26.259  1.00  0.00     0.210 HD
ENDBRANCH  23  30
ENDBRANCH  21  23
ENDBRANCH   1  21
BRANCH  15  32
HETATM   32  C23 UNL     1      -7.916  44.811 -17.731  1.00  0.00     0.148 C 
HETATM   33  O2  UNL     1      -7.064  44.074 -18.200  1.00  0.00    -0.649 OA
BRANCH  32  34
HETATM   34  O3  UNL     1      -8.783  44.325 -16.823  1.00  0.00    -0.776 OA
HETATM   35  H34 UNL     1      -8.527  43.384 -16.730  1.00  0.00     0.167 HD
ENDBRANCH  32  34
ENDBRANCH  15  32
TORSDOF 8
ENDMDL
MODEL 5
REMARK minimizedAffinity -6.95513296
REMARK CNNscore 0.325902224
REMARK CNNaffinity 6.27529716
REMARK  8 active torsions:
REMARK  status: ('A' for Active; 'I' for Inactive)
REMARK    1  A    between atoms: C2_2  and  C3_3 
REMARK    2  A    between atoms: C2_2  and  C28_31 
REMARK    3  A    between atoms: C3_3  and  C4_4 
REMARK    4  A    between atoms: C4_4  and  O1_5 
REMARK    5  A    between atoms: C4_4  and  C5_6 
REMARK    6  A    between atoms: C5_6  and  C7_8 
REMARK    7  A    between atoms: C21_22  and  C23_24 
REMARK    8  A    between atoms: C23_24  and  O3_26 
ROOT
HETATM    1  C7  UNL     1       3.969  53.052 -10.225  1.00  0.00     0.001 C 
HETATM    2  C8  UNL     1       3.039  54.270 -10.539  1.00  0.00     0.007 C 
HETATM    3  C9  UNL     1       3.424  55.406  -9.577  1.00  0.00     0.015 C 
HETATM    4  C10 UNL     1       4.812  55.009  -9.053  1.00  0.00    -0.013 C 
HETATM    5  C11 UNL     1       5.852  55.423 -10.145  1.00  0.00     0.021 C 
HETATM    6  C12 UNL     1       5.327  55.650  -7.771  1.00  0.00    -0.068 C 
HETATM    7  C13 UNL     1       6.218  54.968  -7.000  1.00  0.00    -0.068 C 
HETATM    8  C14 UNL     1       6.642  53.536  -7.303  1.00  0.00     0.036 C 
HETATM    9  C15 UNL     1       6.001  52.864  -8.538  1.00  0.00     0.015 C 
HETATM   10  C16 UNL     1       4.617  53.449  -8.859  1.00  0.00    -0.029 C 
HETATM   11  C17 UNL     1       3.657  53.105  -7.684  1.00  0.00     0.016 C 
HETATM   12  C18 UNL     1       6.772  55.605  -5.731  1.00  0.00    -0.015 C 
HETATM   13  C19 UNL     1       5.862  55.152  -4.564  1.00  0.00     0.020 C 
HETATM   14  C20 UNL     1       8.254  55.337  -5.375  1.00  0.00     0.034 C 
HETATM   15  C21 UNL     1       8.737  56.588  -4.578  1.00  0.00     0.043 C 
HETATM   16  C22 UNL     1       8.957  56.269  -3.092  1.00  0.00     0.027 C 
HETATM   17  C24 UNL     1       7.616  57.649  -4.743  1.00  0.00     0.025 C 
HETATM   18  C25 UNL     1       6.827  57.133  -5.940  1.00  0.00    -0.001 C 
HETATM   19  C26 UNL     1       5.451  57.713  -6.195  1.00  0.00     0.010 C 
HETATM   20  C27 UNL     1       4.861  57.068  -7.461  1.00  0.00     0.036 C 
ENDROOT
BRANCH   1  21
HETATM   21  C5  UNL     1       3.263  51.689 -10.524  1.00  0.00     0.015 C 
HETATM   22  C6  UNL     1       4.153  50.435 -10.498  1.00  0.00     0.013 C 
BRANCH  21  23
HETATM   23  C4  UNL     1       2.354  51.640 -11.783  1.00  0.00     0.126 C 
BRANCH  23  24
HETATM   24  C3  UNL     1       2.560  50.385 -12.655  1.00  0.00     0.065 C 
BRANCH  24  25
HETATM   25  C2  UNL     1       3.399  50.656 -13.899  1.00  0.00    -0.083 C 
HETATM   26  C1  UNL     1       4.511  49.938 -14.133  1.00  0.00     0.015 C 
BRANCH  25  27
HETATM   27  C28 UNL     1       2.914  51.788 -14.800  1.00  0.00     0.005 C 
HETATM   28  C29 UNL     1       4.045  52.262 -15.716  1.00  0.00     0.014 C 
HETATM   29  C30 UNL     1       1.672  51.444 -15.631  1.00  0.00     0.014 C 
ENDBRANCH  25  27
ENDBRANCH  24  25
ENDBRANCH  23  24
BRANCH  23  30
HETATM   30  O1  UNL     1       0.987  51.762 -11.399  1.00  0.00    -0.395 OA
HETATM   31  H6  UNL     1       0.463  51.781 -12.220  1.00  0.00     0.210 HD
ENDBRANCH  23  30
ENDBRANCH  21  23
ENDBRANCH   1  21
BRANCH  15  32
HETATM   32  C23 UNL     1      10.063  57.076  -5.159  1.00  0.00     0.148 C 
HETATM   33  O2  UNL     1      10.452  58.232  -5.211  1.00  0.00    -0.649 OA
BRANCH  32  34
HETATM   34  O3  UNL     1      10.859  56.089  -5.612  1.00  0.00    -0.776 OA
HETATM   35  H34 UNL     1      11.660  56.557  -5.929  1.00  0.00     0.167 HD
ENDBRANCH  32  34
ENDBRANCH  15  32
TORSDOF 8
ENDMDL
MODEL 6
REMARK minimizedAffinity -7.06065369
REMARK CNNscore 0.306547403
REMARK CNNaffinity 5.66915131
REMARK  8 active torsions:
REMARK  status: ('A' for Active; 'I' for Inactive)
REMARK    1  A    between atoms: C2_2  and  C3_3 
REMARK    2  A    between atoms: C2_2  and  C28_31 
REMARK    3  A    between atoms: C3_3  and  C4_4 
REMARK    4  A    between atoms: C4_4  and  O1_5 
REMARK    5  A    between atoms: C4_4  and  C5_6 
REMARK    6  A    between atoms: C5_6  and  C7_8 
REMARK    7  A    between atoms: C21_22  and  C23_24 
REMARK    8  A    between atoms: C23_24  and  O3_26 
ROOT
HETATM    1  C7  UNL     1      -7.856  44.601 -33.054  1.00  0.00     0.001 C 
HETATM    2  C8  UNL     1      -9.010  45.201 -33.923  1.00  0.00     0.007 C 
HETATM    3  C9  UNL     1      -9.968  45.941 -32.973  1.00  0.00     0.015 C 
HETATM    4  C10 UNL     1      -9.152  46.140 -31.688  1.00  0.00    -0.013 C 
HETATM    5  C11 UNL     1      -8.230  47.382 -31.915  1.00  0.00     0.021 C 
HETATM    6  C12 UNL     1      -9.886  46.441 -30.388  1.00  0.00    -0.068 C 
HETATM    7  C13 UNL     1      -9.319  46.078 -29.206  1.00  0.00    -0.068 C 
HETATM    8  C14 UNL     1      -8.025  45.277 -29.125  1.00  0.00     0.036 C 
HETATM    9  C15 UNL     1      -7.370  44.870 -30.465  1.00  0.00     0.015 C 
HETATM   10  C16 UNL     1      -8.403  44.747 -31.596  1.00  0.00    -0.029 C 
HETATM   11  C17 UNL     1      -9.362  43.570 -31.256  1.00  0.00     0.016 C 
HETATM   12  C18 UNL     1     -10.021  46.400 -27.891  1.00  0.00    -0.015 C 
HETATM   13  C19 UNL     1     -10.878  45.165 -27.523  1.00  0.00     0.020 C 
HETATM   14  C20 UNL     1      -9.143  46.809 -26.683  1.00  0.00     0.034 C 
HETATM   15  C21 UNL     1     -10.029  47.747 -25.808  1.00  0.00     0.043 C 
HETATM   16  C22 UNL     1     -10.451  47.073 -24.494  1.00  0.00     0.027 C 
HETATM   17  C24 UNL     1     -11.277  48.074 -26.672  1.00  0.00     0.025 C 
HETATM   18  C25 UNL     1     -10.827  47.702 -28.080  1.00  0.00    -0.001 C 
HETATM   19  C26 UNL     1     -11.885  47.555 -29.154  1.00  0.00     0.010 C 
HETATM   20  C27 UNL     1     -11.201  47.208 -30.488  1.00  0.00     0.036 C 
ENDROOT
BRANCH   1  21
HETATM   21  C5  UNL     1      -7.287  43.282 -33.673  1.00  0.00     0.015 C 
HETATM   22  C6  UNL     1      -8.276  42.116 -33.833  1.00  0.00     0.013 C 
BRANCH  21  23
HETATM   23  C4  UNL     1      -5.962  42.746 -33.065  1.00  0.00     0.126 C 
BRANCH  23  24
HETATM   24  C3  UNL     1      -5.608  41.311 -33.504  1.00  0.00     0.065 C 
BRANCH  24  25
HETATM   25  C2  UNL     1      -4.265  41.222 -34.220  1.00  0.00    -0.083 C 
HETATM   26  C1  UNL     1      -3.121  41.251 -33.514  1.00  0.00     0.015 C 
BRANCH  25  27
HETATM   27  C28 UNL     1      -4.321  41.139 -35.742  1.00  0.00     0.005 C 
HETATM   28  C29 UNL     1      -3.550  39.912 -36.238  1.00  0.00     0.014 C 
HETATM   29  C30 UNL     1      -5.741  41.139 -36.322  1.00  0.00     0.014 C 
ENDBRANCH  25  27
ENDBRANCH  24  25
ENDBRANCH  23  24
BRANCH  23  30
HETATM   30  O1  UNL     1      -4.892  43.638 -33.367  1.00  0.00    -0.395 OA
HETATM   31  H6  UNL     1      -4.099  43.290 -32.921  1.00  0.00     0.210 HD
ENDBRANCH  23  30
ENDBRANCH  21  23
ENDBRANCH   1  21
BRANCH  15  32
HETATM   32  C23 UNL     1      -9.240  49.008 -25.461  1.00  0.00     0.148 C 
HETATM   33  O2  UNL     1      -8.248  49.073 -24.751  1.00  0.00    -0.649 OA
BRANCH  32  34
HETATM   34  O3  UNL     1      -9.702  50.125 -26.053  1.00  0.00    -0.776 OA
HETATM   35  H34 UNL     1      -9.089  50.826 -25.748  1.00  0.00     0.167 HD
ENDBRANCH  32  34
ENDBRANCH  15  32
TORSDOF 8
ENDMDL
MODEL 7
REMARK minimizedAffinity -8.69935989
REMARK CNNscore 0.274578333
REMARK CNNaffinity 6.92647886
REMARK  8 active torsions:
REMARK  status: ('A' for Active; 'I' for Inactive)
REMARK    1  A    between atoms: C2_2  and  C3_3 
REMARK    2  A    between atoms: C2_2  and  C28_31 
REMARK    3  A    between atoms: C3_3  and  C4_4 
REMARK    4  A    between atoms: C4_4  and  O1_5 
REMARK    5  A    between atoms: C4_4  and  C5_6 
REMARK    6  A    between atoms: C5_6  and  C7_8 
REMARK    7  A    between atoms: C21_22  and  C23_24 
REMARK    8  A    between atoms: C23_24  and  O3_26 
ROOT
HETATM    1  C7  UNL     1      -0.925  51.865 -22.634  1.00  0.00     0.001 C 
HETATM    2  C8  UNL     1      -1.099  51.060 -23.964  1.00  0.00     0.007 C 
HETATM    3  C9  UNL     1      -2.010  49.857 -23.662  1.00  0.00     0.015 C 
HETATM    4  C10 UNL     1      -2.691  50.219 -22.334  1.00  0.00    -0.013 C 
HETATM    5  C11 UNL     1      -3.876  51.181 -22.670  1.00  0.00     0.021 C 
HETATM    6  C12 UNL     1      -3.322  49.109 -21.503  1.00  0.00    -0.068 C 
HETATM    7  C13 UNL     1      -3.415  49.261 -20.154  1.00  0.00    -0.068 C 
HETATM    8  C14 UNL     1      -2.811  50.450 -19.415  1.00  0.00     0.036 C 
HETATM    9  C15 UNL     1      -2.060  51.495 -20.271  1.00  0.00     0.015 C 
HETATM   10  C16 UNL     1      -1.480  50.880 -21.554  1.00  0.00    -0.029 C 
HETATM   11  C17 UNL     1      -0.388  49.848 -21.150  1.00  0.00     0.016 C 
HETATM   12  C18 UNL     1      -4.074  48.178 -19.308  1.00  0.00    -0.015 C 
HETATM   13  C19 UNL     1      -2.948  47.231 -18.828  1.00  0.00     0.020 C 
HETATM   14  C20 UNL     1      -4.933  48.625 -18.100  1.00  0.00     0.034 C 
HETATM   15  C21 UNL     1      -6.013  47.517 -17.908  1.00  0.00     0.043 C 
HETATM   16  C22 UNL     1      -5.761  46.687 -16.642  1.00  0.00     0.027 C 
HETATM   17  C24 UNL     1      -5.923  46.619 -19.170  1.00  0.00     0.025 C 
HETATM   18  C25 UNL     1      -5.162  47.492 -20.161  1.00  0.00    -0.001 C 
HETATM   19  C26 UNL     1      -4.575  46.835 -21.393  1.00  0.00     0.010 C 
HETATM   20  C27 UNL     1      -3.885  47.907 -22.254  1.00  0.00     0.036 C 
ENDROOT
BRANCH   1  21
HETATM   21  C5  UNL     1       0.461  52.586 -22.568  1.00  0.00     0.015 C 
HETATM   22  C6  UNL     1       0.707  53.489 -21.348  1.00  0.00     0.013 C 
BRANCH  21  23
HETATM   23  C4  UNL     1       0.917  53.331 -23.852  1.00  0.00     0.126 C 
BRANCH  23  24
HETATM   24  C3  UNL     1      -0.212  53.558 -24.878  1.00  0.00     0.065 C 
BRANCH  24  25
HETATM   25  C2  UNL     1       0.208  53.234 -26.307  1.00  0.00    -0.083 C 
HETATM   26  C1  UNL     1      -0.014  54.120 -27.293  1.00  0.00     0.015 C 
BRANCH  25  27
HETATM   27  C28 UNL     1       0.842  51.863 -26.524  1.00  0.00     0.005 C 
HETATM   28  C29 UNL     1      -0.099  50.962 -27.329  1.00  0.00     0.014 C 
HETATM   29  C30 UNL     1       2.225  51.905 -27.186  1.00  0.00     0.014 C 
ENDBRANCH  25  27
ENDBRANCH  24  25
ENDBRANCH  23  24
BRANCH  23  30
HETATM   30  O1  UNL     1       1.530  54.570 -23.503  1.00  0.00    -0.395 OA
HETATM   31  H6  UNL     1       1.846  54.972 -24.332  1.00  0.00     0.210 HD
ENDBRANCH  23  30
ENDBRANCH  21  23
ENDBRANCH   1  21
BRANCH  15  32
HETATM   32  C23 UNL     1      -7.389  48.170 -17.780  1.00  0.00     0.148 C 
HETATM   33  O2  UNL     1      -7.901  48.946 -18.571  1.00  0.00    -0.649 OA
BRANCH  32  34
HETATM   34  O3  UNL     1      -8.078  47.788 -16.689  1.00  0.00    -0.776 OA
HETATM   35  H34 UNL     1      -8.927  48.272 -16.762  1.00  0.00     0.167 HD
ENDBRANCH  32  34
ENDBRANCH  15  32
TORSDOF 8
ENDMDL
MODEL 8
REMARK minimizedAffinity -7.1519022
REMARK CNNscore 0.273368746
REMARK CNNaffinity 5.98654938
REMARK  8 active torsions:
REMARK  status: ('A' for Active; 'I' for Inactive)
REMARK    1  A    between atoms: C2_2  and  C3_3 
REMARK    2  A    between atoms: C2_2  and  C28_31 
REMARK    3  A    between atoms: C3_3  and  C4_4 
REMARK    4  A    between atoms: C4_4  and  O1_5 
REMARK    5  A    between atoms: C4_4  and  C5_6 
REMARK    6  A    between atoms: C5_6  and  C7_8 
REMARK    7  A    between atoms: C21_22  and  C23_24 
REMARK    8  A    between atoms: C23_24  and  O3_26 
ROOT
HETATM    1  C7  UNL     1       3.454  67.011 -35.516  1.00  0.00     0.001 C 
HETATM    2  C8  UNL     1       2.449  65.815 -35.591  1.00  0.00     0.007 C 
HETATM    3  C9  UNL     1       3.257  64.519 -35.408  1.00  0.00     0.015 C 
HETATM    4  C10 UNL     1       4.588  64.983 -34.799  1.00  0.00    -0.013 C 
HETATM    5  C11 UNL     1       4.349  65.189 -33.268  1.00  0.00     0.021 C 
HETATM    6  C12 UNL     1       5.796  64.058 -34.877  1.00  0.00    -0.068 C 
HETATM    7  C13 UNL     1       7.045  64.596 -34.882  1.00  0.00    -0.068 C 
HETATM    8  C14 UNL     1       7.294  66.099 -34.928  1.00  0.00     0.036 C 
HETATM    9  C15 UNL     1       6.048  67.012 -34.983  1.00  0.00     0.015 C 
HETATM   10  C16 UNL     1       4.845  66.307 -35.630  1.00  0.00    -0.029 C 
HETATM   11  C17 UNL     1       5.190  66.025 -37.121  1.00  0.00     0.016 C 
HETATM   12  C18 UNL     1       8.268  63.687 -34.924  1.00  0.00    -0.015 C 
HETATM   13  C19 UNL     1       8.653  63.517 -36.414  1.00  0.00     0.020 C 
HETATM   14  C20 UNL     1       9.512  64.109 -34.106  1.00  0.00     0.034 C 
HETATM   15  C21 UNL     1      10.238  62.785 -33.716  1.00  0.00     0.043 C 
HETATM   16  C22 UNL     1      11.558  62.610 -34.482  1.00  0.00     0.027 C 
HETATM   17  C24 UNL     1       9.250  61.642 -34.075  1.00  0.00     0.025 C 
HETATM   18  C25 UNL     1       7.917  62.369 -34.204  1.00  0.00    -0.001 C 
HETATM   19  C26 UNL     1       6.770  61.648 -34.883  1.00  0.00     0.010 C 
HETATM   20  C27 UNL     1       5.528  62.556 -34.871  1.00  0.00     0.036 C 
ENDROOT
BRANCH   1  21
HETATM   21  C5  UNL     1       2.984  68.222 -36.387  1.00  0.00     0.015 C 
HETATM   22  C6  UNL     1       3.259  69.624 -35.819  1.00  0.00     0.013 C 
BRANCH  21  23
HETATM   23  C4  UNL     1       1.527  68.168 -36.921  1.00  0.00     0.126 C 
BRANCH  23  24
HETATM   24  C3  UNL     1       1.308  67.125 -38.037  1.00  0.00     0.065 C 
BRANCH  24  25
HETATM   25  C2  UNL     1       1.235  67.748 -39.426  1.00  0.00    -0.083 C 
HETATM   26  C1  UNL     1       1.667  67.061 -40.498  1.00  0.00     0.015 C 
BRANCH  25  27
HETATM   27  C28 UNL     1       0.688  69.171 -39.495  1.00  0.00     0.005 C 
HETATM   28  C29 UNL     1       1.377  69.954 -40.615  1.00  0.00     0.014 C 
HETATM   29  C30 UNL     1      -0.836  69.254 -39.654  1.00  0.00     0.014 C 
ENDBRANCH  25  27
ENDBRANCH  24  25
ENDBRANCH  23  24
BRANCH  23  30
HETATM   30  O1  UNL     1       0.622  67.941 -35.843  1.00  0.00    -0.395 OA
HETATM   31  H6  UNL     1      -0.277  67.969 -36.217  1.00  0.00     0.210 HD
ENDBRANCH  23  30
ENDBRANCH  21  23
ENDBRANCH   1  21
BRANCH  15  32
HETATM   32  C23 UNL     1      10.556  62.804 -32.222  1.00  0.00     0.148 C 
HETATM   33  O2  UNL     1      11.124  63.696 -31.611  1.00  0.00    -0.649 OA
BRANCH  32  34
HETATM   34  O3  UNL     1      10.112  61.724 -31.553  1.00  0.00    -0.776 OA
HETATM   35  H34 UNL     1      10.375  61.896 -30.624  1.00  0.00     0.167 HD
ENDBRANCH  32  34
ENDBRANCH  15  32
TORSDOF 8
ENDMDL
MODEL 9
REMARK minimizedAffinity -8.05643082
REMARK CNNscore 0.261713624
REMARK CNNaffinity 6.84694815
REMARK  8 active torsions:
REMARK  status: ('A' for Active; 'I' for Inactive)
REMARK    1  A    between atoms: C2_2  and  C3_3 
REMARK    2  A    between atoms: C2_2  and  C28_31 
REMARK    3  A    between atoms: C3_3  and  C4_4 
REMARK    4  A    between atoms: C4_4  and  O1_5 
REMARK    5  A    between atoms: C4_4  and  C5_6 
REMARK    6  A    between atoms: C5_6  and  C7_8 
REMARK    7  A    between atoms: C21_22  and  C23_24 
REMARK    8  A    between atoms: C23_24  and  O3_26 
ROOT
HETATM    1  C7  UNL     1      -1.053  51.173 -23.079  1.00  0.00     0.001 C 
HETATM    2  C8  UNL     1      -0.319  52.554 -23.064  1.00  0.00     0.007 C 
HETATM    3  C9  UNL     1       0.099  52.839 -21.611  1.00  0.00     0.015 C 
HETATM    4  C10 UNL     1       0.012  51.474 -20.914  1.00  0.00    -0.013 C 
HETATM    5  C11 UNL     1       1.321  50.695 -21.261  1.00  0.00     0.021 C 
HETATM    6  C12 UNL     1      -0.070  51.427 -19.394  1.00  0.00    -0.068 C 
HETATM    7  C13 UNL     1      -0.689  50.373 -18.795  1.00  0.00    -0.068 C 
HETATM    8  C14 UNL     1      -1.409  49.284 -19.583  1.00  0.00     0.036 C 
HETATM    9  C15 UNL     1      -1.423  49.429 -21.121  1.00  0.00     0.015 C 
HETATM   10  C16 UNL     1      -1.314  50.897 -21.563  1.00  0.00    -0.029 C 
HETATM   11  C17 UNL     1      -2.592  51.646 -21.087  1.00  0.00     0.016 C 
HETATM   12  C18 UNL     1      -0.752  50.288 -17.275  1.00  0.00    -0.015 C 
HETATM   13  C19 UNL     1      -2.087  50.941 -16.841  1.00  0.00     0.020 C 
HETATM   14  C20 UNL     1      -0.614  48.892 -16.620  1.00  0.00     0.034 C 
HETATM   15  C21 UNL     1       0.018  49.137 -15.216  1.00  0.00     0.043 C 
HETATM   16  C22 UNL     1      -0.991  48.893 -14.085  1.00  0.00     0.027 C 
HETATM   17  C24 UNL     1       0.482  50.619 -15.216  1.00  0.00     0.025 C 
HETATM   18  C25 UNL     1       0.506  50.971 -16.699  1.00  0.00    -0.001 C 
HETATM   19  C26 UNL     1       0.576  52.434 -17.086  1.00  0.00     0.010 C 
HETATM   20  C27 UNL     1       0.620  52.545 -18.620  1.00  0.00     0.036 C 
ENDROOT
BRANCH   1  21
HETATM   21  C5  UNL     1      -2.136  51.102 -24.206  1.00  0.00     0.015 C 
HETATM   22  C6  UNL     1      -2.417  49.713 -24.801  1.00  0.00     0.013 C 
BRANCH  21  23
HETATM   23  C4  UNL     1      -2.003  52.132 -25.361  1.00  0.00     0.126 C 
BRANCH  23  24
HETATM   24  C3  UNL     1      -1.301  51.577 -26.617  1.00  0.00     0.065 C 
BRANCH  24  25
HETATM   25  C2  UNL     1      -0.243  52.522 -27.174  1.00  0.00    -0.083 C 
HETATM   26  C1  UNL     1      -0.611  53.613 -27.869  1.00  0.00     0.015 C 
BRANCH  25  27
HETATM   27  C28 UNL     1       1.209  52.127 -26.921  1.00  0.00     0.005 C 
HETATM   28  C29 UNL     1       1.277  50.918 -25.983  1.00  0.00     0.014 C 
HETATM   29  C30 UNL     1       2.019  51.852 -28.194  1.00  0.00     0.014 C 
ENDBRANCH  25  27
ENDBRANCH  24  25
ENDBRANCH  23  24
BRANCH  23  30
HETATM   30  O1  UNL     1      -3.286  52.654 -25.697  1.00  0.00    -0.395 OA
HETATM   31  H6  UNL     1      -3.145  53.331 -26.383  1.00  0.00     0.210 HD
ENDBRANCH  23  30
ENDBRANCH  21  23
ENDBRANCH   1  21
BRANCH  15  32
HETATM   32  C23 UNL     1       1.193  48.181 -15.018  1.00  0.00     0.148 C 
HETATM   33  O2  UNL     1       2.283  48.457 -14.542  1.00  0.00    -0.649 OA
BRANCH  32  34
HETATM   34  O3  UNL     1       0.935  46.912 -15.386  1.00  0.00    -0.776 OA
HETATM   35  H34 UNL     1       1.766  46.432 -15.183  1.00  0.00     0.167 HD
ENDBRANCH  32  34
ENDBRANCH  15  32
TORSDOF 8
ENDMDL
