MODEL 1
REMARK minimizedAffinity -7.10690355
REMARK CNNscore 0.775842547
REMARK CNNaffinity 6.16407394
REMARK  6 active torsions:
REMARK  status: ('A' for Active; 'I' for Inactive)
REMARK    1  A    between atoms: C4_4  and  C5_5 
REMARK    2  A    between atoms: C5_5  and  O1_6 
REMARK    3  A    between atoms: C5_5  and  C6_7 
REMARK    4  A    between atoms: C6_7  and  O2_10 
REMARK    5  A    between atoms: C29_33  and  O5_34 
REMARK    6  A    between atoms: C30_35  and  O6_36 
ROOT
HETATM    1  C1  UNL     1       7.789  47.859  -6.629  1.00  0.00     0.013 C 
HETATM    2  C2  UNL     1       6.991  47.371  -7.835  1.00  0.00     0.024 C 
HETATM    3  C3  UNL     1       7.821  46.336  -8.668  1.00  0.00     0.042 C 
HETATM    4  C4  UNL     1       8.765  46.904  -9.766  1.00  0.00     0.154 C 
HETATM    5  O3  UNL     1       8.217  48.076 -10.468  1.00  0.00    -0.375 OA
HETATM    6  C9  UNL     1       7.700  49.027  -9.557  1.00  0.00     0.160 C 
HETATM    7  C10 UNL     1       7.177  50.353 -10.136  1.00  0.00     0.048 C 
HETATM    8  C11 UNL     1       6.398  50.936  -8.912  1.00  0.00     0.000 C 
HETATM    9  C12 UNL     1       7.483  51.300  -7.826  1.00  0.00     0.019 C 
HETATM   10  C13 UNL     1       5.432  52.202  -9.139  1.00  0.00    -0.029 C 
HETATM   11  C14 UNL     1       4.508  52.018 -10.376  1.00  0.00     0.016 C 
HETATM   12  C15 UNL     1       6.263  53.493  -9.363  1.00  0.00     0.011 C 
HETATM   13  C16 UNL     1       5.411  54.759  -9.452  1.00  0.00     0.007 C 
HETATM   14  C17 UNL     1       4.458  54.998  -8.254  1.00  0.00     0.009 C 
HETATM   15  C18 UNL     1       3.523  56.261  -8.508  1.00  0.00     0.017 C 
HETATM   16  C19 UNL     1       3.302  56.637  -9.990  1.00  0.00     0.023 C 
HETATM   17  C20 UNL     1       4.166  57.479  -7.809  1.00  0.00     0.023 C 
HETATM   18  C21 UNL     1       2.104  56.067  -7.954  1.00  0.00     0.135 C 
HETATM   19  O4  UNL     1       1.492  56.983  -7.397  1.00  0.00    -0.297 OA
HETATM   20  C22 UNL     1       1.404  54.748  -8.209  1.00  0.00     0.080 C 
HETATM   21  C23 UNL     1       2.363  53.597  -8.493  1.00  0.00     0.017 C 
HETATM   22  C24 UNL     1       3.699  53.720  -7.731  1.00  0.00    -0.035 C 
HETATM   23  C25 UNL     1       3.382  53.934  -6.207  1.00  0.00     0.016 C 
HETATM   24  C26 UNL     1       4.610  52.424  -7.802  1.00  0.00     0.003 C 
HETATM   25  C27 UNL     1       3.943  51.117  -7.256  1.00  0.00     0.009 C 
HETATM   26  C28 UNL     1       4.899  49.891  -7.157  1.00  0.00     0.042 C 
HETATM   27  C29 UNL     1       5.576  49.662  -8.496  1.00  0.00     0.100 C 
HETATM   28  C30 UNL     1       6.487  48.426  -8.819  1.00  0.00     0.119 C 
ENDROOT
BRANCH   4  29
HETATM   29  C5  UNL     1      10.231  47.229  -9.340  1.00  0.00     0.180 C 
BRANCH  29  30
HETATM   30  O1  UNL     1      10.774  48.080 -10.377  1.00  0.00    -0.390 OA
HETATM   31  H9  UNL     1      10.004  48.542 -10.782  1.00  0.00     0.210 HD
ENDBRANCH  29  30
BRANCH  29  32
HETATM   32  C6  UNL     1      11.180  46.003  -9.112  1.00  0.00     0.079 C 
HETATM   33  C7  UNL     1      12.145  46.239  -7.939  1.00  0.00     0.048 C 
HETATM   34  C8  UNL     1      10.393  44.718  -8.810  1.00  0.00     0.048 C 
BRANCH  32  35
HETATM   35  O2  UNL     1      12.007  45.802 -10.267  1.00  0.00    -0.388 OA
HETATM   36  H16 UNL     1      11.960  44.868 -10.547  1.00  0.00     0.210 HD
ENDBRANCH  32  35
ENDBRANCH  29  32
ENDBRANCH   4  29
BRANCH  28  37
HETATM   37  O6  UNL     1       5.712  47.608  -9.776  1.00  0.00    -0.384 OA
HETATM   38  H50 UNL     1       5.858  48.024 -10.655  1.00  0.00     0.210 HD
ENDBRANCH  28  37
BRANCH  27  39
HETATM   39  O5  UNL     1       4.460  49.511  -9.414  1.00  0.00    -0.386 OA
HETATM   40  H49 UNL     1       4.265  48.547  -9.433  1.00  0.00     0.210 HD
ENDBRANCH  27  39
TORSDOF 6
ENDMDL
MODEL 2
REMARK minimizedAffinity -6.90514278
REMARK CNNscore 0.775085866
REMARK CNNaffinity 6.60374117
REMARK  6 active torsions:
REMARK  status: ('A' for Active; 'I' for Inactive)
REMARK    1  A    between atoms: C4_4  and  C5_5 
REMARK    2  A    between atoms: C5_5  and  O1_6 
REMARK    3  A    between atoms: C5_5  and  C6_7 
REMARK    4  A    between atoms: C6_7  and  O2_10 
REMARK    5  A    between atoms: C29_33  and  O5_34 
REMARK    6  A    between atoms: C30_35  and  O6_36 
ROOT
HETATM    1  C1  UNL     1       0.689  50.887 -15.895  1.00  0.00     0.013 C 
HETATM    2  C2  UNL     1       1.061  49.681 -15.037  1.00  0.00     0.024 C 
HETATM    3  C3  UNL     1       0.380  48.381 -15.584  1.00  0.00     0.042 C 
HETATM    4  C4  UNL     1      -1.053  48.060 -15.070  1.00  0.00     0.154 C 
HETATM    5  O3  UNL     1      -1.265  48.409 -13.656  1.00  0.00    -0.375 OA
HETATM    6  C9  UNL     1      -0.791  49.712 -13.370  1.00  0.00     0.160 C 
HETATM    7  C10 UNL     1      -1.029  50.258 -11.951  1.00  0.00     0.048 C 
HETATM    8  C11 UNL     1      -0.082  51.502 -11.939  1.00  0.00     0.000 C 
HETATM    9  C12 UNL     1      -0.703  52.544 -12.947  1.00  0.00     0.019 C 
HETATM   10  C13 UNL     1       0.217  52.235 -10.539  1.00  0.00    -0.029 C 
HETATM   11  C14 UNL     1       0.580  51.223  -9.415  1.00  0.00     0.016 C 
HETATM   12  C15 UNL     1      -1.023  53.038 -10.064  1.00  0.00     0.011 C 
HETATM   13  C16 UNL     1      -0.766  53.869  -8.807  1.00  0.00     0.007 C 
HETATM   14  C17 UNL     1       0.437  54.843  -8.895  1.00  0.00     0.009 C 
HETATM   15  C18 UNL     1       0.700  55.555  -7.496  1.00  0.00     0.017 C 
HETATM   16  C19 UNL     1       0.174  54.799  -6.255  1.00  0.00     0.023 C 
HETATM   17  C20 UNL     1       0.010  56.936  -7.527  1.00  0.00     0.023 C 
HETATM   18  C21 UNL     1       2.195  55.758  -7.208  1.00  0.00     0.135 C 
HETATM   19  O4  UNL     1       2.622  56.788  -6.678  1.00  0.00    -0.297 OA
HETATM   20  C22 UNL     1       3.144  54.608  -7.476  1.00  0.00     0.080 C 
HETATM   21  C23 UNL     1       2.609  53.606  -8.493  1.00  0.00     0.017 C 
HETATM   22  C24 UNL     1       1.729  54.257  -9.581  1.00  0.00    -0.035 C 
HETATM   23  C25 UNL     1       2.527  55.454 -10.213  1.00  0.00     0.016 C 
HETATM   24  C26 UNL     1       1.369  53.295 -10.789  1.00  0.00     0.003 C 
HETATM   25  C27 UNL     1       2.601  52.707 -11.555  1.00  0.00     0.009 C 
HETATM   26  C28 UNL     1       2.247  51.914 -12.848  1.00  0.00     0.042 C 
HETATM   27  C29 UNL     1       1.220  50.844 -12.526  1.00  0.00     0.100 C 
HETATM   28  C30 UNL     1       0.740  49.752 -13.545  1.00  0.00     0.119 C 
ENDROOT
BRANCH   4  29
HETATM   29  C5  UNL     1      -2.245  48.629 -15.900  1.00  0.00     0.180 C 
BRANCH  29  30
HETATM   30  O1  UNL     1      -3.410  48.541 -15.046  1.00  0.00    -0.390 OA
HETATM   31  H9  UNL     1      -3.075  48.572 -14.121  1.00  0.00     0.210 HD
ENDBRANCH  29  30
BRANCH  29  32
HETATM   32  C6  UNL     1      -2.540  47.930 -17.271  1.00  0.00     0.079 C 
HETATM   33  C7  UNL     1      -4.025  48.023 -17.653  1.00  0.00     0.048 C 
HETATM   34  C8  UNL     1      -1.729  48.554 -18.417  1.00  0.00     0.048 C 
BRANCH  32  35
HETATM   35  O2  UNL     1      -2.246  46.529 -17.179  1.00  0.00    -0.388 OA
HETATM   36  H16 UNL     1      -1.671  46.263 -17.922  1.00  0.00     0.210 HD
ENDBRANCH  32  35
ENDBRANCH  29  32
ENDBRANCH   4  29
BRANCH  28  37
HETATM   37  O6  UNL     1       1.305  48.479 -13.049  1.00  0.00    -0.384 OA
HETATM   38  H50 UNL     1       0.690  48.177 -12.341  1.00  0.00     0.210 HD
ENDBRANCH  28  37
BRANCH  27  39
HETATM   39  O5  UNL     1       1.861  50.071 -11.476  1.00  0.00    -0.386 OA
HETATM   40  H49 UNL     1       2.350  49.354 -11.939  1.00  0.00     0.210 HD
ENDBRANCH  27  39
TORSDOF 6
ENDMDL
MODEL 3
REMARK minimizedAffinity -7.12404871
REMARK CNNscore 0.726243615
REMARK CNNaffinity 6.11510324
REMARK  6 active torsions:
REMARK  status: ('A' for Active; 'I' for Inactive)
REMARK    1  A    between atoms: C4_4  and  C5_5 
REMARK    2  A    between atoms: C5_5  and  O1_6 
REMARK    3  A    between atoms: C5_5  and  C6_7 
REMARK    4  A    between atoms: C6_7  and  O2_10 
REMARK    5  A    between atoms: C29_33  and  O5_34 
REMARK    6  A    between atoms: C30_35  and  O6_36 
ROOT
HETATM    1  C1  UNL     1     -11.507  45.542 -38.344  1.00  0.00     0.013 C 
HETATM    2  C2  UNL     1     -10.500  44.397 -38.285  1.00  0.00     0.024 C 
HETATM    3  C3  UNL     1     -10.956  43.210 -39.199  1.00  0.00     0.042 C 
HETATM    4  C4  UNL     1     -11.904  42.151 -38.565  1.00  0.00     0.154 C 
HETATM    5  O3  UNL     1     -11.607  41.862 -37.153  1.00  0.00    -0.375 OA
HETATM    6  C9  UNL     1     -11.438  43.053 -36.408  1.00  0.00     0.160 C 
HETATM    7  C10 UNL     1     -11.217  42.917 -34.891  1.00  0.00     0.048 C 
HETATM    8  C11 UNL     1     -10.732  44.356 -34.522  1.00  0.00     0.000 C 
HETATM    9  C12 UNL     1     -11.973  45.309 -34.725  1.00  0.00     0.019 C 
HETATM   10  C13 UNL     1     -10.103  44.612 -33.064  1.00  0.00    -0.029 C 
HETATM   11  C14 UNL     1      -9.048  43.533 -32.685  1.00  0.00     0.016 C 
HETATM   12  C15 UNL     1     -11.209  44.587 -31.976  1.00  0.00     0.011 C 
HETATM   13  C16 UNL     1     -10.702  44.956 -30.582  1.00  0.00     0.007 C 
HETATM   14  C17 UNL     1      -9.961  46.314 -30.488  1.00  0.00     0.009 C 
HETATM   15  C18 UNL     1      -9.357  46.538 -29.032  1.00  0.00     0.017 C 
HETATM   16  C19 UNL     1      -9.099  45.252 -28.215  1.00  0.00     0.023 C 
HETATM   17  C20 UNL     1     -10.353  47.406 -28.232  1.00  0.00     0.023 C 
HETATM   18  C21 UNL     1      -7.996  47.247 -29.059  1.00  0.00     0.135 C 
HETATM   19  O4  UNL     1      -7.693  48.107 -28.226  1.00  0.00    -0.297 OA
HETATM   20  C22 UNL     1      -6.962  46.786 -30.066  1.00  0.00     0.080 C 
HETATM   21  C23 UNL     1      -7.566  46.072 -31.271  1.00  0.00     0.017 C 
HETATM   22  C24 UNL     1      -8.956  46.615 -31.664  1.00  0.00    -0.035 C 
HETATM   23  C25 UNL     1      -8.851  48.175 -31.823  1.00  0.00     0.016 C 
HETATM   24  C26 UNL     1      -9.496  46.077 -33.053  1.00  0.00     0.003 C 
HETATM   25  C27 UNL     1      -8.574  46.378 -34.282  1.00  0.00     0.009 C 
HETATM   26  C28 UNL     1      -9.192  46.012 -35.665  1.00  0.00     0.042 C 
HETATM   27  C29 UNL     1      -9.657  44.567 -35.650  1.00  0.00     0.100 C 
HETATM   28  C30 UNL     1     -10.189  43.802 -36.912  1.00  0.00     0.119 C 
ENDROOT
BRANCH   4  29
HETATM   29  C5  UNL     1     -13.437  42.403 -38.703  1.00  0.00     0.180 C 
BRANCH  29  30
HETATM   30  O1  UNL     1     -14.080  41.499 -37.773  1.00  0.00    -0.390 OA
HETATM   31  H9  UNL     1     -13.422  41.326 -37.061  1.00  0.00     0.210 HD
ENDBRANCH  29  30
BRANCH  29  32
HETATM   32  C6  UNL     1     -14.051  42.215 -40.133  1.00  0.00     0.079 C 
HETATM   33  C7  UNL     1     -13.166  41.330 -41.023  1.00  0.00     0.048 C 
HETATM   34  C8  UNL     1     -15.443  41.566 -40.077  1.00  0.00     0.048 C 
BRANCH  32  35
HETATM   35  O2  UNL     1     -14.137  43.482 -40.799  1.00  0.00    -0.388 OA
HETATM   36  H16 UNL     1     -15.038  43.609 -41.153  1.00  0.00     0.210 HD
ENDBRANCH  32  35
ENDBRANCH  29  32
ENDBRANCH   4  29
BRANCH  28  37
HETATM   37  O6  UNL     1      -9.143  42.810 -37.237  1.00  0.00    -0.384 OA
HETATM   38  H50 UNL     1      -9.305  42.050 -36.633  1.00  0.00     0.210 HD
ENDBRANCH  28  37
BRANCH  27  39
HETATM   39  O5  UNL     1      -8.457  43.833 -35.287  1.00  0.00    -0.386 OA
HETATM   40  H49 UNL     1      -8.022  43.604 -36.140  1.00  0.00     0.210 HD
ENDBRANCH  27  39
TORSDOF 6
ENDMDL
MODEL 4
REMARK minimizedAffinity -8.73839474
REMARK CNNscore 0.716486692
REMARK CNNaffinity 6.80960846
REMARK  6 active torsions:
REMARK  status: ('A' for Active; 'I' for Inactive)
REMARK    1  A    between atoms: C4_4  and  C5_5 
REMARK    2  A    between atoms: C5_5  and  O1_6 
REMARK    3  A    between atoms: C5_5  and  C6_7 
REMARK    4  A    between atoms: C6_7  and  O2_10 
REMARK    5  A    between atoms: C29_33  and  O5_34 
REMARK    6  A    between atoms: C30_35  and  O6_36 
ROOT
HETATM    1  C1  UNL     1      -3.453  54.120  -9.918  1.00  0.00     0.013 C 
HETATM    2  C2  UNL     1      -2.989  53.564 -11.262  1.00  0.00     0.024 C 
HETATM    3  C3  UNL     1      -4.039  52.554 -11.837  1.00  0.00     0.042 C 
HETATM    4  C4  UNL     1      -3.910  51.068 -11.396  1.00  0.00     0.154 C 
HETATM    5  O3  UNL     1      -2.517  50.612 -11.257  1.00  0.00    -0.375 OA
HETATM    6  C9  UNL     1      -1.744  51.538 -10.517  1.00  0.00     0.160 C 
HETATM    7  C10 UNL     1      -0.286  51.156 -10.205  1.00  0.00     0.048 C 
HETATM    8  C11 UNL     1       0.293  52.525  -9.725  1.00  0.00     0.000 C 
HETATM    9  C12 UNL     1      -0.406  52.847  -8.348  1.00  0.00     0.019 C 
HETATM   10  C13 UNL     1       1.886  52.676  -9.555  1.00  0.00    -0.029 C 
HETATM   11  C14 UNL     1       2.660  52.122 -10.785  1.00  0.00     0.016 C 
HETATM   12  C15 UNL     1       2.382  51.904  -8.304  1.00  0.00     0.011 C 
HETATM   13  C16 UNL     1       3.866  52.115  -8.005  1.00  0.00     0.007 C 
HETATM   14  C17 UNL     1       4.308  53.593  -7.867  1.00  0.00     0.009 C 
HETATM   15  C18 UNL     1       5.886  53.706  -7.695  1.00  0.00     0.017 C 
HETATM   16  C19 UNL     1       6.702  52.515  -8.246  1.00  0.00     0.023 C 
HETATM   17  C20 UNL     1       6.193  53.823  -6.186  1.00  0.00     0.023 C 
HETATM   18  C21 UNL     1       6.473  54.929  -8.414  1.00  0.00     0.135 C 
HETATM   19  O4  UNL     1       7.377  55.607  -7.914  1.00  0.00    -0.297 OA
HETATM   20  C22 UNL     1       6.007  55.230  -9.824  1.00  0.00     0.080 C 
HETATM   21  C23 UNL     1       4.642  54.634 -10.151  1.00  0.00     0.017 C 
HETATM   22  C24 UNL     1       3.696  54.581  -8.933  1.00  0.00    -0.035 C 
HETATM   23  C25 UNL     1       3.637  56.013  -8.289  1.00  0.00     0.016 C 
HETATM   24  C26 UNL     1       2.197  54.208  -9.289  1.00  0.00     0.003 C 
HETATM   25  C27 UNL     1       1.501  55.171 -10.309  1.00  0.00     0.009 C 
HETATM   26  C28 UNL     1      -0.021  54.912 -10.515  1.00  0.00     0.042 C 
HETATM   27  C29 UNL     1      -0.247  53.454 -10.872  1.00  0.00     0.100 C 
HETATM   28  C30 UNL     1      -1.634  52.860 -11.303  1.00  0.00     0.119 C 
ENDROOT
BRANCH   4  29
HETATM   29  C5  UNL     1      -4.696  50.638 -10.119  1.00  0.00     0.180 C 
BRANCH  29  30
HETATM   30  O1  UNL     1      -3.708  50.466  -9.075  1.00  0.00    -0.390 OA
HETATM   31  H9  UNL     1      -2.953  51.051  -9.314  1.00  0.00     0.210 HD
ENDBRANCH  29  30
BRANCH  29  32
HETATM   32  C6  UNL     1      -5.570  49.342 -10.239  1.00  0.00     0.079 C 
HETATM   33  C7  UNL     1      -7.060  49.672 -10.410  1.00  0.00     0.048 C 
HETATM   34  C8  UNL     1      -5.148  48.476 -11.436  1.00  0.00     0.048 C 
BRANCH  32  35
HETATM   35  O2  UNL     1      -5.474  48.574  -9.031  1.00  0.00    -0.388 OA
HETATM   36  H16 UNL     1      -5.255  47.647  -9.246  1.00  0.00     0.210 HD
ENDBRANCH  32  35
ENDBRANCH  29  32
ENDBRANCH   4  29
BRANCH  28  37
HETATM   37  O6  UNL     1      -1.494  52.544 -12.740  1.00  0.00    -0.384 OA
HETATM   38  H50 UNL     1      -1.041  51.671 -12.774  1.00  0.00     0.210 HD
ENDBRANCH  28  37
BRANCH  27  39
HETATM   39  O5  UNL     1       0.584  53.266 -12.049  1.00  0.00    -0.386 OA
HETATM   40  H49 UNL     1       0.001  53.465 -12.816  1.00  0.00     0.210 HD
ENDBRANCH  27  39
TORSDOF 6
ENDMDL
MODEL 5
REMARK minimizedAffinity -8.59784126
REMARK CNNscore 0.70528543
REMARK CNNaffinity 6.31733465
REMARK  6 active torsions:
REMARK  status: ('A' for Active; 'I' for Inactive)
REMARK    1  A    between atoms: C4_4  and  C5_5 
REMARK    2  A    between atoms: C5_5  and  O1_6 
REMARK    3  A    between atoms: C5_5  and  C6_7 
REMARK    4  A    between atoms: C6_7  and  O2_10 
REMARK    5  A    between atoms: C29_33  and  O5_34 
REMARK    6  A    between atoms: C30_35  and  O6_36 
ROOT
HETATM    1  C1  UNL     1      -6.476  47.399 -29.087  1.00  0.00     0.013 C 
HETATM    2  C2  UNL     1      -7.214  47.831 -30.352  1.00  0.00     0.024 C 
HETATM    3  C3  UNL     1      -8.467  48.699 -29.993  1.00  0.00     0.042 C 
HETATM    4  C4  UNL     1      -9.797  47.942 -29.709  1.00  0.00     0.154 C 
HETATM    5  O3  UNL     1      -9.996  46.758 -30.561  1.00  0.00    -0.375 OA
HETATM    6  C9  UNL     1      -8.832  45.953 -30.605  1.00  0.00     0.160 C 
HETATM    7  C10 UNL     1      -8.916  44.626 -31.380  1.00  0.00     0.048 C 
HETATM    8  C11 UNL     1      -7.405  44.242 -31.492  1.00  0.00     0.000 C 
HETATM    9  C12 UNL     1      -6.924  43.895 -30.031  1.00  0.00     0.019 C 
HETATM   10  C13 UNL     1      -6.980  43.050 -32.485  1.00  0.00    -0.029 C 
HETATM   11  C14 UNL     1      -7.646  43.188 -33.884  1.00  0.00     0.016 C 
HETATM   12  C15 UNL     1      -7.399  41.674 -31.902  1.00  0.00     0.011 C 
HETATM   13  C16 UNL     1      -6.908  40.486 -32.729  1.00  0.00     0.007 C 
HETATM   14  C17 UNL     1      -5.382  40.454 -32.995  1.00  0.00     0.009 C 
HETATM   15  C18 UNL     1      -4.996  39.260 -33.975  1.00  0.00     0.017 C 
HETATM   16  C19 UNL     1      -6.134  38.757 -34.890  1.00  0.00     0.023 C 
HETATM   17  C20 UNL     1      -4.531  38.067 -33.111  1.00  0.00     0.023 C 
HETATM   18  C21 UNL     1      -3.868  39.634 -34.947  1.00  0.00     0.135 C 
HETATM   19  O4  UNL     1      -2.972  38.836 -35.243  1.00  0.00    -0.297 OA
HETATM   20  C22 UNL     1      -3.932  40.976 -35.645  1.00  0.00     0.080 C 
HETATM   21  C23 UNL     1      -4.784  42.003 -34.907  1.00  0.00     0.017 C 
HETATM   22  C24 UNL     1      -4.735  41.841 -33.373  1.00  0.00    -0.035 C 
HETATM   23  C25 UNL     1      -3.229  41.811 -32.926  1.00  0.00     0.016 C 
HETATM   24  C26 UNL     1      -5.397  43.037 -32.570  1.00  0.00     0.003 C 
HETATM   25  C27 UNL     1      -4.778  44.447 -32.855  1.00  0.00     0.009 C 
HETATM   26  C28 UNL     1      -5.304  45.588 -31.934  1.00  0.00     0.042 C 
HETATM   27  C29 UNL     1      -6.821  45.619 -31.976  1.00  0.00     0.100 C 
HETATM   28  C30 UNL     1      -7.695  46.731 -31.296  1.00  0.00     0.119 C 
ENDROOT
BRANCH   4  29
HETATM   29  C5  UNL     1     -10.075  47.534 -28.229  1.00  0.00     0.180 C 
BRANCH  29  30
HETATM   30  O1  UNL     1      -9.745  46.129 -28.128  1.00  0.00    -0.390 OA
HETATM   31  H9  UNL     1      -9.072  45.955 -28.827  1.00  0.00     0.210 HD
ENDBRANCH  29  30
BRANCH  29  32
HETATM   32  C6  UNL     1     -11.532  47.773 -27.700  1.00  0.00     0.079 C 
HETATM   33  C7  UNL     1     -12.491  48.177 -28.831  1.00  0.00     0.048 C 
HETATM   34  C8  UNL     1     -12.110  46.518 -27.030  1.00  0.00     0.048 C 
BRANCH  32  35
HETATM   35  O2  UNL     1     -11.541  48.865 -26.770  1.00  0.00    -0.388 OA
HETATM   36  H16 UNL     1     -11.999  48.596 -25.950  1.00  0.00     0.210 HD
ENDBRANCH  32  35
ENDBRANCH  29  32
ENDBRANCH   4  29
BRANCH  28  37
HETATM   37  O6  UNL     1      -8.269  47.513 -32.412  1.00  0.00    -0.384 OA
HETATM   38  H50 UNL     1      -9.051  46.999 -32.718  1.00  0.00     0.210 HD
ENDBRANCH  28  37
BRANCH  27  39
HETATM   39  O5  UNL     1      -7.113  45.774 -33.391  1.00  0.00    -0.386 OA
HETATM   40  H49 UNL     1      -7.164  46.745 -33.543  1.00  0.00     0.210 HD
ENDBRANCH  27  39
TORSDOF 6
ENDMDL
MODEL 6
REMARK minimizedAffinity -8.16745949
REMARK CNNscore 0.698803961
REMARK CNNaffinity 6.77583838
REMARK  6 active torsions:
REMARK  status: ('A' for Active; 'I' for Inactive)
REMARK    1  A    between atoms: C4_4  and  C5_5 
REMARK    2  A    between atoms: C5_5  and  O1_6 
REMARK    3  A    between atoms: C5_5  and  C6_7 
REMARK    4  A    between atoms: C6_7  and  O2_10 
REMARK    5  A    between atoms: C29_33  and  O5_34 
REMARK    6  A    between atoms: C30_35  and  O6_36 
ROOT
HETATM    1  C1  UNL     1      -3.026  51.312  -9.248  1.00  0.00     0.013 C 
HETATM    2  C2  UNL     1      -3.228  52.574 -10.083  1.00  0.00     0.024 C 
HETATM    3  C3  UNL     1      -4.129  52.275 -11.329  1.00  0.00     0.042 C 
HETATM    4  C4  UNL     1      -3.414  51.772 -12.616  1.00  0.00     0.154 C 
HETATM    5  O3  UNL     1      -2.101  52.397 -12.845  1.00  0.00    -0.375 OA
HETATM    6  C9  UNL     1      -1.315  52.390 -11.668  1.00  0.00     0.160 C 
HETATM    7  C10 UNL     1       0.125  52.923 -11.772  1.00  0.00     0.048 C 
HETATM    8  C11 UNL     1       0.503  53.080 -10.264  1.00  0.00     0.000 C 
HETATM    9  C12 UNL     1       0.592  51.620  -9.674  1.00  0.00     0.019 C 
HETATM   10  C13 UNL     1       1.841  53.887  -9.881  1.00  0.00    -0.029 C 
HETATM   11  C14 UNL     1       1.949  55.237 -10.645  1.00  0.00     0.016 C 
HETATM   12  C15 UNL     1       3.104  53.052 -10.223  1.00  0.00     0.011 C 
HETATM   13  C16 UNL     1       4.408  53.702  -9.762  1.00  0.00     0.007 C 
HETATM   14  C17 UNL     1       4.465  54.070  -8.258  1.00  0.00     0.009 C 
HETATM   15  C18 UNL     1       5.803  54.861  -7.912  1.00  0.00     0.017 C 
HETATM   16  C19 UNL     1       6.468  55.593  -9.098  1.00  0.00     0.023 C 
HETATM   17  C20 UNL     1       6.827  53.845  -7.359  1.00  0.00     0.023 C 
HETATM   18  C21 UNL     1       5.584  55.961  -6.864  1.00  0.00     0.135 C 
HETATM   19  O4  UNL     1       6.410  56.185  -5.972  1.00  0.00    -0.297 OA
HETATM   20  C22 UNL     1       4.380  56.868  -7.010  1.00  0.00     0.080 C 
HETATM   21  C23 UNL     1       3.254  56.252  -7.833  1.00  0.00     0.017 C 
HETATM   22  C24 UNL     1       3.154  54.721  -7.673  1.00  0.00    -0.035 C 
HETATM   23  C25 UNL     1       3.089  54.386  -6.140  1.00  0.00     0.016 C 
HETATM   24  C26 UNL     1       1.848  54.084  -8.307  1.00  0.00     0.003 C 
HETATM   25  C27 UNL     1       0.499  54.646  -7.744  1.00  0.00     0.009 C 
HETATM   26  C28 UNL     1      -0.774  53.893  -8.233  1.00  0.00     0.042 C 
HETATM   27  C29 UNL     1      -0.779  53.829  -9.749  1.00  0.00     0.100 C 
HETATM   28  C30 UNL     1      -1.979  53.283 -10.601  1.00  0.00     0.119 C 
ENDROOT
BRANCH   4  29
HETATM   29  C5  UNL     1      -3.258  50.229 -12.781  1.00  0.00     0.180 C 
BRANCH  29  30
HETATM   30  O1  UNL     1      -2.341  49.802 -11.746  1.00  0.00    -0.390 OA
HETATM   31  H9  UNL     1      -2.423  50.461 -11.019  1.00  0.00     0.210 HD
ENDBRANCH  29  30
BRANCH  29  32
HETATM   32  C6  UNL     1      -2.754  49.721 -14.176  1.00  0.00     0.079 C 
HETATM   33  C7  UNL     1      -3.064  50.727 -15.295  1.00  0.00     0.048 C 
HETATM   34  C8  UNL     1      -1.237  49.477 -14.182  1.00  0.00     0.048 C 
BRANCH  32  35
HETATM   35  O2  UNL     1      -3.439  48.513 -14.534  1.00  0.00    -0.388 OA
HETATM   36  H16 UNL     1      -2.790  47.831 -14.794  1.00  0.00     0.210 HD
ENDBRANCH  32  35
ENDBRANCH  29  32
ENDBRANCH   4  29
BRANCH  28  37
HETATM   37  O6  UNL     1      -2.554  54.468 -11.271  1.00  0.00    -0.384 OA
HETATM   38  H50 UNL     1      -1.986  54.626 -12.059  1.00  0.00     0.210 HD
ENDBRANCH  28  37
BRANCH  27  39
HETATM   39  O5  UNL     1      -0.689  55.224 -10.143  1.00  0.00    -0.386 OA
HETATM   40  H49 UNL     1      -1.620  55.533 -10.229  1.00  0.00     0.210 HD
ENDBRANCH  27  39
TORSDOF 6
ENDMDL
MODEL 7
REMARK minimizedAffinity -7.51907301
REMARK CNNscore 0.686235547
REMARK CNNaffinity 6.36486578
REMARK  6 active torsions:
REMARK  status: ('A' for Active; 'I' for Inactive)
REMARK    1  A    between atoms: C4_4  and  C5_5 
REMARK    2  A    between atoms: C5_5  and  O1_6 
REMARK    3  A    between atoms: C5_5  and  C6_7 
REMARK    4  A    between atoms: C6_7  and  O2_10 
REMARK    5  A    between atoms: C29_33  and  O5_34 
REMARK    6  A    between atoms: C30_35  and  O6_36 
ROOT
HETATM    1  C1  UNL     1      -2.194  49.468 -11.077  1.00  0.00     0.013 C 
HETATM    2  C2  UNL     1      -2.775  50.647 -11.852  1.00  0.00     0.024 C 
HETATM    3  C3  UNL     1      -3.034  50.256 -13.346  1.00  0.00     0.042 C 
HETATM    4  C4  UNL     1      -1.851  50.435 -14.341  1.00  0.00     0.154 C 
HETATM    5  O3  UNL     1      -1.027  51.623 -14.071  1.00  0.00    -0.375 OA
HETATM    6  C9  UNL     1      -0.690  51.716 -12.700  1.00  0.00     0.160 C 
HETATM    7  C10 UNL     1       0.251  52.857 -12.275  1.00  0.00     0.048 C 
HETATM    8  C11 UNL     1       0.084  52.830 -10.722  1.00  0.00     0.000 C 
HETATM    9  C12 UNL     1       0.737  51.482 -10.227  1.00  0.00     0.019 C 
HETATM   10  C13 UNL     1       0.674  54.051  -9.857  1.00  0.00    -0.029 C 
HETATM   11  C14 UNL     1       0.284  55.433 -10.456  1.00  0.00     0.016 C 
HETATM   12  C15 UNL     1       2.223  53.986  -9.800  1.00  0.00     0.011 C 
HETATM   13  C16 UNL     1       2.845  55.040  -8.884  1.00  0.00     0.007 C 
HETATM   14  C17 UNL     1       2.307  55.049  -7.430  1.00  0.00     0.009 C 
HETATM   15  C18 UNL     1       2.916  56.265  -6.602  1.00  0.00     0.017 C 
HETATM   16  C19 UNL     1       3.407  57.463  -7.445  1.00  0.00     0.023 C 
HETATM   17  C20 UNL     1       4.123  55.736  -5.797  1.00  0.00     0.023 C 
HETATM   18  C21 UNL     1       1.903  56.880  -5.626  1.00  0.00     0.135 C 
HETATM   19  O4  UNL     1       2.232  57.252  -4.495  1.00  0.00    -0.297 OA
HETATM   20  C22 UNL     1       0.494  57.143  -6.118  1.00  0.00     0.080 C 
HETATM   21  C23 UNL     1       0.099  56.281  -7.311  1.00  0.00     0.017 C 
HETATM   22  C24 UNL     1       0.747  54.880  -7.289  1.00  0.00    -0.035 C 
HETATM   23  C25 UNL     1       0.455  54.222  -5.892  1.00  0.00     0.016 C 
HETATM   24  C26 UNL     1       0.163  53.875  -8.367  1.00  0.00     0.003 C 
HETATM   25  C27 UNL     1      -1.378  53.618  -8.263  1.00  0.00     0.009 C 
HETATM   26  C28 UNL     1      -1.915  52.495  -9.201  1.00  0.00     0.042 C 
HETATM   27  C29 UNL     1      -1.485  52.774 -10.629  1.00  0.00     0.100 C 
HETATM   28  C30 UNL     1      -1.969  51.945 -11.870  1.00  0.00     0.119 C 
ENDROOT
BRANCH   4  29
HETATM   29  C5  UNL     1      -0.901  49.213 -14.537  1.00  0.00     0.180 C 
BRANCH  29  30
HETATM   30  O1  UNL     1       0.165  49.372 -13.573  1.00  0.00    -0.390 OA
HETATM   31  H9  UNL     1      -0.211  49.901 -12.833  1.00  0.00     0.210 HD
ENDBRANCH  29  30
BRANCH  29  32
HETATM   32  C6  UNL     1      -0.294  49.022 -15.970  1.00  0.00     0.079 C 
HETATM   33  C7  UNL     1      -1.386  48.812 -17.030  1.00  0.00     0.048 C 
HETATM   34  C8  UNL     1       0.542  50.236 -16.403  1.00  0.00     0.048 C 
BRANCH  32  35
HETATM   35  O2  UNL     1       0.518  47.840 -16.004  1.00  0.00    -0.388 OA
HETATM   36  H16 UNL     1       1.392  48.051 -16.385  1.00  0.00     0.210 HD
ENDBRANCH  32  35
ENDBRANCH  29  32
ENDBRANCH   4  29
BRANCH  28  37
HETATM   37  O6  UNL     1      -2.862  52.851 -12.622  1.00  0.00    -0.384 OA
HETATM   38  H50 UNL     1      -2.266  53.422 -13.158  1.00  0.00     0.210 HD
ENDBRANCH  28  37
BRANCH  27  39
HETATM   39  O5  UNL     1      -2.010  54.104 -10.883  1.00  0.00    -0.386 OA
HETATM   40  H49 UNL     1      -2.908  53.964 -11.262  1.00  0.00     0.210 HD
ENDBRANCH  27  39
TORSDOF 6
ENDMDL
MODEL 8
REMARK minimizedAffinity -7.55159235
REMARK CNNscore 0.646994233
REMARK CNNaffinity 6.60550547
REMARK  6 active torsions:
REMARK  status: ('A' for Active; 'I' for Inactive)
REMARK    1  A    between atoms: C4_4  and  C5_5 
REMARK    2  A    between atoms: C5_5  and  O1_6 
REMARK    3  A    between atoms: C5_5  and  C6_7 
REMARK    4  A    between atoms: C6_7  and  O2_10 
REMARK    5  A    between atoms: C29_33  and  O5_34 
REMARK    6  A    between atoms: C30_35  and  O6_36 
ROOT
HETATM    1  C1  UNL     1      -3.075  51.004  -8.967  1.00  0.00     0.013 C 
HETATM    2  C2  UNL     1      -3.229  51.945 -10.159  1.00  0.00     0.024 C 
HETATM    3  C3  UNL     1      -4.016  51.246 -11.318  1.00  0.00     0.042 C 
HETATM    4  C4  UNL     1      -3.188  50.406 -12.333  1.00  0.00     0.154 C 
HETATM    5  O3  UNL     1      -1.872  50.987 -12.644  1.00  0.00    -0.375 OA
HETATM    6  C9  UNL     1      -1.187  51.369 -11.466  1.00  0.00     0.160 C 
HETATM    7  C10 UNL     1       0.247  51.906 -11.621  1.00  0.00     0.048 C 
HETATM    8  C11 UNL     1       0.496  52.527 -10.209  1.00  0.00     0.000 C 
HETATM    9  C12 UNL     1       0.561  51.320  -9.196  1.00  0.00     0.019 C 
HETATM   10  C13 UNL     1       1.783  53.468  -9.992  1.00  0.00    -0.029 C 
HETATM   11  C14 UNL     1       1.931  54.526 -11.122  1.00  0.00     0.016 C 
HETATM   12  C15 UNL     1       3.084  52.622  -9.969  1.00  0.00     0.011 C 
HETATM   13  C16 UNL     1       4.334  53.435  -9.632  1.00  0.00     0.007 C 
HETATM   14  C17 UNL     1       4.259  54.243  -8.312  1.00  0.00     0.009 C 
HETATM   15  C18 UNL     1       5.550  55.157  -8.126  1.00  0.00     0.017 C 
HETATM   16  C19 UNL     1       6.298  55.523  -9.427  1.00  0.00     0.023 C 
HETATM   17  C20 UNL     1       6.541  54.400  -7.215  1.00  0.00     0.023 C 
HETATM   18  C21 UNL     1       5.226  56.513  -7.483  1.00  0.00     0.135 C 
HETATM   19  O4  UNL     1       5.970  57.030  -6.643  1.00  0.00    -0.297 OA
HETATM   20  C22 UNL     1       4.022  57.282  -7.988  1.00  0.00     0.080 C 
HETATM   21  C23 UNL     1       2.980  56.399  -8.665  1.00  0.00     0.017 C 
HETATM   22  C24 UNL     1       2.893  54.985  -8.053  1.00  0.00    -0.035 C 
HETATM   23  C25 UNL     1       2.706  55.128  -6.500  1.00  0.00     0.016 C 
HETATM   24  C26 UNL     1       1.655  54.132  -8.558  1.00  0.00     0.003 C 
HETATM   25  C27 UNL     1       0.255  54.781  -8.295  1.00  0.00     0.009 C 
HETATM   26  C28 UNL     1      -0.960  53.863  -8.623  1.00  0.00     0.042 C 
HETATM   27  C29 UNL     1      -0.838  53.343 -10.044  1.00  0.00     0.100 C 
HETATM   28  C30 UNL     1      -1.952  52.515 -10.775  1.00  0.00     0.119 C 
ENDROOT
BRANCH   4  29
HETATM   29  C5  UNL     1      -2.993  48.893 -12.007  1.00  0.00     0.180 C 
BRANCH  29  30
HETATM   30  O1  UNL     1      -2.057  48.386 -12.987  1.00  0.00    -0.390 OA
HETATM   31  H9  UNL     1      -1.510  49.156 -13.268  1.00  0.00     0.210 HD
ENDBRANCH  29  30
BRANCH  29  32
HETATM   32  C6  UNL     1      -4.286  48.006 -12.003  1.00  0.00     0.079 C 
HETATM   33  C7  UNL     1      -4.047  46.652 -11.317  1.00  0.00     0.048 C 
HETATM   34  C8  UNL     1      -5.449  48.695 -11.272  1.00  0.00     0.048 C 
BRANCH  32  35
HETATM   35  O2  UNL     1      -4.675  47.702 -13.349  1.00  0.00    -0.388 OA
HETATM   36  H16 UNL     1      -5.620  47.911 -13.475  1.00  0.00     0.210 HD
ENDBRANCH  32  35
ENDBRANCH  29  32
ENDBRANCH   4  29
BRANCH  28  37
HETATM   37  O6  UNL     1      -2.490  53.417 -11.815  1.00  0.00    -0.384 OA
HETATM   38  H50 UNL     1      -1.861  53.352 -12.569  1.00  0.00     0.210 HD
ENDBRANCH  28  37
BRANCH  27  39
HETATM   39  O5  UNL     1      -0.739  54.556 -10.837  1.00  0.00    -0.386 OA
HETATM   40  H49 UNL     1      -1.664  54.785 -11.082  1.00  0.00     0.210 HD
ENDBRANCH  27  39
TORSDOF 6
ENDMDL
MODEL 9
REMARK minimizedAffinity -7.02677488
REMARK CNNscore 0.63670826
REMARK CNNaffinity 6.12706232
REMARK  6 active torsions:
REMARK  status: ('A' for Active; 'I' for Inactive)
REMARK    1  A    between atoms: C4_4  and  C5_5 
REMARK    2  A    between atoms: C5_5  and  O1_6 
REMARK    3  A    between atoms: C5_5  and  C6_7 
REMARK    4  A    between atoms: C6_7  and  O2_10 
REMARK    5  A    between atoms: C29_33  and  O5_34 
REMARK    6  A    between atoms: C30_35  and  O6_36 
ROOT
HETATM    1  C1  UNL     1       1.743  49.982 -11.512  1.00  0.00     0.013 C 
HETATM    2  C2  UNL     1       0.313  50.450 -11.253  1.00  0.00     0.024 C 
HETATM    3  C3  UNL     1      -0.563  50.296 -12.542  1.00  0.00     0.042 C 
HETATM    4  C4  UNL     1      -0.561  51.485 -13.546  1.00  0.00     0.154 C 
HETATM    5  O3  UNL     1      -0.511  52.805 -12.897  1.00  0.00    -0.375 OA
HETATM    6  C9  UNL     1       0.489  52.850 -11.897  1.00  0.00     0.160 C 
HETATM    7  C10 UNL     1       0.729  54.197 -11.193  1.00  0.00     0.048 C 
HETATM    8  C11 UNL     1       1.601  53.754  -9.974  1.00  0.00     0.000 C 
HETATM    9  C12 UNL     1       2.987  53.287 -10.564  1.00  0.00     0.019 C 
HETATM   10  C13 UNL     1       1.862  54.805  -8.784  1.00  0.00    -0.029 C 
HETATM   11  C14 UNL     1       0.552  55.511  -8.330  1.00  0.00     0.016 C 
HETATM   12  C15 UNL     1       2.856  55.909  -9.234  1.00  0.00     0.011 C 
HETATM   13  C16 UNL     1       3.254  56.866  -8.110  1.00  0.00     0.007 C 
HETATM   14  C17 UNL     1       3.824  56.190  -6.838  1.00  0.00     0.009 C 
HETATM   15  C18 UNL     1       4.076  57.258  -5.685  1.00  0.00     0.017 C 
HETATM   16  C19 UNL     1       3.236  58.551  -5.782  1.00  0.00     0.023 C 
HETATM   17  C20 UNL     1       5.565  57.665  -5.730  1.00  0.00     0.023 C 
HETATM   18  C21 UNL     1       3.758  56.705  -4.288  1.00  0.00     0.135 C 
HETATM   19  O4  UNL     1       4.462  56.969  -3.308  1.00  0.00    -0.297 OA
HETATM   20  C22 UNL     1       2.478  55.917  -4.098  1.00  0.00     0.080 C 
HETATM   21  C23 UNL     1       1.947  55.303  -5.388  1.00  0.00     0.017 C 
HETATM   22  C24 UNL     1       3.065  54.890  -6.369  1.00  0.00    -0.035 C 
HETATM   23  C25 UNL     1       4.090  53.983  -5.597  1.00  0.00     0.016 C 
HETATM   24  C26 UNL     1       2.566  54.023  -7.598  1.00  0.00     0.003 C 
HETATM   25  C27 UNL     1       1.841  52.690  -7.215  1.00  0.00     0.009 C 
HETATM   26  C28 UNL     1       1.517  51.755  -8.419  1.00  0.00     0.042 C 
HETATM   27  C29 UNL     1       0.750  52.531  -9.474  1.00  0.00     0.100 C 
HETATM   28  C30 UNL     1       0.119  51.881 -10.756  1.00  0.00     0.119 C 
ENDROOT
BRANCH   4  29
HETATM   29  C5  UNL     1       0.511  51.454 -14.678  1.00  0.00     0.180 C 
BRANCH  29  30
HETATM   30  O1  UNL     1       0.868  52.832 -14.935  1.00  0.00    -0.390 OA
HETATM   31  H9  UNL     1       0.694  53.321 -14.098  1.00  0.00     0.210 HD
ENDBRANCH  29  30
BRANCH  29  32
HETATM   32  C6  UNL     1       0.093  50.757 -16.018  1.00  0.00     0.079 C 
HETATM   33  C7  UNL     1      -1.434  50.633 -16.146  1.00  0.00     0.048 C 
HETATM   34  C8  UNL     1       0.597  51.530 -17.247  1.00  0.00     0.048 C 
BRANCH  32  35
HETATM   35  O2  UNL     1       0.600  49.415 -16.052  1.00  0.00    -0.388 OA
HETATM   36  H16 UNL     1       1.072  49.262 -16.892  1.00  0.00     0.210 HD
ENDBRANCH  32  35
ENDBRANCH  29  32
ENDBRANCH   4  29
BRANCH  28  37
HETATM   37  O6  UNL     1      -1.342  51.938 -10.545  1.00  0.00    -0.384 OA
HETATM   38  H50 UNL     1      -1.609  52.850 -10.801  1.00  0.00     0.210 HD
ENDBRANCH  28  37
BRANCH  27  39
HETATM   39  O5  UNL     1      -0.402  53.035  -8.747  1.00  0.00    -0.386 OA
HETATM   40  H49 UNL     1      -1.100  52.349  -8.853  1.00  0.00     0.210 HD
ENDBRANCH  27  39
TORSDOF 6
ENDMDL
