MODEL 1
REMARK minimizedAffinity -8.05417824
REMARK CNNscore 0.52009666
REMARK CNNaffinity 6.66460752
REMARK  13 active torsions:
REMARK  status: ('A' for Active; 'I' for Inactive)
REMARK    1  A    between atoms: C19_21  and  O3_22 
REMARK    2  A    between atoms: C19_21  and  C20_23 
REMARK    3  A    between atoms: C20_23  and  C21_25 
REMARK    4  A    between atoms: C21_25  and  O5_26 
REMARK    5  A    between atoms: O5_26  and  C22_27 
REMARK    6  A    between atoms: C22_27  and  C23_29 
REMARK    7  A    between atoms: C23_29  and  C24_30 
REMARK    8  A    between atoms: C24_30  and  C25_31 
REMARK       I    between atoms: C25_31  and  N1_33 
REMARK    9  A    between atoms: N1_33  and  C26_34 
REMARK   10  A    between atoms: C26_34  and  C27_35 
REMARK   11  A    between atoms: C27_35  and  C28_36 
REMARK   12  A    between atoms: C27_35  and  C29_39 
REMARK   13  A    between atoms: C28_36  and  O9_38 
ROOT
HETATM    1  C20 UNL     1      -1.407  11.547  18.740  1.00  0.00     0.185 C 
HETATM    2  O4  UNL     1      -1.141  12.737  18.557  1.00  0.00    -0.292 OA
ENDROOT
BRANCH   1   3
HETATM    3  C19 UNL     1      -2.596  10.850  18.033  1.00  0.00     0.128 C 
HETATM    4  C14 UNL     1      -2.284   9.988  16.762  1.00  0.00     0.005 C 
HETATM    5  C13 UNL     1      -1.711   8.582  17.011  1.00  0.00     0.091 C 
HETATM    6  C15 UNL     1      -1.338  10.730  15.771  1.00  0.00     0.019 C 
HETATM    7  C16 UNL     1      -3.737   9.841  16.199  1.00  0.00     0.002 C 
HETATM    8  C12 UNL     1      -1.823   7.757  15.732  1.00  0.00     0.133 C 
HETATM    9  C11 UNL     1      -3.245   7.613  15.171  1.00  0.00     0.072 C 
HETATM   10  O2  UNL     1      -0.836   7.222  15.235  1.00  0.00    -0.297 OA
HETATM   11  C2  UNL     1      -3.454   6.647  13.966  1.00  0.00    -0.009 C 
HETATM   12  C10 UNL     1      -3.800   9.043  14.884  1.00  0.00     0.003 C 
HETATM   13  C1  UNL     1      -2.826   7.204  12.667  1.00  0.00     0.021 C 
HETATM   14  C3  UNL     1      -2.875   5.237  14.259  1.00  0.00     0.022 C 
HETATM   15  C7  UNL     1      -4.974   6.503  13.781  1.00  0.00    -0.067 C 
HETATM   16  C4  UNL     1      -3.268   4.195  13.212  1.00  0.00     0.084 C 
HETATM   17  C5  UNL     1      -4.755   4.179  12.959  1.00  0.00     0.149 C 
HETATM   18  O1  UNL     1      -5.323   3.220  12.439  1.00  0.00    -0.293 OA
HETATM   19  C6  UNL     1      -5.548   5.378  13.316  1.00  0.00     0.053 C 
HETATM   20  C8  UNL     1      -5.863   7.637  14.262  1.00  0.00     0.035 C 
HETATM   21  C9  UNL     1      -5.198   9.009  14.230  1.00  0.00     0.010 C 
HETATM   22  C17 UNL     1      -4.247  11.278  16.215  1.00  0.00     0.009 C 
HETATM   23  C18 UNL     1      -3.628  11.881  17.494  1.00  0.00     0.047 C 
BRANCH   3  24
HETATM   24  O3  UNL     1      -3.279  10.040  19.008  1.00  0.00    -0.381 OA
HETATM   25  H25 UNL     1      -2.639   9.416  19.399  1.00  0.00     0.211 HD
ENDBRANCH   3  24
ENDBRANCH   1   3
BRANCH   1  26
HETATM   26  C21 UNL     1      -0.464  10.680  19.578  1.00  0.00     0.260 C 
BRANCH  26  27
HETATM   27  O5  UNL     1       0.906  10.855  19.247  1.00  0.00    -0.314 OA
BRANCH  27  28
HETATM   28  C22 UNL     1       1.675  11.386  20.237  1.00  0.00     0.259 C 
HETATM   29  O6  UNL     1       1.541  12.507  20.708  1.00  0.00    -0.265 OA
BRANCH  28  30
HETATM   30  C23 UNL     1       2.772  10.419  20.612  1.00  0.00     0.120 C 
BRANCH  30  31
HETATM   31  C24 UNL     1       2.531   9.832  21.999  1.00  0.00     0.112 C 
BRANCH  31  32
HETATM   32  C25 UNL     1       3.702  10.097  22.924  1.00  0.00     0.218 C 
HETATM   33  O7  UNL     1       3.837   9.546  24.013  1.00  0.00    -0.274 OA
HETATM   34  N1  UNL     1       4.618  10.979  22.399  1.00  0.00    -0.360 N 
HETATM   35  H32 UNL     1       4.282  11.635  21.701  1.00  0.00     0.162 HD
BRANCH  34  36
HETATM   36  C26 UNL     1       5.773  11.415  23.176  1.00  0.00     0.142 C 
BRANCH  36  37
HETATM   37  C27 UNL     1       6.776  12.268  22.373  1.00  0.00     0.134 C 
BRANCH  37  38
HETATM   38  C28 UNL     1       8.113  12.399  23.100  1.00  0.00     0.150 C 
HETATM   39  O8  UNL     1       8.577  13.387  23.647  1.00  0.00    -0.649 OA
BRANCH  38  40
HETATM   40  O9  UNL     1       8.868  11.277  23.055  1.00  0.00    -0.776 OA
HETATM   41  H36 UNL     1       9.706  11.566  23.479  1.00  0.00     0.167 HD
ENDBRANCH  38  40
ENDBRANCH  37  38
BRANCH  37  42
HETATM   42  C29 UNL     1       6.125  13.608  22.033  1.00  0.00    -0.042 A 
HETATM   43  C30 UNL     1       5.440  14.308  23.041  1.00  0.00     0.008 A 
HETATM   44  C31 UNL     1       4.862  15.551  22.778  1.00  0.00     0.001 A 
HETATM   45  C32 UNL     1       4.960  16.114  21.508  1.00  0.00     0.000 A 
HETATM   46  C33 UNL     1       5.652  15.441  20.502  1.00  0.00     0.001 A 
HETATM   47  C34 UNL     1       6.239  14.201  20.765  1.00  0.00     0.008 A 
ENDBRANCH  37  42
ENDBRANCH  36  37
ENDBRANCH  34  36
ENDBRANCH  31  32
ENDBRANCH  30  31
ENDBRANCH  28  30
ENDBRANCH  27  28
ENDBRANCH  26  27
ENDBRANCH   1  26
TORSDOF 13
ENDMDL
MODEL 2
REMARK minimizedAffinity -8.16889095
REMARK CNNscore 0.454283029
REMARK CNNaffinity 7.37408209
REMARK  13 active torsions:
REMARK  status: ('A' for Active; 'I' for Inactive)
REMARK    1  A    between atoms: C19_21  and  O3_22 
REMARK    2  A    between atoms: C19_21  and  C20_23 
REMARK    3  A    between atoms: C20_23  and  C21_25 
REMARK    4  A    between atoms: C21_25  and  O5_26 
REMARK    5  A    between atoms: O5_26  and  C22_27 
REMARK    6  A    between atoms: C22_27  and  C23_29 
REMARK    7  A    between atoms: C23_29  and  C24_30 
REMARK    8  A    between atoms: C24_30  and  C25_31 
REMARK       I    between atoms: C25_31  and  N1_33 
REMARK    9  A    between atoms: N1_33  and  C26_34 
REMARK   10  A    between atoms: C26_34  and  C27_35 
REMARK   11  A    between atoms: C27_35  and  C28_36 
REMARK   12  A    between atoms: C27_35  and  C29_39 
REMARK   13  A    between atoms: C28_36  and  O9_38 
ROOT
HETATM    1  C20 UNL     1     -13.360   8.895  13.089  1.00  0.00     0.185 C 
HETATM    2  O4  UNL     1     -13.574   9.398  11.983  1.00  0.00    -0.292 OA
ENDROOT
BRANCH   1   3
HETATM    3  C19 UNL     1     -11.979   8.989  13.784  1.00  0.00     0.128 C 
HETATM    4  C14 UNL     1     -11.109   7.687  13.855  1.00  0.00     0.005 C 
HETATM    5  C13 UNL     1     -10.349   7.300  12.575  1.00  0.00     0.091 C 
HETATM    6  C15 UNL     1     -11.941   6.453  14.318  1.00  0.00     0.019 C 
HETATM    7  C16 UNL     1     -10.070   8.140  14.934  1.00  0.00     0.002 C 
HETATM    8  C12 UNL     1      -9.283   6.263  12.915  1.00  0.00     0.133 C 
HETATM    9  C11 UNL     1      -8.263   6.700  13.976  1.00  0.00     0.072 C 
HETATM   10  O2  UNL     1      -9.241   5.183  12.333  1.00  0.00    -0.297 OA
HETATM   11  C2  UNL     1      -7.051   5.757  14.248  1.00  0.00    -0.009 C 
HETATM   12  C10 UNL     1      -9.042   7.050  15.282  1.00  0.00     0.003 C 
HETATM   13  C1  UNL     1      -7.483   4.457  14.966  1.00  0.00     0.021 C 
HETATM   14  C3  UNL     1      -6.302   5.400  12.936  1.00  0.00     0.022 C 
HETATM   15  C7  UNL     1      -6.080   6.543  15.145  1.00  0.00    -0.067 C 
HETATM   16  C4  UNL     1      -4.974   4.682  13.176  1.00  0.00     0.084 C 
HETATM   17  C5  UNL     1      -4.106   5.415  14.168  1.00  0.00     0.149 C 
HETATM   18  O1  UNL     1      -2.893   5.222  14.249  1.00  0.00    -0.293 OA
HETATM   19  C6  UNL     1      -4.746   6.370  15.102  1.00  0.00     0.053 C 
HETATM   20  C8  UNL     1      -6.650   7.643  16.024  1.00  0.00     0.035 C 
HETATM   21  C9  UNL     1      -8.098   7.417  16.447  1.00  0.00     0.010 C 
HETATM   22  C17 UNL     1     -10.961   8.695  16.040  1.00  0.00     0.009 C 
HETATM   23  C18 UNL     1     -12.117   9.381  15.283  1.00  0.00     0.047 C 
BRANCH   3  24
HETATM   24  O3  UNL     1     -11.228  10.035  13.141  1.00  0.00    -0.381 OA
HETATM   25  H25 UNL     1     -11.170   9.837  12.188  1.00  0.00     0.211 HD
ENDBRANCH   3  24
ENDBRANCH   1   3
BRANCH   1  26
HETATM   26  C21 UNL     1     -14.518   8.277  13.877  1.00  0.00     0.260 C 
BRANCH  26  27
HETATM   27  O5  UNL     1     -15.740   8.245  13.153  1.00  0.00    -0.314 OA
BRANCH  27  28
HETATM   28  C22 UNL     1     -15.979   7.088  12.478  1.00  0.00     0.259 C 
HETATM   29  O6  UNL     1     -15.641   6.863  11.324  1.00  0.00    -0.265 OA
BRANCH  28  30
HETATM   30  C23 UNL     1     -16.798   6.152  13.335  1.00  0.00     0.120 C 
BRANCH  30  31
HETATM   31  C24 UNL     1     -15.897   5.254  14.175  1.00  0.00     0.112 C 
BRANCH  31  32
HETATM   32  C25 UNL     1     -16.501   3.876  14.357  1.00  0.00     0.218 C 
HETATM   33  O7  UNL     1     -16.206   3.129  15.285  1.00  0.00    -0.274 OA
HETATM   34  N1  UNL     1     -17.446   3.569  13.404  1.00  0.00    -0.360 N 
HETATM   35  H32 UNL     1     -17.378   4.051  12.513  1.00  0.00     0.162 HD
BRANCH  34  36
HETATM   36  C26 UNL     1     -18.081   2.257  13.371  1.00  0.00     0.142 C 
BRANCH  36  37
HETATM   37  C27 UNL     1     -18.229   1.673  11.950  1.00  0.00     0.134 C 
BRANCH  37  38
HETATM   38  C28 UNL     1     -19.694   1.576  11.530  1.00  0.00     0.150 C 
HETATM   39  O8  UNL     1     -20.682   1.571  12.248  1.00  0.00    -0.649 OA
BRANCH  38  40
HETATM   40  O9  UNL     1     -19.869   1.419  10.198  1.00  0.00    -0.776 OA
HETATM   41  H36 UNL     1     -20.839   1.284  10.125  1.00  0.00     0.167 HD
ENDBRANCH  38  40
ENDBRANCH  37  38
BRANCH  37  42
HETATM   42  C29 UNL     1     -17.478   0.345  11.882  1.00  0.00    -0.042 A 
HETATM   43  C30 UNL     1     -16.138   0.296  12.302  1.00  0.00     0.008 A 
HETATM   44  C31 UNL     1     -15.429  -0.906  12.288  1.00  0.00     0.001 A 
HETATM   45  C32 UNL     1     -16.047  -2.077  11.854  1.00  0.00     0.000 A 
HETATM   46  C33 UNL     1     -17.381  -2.049  11.450  1.00  0.00     0.001 A 
HETATM   47  C34 UNL     1     -18.095  -0.849  11.473  1.00  0.00     0.008 A 
ENDBRANCH  37  42
ENDBRANCH  36  37
ENDBRANCH  34  36
ENDBRANCH  31  32
ENDBRANCH  30  31
ENDBRANCH  28  30
ENDBRANCH  27  28
ENDBRANCH  26  27
ENDBRANCH   1  26
TORSDOF 13
ENDMDL
MODEL 3
REMARK minimizedAffinity -8.75161648
REMARK CNNscore 0.37645933
REMARK CNNaffinity 6.92063522
REMARK  13 active torsions:
REMARK  status: ('A' for Active; 'I' for Inactive)
REMARK    1  A    between atoms: C19_21  and  O3_22 
REMARK    2  A    between atoms: C19_21  and  C20_23 
REMARK    3  A    between atoms: C20_23  and  C21_25 
REMARK    4  A    between atoms: C21_25  and  O5_26 
REMARK    5  A    between atoms: O5_26  and  C22_27 
REMARK    6  A    between atoms: C22_27  and  C23_29 
REMARK    7  A    between atoms: C23_29  and  C24_30 
REMARK    8  A    between atoms: C24_30  and  C25_31 
REMARK       I    between atoms: C25_31  and  N1_33 
REMARK    9  A    between atoms: N1_33  and  C26_34 
REMARK   10  A    between atoms: C26_34  and  C27_35 
REMARK   11  A    between atoms: C27_35  and  C28_36 
REMARK   12  A    between atoms: C27_35  and  C29_39 
REMARK   13  A    between atoms: C28_36  and  O9_38 
ROOT
HETATM    1  C20 UNL     1       1.815   7.777  15.093  1.00  0.00     0.185 C 
HETATM    2  O4  UNL     1       2.619   7.078  15.714  1.00  0.00    -0.292 OA
ENDROOT
BRANCH   1   3
HETATM    3  C19 UNL     1       0.304   7.442  15.035  1.00  0.00     0.128 C 
HETATM    4  C14 UNL     1      -0.216   6.630  13.799  1.00  0.00     0.005 C 
HETATM    5  C13 UNL     1       0.038   5.113  13.819  1.00  0.00     0.091 C 
HETATM    6  C15 UNL     1       0.333   7.197  12.456  1.00  0.00     0.019 C 
HETATM    7  C16 UNL     1      -1.752   6.881  13.965  1.00  0.00     0.002 C 
HETATM    8  C12 UNL     1      -0.840   4.441  12.768  1.00  0.00     0.133 C 
HETATM    9  C11 UNL     1      -2.348   4.686  12.922  1.00  0.00     0.072 C 
HETATM   10  O2  UNL     1      -0.351   3.724  11.900  1.00  0.00    -0.297 OA
HETATM   11  C2  UNL     1      -3.310   3.894  11.986  1.00  0.00    -0.009 C 
HETATM   12  C10 UNL     1      -2.597   6.225  12.859  1.00  0.00     0.003 C 
HETATM   13  C1  UNL     1      -3.218   4.381  10.520  1.00  0.00     0.021 C 
HETATM   14  C3  UNL     1      -3.033   2.368  12.043  1.00  0.00     0.022 C 
HETATM   15  C7  UNL     1      -4.733   4.135  12.519  1.00  0.00    -0.067 C 
HETATM   16  C4  UNL     1      -4.101   1.535  11.335  1.00  0.00     0.084 C 
HETATM   17  C5  UNL     1      -5.493   1.897  11.787  1.00  0.00     0.149 C 
HETATM   18  O1  UNL     1      -6.454   1.146  11.623  1.00  0.00    -0.293 OA
HETATM   19  C6  UNL     1      -5.714   3.220  12.414  1.00  0.00     0.053 C 
HETATM   20  C8  UNL     1      -4.996   5.409  13.303  1.00  0.00     0.035 C 
HETATM   21  C9  UNL     1      -4.098   6.579  12.914  1.00  0.00     0.010 C 
HETATM   22  C17 UNL     1      -1.824   8.393  14.150  1.00  0.00     0.009 C 
HETATM   23  C18 UNL     1      -0.568   8.730  14.981  1.00  0.00     0.047 C 
BRANCH   3  24
HETATM   24  O3  UNL     1      -0.044   6.748  16.247  1.00  0.00    -0.381 OA
HETATM   25  H25 UNL     1       0.525   5.960  16.330  1.00  0.00     0.211 HD
ENDBRANCH   3  24
ENDBRANCH   1   3
BRANCH   1  26
HETATM   26  C21 UNL     1       2.280   9.096  14.470  1.00  0.00     0.260 C 
BRANCH  26  27
HETATM   27  O5  UNL     1       2.540  10.112  15.428  1.00  0.00    -0.314 OA
BRANCH  27  28
HETATM   28  C22 UNL     1       3.818  10.149  15.896  1.00  0.00     0.259 C 
HETATM   29  O6  UNL     1       4.139  10.418  17.045  1.00  0.00    -0.265 OA
BRANCH  28  30
HETATM   30  C23 UNL     1       4.787   9.891  14.767  1.00  0.00     0.120 C 
BRANCH  30  31
HETATM   31  C24 UNL     1       6.021   9.149  15.268  1.00  0.00     0.112 C 
BRANCH  31  32
HETATM   32  C25 UNL     1       6.446   8.063  14.300  1.00  0.00     0.218 C 
HETATM   33  O7  UNL     1       7.449   7.374  14.460  1.00  0.00    -0.274 OA
HETATM   34  N1  UNL     1       5.571   7.900  13.251  1.00  0.00    -0.360 N 
HETATM   35  H32 UNL     1       4.996   8.698  12.999  1.00  0.00     0.162 HD
BRANCH  34  36
HETATM   36  C26 UNL     1       5.852   6.955  12.176  1.00  0.00     0.142 C 
BRANCH  36  37
HETATM   37  C27 UNL     1       5.772   7.575  10.766  1.00  0.00     0.134 C 
BRANCH  37  38
HETATM   38  C28 UNL     1       6.085   9.070  10.789  1.00  0.00     0.150 C 
HETATM   39  O8  UNL     1       7.127   9.623  10.474  1.00  0.00    -0.649 OA
BRANCH  38  40
HETATM   40  O9  UNL     1       5.080   9.829  11.284  1.00  0.00    -0.776 OA
HETATM   41  H36 UNL     1       5.483  10.725  11.311  1.00  0.00     0.167 HD
ENDBRANCH  38  40
ENDBRANCH  37  38
BRANCH  37  42
HETATM   42  C29 UNL     1       4.412   7.239  10.156  1.00  0.00    -0.042 A 
HETATM   43  C30 UNL     1       3.747   6.074  10.572  1.00  0.00     0.008 A 
HETATM   44  C31 UNL     1       2.488   5.752  10.063  1.00  0.00     0.001 A 
HETATM   45  C32 UNL     1       1.874   6.587   9.133  1.00  0.00     0.000 A 
HETATM   46  C33 UNL     1       2.512   7.757   8.723  1.00  0.00     0.001 A 
HETATM   47  C34 UNL     1       3.769   8.086   9.238  1.00  0.00     0.008 A 
ENDBRANCH  37  42
ENDBRANCH  36  37
ENDBRANCH  34  36
ENDBRANCH  31  32
ENDBRANCH  30  31
ENDBRANCH  28  30
ENDBRANCH  27  28
ENDBRANCH  26  27
ENDBRANCH   1  26
TORSDOF 13
ENDMDL
MODEL 4
REMARK minimizedAffinity -9.55264091
REMARK CNNscore 0.374725282
REMARK CNNaffinity 6.9458251
REMARK  13 active torsions:
REMARK  status: ('A' for Active; 'I' for Inactive)
REMARK    1  A    between atoms: C19_21  and  O3_22 
REMARK    2  A    between atoms: C19_21  and  C20_23 
REMARK    3  A    between atoms: C20_23  and  C21_25 
REMARK    4  A    between atoms: C21_25  and  O5_26 
REMARK    5  A    between atoms: O5_26  and  C22_27 
REMARK    6  A    between atoms: C22_27  and  C23_29 
REMARK    7  A    between atoms: C23_29  and  C24_30 
REMARK    8  A    between atoms: C24_30  and  C25_31 
REMARK       I    between atoms: C25_31  and  N1_33 
REMARK    9  A    between atoms: N1_33  and  C26_34 
REMARK   10  A    between atoms: C26_34  and  C27_35 
REMARK   11  A    between atoms: C27_35  and  C28_36 
REMARK   12  A    between atoms: C27_35  and  C29_39 
REMARK   13  A    between atoms: C28_36  and  O9_38 
ROOT
HETATM    1  C20 UNL     1      -0.772  10.905  14.371  1.00  0.00     0.185 C 
HETATM    2  O4  UNL     1      -1.280  11.972  14.020  1.00  0.00    -0.292 OA
ENDROOT
BRANCH   1   3
HETATM    3  C19 UNL     1      -1.232   9.543  13.795  1.00  0.00     0.128 C 
HETATM    4  C14 UNL     1      -2.468   8.848  14.462  1.00  0.00     0.005 C 
HETATM    5  C13 UNL     1      -3.853   9.390  14.072  1.00  0.00     0.091 C 
HETATM    6  C15 UNL     1      -2.367   8.848  16.017  1.00  0.00     0.019 C 
HETATM    7  C16 UNL     1      -2.304   7.414  13.857  1.00  0.00     0.002 C 
HETATM    8  C12 UNL     1      -4.925   8.390  14.494  1.00  0.00     0.133 C 
HETATM    9  C11 UNL     1      -4.768   6.979  13.906  1.00  0.00     0.072 C 
HETATM   10  O2  UNL     1      -5.858   8.728  15.215  1.00  0.00    -0.297 OA
HETATM   11  C2  UNL     1      -5.917   5.957  14.160  1.00  0.00    -0.009 C 
HETATM   12  C10 UNL     1      -3.377   6.424  14.344  1.00  0.00     0.003 C 
HETATM   13  C1  UNL     1      -5.973   5.509  15.640  1.00  0.00     0.021 C 
HETATM   14  C3  UNL     1      -7.296   6.534  13.742  1.00  0.00     0.022 C 
HETATM   15  C7  UNL     1      -5.625   4.741  13.265  1.00  0.00    -0.067 C 
HETATM   16  C4  UNL     1      -8.412   5.490  13.744  1.00  0.00     0.084 C 
HETATM   17  C5  UNL     1      -8.033   4.254  12.968  1.00  0.00     0.149 C 
HETATM   18  O1  UNL     1      -8.871   3.456  12.551  1.00  0.00    -0.293 OA
HETATM   19  C6  UNL     1      -6.596   3.974  12.738  1.00  0.00     0.053 C 
HETATM   20  C8  UNL     1      -4.183   4.478  12.866  1.00  0.00     0.035 C 
HETATM   21  C9  UNL     1      -3.154   4.969  13.880  1.00  0.00     0.010 C 
HETATM   22  C17 UNL     1      -0.836   7.104  14.128  1.00  0.00     0.009 C 
HETATM   23  C18 UNL     1      -0.124   8.459  13.931  1.00  0.00     0.047 C 
BRANCH   3  24
HETATM   24  O3  UNL     1      -1.480   9.717  12.388  1.00  0.00    -0.381 OA
HETATM   25  H25 UNL     1      -2.137  10.428  12.273  1.00  0.00     0.211 HD
ENDBRANCH   3  24
ENDBRANCH   1   3
BRANCH   1  26
HETATM   26  C21 UNL     1       0.445  10.914  15.300  1.00  0.00     0.260 C 
BRANCH  26  27
HETATM   27  O5  UNL     1       1.683  10.994  14.607  1.00  0.00    -0.314 OA
BRANCH  27  28
HETATM   28  C22 UNL     1       2.780  10.678  15.349  1.00  0.00     0.259 C 
HETATM   29  O6  UNL     1       2.911  10.904  16.544  1.00  0.00    -0.265 OA
BRANCH  28  30
HETATM   30  C23 UNL     1       3.848  10.084  14.462  1.00  0.00     0.120 C 
BRANCH  30  31
HETATM   31  C24 UNL     1       3.552   8.619  14.161  1.00  0.00     0.112 C 
BRANCH  31  32
HETATM   32  C25 UNL     1       3.642   8.328  12.676  1.00  0.00     0.218 C 
HETATM   33  O7  UNL     1       3.317   9.135  11.811  1.00  0.00    -0.274 OA
HETATM   34  N1  UNL     1       4.169   7.087  12.399  1.00  0.00    -0.360 N 
HETATM   35  H32 UNL     1       4.079   6.375  13.117  1.00  0.00     0.162 HD
BRANCH  34  36
HETATM   36  C26 UNL     1       4.262   6.599  11.028  1.00  0.00     0.142 C 
BRANCH  36  37
HETATM   37  C27 UNL     1       3.030   5.791  10.570  1.00  0.00     0.134 C 
BRANCH  37  38
HETATM   38  C28 UNL     1       3.423   4.635   9.653  1.00  0.00     0.150 C 
HETATM   39  O8  UNL     1       3.974   4.695   8.564  1.00  0.00    -0.649 OA
BRANCH  38  40
HETATM   40  O9  UNL     1       3.042   3.421  10.113  1.00  0.00    -0.776 OA
HETATM   41  H36 UNL     1       3.287   2.826   9.371  1.00  0.00     0.167 HD
ENDBRANCH  38  40
ENDBRANCH  37  38
BRANCH  37  42
HETATM   42  C29 UNL     1       2.012   6.750   9.954  1.00  0.00    -0.042 A 
HETATM   43  C30 UNL     1       2.337   7.413   8.759  1.00  0.00     0.008 A 
HETATM   44  C31 UNL     1       1.420   8.270   8.147  1.00  0.00     0.001 A 
HETATM   45  C32 UNL     1       0.167   8.476   8.718  1.00  0.00     0.000 A 
HETATM   46  C33 UNL     1      -0.178   7.811   9.893  1.00  0.00     0.001 A 
HETATM   47  C34 UNL     1       0.734   6.946  10.503  1.00  0.00     0.008 A 
ENDBRANCH  37  42
ENDBRANCH  36  37
ENDBRANCH  34  36
ENDBRANCH  31  32
ENDBRANCH  30  31
ENDBRANCH  28  30
ENDBRANCH  27  28
ENDBRANCH  26  27
ENDBRANCH   1  26
TORSDOF 13
ENDMDL
MODEL 5
REMARK minimizedAffinity -9.01312923
REMARK CNNscore 0.374153078
REMARK CNNaffinity 6.36739349
REMARK  13 active torsions:
REMARK  status: ('A' for Active; 'I' for Inactive)
REMARK    1  A    between atoms: C19_21  and  O3_22 
REMARK    2  A    between atoms: C19_21  and  C20_23 
REMARK    3  A    between atoms: C20_23  and  C21_25 
REMARK    4  A    between atoms: C21_25  and  O5_26 
REMARK    5  A    between atoms: O5_26  and  C22_27 
REMARK    6  A    between atoms: C22_27  and  C23_29 
REMARK    7  A    between atoms: C23_29  and  C24_30 
REMARK    8  A    between atoms: C24_30  and  C25_31 
REMARK       I    between atoms: C25_31  and  N1_33 
REMARK    9  A    between atoms: N1_33  and  C26_34 
REMARK   10  A    between atoms: C26_34  and  C27_35 
REMARK   11  A    between atoms: C27_35  and  C28_36 
REMARK   12  A    between atoms: C27_35  and  C29_39 
REMARK   13  A    between atoms: C28_36  and  O9_38 
ROOT
HETATM    1  C20 UNL     1      -1.131  11.239  14.611  1.00  0.00     0.185 C 
HETATM    2  O4  UNL     1      -1.544  12.247  14.034  1.00  0.00    -0.292 OA
ENDROOT
BRANCH   1   3
HETATM    3  C19 UNL     1      -1.441   9.810  14.101  1.00  0.00     0.128 C 
HETATM    4  C14 UNL     1      -2.709   9.090  14.677  1.00  0.00     0.005 C 
HETATM    5  C13 UNL     1      -4.064   9.509  14.084  1.00  0.00     0.091 C 
HETATM    6  C15 UNL     1      -2.797   9.215  16.228  1.00  0.00     0.019 C 
HETATM    7  C16 UNL     1      -2.394   7.627  14.217  1.00  0.00     0.002 C 
HETATM    8  C12 UNL     1      -5.122   8.476  14.461  1.00  0.00     0.133 C 
HETATM    9  C11 UNL     1      -4.818   7.038  14.016  1.00  0.00     0.072 C 
HETATM   10  O2  UNL     1      -6.153   8.808  15.039  1.00  0.00    -0.297 OA
HETATM   11  C2  UNL     1      -5.931   5.966  14.219  1.00  0.00    -0.009 C 
HETATM   12  C10 UNL     1      -3.462   6.610  14.657  1.00  0.00     0.003 C 
HETATM   13  C1  UNL     1      -6.140   5.630  15.715  1.00  0.00     0.021 C 
HETATM   14  C3  UNL     1      -7.279   6.419  13.597  1.00  0.00     0.022 C 
HETATM   15  C7  UNL     1      -5.465   4.707  13.469  1.00  0.00    -0.067 C 
HETATM   16  C4  UNL     1      -8.328   5.308  13.557  1.00  0.00     0.084 C 
HETATM   17  C5  UNL     1      -7.789   4.043  12.937  1.00  0.00     0.149 C 
HETATM   18  O1  UNL     1      -8.526   3.163  12.493  1.00  0.00    -0.293 OA
HETATM   19  C6  UNL     1      -6.322   3.840  12.899  1.00  0.00     0.053 C 
HETATM   20  C8  UNL     1      -3.974   4.508  13.263  1.00  0.00     0.035 C 
HETATM   21  C9  UNL     1      -3.104   5.141  14.345  1.00  0.00     0.010 C 
HETATM   22  C17 UNL     1      -0.955   7.435  14.681  1.00  0.00     0.009 C 
HETATM   23  C18 UNL     1      -0.300   8.814  14.455  1.00  0.00     0.047 C 
BRANCH   3  24
HETATM   24  O3  UNL     1      -1.527   9.860  12.665  1.00  0.00    -0.381 OA
HETATM   25  H25 UNL     1      -2.204  10.516  12.416  1.00  0.00     0.211 HD
ENDBRANCH   3  24
ENDBRANCH   1   3
BRANCH   1  26
HETATM   26  C21 UNL     1      -0.164  11.384  15.790  1.00  0.00     0.260 C 
BRANCH  26  27
HETATM   27  O5  UNL     1      -0.753  11.989  16.932  1.00  0.00    -0.314 OA
BRANCH  27  28
HETATM   28  C22 UNL     1       0.083  12.777  17.663  1.00  0.00     0.259 C 
HETATM   29  O6  UNL     1       0.900  13.558  17.197  1.00  0.00    -0.265 OA
BRANCH  28  30
HETATM   30  C23 UNL     1      -0.088  12.482  19.134  1.00  0.00     0.120 C 
BRANCH  30  31
HETATM   31  C24 UNL     1       0.310  11.045  19.452  1.00  0.00     0.112 C 
BRANCH  31  32
HETATM   32  C25 UNL     1       1.749  10.769  19.063  1.00  0.00     0.218 C 
HETATM   33  O7  UNL     1       2.121   9.711  18.566  1.00  0.00    -0.274 OA
HETATM   34  N1  UNL     1       2.583  11.841  19.282  1.00  0.00    -0.360 N 
HETATM   35  H32 UNL     1       2.301  12.511  19.991  1.00  0.00     0.162 HD
BRANCH  34  36
HETATM   36  C26 UNL     1       4.018  11.739  19.041  1.00  0.00     0.142 C 
BRANCH  36  37
HETATM   37  C27 UNL     1       4.881  12.046  20.283  1.00  0.00     0.134 C 
BRANCH  37  38
HETATM   38  C28 UNL     1       6.355  11.734  20.036  1.00  0.00     0.150 C 
HETATM   39  O8  UNL     1       7.331  12.259  20.550  1.00  0.00    -0.649 OA
BRANCH  38  40
HETATM   40  O9  UNL     1       6.561  10.800  19.079  1.00  0.00    -0.776 OA
HETATM   41  H36 UNL     1       7.539  10.796  18.991  1.00  0.00     0.167 HD
ENDBRANCH  38  40
ENDBRANCH  37  38
BRANCH  37  42
HETATM   42  C29 UNL     1       4.289  11.317  21.488  1.00  0.00    -0.042 A 
HETATM   43  C30 UNL     1       3.729  12.070  22.533  1.00  0.00     0.008 A 
HETATM   44  C31 UNL     1       3.148  11.439  23.634  1.00  0.00     0.001 A 
HETATM   45  C32 UNL     1       3.117  10.048  23.708  1.00  0.00     0.000 A 
HETATM   46  C33 UNL     1       3.652   9.287  22.671  1.00  0.00     0.001 A 
HETATM   47  C34 UNL     1       4.226   9.915  21.563  1.00  0.00     0.008 A 
ENDBRANCH  37  42
ENDBRANCH  36  37
ENDBRANCH  34  36
ENDBRANCH  31  32
ENDBRANCH  30  31
ENDBRANCH  28  30
ENDBRANCH  27  28
ENDBRANCH  26  27
ENDBRANCH   1  26
TORSDOF 13
ENDMDL
MODEL 6
REMARK minimizedAffinity -8.58473396
REMARK CNNscore 0.367738307
REMARK CNNaffinity 6.16156149
REMARK  13 active torsions:
REMARK  status: ('A' for Active; 'I' for Inactive)
REMARK    1  A    between atoms: C19_21  and  O3_22 
REMARK    2  A    between atoms: C19_21  and  C20_23 
REMARK    3  A    between atoms: C20_23  and  C21_25 
REMARK    4  A    between atoms: C21_25  and  O5_26 
REMARK    5  A    between atoms: O5_26  and  C22_27 
REMARK    6  A    between atoms: C22_27  and  C23_29 
REMARK    7  A    between atoms: C23_29  and  C24_30 
REMARK    8  A    between atoms: C24_30  and  C25_31 
REMARK       I    between atoms: C25_31  and  N1_33 
REMARK    9  A    between atoms: N1_33  and  C26_34 
REMARK   10  A    between atoms: C26_34  and  C27_35 
REMARK   11  A    between atoms: C27_35  and  C28_36 
REMARK   12  A    between atoms: C27_35  and  C29_39 
REMARK   13  A    between atoms: C28_36  and  O9_38 
ROOT
HETATM    1  C20 UNL     1      -0.349  11.114  15.334  1.00  0.00     0.185 C 
HETATM    2  O4  UNL     1      -1.000  12.157  15.244  1.00  0.00    -0.292 OA
ENDROOT
BRANCH   1   3
HETATM    3  C19 UNL     1      -0.801   9.798  14.653  1.00  0.00     0.128 C 
HETATM    4  C14 UNL     1      -2.111   9.118  15.180  1.00  0.00     0.005 C 
HETATM    5  C13 UNL     1      -3.440   9.728  14.702  1.00  0.00     0.091 C 
HETATM    6  C15 UNL     1      -2.144   9.040  16.736  1.00  0.00     0.019 C 
HETATM    7  C16 UNL     1      -1.943   7.709  14.519  1.00  0.00     0.002 C 
HETATM    8  C12 UNL     1      -4.575   8.747  14.982  1.00  0.00     0.133 C 
HETATM    9  C11 UNL     1      -4.414   7.361  14.340  1.00  0.00     0.072 C 
HETATM   10  O2  UNL     1      -5.555   9.084  15.639  1.00  0.00    -0.297 OA
HETATM   11  C2  UNL     1      -5.613   6.371  14.445  1.00  0.00    -0.009 C 
HETATM   12  C10 UNL     1      -3.084   6.737  14.864  1.00  0.00     0.003 C 
HETATM   13  C1  UNL     1      -5.809   5.855  15.890  1.00  0.00     0.021 C 
HETATM   14  C3  UNL     1      -6.932   7.016  13.942  1.00  0.00     0.022 C 
HETATM   15  C7  UNL     1      -5.284   5.188  13.518  1.00  0.00    -0.067 C 
HETATM   16  C4  UNL     1      -8.077   6.014  13.798  1.00  0.00     0.084 C 
HETATM   17  C5  UNL     1      -7.672   4.803  12.996  1.00  0.00     0.149 C 
HETATM   18  O1  UNL     1      -8.497   4.057  12.470  1.00  0.00    -0.293 OA
HETATM   19  C6  UNL     1      -6.231   4.482  12.873  1.00  0.00     0.053 C 
HETATM   20  C8  UNL     1      -3.822   4.893  13.228  1.00  0.00     0.035 C 
HETATM   21  C9  UNL     1      -2.869   5.298  14.348  1.00  0.00     0.010 C 
HETATM   22  C17 UNL     1      -0.514   7.334  14.896  1.00  0.00     0.009 C 
HETATM   23  C18 UNL     1       0.256   8.670  14.828  1.00  0.00     0.047 C 
BRANCH   3  24
HETATM   24  O3  UNL     1      -0.922  10.048  13.241  1.00  0.00    -0.381 OA
HETATM   25  H25 UNL     1      -1.544  10.787  13.107  1.00  0.00     0.211 HD
ENDBRANCH   3  24
ENDBRANCH   1   3
BRANCH   1  26
HETATM   26  C21 UNL     1       1.021  11.132  16.018  1.00  0.00     0.260 C 
BRANCH  26  27
HETATM   27  O5  UNL     1       0.947  11.025  17.432  1.00  0.00    -0.314 OA
BRANCH  27  28
HETATM   28  C22 UNL     1       1.905  10.243  18.002  1.00  0.00     0.259 C 
HETATM   29  O6  UNL     1       2.428   9.273  17.472  1.00  0.00    -0.265 OA
BRANCH  28  30
HETATM   30  C23 UNL     1       2.166  10.698  19.418  1.00  0.00     0.120 C 
BRANCH  30  31
HETATM   31  C24 UNL     1       3.380  11.619  19.478  1.00  0.00     0.112 C 
BRANCH  31  32
HETATM   32  C25 UNL     1       4.368  11.165  20.534  1.00  0.00     0.218 C 
HETATM   33  O7  UNL     1       4.455  10.003  20.919  1.00  0.00    -0.274 OA
HETATM   34  N1  UNL     1       5.186  12.177  20.980  1.00  0.00    -0.360 N 
HETATM   35  H32 UNL     1       4.837  13.127  20.894  1.00  0.00     0.162 HD
BRANCH  34  36
HETATM   36  C26 UNL     1       6.149  11.949  22.052  1.00  0.00     0.142 C 
BRANCH  36  37
HETATM   37  C27 UNL     1       7.430  12.800  21.928  1.00  0.00     0.134 C 
BRANCH  37  38
HETATM   38  C28 UNL     1       8.681  11.984  22.252  1.00  0.00     0.150 C 
HETATM   39  O8  UNL     1       9.706  11.889  21.595  1.00  0.00    -0.649 OA
BRANCH  38  40
HETATM   40  O9  UNL     1       8.572  11.248  23.382  1.00  0.00    -0.776 OA
HETATM   41  H36 UNL     1       9.408  10.732  23.381  1.00  0.00     0.167 HD
ENDBRANCH  38  40
ENDBRANCH  37  38
BRANCH  37  42
HETATM   42  C29 UNL     1       7.274  14.056  22.782  1.00  0.00    -0.042 A 
HETATM   43  C30 UNL     1       8.402  14.584  23.432  1.00  0.00     0.008 A 
HETATM   44  C31 UNL     1       8.306  15.750  24.193  1.00  0.00     0.001 A 
HETATM   45  C32 UNL     1       7.083  16.406  24.316  1.00  0.00     0.000 A 
HETATM   46  C33 UNL     1       5.959  15.906  23.663  1.00  0.00     0.001 A 
HETATM   47  C34 UNL     1       6.054  14.745  22.892  1.00  0.00     0.008 A 
ENDBRANCH  37  42
ENDBRANCH  36  37
ENDBRANCH  34  36
ENDBRANCH  31  32
ENDBRANCH  30  31
ENDBRANCH  28  30
ENDBRANCH  27  28
ENDBRANCH  26  27
ENDBRANCH   1  26
TORSDOF 13
ENDMDL
MODEL 7
REMARK minimizedAffinity -9.99333382
REMARK CNNscore 0.357782155
REMARK CNNaffinity 7.15739202
REMARK  13 active torsions:
REMARK  status: ('A' for Active; 'I' for Inactive)
REMARK    1  A    between atoms: C19_21  and  O3_22 
REMARK    2  A    between atoms: C19_21  and  C20_23 
REMARK    3  A    between atoms: C20_23  and  C21_25 
REMARK    4  A    between atoms: C21_25  and  O5_26 
REMARK    5  A    between atoms: O5_26  and  C22_27 
REMARK    6  A    between atoms: C22_27  and  C23_29 
REMARK    7  A    between atoms: C23_29  and  C24_30 
REMARK    8  A    between atoms: C24_30  and  C25_31 
REMARK       I    between atoms: C25_31  and  N1_33 
REMARK    9  A    between atoms: N1_33  and  C26_34 
REMARK   10  A    between atoms: C26_34  and  C27_35 
REMARK   11  A    between atoms: C27_35  and  C28_36 
REMARK   12  A    between atoms: C27_35  and  C29_39 
REMARK   13  A    between atoms: C28_36  and  O9_38 
ROOT
HETATM    1  C20 UNL     1      -0.682   8.251  13.894  1.00  0.00     0.185 C 
HETATM    2  O4  UNL     1      -0.540   9.471  14.007  1.00  0.00    -0.292 OA
ENDROOT
BRANCH   1   3
HETATM    3  C19 UNL     1      -1.955   7.622  13.276  1.00  0.00     0.128 C 
HETATM    4  C14 UNL     1      -3.193   7.412  14.214  1.00  0.00     0.005 C 
HETATM    5  C13 UNL     1      -4.048   8.655  14.510  1.00  0.00     0.091 C 
HETATM    6  C15 UNL     1      -2.792   6.763  15.573  1.00  0.00     0.019 C 
HETATM    7  C16 UNL     1      -4.024   6.437  13.315  1.00  0.00     0.002 C 
HETATM    8  C12 UNL     1      -5.386   8.220  15.101  1.00  0.00     0.133 C 
HETATM    9  C11 UNL     1      -6.205   7.260  14.225  1.00  0.00     0.072 C 
HETATM   10  O2  UNL     1      -5.773   8.657  16.181  1.00  0.00    -0.297 OA
HETATM   11  C2  UNL     1      -7.651   6.910  14.691  1.00  0.00    -0.009 C 
HETATM   12  C10 UNL     1      -5.343   5.986  13.967  1.00  0.00     0.003 C 
HETATM   13  C1  UNL     1      -7.648   6.013  15.951  1.00  0.00     0.021 C 
HETATM   14  C3  UNL     1      -8.486   8.189  14.967  1.00  0.00     0.022 C 
HETATM   15  C7  UNL     1      -8.314   6.157  13.525  1.00  0.00    -0.067 C 
HETATM   16  C4  UNL     1      -9.971   7.903  15.188  1.00  0.00     0.084 C 
HETATM   17  C5  UNL     1     -10.552   7.046  14.092  1.00  0.00     0.149 C 
HETATM   18  O1  UNL     1     -11.762   6.982  13.879  1.00  0.00    -0.293 OA
HETATM   19  C6  UNL     1      -9.633   6.223  13.271  1.00  0.00     0.053 C 
HETATM   20  C8  UNL     1      -7.415   5.410  12.554  1.00  0.00     0.035 C 
HETATM   21  C9  UNL     1      -6.110   4.912  13.167  1.00  0.00     0.010 C 
HETATM   22  C17 UNL     1      -2.994   5.383  12.926  1.00  0.00     0.009 C 
HETATM   23  C18 UNL     1      -1.686   6.183  12.749  1.00  0.00     0.047 C 
BRANCH   3  24
HETATM   24  O3  UNL     1      -2.341   8.421  12.143  1.00  0.00    -0.381 OA
HETATM   25  H25 UNL     1      -2.467   9.342  12.439  1.00  0.00     0.211 HD
ENDBRANCH   3  24
ENDBRANCH   1   3
BRANCH   1  26
HETATM   26  C21 UNL     1       0.482   7.318  14.240  1.00  0.00     0.260 C 
BRANCH  26  27
HETATM   27  O5  UNL     1       1.296   7.800  15.300  1.00  0.00    -0.314 OA
BRANCH  27  28
HETATM   28  C22 UNL     1       2.637   7.707  15.085  1.00  0.00     0.259 C 
HETATM   29  O6  UNL     1       3.451   7.277  15.890  1.00  0.00    -0.265 OA
BRANCH  28  30
HETATM   30  C23 UNL     1       2.983   8.290  13.736  1.00  0.00     0.120 C 
BRANCH  30  31
HETATM   31  C24 UNL     1       4.492   8.447  13.581  1.00  0.00     0.112 C 
BRANCH  31  32
HETATM   32  C25 UNL     1       4.990   7.790  12.310  1.00  0.00     0.218 C 
HETATM   33  O7  UNL     1       6.001   8.154  11.716  1.00  0.00    -0.274 OA
HETATM   34  N1  UNL     1       4.222   6.719  11.917  1.00  0.00    -0.360 N 
HETATM   35  H32 UNL     1       3.255   6.703  12.228  1.00  0.00     0.162 HD
BRANCH  34  36
HETATM   36  C26 UNL     1       4.501   6.008  10.674  1.00  0.00     0.142 C 
BRANCH  36  37
HETATM   37  C27 UNL     1       3.260   5.340  10.048  1.00  0.00     0.134 C 
BRANCH  37  38
HETATM   38  C28 UNL     1       3.647   4.348   8.953  1.00  0.00     0.150 C 
HETATM   39  O8  UNL     1       3.542   4.485   7.744  1.00  0.00    -0.649 OA
BRANCH  38  40
HETATM   40  O9  UNL     1       4.100   3.164   9.427  1.00  0.00    -0.776 OA
HETATM   41  H36 UNL     1       4.208   2.633   8.607  1.00  0.00     0.167 HD
ENDBRANCH  38  40
ENDBRANCH  37  38
BRANCH  37  42
HETATM   42  C29 UNL     1       2.296   6.429   9.581  1.00  0.00    -0.042 A 
HETATM   43  C30 UNL     1       2.655   7.234   8.487  1.00  0.00     0.008 A 
HETATM   44  C31 UNL     1       1.786   8.216   8.009  1.00  0.00     0.001 A 
HETATM   45  C32 UNL     1       0.546   8.409   8.616  1.00  0.00     0.000 A 
HETATM   46  C33 UNL     1       0.168   7.606   9.690  1.00  0.00     0.001 A 
HETATM   47  C34 UNL     1       1.032   6.616  10.164  1.00  0.00     0.008 A 
ENDBRANCH  37  42
ENDBRANCH  36  37
ENDBRANCH  34  36
ENDBRANCH  31  32
ENDBRANCH  30  31
ENDBRANCH  28  30
ENDBRANCH  27  28
ENDBRANCH  26  27
ENDBRANCH   1  26
TORSDOF 13
ENDMDL
MODEL 8
REMARK minimizedAffinity -9.3674736
REMARK CNNscore 0.330205202
REMARK CNNaffinity 7.14302969
REMARK  13 active torsions:
REMARK  status: ('A' for Active; 'I' for Inactive)
REMARK    1  A    between atoms: C19_21  and  O3_22 
REMARK    2  A    between atoms: C19_21  and  C20_23 
REMARK    3  A    between atoms: C20_23  and  C21_25 
REMARK    4  A    between atoms: C21_25  and  O5_26 
REMARK    5  A    between atoms: O5_26  and  C22_27 
REMARK    6  A    between atoms: C22_27  and  C23_29 
REMARK    7  A    between atoms: C23_29  and  C24_30 
REMARK    8  A    between atoms: C24_30  and  C25_31 
REMARK       I    between atoms: C25_31  and  N1_33 
REMARK    9  A    between atoms: N1_33  and  C26_34 
REMARK   10  A    between atoms: C26_34  and  C27_35 
REMARK   11  A    between atoms: C27_35  and  C28_36 
REMARK   12  A    between atoms: C27_35  and  C29_39 
REMARK   13  A    between atoms: C28_36  and  O9_38 
ROOT
HETATM    1  C20 UNL     1      -1.545   7.764  14.425  1.00  0.00     0.185 C 
HETATM    2  O4  UNL     1      -1.490   7.894  15.650  1.00  0.00    -0.292 OA
ENDROOT
BRANCH   1   3
HETATM    3  C19 UNL     1      -2.821   7.262  13.705  1.00  0.00     0.128 C 
HETATM    4  C14 UNL     1      -4.138   7.153  14.547  1.00  0.00     0.005 C 
HETATM    5  C13 UNL     1      -4.897   8.466  14.805  1.00  0.00     0.091 C 
HETATM    6  C15 UNL     1      -3.899   6.453  15.918  1.00  0.00     0.019 C 
HETATM    7  C16 UNL     1      -4.986   6.271  13.570  1.00  0.00     0.002 C 
HETATM    8  C12 UNL     1      -6.309   8.147  15.289  1.00  0.00     0.133 C 
HETATM    9  C11 UNL     1      -7.144   7.278  14.337  1.00  0.00     0.072 C 
HETATM   10  O2  UNL     1      -6.734   8.602  16.347  1.00  0.00    -0.297 OA
HETATM   11  C2  UNL     1      -8.646   7.055  14.690  1.00  0.00    -0.009 C 
HETATM   12  C10 UNL     1      -6.384   5.933  14.116  1.00  0.00     0.003 C 
HETATM   13  C1  UNL     1      -8.817   6.145  15.929  1.00  0.00     0.021 C 
HETATM   14  C3  UNL     1      -9.381   8.401  14.931  1.00  0.00     0.022 C 
HETATM   15  C7  UNL     1      -9.287   6.381  13.465  1.00  0.00    -0.067 C 
HETATM   16  C4  UNL     1     -10.898   8.249  15.039  1.00  0.00     0.084 C 
HETATM   17  C5  UNL     1     -11.471   7.463  13.887  1.00  0.00     0.149 C 
HETATM   18  O1  UNL     1     -12.664   7.513  13.586  1.00  0.00    -0.293 OA
HETATM   19  C6  UNL     1     -10.573   6.571  13.118  1.00  0.00     0.053 C 
HETATM   20  C8  UNL     1      -8.390   5.569  12.546  1.00  0.00     0.035 C 
HETATM   21  C9  UNL     1      -7.184   4.945  13.242  1.00  0.00     0.010 C 
HETATM   22  C17 UNL     1      -4.029   5.132  13.236  1.00  0.00     0.009 C 
HETATM   23  C18 UNL     1      -2.645   5.812  13.169  1.00  0.00     0.047 C 
BRANCH   3  24
HETATM   24  O3  UNL     1      -3.048   8.108  12.563  1.00  0.00    -0.381 OA
HETATM   25  H25 UNL     1      -3.113   9.032  12.868  1.00  0.00     0.211 HD
ENDBRANCH   3  24
ENDBRANCH   1   3
BRANCH   1  26
HETATM   26  C21 UNL     1      -0.375   8.240  13.560  1.00  0.00     0.260 C 
BRANCH  26  27
HETATM   27  O5  UNL     1       0.830   8.422  14.290  1.00  0.00    -0.314 OA
BRANCH  27  28
HETATM   28  C22 UNL     1       1.614   7.314  14.393  1.00  0.00     0.259 C 
HETATM   29  O6  UNL     1       2.691   7.265  14.970  1.00  0.00    -0.265 OA
BRANCH  28  30
HETATM   30  C23 UNL     1       0.996   6.173  13.620  1.00  0.00     0.120 C 
BRANCH  30  31
HETATM   31  C24 UNL     1       1.792   5.882  12.352  1.00  0.00     0.112 C 
BRANCH  31  32
HETATM   32  C25 UNL     1       0.906   5.320  11.258  1.00  0.00     0.218 C 
HETATM   33  O7  UNL     1       0.963   5.690  10.089  1.00  0.00    -0.274 OA
HETATM   34  N1  UNL     1       0.067   4.323  11.700  1.00  0.00    -0.360 N 
HETATM   35  H32 UNL     1      -0.173   4.322  12.687  1.00  0.00     0.162 HD
BRANCH  34  36
HETATM   36  C26 UNL     1      -0.914   3.714  10.808  1.00  0.00     0.142 C 
BRANCH  36  37
HETATM   37  C27 UNL     1      -1.498   2.388  11.338  1.00  0.00     0.134 C 
BRANCH  37  38
HETATM   38  C28 UNL     1      -0.834   1.179  10.683  1.00  0.00     0.150 C 
HETATM   39  O8  UNL     1      -0.159   0.312  11.217  1.00  0.00    -0.649 OA
BRANCH  38  40
HETATM   40  O9  UNL     1      -0.987   1.135   9.339  1.00  0.00    -0.776 OA
HETATM   41  H36 UNL     1      -0.432   0.365   9.086  1.00  0.00     0.167 HD
ENDBRANCH  38  40
ENDBRANCH  37  38
BRANCH  37  42
HETATM   42  C29 UNL     1      -3.017   2.420  11.179  1.00  0.00    -0.042 A 
HETATM   43  C30 UNL     1      -3.596   3.394  10.349  1.00  0.00     0.008 A 
HETATM   44  C31 UNL     1      -4.977   3.433  10.152  1.00  0.00     0.001 A 
HETATM   45  C32 UNL     1      -5.800   2.501  10.779  1.00  0.00     0.000 A 
HETATM   46  C33 UNL     1      -5.240   1.516  11.591  1.00  0.00     0.001 A 
HETATM   47  C34 UNL     1      -3.857   1.469  11.782  1.00  0.00     0.008 A 
ENDBRANCH  37  42
ENDBRANCH  36  37
ENDBRANCH  34  36
ENDBRANCH  31  32
ENDBRANCH  30  31
ENDBRANCH  28  30
ENDBRANCH  27  28
ENDBRANCH  26  27
ENDBRANCH   1  26
TORSDOF 13
ENDMDL
MODEL 9
REMARK minimizedAffinity -8.31690598
REMARK CNNscore 0.316542834
REMARK CNNaffinity 6.70818186
REMARK  13 active torsions:
REMARK  status: ('A' for Active; 'I' for Inactive)
REMARK    1  A    between atoms: C19_21  and  O3_22 
REMARK    2  A    between atoms: C19_21  and  C20_23 
REMARK    3  A    between atoms: C20_23  and  C21_25 
REMARK    4  A    between atoms: C21_25  and  O5_26 
REMARK    5  A    between atoms: O5_26  and  C22_27 
REMARK    6  A    between atoms: C22_27  and  C23_29 
REMARK    7  A    between atoms: C23_29  and  C24_30 
REMARK    8  A    between atoms: C24_30  and  C25_31 
REMARK       I    between atoms: C25_31  and  N1_33 
REMARK    9  A    between atoms: N1_33  and  C26_34 
REMARK   10  A    between atoms: C26_34  and  C27_35 
REMARK   11  A    between atoms: C27_35  and  C28_36 
REMARK   12  A    between atoms: C27_35  and  C29_39 
REMARK   13  A    between atoms: C28_36  and  O9_38 
ROOT
HETATM    1  C20 UNL     1       1.576   7.610  13.809  1.00  0.00     0.185 C 
HETATM    2  O4  UNL     1       1.602   6.435  13.439  1.00  0.00    -0.292 OA
ENDROOT
BRANCH   1   3
HETATM    3  C19 UNL     1       0.270   8.442  13.827  1.00  0.00     0.128 C 
HETATM    4  C14 UNL     1      -0.325   8.834  15.223  1.00  0.00     0.005 C 
HETATM    5  C13 UNL     1       0.342  10.016  15.946  1.00  0.00     0.091 C 
HETATM    6  C15 UNL     1      -0.361   7.623  16.203  1.00  0.00     0.019 C 
HETATM    7  C16 UNL     1      -1.758   9.272  14.769  1.00  0.00     0.002 C 
HETATM    8  C12 UNL     1      -0.568  10.500  17.070  1.00  0.00     0.133 C 
HETATM    9  C11 UNL     1      -1.977  10.927  16.632  1.00  0.00     0.072 C 
HETATM   10  O2  UNL     1      -0.162  10.573  18.226  1.00  0.00    -0.297 OA
HETATM   11  C2  UNL     1      -2.899  11.588  17.701  1.00  0.00    -0.009 C 
HETATM   12  C10 UNL     1      -2.658   9.708  15.938  1.00  0.00     0.003 C 
HETATM   13  C1  UNL     1      -3.365  10.570  18.768  1.00  0.00     0.021 C 
HETATM   14  C3  UNL     1      -2.196  12.784  18.399  1.00  0.00     0.022 C 
HETATM   15  C7  UNL     1      -4.120  12.136  16.944  1.00  0.00    -0.067 C 
HETATM   16  C4  UNL     1      -3.139  13.609  19.274  1.00  0.00     0.084 C 
HETATM   17  C5  UNL     1      -4.390  14.012  18.535  1.00  0.00     0.149 C 
HETATM   18  O1  UNL     1      -5.104  14.942  18.909  1.00  0.00    -0.293 OA
HETATM   19  C6  UNL     1      -4.790  13.234  17.340  1.00  0.00     0.053 C 
HETATM   20  C8  UNL     1      -4.501  11.477  15.630  1.00  0.00     0.035 C 
HETATM   21  C9  UNL     1      -4.119  10.003  15.536  1.00  0.00     0.010 C 
HETATM   22  C17 UNL     1      -2.200   8.106  13.891  1.00  0.00     0.009 C 
HETATM   23  C18 UNL     1      -0.909   7.673  13.164  1.00  0.00     0.047 C 
BRANCH   3  24
HETATM   24  O3  UNL     1       0.490   9.631  13.047  1.00  0.00    -0.381 OA
HETATM   25  H25 UNL     1       1.257  10.107  13.413  1.00  0.00     0.211 HD
ENDBRANCH   3  24
ENDBRANCH   1   3
BRANCH   1  26
HETATM   26  C21 UNL     1       2.836   8.245  14.404  1.00  0.00     0.260 C 
BRANCH  26  27
HETATM   27  O5  UNL     1       4.040   7.648  13.943  1.00  0.00    -0.314 OA
BRANCH  27  28
HETATM   28  C22 UNL     1       5.119   7.824  14.755  1.00  0.00     0.259 C 
HETATM   29  O6  UNL     1       5.086   8.325  15.870  1.00  0.00    -0.265 OA
BRANCH  28  30
HETATM   30  C23 UNL     1       6.376   7.386  14.043  1.00  0.00     0.120 C 
BRANCH  30  31
HETATM   31  C24 UNL     1       6.587   8.192  12.765  1.00  0.00     0.112 C 
BRANCH  31  32
HETATM   32  C25 UNL     1       6.382   7.337  11.530  1.00  0.00     0.218 C 
HETATM   33  O7  UNL     1       7.299   6.765  10.948  1.00  0.00    -0.274 OA
HETATM   34  N1  UNL     1       5.062   7.232  11.158  1.00  0.00    -0.360 N 
HETATM   35  H32 UNL     1       4.438   7.980  11.446  1.00  0.00     0.162 HD
BRANCH  34  36
HETATM   36  C26 UNL     1       4.677   6.514   9.948  1.00  0.00     0.142 C 
BRANCH  36  37
HETATM   37  C27 UNL     1       3.317   5.794  10.059  1.00  0.00     0.134 C 
BRANCH  37  38
HETATM   38  C28 UNL     1       3.389   4.368   9.516  1.00  0.00     0.150 C 
HETATM   39  O8  UNL     1       3.912   3.985   8.481  1.00  0.00    -0.649 OA
BRANCH  38  40
HETATM   40  O9  UNL     1       2.728   3.463  10.273  1.00  0.00    -0.776 OA
HETATM   41  H36 UNL     1       2.800   2.643   9.737  1.00  0.00     0.167 HD
ENDBRANCH  38  40
ENDBRANCH  37  38
BRANCH  37  42
HETATM   42  C29 UNL     1       2.246   6.655   9.393  1.00  0.00    -0.042 A 
HETATM   43  C30 UNL     1       1.171   7.125  10.166  1.00  0.00     0.008 A 
HETATM   44  C31 UNL     1       0.191   7.944   9.601  1.00  0.00     0.001 A 
HETATM   45  C32 UNL     1       0.270   8.305   8.259  1.00  0.00     0.000 A 
HETATM   46  C33 UNL     1       1.340   7.863   7.483  1.00  0.00     0.001 A 
HETATM   47  C34 UNL     1       2.327   7.051   8.048  1.00  0.00     0.008 A 
ENDBRANCH  37  42
ENDBRANCH  36  37
ENDBRANCH  34  36
ENDBRANCH  31  32
ENDBRANCH  30  31
ENDBRANCH  28  30
ENDBRANCH  27  28
ENDBRANCH  26  27
ENDBRANCH   1  26
TORSDOF 13
ENDMDL
