MODEL 1
REMARK minimizedAffinity -9.82146835
REMARK  7 active torsions:
REMARK  status: ('A' for Active; 'I' for Inactive)
REMARK    1  A    between atoms: C2_2  and  C3_3 
REMARK    2  A    between atoms: C2_2  and  C4_5 
REMARK    3  A    between atoms: C3_3  and  O1_4 
REMARK    4  A    between atoms: C13_14  and  C14_15 
REMARK    5  A    between atoms: C14_15  and  C16_17 
REMARK    6  A    between atoms: C16_17  and  C17_18 
REMARK    7  A    between atoms: C17_18  and  C18_20 
ROOT
HETATM    1  C4  UNL     1      -6.077   5.292  12.911  1.00  0.00     0.051 C 
HETATM    2  C5  UNL     1      -4.775   4.449  12.872  1.00  0.00     0.012 C 
HETATM    3  C6  UNL     1      -3.618   4.789  13.810  1.00  0.00     0.006 C 
HETATM    4  C7  UNL     1      -2.990   6.204  13.745  1.00  0.00    -0.001 C 
HETATM    5  C8  UNL     1      -3.856   7.279  13.026  1.00  0.00    -0.007 C 
HETATM    6  C9  UNL     1      -3.138   8.646  12.829  1.00  0.00     0.006 C 
HETATM    7  C10 UNL     1      -1.660   8.589  12.414  1.00  0.00     0.011 C 
HETATM    8  C11 UNL     1      -0.870   7.610  13.294  1.00  0.00    -0.032 C 
HETATM    9  C12 UNL     1      -0.857   8.160  14.756  1.00  0.00     0.016 C 
HETATM   10  C13 UNL     1       0.598   7.300  12.862  1.00  0.00    -0.002 C 
HETATM   11  C22 UNL     1       0.855   5.916  13.527  1.00  0.00     0.006 C 
HETATM   12  C23 UNL     1      -0.517   5.308  13.884  1.00  0.00     0.011 C 
HETATM   13  C24 UNL     1      -1.543   6.188  13.148  1.00  0.00    -0.032 C 
HETATM   14  C25 UNL     1      -1.603   5.658  11.675  1.00  0.00     0.016 C 
HETATM   15  C26 UNL     1      -5.199   7.570  13.736  1.00  0.00     0.044 C 
HETATM   16  C27 UNL     1      -6.161   6.383  14.025  1.00  0.00     0.079 C 
HETATM   17  C28 UNL     1      -6.036   5.915  15.474  1.00  0.00     0.049 C 
HETATM   18  C29 UNL     1      -6.993   6.794  16.248  1.00  0.00     0.114 C 
HETATM   19  C30 UNL     1      -7.983   7.211  15.212  1.00  0.00     0.259 C 
HETATM   20  O3  UNL     1      -9.066   7.726  15.436  1.00  0.00    -0.265 OA
HETATM   21  O4  UNL     1      -7.495   6.962  13.966  1.00  0.00    -0.309 OA
ENDROOT
BRANCH  10  22
HETATM   22  C14 UNL     1       1.741   8.308  13.171  1.00  0.00    -0.007 C 
HETATM   23  C15 UNL     1       1.275   9.511  13.997  1.00  0.00     0.011 C 
BRANCH  22  24
HETATM   24  C16 UNL     1       2.470   8.798  11.894  1.00  0.00     0.087 C 
BRANCH  24  25
HETATM   25  C17 UNL     1       2.844   7.694  10.918  1.00  0.00     0.149 C 
HETATM   26  O2  UNL     1       3.475   6.708  11.289  1.00  0.00    -0.293 OA
BRANCH  25  27
HETATM   27  C18 UNL     1       2.371   7.851   9.506  1.00  0.00     0.052 C 
HETATM   28  C19 UNL     1       2.486   6.933   8.528  1.00  0.00    -0.084 C 
HETATM   29  C20 UNL     1       1.922   7.199   7.157  1.00  0.00     0.043 C 
HETATM   30  C21 UNL     1       3.150   5.594   8.701  1.00  0.00     0.043 C 
ENDBRANCH  25  27
ENDBRANCH  24  25
ENDBRANCH  22  24
ENDBRANCH  10  22
BRANCH   1  31
HETATM   31  C2  UNL     1      -7.284   4.346  12.705  1.00  0.00    -0.059 C 
HETATM   32  C1  UNL     1      -8.561   4.711  12.491  1.00  0.00     0.017 C 
BRANCH  31  33
HETATM   33  C3  UNL     1      -6.948   2.868  12.736  1.00  0.00     0.198 C 
BRANCH  33  34
HETATM   34  O1  UNL     1      -8.148   2.110  12.689  1.00  0.00    -0.397 OA
HETATM   35  H5  UNL     1      -8.795   2.578  13.247  1.00  0.00     0.209 HD
ENDBRANCH  33  34
ENDBRANCH  31  33
ENDBRANCH   1  31
TORSDOF 7
ENDMDL
MODEL 2
REMARK minimizedAffinity -9.39478111
REMARK  7 active torsions:
REMARK  status: ('A' for Active; 'I' for Inactive)
REMARK    1  A    between atoms: C2_2  and  C3_3 
REMARK    2  A    between atoms: C2_2  and  C4_5 
REMARK    3  A    between atoms: C3_3  and  O1_4 
REMARK    4  A    between atoms: C13_14  and  C14_15 
REMARK    5  A    between atoms: C14_15  and  C16_17 
REMARK    6  A    between atoms: C16_17  and  C17_18 
REMARK    7  A    between atoms: C17_18  and  C18_20 
ROOT
HETATM    1  C4  UNL     1      -5.813   6.830  14.807  1.00  0.00     0.051 C 
HETATM    2  C5  UNL     1      -5.061   8.093  14.309  1.00  0.00     0.012 C 
HETATM    3  C6  UNL     1      -4.202   8.020  13.048  1.00  0.00     0.006 C 
HETATM    4  C7  UNL     1      -3.031   7.006  12.995  1.00  0.00    -0.001 C 
HETATM    5  C8  UNL     1      -3.089   5.873  14.060  1.00  0.00    -0.007 C 
HETATM    6  C9  UNL     1      -1.824   4.966  14.094  1.00  0.00     0.006 C 
HETATM    7  C10 UNL     1      -0.470   5.676  13.944  1.00  0.00     0.011 C 
HETATM    8  C11 UNL     1      -0.482   6.657  12.763  1.00  0.00    -0.032 C 
HETATM    9  C12 UNL     1      -0.657   5.841  11.444  1.00  0.00     0.016 C 
HETATM   10  C13 UNL     1       0.759   7.594  12.612  1.00  0.00    -0.002 C 
HETATM   11  C22 UNL     1       0.180   8.782  11.791  1.00  0.00     0.006 C 
HETATM   12  C23 UNL     1      -1.357   8.723  11.904  1.00  0.00     0.011 C 
HETATM   13  C24 UNL     1      -1.632   7.708  13.028  1.00  0.00    -0.032 C 
HETATM   14  C25 UNL     1      -1.484   8.490  14.377  1.00  0.00     0.016 C 
HETATM   15  C26 UNL     1      -4.312   4.939  13.907  1.00  0.00     0.044 C 
HETATM   16  C27 UNL     1      -5.734   5.570  13.889  1.00  0.00     0.079 C 
HETATM   17  C28 UNL     1      -6.254   5.712  12.459  1.00  0.00     0.049 C 
HETATM   18  C29 UNL     1      -6.912   4.384  12.155  1.00  0.00     0.114 C 
HETATM   19  C30 UNL     1      -7.269   3.865  13.507  1.00  0.00     0.259 C 
HETATM   20  O3  UNL     1      -8.032   2.939  13.729  1.00  0.00    -0.265 OA
HETATM   21  O4  UNL     1      -6.599   4.554  14.469  1.00  0.00    -0.309 OA
ENDROOT
BRANCH  10  22
HETATM   22  C14 UNL     1       2.082   7.057  11.994  1.00  0.00    -0.007 C 
HETATM   23  C15 UNL     1       3.077   8.168  11.645  1.00  0.00     0.011 C 
BRANCH  22  24
HETATM   24  C16 UNL     1       1.843   6.158  10.755  1.00  0.00     0.087 C 
BRANCH  24  25
HETATM   25  C17 UNL     1       3.011   6.099   9.782  1.00  0.00     0.149 C 
HETATM   26  O2  UNL     1       4.164   5.972  10.186  1.00  0.00    -0.293 OA
BRANCH  25  27
HETATM   27  C18 UNL     1       2.680   6.160   8.323  1.00  0.00     0.052 C 
HETATM   28  C19 UNL     1       2.017   7.157   7.706  1.00  0.00    -0.084 C 
HETATM   29  C20 UNL     1       1.790   7.119   6.218  1.00  0.00     0.043 C 
HETATM   30  C21 UNL     1       1.471   8.369   8.409  1.00  0.00     0.043 C 
ENDBRANCH  25  27
ENDBRANCH  24  25
ENDBRANCH  22  24
ENDBRANCH  10  22
BRANCH   1  31
HETATM   31  C2  UNL     1      -7.192   7.263  15.358  1.00  0.00    -0.059 C 
HETATM   32  C1  UNL     1      -7.856   8.395  15.058  1.00  0.00     0.017 C 
BRANCH  31  33
HETATM   33  C3  UNL     1      -7.835   6.278  16.315  1.00  0.00     0.198 C 
BRANCH  33  34
HETATM   34  O1  UNL     1      -9.220   6.171  16.021  1.00  0.00    -0.397 OA
HETATM   35  H5  UNL     1      -9.530   7.070  15.807  1.00  0.00     0.209 HD
ENDBRANCH  33  34
ENDBRANCH  31  33
ENDBRANCH   1  31
TORSDOF 7
ENDMDL
MODEL 3
REMARK minimizedAffinity -9.1163168
REMARK  7 active torsions:
REMARK  status: ('A' for Active; 'I' for Inactive)
REMARK    1  A    between atoms: C2_2  and  C3_3 
REMARK    2  A    between atoms: C2_2  and  C4_5 
REMARK    3  A    between atoms: C3_3  and  O1_4 
REMARK    4  A    between atoms: C13_14  and  C14_15 
REMARK    5  A    between atoms: C14_15  and  C16_17 
REMARK    6  A    between atoms: C16_17  and  C17_18 
REMARK    7  A    between atoms: C17_18  and  C18_20 
ROOT
HETATM    1  C4  UNL     1       2.435   6.210  10.832  1.00  0.00     0.051 C 
HETATM    2  C5  UNL     1       1.468   5.141  11.406  1.00  0.00     0.012 C 
HETATM    3  C6  UNL     1      -0.042   5.319  11.255  1.00  0.00     0.006 C 
HETATM    4  C7  UNL     1      -0.710   6.588  11.842  1.00  0.00    -0.001 C 
HETATM    5  C8  UNL     1       0.263   7.758  12.167  1.00  0.00    -0.007 C 
HETATM    6  C9  UNL     1      -0.405   8.955  12.904  1.00  0.00     0.006 C 
HETATM    7  C10 UNL     1      -1.419   8.602  14.003  1.00  0.00     0.011 C 
HETATM    8  C11 UNL     1      -2.426   7.551  13.516  1.00  0.00    -0.032 C 
HETATM    9  C12 UNL     1      -3.279   8.177  12.368  1.00  0.00     0.016 C 
HETATM   10  C13 UNL     1      -3.391   6.949  14.588  1.00  0.00    -0.002 C 
HETATM   11  C22 UNL     1      -3.786   5.586  13.950  1.00  0.00     0.006 C 
HETATM   12  C23 UNL     1      -2.749   5.263  12.856  1.00  0.00     0.011 C 
HETATM   13  C24 UNL     1      -1.607   6.270  13.085  1.00  0.00    -0.032 C 
HETATM   14  C25 UNL     1      -0.711   5.671  14.222  1.00  0.00     0.016 C 
HETATM   15  C26 UNL     1       0.979   8.334  10.923  1.00  0.00     0.044 C 
HETATM   16  C27 UNL     1       1.781   7.364  10.009  1.00  0.00     0.079 C 
HETATM   17  C28 UNL     1       0.967   6.971   8.777  1.00  0.00     0.049 C 
HETATM   18  C29 UNL     1       1.252   8.056   7.763  1.00  0.00     0.114 C 
HETATM   19  C30 UNL     1       2.578   8.584   8.196  1.00  0.00     0.259 C 
HETATM   20  O3  UNL     1       3.305   9.302   7.529  1.00  0.00    -0.265 OA
HETATM   21  O4  UNL     1       2.859   8.174   9.463  1.00  0.00    -0.309 OA
ENDROOT
BRANCH  10  22
HETATM   22  C14 UNL     1      -4.640   7.748  15.061  1.00  0.00    -0.007 C 
HETATM   23  C15 UNL     1      -4.282   9.034  15.811  1.00  0.00     0.011 C 
BRANCH  22  24
HETATM   24  C16 UNL     1      -5.609   6.893  15.916  1.00  0.00     0.087 C 
BRANCH  24  25
HETATM   25  C17 UNL     1      -6.937   6.581  15.242  1.00  0.00     0.149 C 
HETATM   26  O2  UNL     1      -7.744   7.472  14.991  1.00  0.00    -0.293 OA
BRANCH  25  27
HETATM   27  C18 UNL     1      -7.185   5.153  14.867  1.00  0.00     0.052 C 
HETATM   28  C19 UNL     1      -7.523   4.705  13.643  1.00  0.00    -0.084 C 
HETATM   29  C20 UNL     1      -7.697   3.231  13.387  1.00  0.00     0.043 C 
HETATM   30  C21 UNL     1      -7.737   5.594  12.449  1.00  0.00     0.043 C 
ENDBRANCH  25  27
ENDBRANCH  24  25
ENDBRANCH  22  24
ENDBRANCH  10  22
BRANCH   1  31
HETATM   31  C2  UNL     1       3.675   5.491  10.249  1.00  0.00    -0.059 C 
HETATM   32  C1  UNL     1       3.671   4.491   9.349  1.00  0.00     0.017 C 
BRANCH  31  33
HETATM   33  C3  UNL     1       5.008   6.006  10.756  1.00  0.00     0.198 C 
BRANCH  33  34
HETATM   34  O1  UNL     1       6.002   5.010  10.564  1.00  0.00    -0.397 OA
HETATM   35  H5  UNL     1       5.584   4.155  10.774  1.00  0.00     0.209 HD
ENDBRANCH  33  34
ENDBRANCH  31  33
ENDBRANCH   1  31
TORSDOF 7
ENDMDL
MODEL 4
REMARK minimizedAffinity -9.08197117
REMARK  7 active torsions:
REMARK  status: ('A' for Active; 'I' for Inactive)
REMARK    1  A    between atoms: C2_2  and  C3_3 
REMARK    2  A    between atoms: C2_2  and  C4_5 
REMARK    3  A    between atoms: C3_3  and  O1_4 
REMARK    4  A    between atoms: C13_14  and  C14_15 
REMARK    5  A    between atoms: C14_15  and  C16_17 
REMARK    6  A    between atoms: C16_17  and  C17_18 
REMARK    7  A    between atoms: C17_18  and  C18_20 
ROOT
HETATM    1  C4  UNL     1      -6.164   5.466  13.048  1.00  0.00     0.051 C 
HETATM    2  C5  UNL     1      -4.899   4.569  12.993  1.00  0.00     0.012 C 
HETATM    3  C6  UNL     1      -3.702   4.885  13.889  1.00  0.00     0.006 C 
HETATM    4  C7  UNL     1      -3.020   6.271  13.770  1.00  0.00    -0.001 C 
HETATM    5  C8  UNL     1      -3.863   7.363  13.048  1.00  0.00    -0.007 C 
HETATM    6  C9  UNL     1      -3.097   8.694  12.797  1.00  0.00     0.006 C 
HETATM    7  C10 UNL     1      -1.635   8.567  12.341  1.00  0.00     0.011 C 
HETATM    8  C11 UNL     1      -0.860   7.578  13.224  1.00  0.00    -0.032 C 
HETATM    9  C12 UNL     1      -0.781   8.163  14.669  1.00  0.00     0.016 C 
HETATM   10  C13 UNL     1       0.582   7.197  12.758  1.00  0.00    -0.002 C 
HETATM   11  C22 UNL     1       0.802   5.822  13.451  1.00  0.00     0.006 C 
HETATM   12  C23 UNL     1      -0.581   5.278  13.862  1.00  0.00     0.011 C 
HETATM   13  C24 UNL     1      -1.592   6.181  13.133  1.00  0.00    -0.032 C 
HETATM   14  C25 UNL     1      -1.717   5.619  11.676  1.00  0.00     0.016 C 
HETATM   15  C26 UNL     1      -5.171   7.725  13.788  1.00  0.00     0.044 C 
HETATM   16  C27 UNL     1      -6.172   6.586  14.135  1.00  0.00     0.079 C 
HETATM   17  C28 UNL     1      -6.023   6.149  15.592  1.00  0.00     0.049 C 
HETATM   18  C29 UNL     1      -6.921   7.084  16.370  1.00  0.00     0.114 C 
HETATM   19  C30 UNL     1      -7.923   7.517  15.352  1.00  0.00     0.259 C 
HETATM   20  O3  UNL     1      -8.978   8.080  15.593  1.00  0.00    -0.265 OA
HETATM   21  O4  UNL     1      -7.482   7.218  14.100  1.00  0.00    -0.309 OA
ENDROOT
BRANCH  10  22
HETATM   22  C14 UNL     1       1.773   8.166  13.009  1.00  0.00    -0.007 C 
HETATM   23  C15 UNL     1       1.416   9.331  13.937  1.00  0.00     0.011 C 
BRANCH  22  24
HETATM   24  C16 UNL     1       2.390   8.711  11.695  1.00  0.00     0.087 C 
BRANCH  24  25
HETATM   25  C17 UNL     1       3.788   8.193  11.392  1.00  0.00     0.149 C 
HETATM   26  O2  UNL     1       4.135   7.949  10.240  1.00  0.00    -0.293 OA
BRANCH  25  27
HETATM   27  C18 UNL     1       4.718   8.039  12.555  1.00  0.00     0.052 C 
HETATM   28  C19 UNL     1       5.768   7.197  12.619  1.00  0.00    -0.084 C 
HETATM   29  C20 UNL     1       6.658   7.174  13.835  1.00  0.00     0.043 C 
HETATM   30  C21 UNL     1       6.154   6.243  11.522  1.00  0.00     0.043 C 
ENDBRANCH  25  27
ENDBRANCH  24  25
ENDBRANCH  22  24
ENDBRANCH  10  22
BRANCH   1  31
HETATM   31  C2  UNL     1      -7.413   4.565  12.900  1.00  0.00    -0.059 C 
HETATM   32  C1  UNL     1      -8.550   4.871  12.248  1.00  0.00     0.017 C 
BRANCH  31  33
HETATM   33  C3  UNL     1      -7.297   3.202  13.554  1.00  0.00     0.198 C 
BRANCH  33  34
HETATM   34  O1  UNL     1      -8.052   2.256  12.809  1.00  0.00    -0.397 OA
HETATM   35  H5  UNL     1      -8.869   2.708  12.533  1.00  0.00     0.209 HD
ENDBRANCH  33  34
ENDBRANCH  31  33
ENDBRANCH   1  31
TORSDOF 7
ENDMDL
MODEL 5
REMARK minimizedAffinity -8.71504784
REMARK  7 active torsions:
REMARK  status: ('A' for Active; 'I' for Inactive)
REMARK    1  A    between atoms: C2_2  and  C3_3 
REMARK    2  A    between atoms: C2_2  and  C4_5 
REMARK    3  A    between atoms: C3_3  and  O1_4 
REMARK    4  A    between atoms: C13_14  and  C14_15 
REMARK    5  A    between atoms: C14_15  and  C16_17 
REMARK    6  A    between atoms: C16_17  and  C17_18 
REMARK    7  A    between atoms: C17_18  and  C18_20 
ROOT
HETATM    1  C4  UNL     1       2.633   5.825  10.076  1.00  0.00     0.051 C 
HETATM    2  C5  UNL     1       1.163   6.234   9.798  1.00  0.00     0.012 C 
HETATM    3  C6  UNL     1       0.625   7.558  10.340  1.00  0.00     0.006 C 
HETATM    4  C7  UNL     1       0.661   7.813  11.868  1.00  0.00    -0.001 C 
HETATM    5  C8  UNL     1       1.613   6.881  12.672  1.00  0.00    -0.007 C 
HETATM    6  C9  UNL     1       1.510   7.046  14.216  1.00  0.00     0.006 C 
HETATM    7  C10 UNL     1       0.097   7.218  14.793  1.00  0.00     0.011 C 
HETATM    8  C11 UNL     1      -0.698   8.277  14.015  1.00  0.00    -0.032 C 
HETATM    9  C12 UNL     1      -0.008   9.663  14.220  1.00  0.00     0.016 C 
HETATM   10  C13 UNL     1      -2.215   8.416  14.362  1.00  0.00    -0.002 C 
HETATM   11  C22 UNL     1      -2.795   9.051  13.066  1.00  0.00     0.006 C 
HETATM   12  C23 UNL     1      -1.769   8.829  11.936  1.00  0.00     0.011 C 
HETATM   13  C24 UNL     1      -0.768   7.809  12.508  1.00  0.00    -0.032 C 
HETATM   14  C25 UNL     1      -1.413   6.395  12.307  1.00  0.00     0.016 C 
HETATM   15  C26 UNL     1       3.104   7.044  12.296  1.00  0.00     0.044 C 
HETATM   16  C27 UNL     1       3.520   6.882  10.807  1.00  0.00     0.079 C 
HETATM   17  C28 UNL     1       3.686   8.243  10.132  1.00  0.00     0.049 C 
HETATM   18  C29 UNL     1       5.116   8.644  10.418  1.00  0.00     0.114 C 
HETATM   19  C30 UNL     1       5.796   7.335  10.645  1.00  0.00     0.259 C 
HETATM   20  O3  UNL     1       7.003   7.160  10.668  1.00  0.00    -0.265 OA
HETATM   21  O4  UNL     1       4.875   6.355  10.854  1.00  0.00    -0.309 OA
ENDROOT
BRANCH  10  22
HETATM   22  C14 UNL     1      -2.665   9.190  15.634  1.00  0.00    -0.007 C 
HETATM   23  C15 UNL     1      -2.260   8.494  16.937  1.00  0.00     0.011 C 
BRANCH  22  24
HETATM   24  C16 UNL     1      -4.186   9.487  15.649  1.00  0.00     0.087 C 
BRANCH  24  25
HETATM   25  C17 UNL     1      -5.068   8.279  15.372  1.00  0.00     0.149 C 
HETATM   26  O2  UNL     1      -4.632   7.138  15.490  1.00  0.00    -0.293 OA
BRANCH  25  27
HETATM   27  C18 UNL     1      -6.490   8.554  14.992  1.00  0.00     0.052 C 
HETATM   28  C19 UNL     1      -7.580   8.012  15.570  1.00  0.00    -0.084 C 
HETATM   29  C20 UNL     1      -8.962   8.412  15.124  1.00  0.00     0.043 C 
HETATM   30  C21 UNL     1      -7.531   7.005  16.686  1.00  0.00     0.043 C 
ENDBRANCH  25  27
ENDBRANCH  24  25
ENDBRANCH  22  24
ENDBRANCH  10  22
BRANCH   1  31
HETATM   31  C2  UNL     1       3.197   5.125   8.816  1.00  0.00    -0.059 C 
HETATM   32  C1  UNL     1       3.026   5.514   7.540  1.00  0.00     0.017 C 
BRANCH  31  33
HETATM   33  C3  UNL     1       4.034   3.891   9.093  1.00  0.00     0.198 C 
BRANCH  33  34
HETATM   34  O1  UNL     1       4.418   3.297   7.862  1.00  0.00    -0.397 OA
HETATM   35  H5  UNL     1       3.648   3.364   7.268  1.00  0.00     0.209 HD
ENDBRANCH  33  34
ENDBRANCH  31  33
ENDBRANCH   1  31
TORSDOF 7
ENDMDL
MODEL 6
REMARK minimizedAffinity -8.63952541
REMARK  7 active torsions:
REMARK  status: ('A' for Active; 'I' for Inactive)
REMARK    1  A    between atoms: C2_2  and  C3_3 
REMARK    2  A    between atoms: C2_2  and  C4_5 
REMARK    3  A    between atoms: C3_3  and  O1_4 
REMARK    4  A    between atoms: C13_14  and  C14_15 
REMARK    5  A    between atoms: C14_15  and  C16_17 
REMARK    6  A    between atoms: C16_17  and  C17_18 
REMARK    7  A    between atoms: C17_18  and  C18_20 
ROOT
HETATM    1  C4  UNL     1      -6.090   5.366  13.003  1.00  0.00     0.051 C 
HETATM    2  C5  UNL     1      -4.786   4.524  13.023  1.00  0.00     0.012 C 
HETATM    3  C6  UNL     1      -3.666   4.878  13.999  1.00  0.00     0.006 C 
HETATM    4  C7  UNL     1      -3.037   6.293  13.940  1.00  0.00    -0.001 C 
HETATM    5  C8  UNL     1      -3.876   7.358  13.176  1.00  0.00    -0.007 C 
HETATM    6  C9  UNL     1      -3.152   8.723  12.989  1.00  0.00     0.006 C 
HETATM    7  C10 UNL     1      -1.660   8.662  12.630  1.00  0.00     0.011 C 
HETATM    8  C11 UNL     1      -0.903   7.696  13.552  1.00  0.00    -0.032 C 
HETATM    9  C12 UNL     1      -0.945   8.265  15.005  1.00  0.00     0.016 C 
HETATM   10  C13 UNL     1       0.581   7.382  13.179  1.00  0.00    -0.002 C 
HETATM   11  C22 UNL     1       0.814   6.008  13.871  1.00  0.00     0.006 C 
HETATM   12  C23 UNL     1      -0.570   5.402  14.184  1.00  0.00     0.011 C 
HETATM   13  C24 UNL     1      -1.568   6.271  13.398  1.00  0.00    -0.032 C 
HETATM   14  C25 UNL     1      -1.573   5.723  11.931  1.00  0.00     0.016 C 
HETATM   15  C26 UNL     1      -5.245   7.656  13.831  1.00  0.00     0.044 C 
HETATM   16  C27 UNL     1      -6.216   6.471  14.099  1.00  0.00     0.079 C 
HETATM   17  C28 UNL     1      -6.145   6.022  15.558  1.00  0.00     0.049 C 
HETATM   18  C29 UNL     1      -7.132   6.909  16.283  1.00  0.00     0.114 C 
HETATM   19  C30 UNL     1      -8.082   7.312  15.206  1.00  0.00     0.259 C 
HETATM   20  O3  UNL     1      -9.173   7.828  15.382  1.00  0.00    -0.265 OA
HETATM   21  O4  UNL     1      -7.547   7.048  13.983  1.00  0.00    -0.309 OA
ENDROOT
BRANCH  10  22
HETATM   22  C14 UNL     1       1.711   8.396  13.518  1.00  0.00    -0.007 C 
HETATM   23  C15 UNL     1       2.229   9.152  12.291  1.00  0.00     0.011 C 
BRANCH  22  24
HETATM   24  C16 UNL     1       2.897   7.742  14.272  1.00  0.00     0.087 C 
BRANCH  24  25
HETATM   25  C17 UNL     1       3.391   8.531  15.476  1.00  0.00     0.149 C 
HETATM   26  O2  UNL     1       4.581   8.801  15.609  1.00  0.00    -0.293 OA
BRANCH  25  27
HETATM   27  C18 UNL     1       2.355   8.990  16.454  1.00  0.00     0.052 C 
HETATM   28  C19 UNL     1       1.952  10.262  16.637  1.00  0.00    -0.084 C 
HETATM   29  C20 UNL     1       0.861  10.586  17.624  1.00  0.00     0.043 C 
HETATM   30  C21 UNL     1       2.515  11.442  15.893  1.00  0.00     0.043 C 
ENDBRANCH  25  27
ENDBRANCH  24  25
ENDBRANCH  22  24
ENDBRANCH  10  22
BRANCH   1  31
HETATM   31  C2  UNL     1      -7.287   4.416  12.763  1.00  0.00    -0.059 C 
HETATM   32  C1  UNL     1      -8.561   4.777  12.527  1.00  0.00     0.017 C 
BRANCH  31  33
HETATM   33  C3  UNL     1      -6.944   2.939  12.788  1.00  0.00     0.198 C 
BRANCH  33  34
HETATM   34  O1  UNL     1      -8.136   2.176  12.679  1.00  0.00    -0.397 OA
HETATM   35  H5  UNL     1      -8.809   2.633  13.216  1.00  0.00     0.209 HD
ENDBRANCH  33  34
ENDBRANCH  31  33
ENDBRANCH   1  31
TORSDOF 7
ENDMDL
MODEL 7
REMARK minimizedAffinity -8.58758163
REMARK  7 active torsions:
REMARK  status: ('A' for Active; 'I' for Inactive)
REMARK    1  A    between atoms: C2_2  and  C3_3 
REMARK    2  A    between atoms: C2_2  and  C4_5 
REMARK    3  A    between atoms: C3_3  and  O1_4 
REMARK    4  A    between atoms: C13_14  and  C14_15 
REMARK    5  A    between atoms: C14_15  and  C16_17 
REMARK    6  A    between atoms: C16_17  and  C17_18 
REMARK    7  A    between atoms: C17_18  and  C18_20 
ROOT
HETATM    1  C4  UNL     1      -6.632   6.696  14.710  1.00  0.00     0.051 C 
HETATM    2  C5  UNL     1      -5.938   8.023  14.305  1.00  0.00     0.012 C 
HETATM    3  C6  UNL     1      -4.898   8.030  13.186  1.00  0.00     0.006 C 
HETATM    4  C7  UNL     1      -3.642   7.134  13.324  1.00  0.00    -0.001 C 
HETATM    5  C8  UNL     1      -3.749   6.003  14.389  1.00  0.00    -0.007 C 
HETATM    6  C9  UNL     1      -2.422   5.224  14.624  1.00  0.00     0.006 C 
HETATM    7  C10 UNL     1      -1.134   6.060  14.663  1.00  0.00     0.011 C 
HETATM    8  C11 UNL     1      -1.064   7.032  13.476  1.00  0.00    -0.032 C 
HETATM    9  C12 UNL     1      -0.964   6.198  12.160  1.00  0.00     0.016 C 
HETATM   10  C13 UNL     1       0.090   8.084  13.493  1.00  0.00    -0.002 C 
HETATM   11  C22 UNL     1      -0.472   9.208  12.576  1.00  0.00     0.006 C 
HETATM   12  C23 UNL     1      -1.996   9.001  12.462  1.00  0.00     0.011 C 
HETATM   13  C24 UNL     1      -2.336   7.968  13.550  1.00  0.00    -0.032 C 
HETATM   14  C25 UNL     1      -2.465   8.765  14.893  1.00  0.00     0.016 C 
HETATM   15  C26 UNL     1      -4.841   4.956  14.074  1.00  0.00     0.044 C 
HETATM   16  C27 UNL     1      -6.298   5.446  13.836  1.00  0.00     0.079 C 
HETATM   17  C28 UNL     1      -6.612   5.532  12.343  1.00  0.00     0.049 C 
HETATM   18  C29 UNL     1      -7.088   4.146  11.968  1.00  0.00     0.114 C 
HETATM   19  C30 UNL     1      -7.591   3.599  13.261  1.00  0.00     0.259 C 
HETATM   20  O3  UNL     1      -8.286   2.605  13.386  1.00  0.00    -0.265 OA
HETATM   21  O4  UNL     1      -7.139   4.353  14.300  1.00  0.00    -0.309 OA
ENDROOT
BRANCH  10  22
HETATM   22  C14 UNL     1       1.535   7.676  13.086  1.00  0.00    -0.007 C 
HETATM   23  C15 UNL     1       2.576   7.992  14.164  1.00  0.00     0.011 C 
BRANCH  22  24
HETATM   24  C16 UNL     1       1.974   8.294  11.734  1.00  0.00     0.087 C 
BRANCH  24  25
HETATM   25  C17 UNL     1       2.431   7.281  10.696  1.00  0.00     0.149 C 
HETATM   26  O2  UNL     1       1.766   7.066   9.687  1.00  0.00    -0.293 OA
BRANCH  25  27
HETATM   27  C18 UNL     1       3.742   6.601  10.947  1.00  0.00     0.052 C 
HETATM   28  C19 UNL     1       4.960   7.158  10.806  1.00  0.00    -0.084 C 
HETATM   29  C20 UNL     1       6.203   6.376  11.140  1.00  0.00     0.043 C 
HETATM   30  C21 UNL     1       5.194   8.568  10.335  1.00  0.00     0.043 C 
ENDBRANCH  25  27
ENDBRANCH  24  25
ENDBRANCH  22  24
ENDBRANCH  10  22
BRANCH   1  31
HETATM   31  C2  UNL     1      -8.113   6.995  15.044  1.00  0.00    -0.059 C 
HETATM   32  C1  UNL     1      -9.140   7.021  14.176  1.00  0.00     0.017 C 
BRANCH  31  33
HETATM   33  C3  UNL     1      -8.394   7.264  16.510  1.00  0.00     0.198 C 
BRANCH  33  34
HETATM   34  O1  UNL     1      -7.290   6.828  17.289  1.00  0.00    -0.397 OA
HETATM   35  H5  UNL     1      -6.982   5.993  16.893  1.00  0.00     0.209 HD
ENDBRANCH  33  34
ENDBRANCH  31  33
ENDBRANCH   1  31
TORSDOF 7
ENDMDL
MODEL 8
REMARK minimizedAffinity -8.50985718
REMARK  7 active torsions:
REMARK  status: ('A' for Active; 'I' for Inactive)
REMARK    1  A    between atoms: C2_2  and  C3_3 
REMARK    2  A    between atoms: C2_2  and  C4_5 
REMARK    3  A    between atoms: C3_3  and  O1_4 
REMARK    4  A    between atoms: C13_14  and  C14_15 
REMARK    5  A    between atoms: C14_15  and  C16_17 
REMARK    6  A    between atoms: C16_17  and  C17_18 
REMARK    7  A    between atoms: C17_18  and  C18_20 
ROOT
HETATM    1  C4  UNL     1       2.517   6.042  10.308  1.00  0.00     0.051 C 
HETATM    2  C5  UNL     1       1.029   6.419  10.079  1.00  0.00     0.012 C 
HETATM    3  C6  UNL     1       0.482   7.734  10.632  1.00  0.00     0.006 C 
HETATM    4  C7  UNL     1       0.565   8.000  12.157  1.00  0.00    -0.001 C 
HETATM    5  C8  UNL     1       1.564   7.092  12.932  1.00  0.00    -0.007 C 
HETATM    6  C9  UNL     1       1.510   7.264  14.478  1.00  0.00     0.006 C 
HETATM    7  C10 UNL     1       0.114   7.410  15.103  1.00  0.00     0.011 C 
HETATM    8  C11 UNL     1      -0.729   8.447  14.347  1.00  0.00    -0.032 C 
HETATM    9  C12 UNL     1      -0.062   9.848  14.521  1.00  0.00     0.016 C 
HETATM   10  C13 UNL     1      -2.236   8.556  14.746  1.00  0.00    -0.002 C 
HETATM   11  C22 UNL     1      -2.873   9.171  13.467  1.00  0.00     0.006 C 
HETATM   12  C23 UNL     1      -1.882   8.964  12.304  1.00  0.00     0.011 C 
HETATM   13  C24 UNL     1      -0.841   7.969  12.845  1.00  0.00    -0.032 C 
HETATM   14  C25 UNL     1      -1.462   6.541  12.675  1.00  0.00     0.016 C 
HETATM   15  C26 UNL     1       3.037   7.285  12.505  1.00  0.00     0.044 C 
HETATM   16  C27 UNL     1       3.405   7.122  11.003  1.00  0.00     0.079 C 
HETATM   17  C28 UNL     1       3.519   8.482  10.315  1.00  0.00     0.049 C 
HETATM   18  C29 UNL     1       4.949   8.915  10.550  1.00  0.00     0.114 C 
HETATM   19  C30 UNL     1       5.664   7.623  10.760  1.00  0.00     0.259 C 
HETATM   20  O3  UNL     1       6.875   7.473  10.742  1.00  0.00    -0.265 OA
HETATM   21  O4  UNL     1       4.772   6.624  11.006  1.00  0.00    -0.309 OA
ENDROOT
BRANCH  10  22
HETATM   22  C14 UNL     1      -2.658   9.328  16.029  1.00  0.00    -0.007 C 
HETATM   23  C15 UNL     1      -3.490  10.579  15.731  1.00  0.00     0.011 C 
BRANCH  22  24
HETATM   24  C16 UNL     1      -1.453   9.701  16.928  1.00  0.00     0.087 C 
BRANCH  24  25
HETATM   25  C17 UNL     1      -1.827  10.396  18.229  1.00  0.00     0.149 C 
HETATM   26  O2  UNL     1      -2.615   9.881  19.017  1.00  0.00    -0.293 OA
BRANCH  25  27
HETATM   27  C18 UNL     1      -1.157  11.705  18.511  1.00  0.00     0.052 C 
HETATM   28  C19 UNL     1      -0.126  11.898  19.356  1.00  0.00    -0.084 C 
HETATM   29  C20 UNL     1       0.490  13.264  19.513  1.00  0.00     0.043 C 
HETATM   30  C21 UNL     1       0.502  10.811  20.183  1.00  0.00     0.043 C 
ENDBRANCH  25  27
ENDBRANCH  24  25
ENDBRANCH  22  24
ENDBRANCH  10  22
BRANCH   1  31
HETATM   31  C2  UNL     1       3.051   5.347   9.034  1.00  0.00    -0.059 C 
HETATM   32  C1  UNL     1       2.906   5.776   7.767  1.00  0.00     0.017 C 
BRANCH  31  33
HETATM   33  C3  UNL     1       3.825   4.067   9.282  1.00  0.00     0.198 C 
BRANCH  33  34
HETATM   34  O1  UNL     1       3.041   3.189  10.076  1.00  0.00    -0.397 OA
HETATM   35  H5  UNL     1       2.589   3.742  10.740  1.00  0.00     0.209 HD
ENDBRANCH  33  34
ENDBRANCH  31  33
ENDBRANCH   1  31
TORSDOF 7
ENDMDL
MODEL 9
REMARK minimizedAffinity -8.46124458
REMARK  7 active torsions:
REMARK  status: ('A' for Active; 'I' for Inactive)
REMARK    1  A    between atoms: C2_2  and  C3_3 
REMARK    2  A    between atoms: C2_2  and  C4_5 
REMARK    3  A    between atoms: C3_3  and  O1_4 
REMARK    4  A    between atoms: C13_14  and  C14_15 
REMARK    5  A    between atoms: C14_15  and  C16_17 
REMARK    6  A    between atoms: C16_17  and  C17_18 
REMARK    7  A    between atoms: C17_18  and  C18_20 
ROOT
HETATM    1  C4  UNL     1       2.334   8.122  12.182  1.00  0.00     0.051 C 
HETATM    2  C5  UNL     1       1.909   7.271  13.408  1.00  0.00     0.012 C 
HETATM    3  C6  UNL     1       0.680   6.368  13.321  1.00  0.00     0.006 C 
HETATM    4  C7  UNL     1      -0.693   7.001  12.980  1.00  0.00    -0.001 C 
HETATM    5  C8  UNL     1      -0.628   8.425  12.356  1.00  0.00    -0.007 C 
HETATM    6  C9  UNL     1      -2.017   9.104  12.175  1.00  0.00     0.006 C 
HETATM    7  C10 UNL     1      -3.023   8.921  13.321  1.00  0.00     0.011 C 
HETATM    8  C11 UNL     1      -3.118   7.450  13.751  1.00  0.00    -0.032 C 
HETATM    9  C12 UNL     1      -3.707   6.625  12.563  1.00  0.00     0.016 C 
HETATM   10  C13 UNL     1      -3.950   7.143  15.037  1.00  0.00    -0.002 C 
HETATM   11  C22 UNL     1      -3.352   5.784  15.502  1.00  0.00     0.006 C 
HETATM   12  C23 UNL     1      -1.988   5.609  14.804  1.00  0.00     0.011 C 
HETATM   13  C24 UNL     1      -1.674   6.990  14.200  1.00  0.00    -0.032 C 
HETATM   14  C25 UNL     1      -1.061   7.850  15.357  1.00  0.00     0.016 C 
HETATM   15  C26 UNL     1       0.080   8.468  10.982  1.00  0.00     0.044 C 
HETATM   16  C27 UNL     1       1.522   7.896  10.868  1.00  0.00     0.079 C 
HETATM   17  C28 UNL     1       1.507   6.481  10.290  1.00  0.00     0.049 C 
HETATM   18  C29 UNL     1       1.538   6.677   8.790  1.00  0.00     0.114 C 
HETATM   19  C30 UNL     1       2.168   8.020   8.637  1.00  0.00     0.259 C 
HETATM   20  O3  UNL     1       2.613   8.478   7.597  1.00  0.00    -0.265 OA
HETATM   21  O4  UNL     1       2.155   8.686   9.824  1.00  0.00    -0.309 OA
ENDROOT
BRANCH  10  22
HETATM   22  C14 UNL     1      -5.504   7.098  14.978  1.00  0.00    -0.007 C 
HETATM   23  C15 UNL     1      -6.154   8.469  15.190  1.00  0.00     0.011 C 
BRANCH  22  24
HETATM   24  C16 UNL     1      -6.112   6.070  15.966  1.00  0.00     0.087 C 
BRANCH  24  25
HETATM   25  C17 UNL     1      -7.255   5.245  15.393  1.00  0.00     0.149 C 
HETATM   26  O2  UNL     1      -7.647   4.229  15.961  1.00  0.00    -0.293 OA
BRANCH  25  27
HETATM   27  C18 UNL     1      -7.895   5.755  14.139  1.00  0.00     0.052 C 
HETATM   28  C19 UNL     1      -7.845   5.162  12.931  1.00  0.00    -0.084 C 
HETATM   29  C20 UNL     1      -8.576   5.757  11.756  1.00  0.00     0.043 C 
HETATM   30  C21 UNL     1      -7.099   3.888  12.646  1.00  0.00     0.043 C 
ENDBRANCH  25  27
ENDBRANCH  24  25
ENDBRANCH  22  24
ENDBRANCH  10  22
BRANCH   1  31
HETATM   31  C2  UNL     1       3.879   8.142  12.108  1.00  0.00    -0.059 C 
HETATM   32  C1  UNL     1       4.684   9.165  12.447  1.00  0.00     0.017 C 
BRANCH  31  33
HETATM   33  C3  UNL     1       4.510   6.855  11.614  1.00  0.00     0.198 C 
BRANCH  33  34
HETATM   34  O1  UNL     1       5.474   6.411  12.557  1.00  0.00    -0.397 OA
HETATM   35  H5  UNL     1       5.935   7.206  12.880  1.00  0.00     0.209 HD
ENDBRANCH  33  34
ENDBRANCH  31  33
ENDBRANCH   1  31
TORSDOF 7
ENDMDL
