MODEL 1
REMARK minimizedAffinity -8.88759136
REMARK  5 active torsions:
REMARK  status: ('A' for Active; 'I' for Inactive)
REMARK    1  A    between atoms: C4_4  and  C5_5 
REMARK    2  A    between atoms: N1_23  and  C22_24 
REMARK    3  A    between atoms: C22_24  and  C23_25 
REMARK    4  A    between atoms: C23_25  and  O2_26 
REMARK    5  A    between atoms: C26_29  and  O3_31 
ROOT
HETATM    1  C5  UNL     1      -5.279   8.659  14.022  1.00  0.00     0.146 C 
HETATM    2  C6  UNL     1      -5.098   8.621  15.528  1.00  0.00     0.043 C 
HETATM    3  C7  UNL     1      -3.860   9.481  15.745  1.00  0.00     0.019 C 
HETATM    4  C8  UNL     1      -4.279  10.953  15.857  1.00  0.00     0.013 C 
HETATM    5  C9  UNL     1      -3.008   9.144  14.506  1.00  0.00     0.069 C 
HETATM    6  C10 UNL     1      -2.123  10.285  13.941  1.00  0.00     0.040 C 
HETATM    7  C11 UNL     1      -0.786   9.628  13.567  1.00  0.00     0.012 C 
HETATM    8  C12 UNL     1      -0.607   8.531  14.626  1.00  0.00    -0.037 C 
HETATM    9  C13 UNL     1      -0.266   9.204  15.988  1.00  0.00     0.015 C 
HETATM   10  C14 UNL     1       0.532   7.504  14.358  1.00  0.00     0.021 C 
HETATM   11  C15 UNL     1       0.459   6.329  13.359  1.00  0.00     0.052 C 
HETATM   12  C16 UNL     1      -0.709   5.385  13.188  1.00  0.00    -0.038 C 
HETATM   13  C17 UNL     1      -1.863   5.057  13.796  1.00  0.00     0.015 C 
HETATM   14  C18 UNL     1      -2.599   5.481  15.027  1.00  0.00     0.045 C 
HETATM   15  C19 UNL     1      -2.193   6.817  15.648  1.00  0.00     0.013 C 
HETATM   16  C20 UNL     1      -2.024   7.926  14.599  1.00  0.00     0.029 C 
HETATM   17  C21 UNL     1      -2.592   4.194  12.820  1.00  0.00     0.250 C 
HETATM   18  O1  UNL     1      -3.634   3.604  13.042  1.00  0.00    -0.268 OA
HETATM   19  N1  UNL     1      -1.876   4.203  11.639  1.00  0.00    -0.338 N 
HETATM   20  C24 UNL     1      -0.573   4.739  11.841  1.00  0.00     0.120 C 
HETATM   21  C25 UNL     1      -0.158   5.921  10.993  1.00  0.00     0.068 C 
HETATM   22  C26 UNL     1       0.884   6.643  11.874  1.00  0.00     0.064 C 
HETATM   23  C27 UNL     1       2.303   6.133  11.587  1.00  0.00     0.046 C 
HETATM   24  O4  UNL     1      -3.967   8.817  13.463  1.00  0.00    -0.370 OA
ENDROOT
BRANCH   1  25
HETATM   25  C4  UNL     1      -5.880   7.407  13.462  1.00  0.00     0.007 C 
HETATM   26  C2  UNL     1      -6.278   6.311  14.137  1.00  0.00    -0.089 C 
HETATM   27  C1  UNL     1      -6.151   6.127  15.624  1.00  0.00     0.042 C 
HETATM   28  C3  UNL     1      -6.896   5.146  13.410  1.00  0.00     0.042 C 
ENDBRANCH   1  25
BRANCH  22  29
HETATM   29  O3  UNL     1       0.882   8.031  11.576  1.00  0.00    -0.389 OA
HETATM   30  H41 UNL     1       0.987   8.142  10.615  1.00  0.00     0.210 HD
ENDBRANCH  22  29
BRANCH  19  31
HETATM   31  C22 UNL     1      -2.193   3.328  10.528  1.00  0.00     0.152 C 
BRANCH  31  32
HETATM   32  C23 UNL     1      -1.753   1.881  10.750  1.00  0.00     0.184 C 
BRANCH  32  33
HETATM   33  O2  UNL     1      -1.194   1.340   9.558  1.00  0.00    -0.399 OA
HETATM   34  H34 UNL     1      -1.926   1.229   8.926  1.00  0.00     0.209 HD
ENDBRANCH  32  33
ENDBRANCH  31  32
ENDBRANCH  19  31
TORSDOF 5
ENDMDL
MODEL 2
REMARK minimizedAffinity -8.10026646
REMARK  5 active torsions:
REMARK  status: ('A' for Active; 'I' for Inactive)
REMARK    1  A    between atoms: C4_4  and  C5_5 
REMARK    2  A    between atoms: N1_23  and  C22_24 
REMARK    3  A    between atoms: C22_24  and  C23_25 
REMARK    4  A    between atoms: C23_25  and  O2_26 
REMARK    5  A    between atoms: C26_29  and  O3_31 
ROOT
HETATM    1  C5  UNL     1      -0.914   4.829  11.863  1.00  0.00     0.146 C 
HETATM    2  C6  UNL     1      -0.355   5.586  10.673  1.00  0.00     0.043 C 
HETATM    3  C7  UNL     1       0.910   6.221  11.236  1.00  0.00     0.019 C 
HETATM    4  C8  UNL     1       2.072   5.226  11.118  1.00  0.00     0.013 C 
HETATM    5  C9  UNL     1       0.490   6.557  12.680  1.00  0.00     0.069 C 
HETATM    6  C10 UNL     1       1.598   6.471  13.762  1.00  0.00     0.040 C 
HETATM    7  C11 UNL     1       1.379   7.682  14.679  1.00  0.00     0.012 C 
HETATM    8  C12 UNL     1       0.864   8.774  13.730  1.00  0.00    -0.037 C 
HETATM    9  C13 UNL     1       2.046   9.254  12.836  1.00  0.00     0.015 C 
HETATM   10  C14 UNL     1       0.292  10.053  14.407  1.00  0.00     0.021 C 
HETATM   11  C15 UNL     1      -1.102  10.168  15.065  1.00  0.00     0.052 C 
HETATM   12  C16 UNL     1      -2.397   9.647  14.487  1.00  0.00    -0.038 C 
HETATM   13  C17 UNL     1      -2.882   9.146  13.338  1.00  0.00     0.015 C 
HETATM   14  C18 UNL     1      -2.350   8.856  11.971  1.00  0.00     0.045 C 
HETATM   15  C19 UNL     1      -0.831   8.773  11.825  1.00  0.00     0.013 C 
HETATM   16  C20 UNL     1      -0.177   7.950  12.947  1.00  0.00     0.029 C 
HETATM   17  C21 UNL     1      -4.233   8.608  13.680  1.00  0.00     0.250 C 
HETATM   18  O1  UNL     1      -5.039   8.170  12.880  1.00  0.00    -0.268 OA
HETATM   19  N1  UNL     1      -4.381   8.694  15.050  1.00  0.00    -0.338 N 
HETATM   20  C24 UNL     1      -3.378   9.531  15.616  1.00  0.00     0.120 C 
HETATM   21  C25 UNL     1      -2.503   8.946  16.703  1.00  0.00     0.068 C 
HETATM   22  C26 UNL     1      -1.196   9.758  16.583  1.00  0.00     0.064 C 
HETATM   23  C27 UNL     1      -1.228  10.998  17.488  1.00  0.00     0.046 C 
HETATM   24  O4  UNL     1      -0.502   5.554  13.031  1.00  0.00    -0.370 OA
ENDROOT
BRANCH   1  25
HETATM   25  C4  UNL     1      -2.410   4.744  11.868  1.00  0.00     0.007 C 
HETATM   26  C2  UNL     1      -3.243   4.950  12.907  1.00  0.00    -0.089 C 
HETATM   27  C1  UNL     1      -2.803   5.277  14.307  1.00  0.00     0.042 C 
HETATM   28  C3  UNL     1      -4.734   4.853  12.723  1.00  0.00     0.042 C 
ENDBRANCH   1  25
BRANCH  22  29
HETATM   29  O3  UNL     1      -0.100   8.967  17.017  1.00  0.00    -0.389 OA
HETATM   30  H41 UNL     1      -0.303   8.613  17.900  1.00  0.00     0.210 HD
ENDBRANCH  22  29
BRANCH  19  31
HETATM   31  C22 UNL     1      -5.641   8.429  15.716  1.00  0.00     0.152 C 
BRANCH  31  32
HETATM   32  C23 UNL     1      -6.138   6.997  15.526  1.00  0.00     0.184 C 
BRANCH  32  33
HETATM   33  O2  UNL     1      -6.661   6.484  16.746  1.00  0.00    -0.399 OA
HETATM   34  H34 UNL     1      -5.906   6.353  17.347  1.00  0.00     0.209 HD
ENDBRANCH  32  33
ENDBRANCH  31  32
ENDBRANCH  19  31
TORSDOF 5
ENDMDL
MODEL 3
REMARK minimizedAffinity -8.01288986
REMARK  5 active torsions:
REMARK  status: ('A' for Active; 'I' for Inactive)
REMARK    1  A    between atoms: C4_4  and  C5_5 
REMARK    2  A    between atoms: N1_23  and  C22_24 
REMARK    3  A    between atoms: C22_24  and  C23_25 
REMARK    4  A    between atoms: C23_25  and  O2_26 
REMARK    5  A    between atoms: C26_29  and  O3_31 
ROOT
HETATM    1  C5  UNL     1      -3.118   4.677  13.265  1.00  0.00     0.146 C 
HETATM    2  C6  UNL     1      -2.945   4.908  11.775  1.00  0.00     0.043 C 
HETATM    3  C7  UNL     1      -1.432   4.877  11.598  1.00  0.00     0.019 C 
HETATM    4  C8  UNL     1      -0.975   3.425  11.402  1.00  0.00     0.013 C 
HETATM    5  C9  UNL     1      -0.939   5.539  12.899  1.00  0.00     0.069 C 
HETATM    6  C10 UNL     1       0.410   5.029  13.470  1.00  0.00     0.040 C 
HETATM    7  C11 UNL     1       1.159   6.280  13.950  1.00  0.00     0.012 C 
HETATM    8  C12 UNL     1       0.739   7.366  12.949  1.00  0.00    -0.037 C 
HETATM    9  C13 UNL     1       1.431   7.080  11.584  1.00  0.00     0.015 C 
HETATM   10  C14 UNL     1       1.124   8.827  13.326  1.00  0.00     0.021 C 
HETATM   11  C15 UNL     1       0.392   9.704  14.367  1.00  0.00     0.052 C 
HETATM   12  C16 UNL     1      -1.107   9.846  14.504  1.00  0.00    -0.038 C 
HETATM   13  C17 UNL     1      -2.234   9.533  13.842  1.00  0.00     0.015 C 
HETATM   14  C18 UNL     1      -2.584   8.861  12.553  1.00  0.00     0.045 C 
HETATM   15  C19 UNL     1      -1.496   8.006  11.903  1.00  0.00     0.013 C 
HETATM   16  C20 UNL     1      -0.779   7.099  12.915  1.00  0.00     0.029 C 
HETATM   17  C21 UNL     1      -3.344   9.793  14.807  1.00  0.00     0.250 C 
HETATM   18  O1  UNL     1      -4.532   9.734  14.546  1.00  0.00    -0.268 OA
HETATM   19  N1  UNL     1      -2.773  10.097  16.027  1.00  0.00    -0.338 N 
HETATM   20  C24 UNL     1      -1.384  10.370  15.882  1.00  0.00     0.120 C 
HETATM   21  C25 UNL     1      -0.414   9.550  16.705  1.00  0.00     0.068 C 
HETATM   22  C26 UNL     1       0.877   9.572  15.860  1.00  0.00     0.064 C 
HETATM   23  C27 UNL     1       1.778  10.752  16.253  1.00  0.00     0.046 C 
HETATM   24  O4  UNL     1      -1.949   5.221  13.895  1.00  0.00    -0.370 OA
ENDROOT
BRANCH   1  25
HETATM   25  C4  UNL     1      -4.321   5.360  13.839  1.00  0.00     0.007 C 
HETATM   26  C2  UNL     1      -5.616   5.034  13.659  1.00  0.00    -0.089 C 
HETATM   27  C1  UNL     1      -6.105   3.910  12.788  1.00  0.00     0.042 C 
HETATM   28  C3  UNL     1      -6.705   5.818  14.343  1.00  0.00     0.042 C 
ENDBRANCH   1  25
BRANCH  22  29
HETATM   29  O3  UNL     1       1.626   8.391  16.101  1.00  0.00    -0.389 OA
HETATM   30  H41 UNL     1       1.747   8.291  17.062  1.00  0.00     0.210 HD
ENDBRANCH  22  29
BRANCH  19  31
HETATM   31  C22 UNL     1      -3.548  10.581  17.152  1.00  0.00     0.152 C 
BRANCH  31  32
HETATM   32  C23 UNL     1      -2.779  10.561  18.472  1.00  0.00     0.184 C 
BRANCH  32  33
HETATM   33  O2  UNL     1      -3.270   9.530  19.321  1.00  0.00    -0.399 OA
HETATM   34  H34 UNL     1      -4.158   9.801  19.613  1.00  0.00     0.209 HD
ENDBRANCH  32  33
ENDBRANCH  31  32
ENDBRANCH  19  31
TORSDOF 5
ENDMDL
MODEL 4
REMARK minimizedAffinity -7.88601398
REMARK  5 active torsions:
REMARK  status: ('A' for Active; 'I' for Inactive)
REMARK    1  A    between atoms: C4_4  and  C5_5 
REMARK    2  A    between atoms: N1_23  and  C22_24 
REMARK    3  A    between atoms: C22_24  and  C23_25 
REMARK    4  A    between atoms: C23_25  and  O2_26 
REMARK    5  A    between atoms: C26_29  and  O3_31 
ROOT
HETATM    1  C5  UNL     1      -3.578   8.568  14.049  1.00  0.00     0.146 C 
HETATM    2  C6  UNL     1      -3.617   8.165  15.511  1.00  0.00     0.043 C 
HETATM    3  C7  UNL     1      -2.830   9.277  16.193  1.00  0.00     0.019 C 
HETATM    4  C8  UNL     1      -3.774  10.444  16.514  1.00  0.00     0.013 C 
HETATM    5  C9  UNL     1      -1.744   9.593  15.147  1.00  0.00     0.069 C 
HETATM    6  C10 UNL     1      -1.269  11.068  15.063  1.00  0.00     0.040 C 
HETATM    7  C11 UNL     1       0.254  11.006  14.884  1.00  0.00     0.012 C 
HETATM    8  C12 UNL     1       0.670   9.770  15.696  1.00  0.00    -0.037 C 
HETATM    9  C13 UNL     1       0.536  10.103  17.212  1.00  0.00     0.015 C 
HETATM   10  C14 UNL     1       2.133   9.281  15.492  1.00  0.00     0.021 C 
HETATM   11  C15 UNL     1       2.645   8.476  14.276  1.00  0.00     0.052 C 
HETATM   12  C16 UNL     1       1.945   7.299  13.638  1.00  0.00    -0.038 C 
HETATM   13  C17 UNL     1       0.919   6.463  13.872  1.00  0.00     0.015 C 
HETATM   14  C18 UNL     1      -0.092   6.263  14.955  1.00  0.00     0.045 C 
HETATM   15  C19 UNL     1      -0.303   7.425  15.926  1.00  0.00     0.013 C 
HETATM   16  C20 UNL     1      -0.405   8.779  15.207  1.00  0.00     0.029 C 
HETATM   17  C21 UNL     1       0.709   5.726  12.590  1.00  0.00     0.250 C 
HETATM   18  O1  UNL     1      -0.061   4.797  12.429  1.00  0.00    -0.268 OA
HETATM   19  N1  UNL     1       1.536   6.296  11.641  1.00  0.00    -0.338 N 
HETATM   20  C24 UNL     1       2.504   7.139  12.255  1.00  0.00     0.120 C 
HETATM   21  C25 UNL     1       2.573   8.581  11.801  1.00  0.00     0.068 C 
HETATM   22  C26 UNL     1       3.135   9.316  13.036  1.00  0.00     0.064 C 
HETATM   23  C27 UNL     1       4.667   9.389  12.989  1.00  0.00     0.046 C 
HETATM   24  O4  UNL     1      -2.351   9.288  13.862  1.00  0.00    -0.370 OA
ENDROOT
BRANCH   1  25
HETATM   25  C4  UNL     1      -3.587   7.402  13.108  1.00  0.00     0.007 C 
HETATM   26  C2  UNL     1      -3.550   6.092  13.421  1.00  0.00    -0.089 C 
HETATM   27  C1  UNL     1      -3.452   5.547  14.819  1.00  0.00     0.042 C 
HETATM   28  C3  UNL     1      -3.599   5.045  12.340  1.00  0.00     0.042 C 
ENDBRANCH   1  25
BRANCH  22  29
HETATM   29  O3  UNL     1       2.665  10.656  13.049  1.00  0.00    -0.389 OA
HETATM   30  H41 UNL     1       2.860  11.061  12.186  1.00  0.00     0.210 HD
ENDBRANCH  22  29
BRANCH  19  31
HETATM   31  C22 UNL     1       1.729   5.717  10.326  1.00  0.00     0.152 C 
BRANCH  31  32
HETATM   32  C23 UNL     1       3.114   5.102  10.132  1.00  0.00     0.184 C 
BRANCH  32  33
HETATM   33  O2  UNL     1       3.019   3.688  10.007  1.00  0.00    -0.399 OA
HETATM   34  H34 UNL     1       2.771   3.341  10.882  1.00  0.00     0.209 HD
ENDBRANCH  32  33
ENDBRANCH  31  32
ENDBRANCH  19  31
TORSDOF 5
ENDMDL
MODEL 5
REMARK minimizedAffinity -7.87682772
REMARK  5 active torsions:
REMARK  status: ('A' for Active; 'I' for Inactive)
REMARK    1  A    between atoms: C4_4  and  C5_5 
REMARK    2  A    between atoms: N1_23  and  C22_24 
REMARK    3  A    between atoms: C22_24  and  C23_25 
REMARK    4  A    between atoms: C23_25  and  O2_26 
REMARK    5  A    between atoms: C26_29  and  O3_31 
ROOT
HETATM    1  C5  UNL     1      -6.442   6.045  13.556  1.00  0.00     0.146 C 
HETATM    2  C6  UNL     1      -6.554   5.695  15.029  1.00  0.00     0.043 C 
HETATM    3  C7  UNL     1      -6.353   7.040  15.715  1.00  0.00     0.019 C 
HETATM    4  C8  UNL     1      -7.701   7.767  15.810  1.00  0.00     0.013 C 
HETATM    5  C9  UNL     1      -5.315   7.720  14.801  1.00  0.00     0.069 C 
HETATM    6  C10 UNL     1      -5.418   9.261  14.660  1.00  0.00     0.040 C 
HETATM    7  C11 UNL     1      -3.973   9.779  14.691  1.00  0.00     0.012 C 
HETATM    8  C12 UNL     1      -3.258   8.816  15.651  1.00  0.00    -0.037 C 
HETATM    9  C13 UNL     1      -3.738   9.112  17.102  1.00  0.00     0.015 C 
HETATM   10  C14 UNL     1      -1.705   8.916  15.684  1.00  0.00     0.021 C 
HETATM   11  C15 UNL     1      -0.749   8.336  14.618  1.00  0.00     0.052 C 
HETATM   12  C16 UNL     1      -0.851   6.964  13.991  1.00  0.00    -0.038 C 
HETATM   13  C17 UNL     1      -1.515   5.807  14.154  1.00  0.00     0.015 C 
HETATM   14  C18 UNL     1      -2.533   5.265  15.106  1.00  0.00     0.045 C 
HETATM   15  C19 UNL     1      -3.309   6.284  15.941  1.00  0.00     0.013 C 
HETATM   16  C20 UNL     1      -3.796   7.479  15.106  1.00  0.00     0.029 C 
HETATM   17  C21 UNL     1      -1.234   5.013  12.922  1.00  0.00     0.250 C 
HETATM   18  O1  UNL     1      -1.568   3.857  12.736  1.00  0.00    -0.268 OA
HETATM   19  N1  UNL     1      -0.544   5.830  12.048  1.00  0.00    -0.338 N 
HETATM   20  C24 UNL     1      -0.067   6.994  12.714  1.00  0.00     0.120 C 
HETATM   21  C25 UNL     1      -0.471   8.341  12.155  1.00  0.00     0.068 C 
HETATM   22  C26 UNL     1      -0.422   9.266  13.389  1.00  0.00     0.064 C 
HETATM   23  C27 UNL     1       0.961   9.916  13.542  1.00  0.00     0.046 C 
HETATM   24  O4  UNL     1      -5.558   7.173  13.476  1.00  0.00    -0.370 OA
ENDROOT
BRANCH   1  25
HETATM   25  C4  UNL     1      -5.870   4.940  12.722  1.00  0.00     0.007 C 
HETATM   26  C2  UNL     1      -6.441   3.758  12.419  1.00  0.00    -0.089 C 
HETATM   27  C1  UNL     1      -7.787   3.304  12.912  1.00  0.00     0.042 C 
HETATM   28  C3  UNL     1      -5.730   2.769  11.534  1.00  0.00     0.042 C 
ENDBRANCH   1  25
BRANCH  22  29
HETATM   29  O3  UNL     1      -1.353  10.326  13.229  1.00  0.00    -0.389 OA
HETATM   30  H41 UNL     1      -1.192  10.753  12.369  1.00  0.00     0.210 HD
ENDBRANCH  22  29
BRANCH  19  31
HETATM   31  C22 UNL     1       0.052   5.335  10.822  1.00  0.00     0.152 C 
BRANCH  31  32
HETATM   32  C23 UNL     1       1.580   5.353  10.841  1.00  0.00     0.184 C 
BRANCH  32  33
HETATM   33  O2  UNL     1       2.091   5.646   9.545  1.00  0.00    -0.399 OA
HETATM   34  H34 UNL     1       1.909   4.871   8.985  1.00  0.00     0.209 HD
ENDBRANCH  32  33
ENDBRANCH  31  32
ENDBRANCH  19  31
TORSDOF 5
ENDMDL
MODEL 6
REMARK minimizedAffinity -7.81840372
REMARK  5 active torsions:
REMARK  status: ('A' for Active; 'I' for Inactive)
REMARK    1  A    between atoms: C4_4  and  C5_5 
REMARK    2  A    between atoms: N1_23  and  C22_24 
REMARK    3  A    between atoms: C22_24  and  C23_25 
REMARK    4  A    between atoms: C23_25  and  O2_26 
REMARK    5  A    between atoms: C26_29  and  O3_31 
ROOT
HETATM    1  C5  UNL     1       1.637   9.153  15.776  1.00  0.00     0.146 C 
HETATM    2  C6  UNL     1       1.441  10.536  15.183  1.00  0.00     0.043 C 
HETATM    3  C7  UNL     1       0.161  11.016  15.855  1.00  0.00     0.019 C 
HETATM    4  C8  UNL     1       0.509  11.669  17.200  1.00  0.00     0.013 C 
HETATM    5  C9  UNL     1      -0.659   9.716  15.960  1.00  0.00     0.069 C 
HETATM    6  C10 UNL     1      -1.591   9.580  17.192  1.00  0.00     0.040 C 
HETATM    7  C11 UNL     1      -2.890   8.956  16.665  1.00  0.00     0.012 C 
HETATM    8  C12 UNL     1      -3.030   9.536  15.251  1.00  0.00    -0.037 C 
HETATM    9  C13 UNL     1      -3.418  11.040  15.366  1.00  0.00     0.015 C 
HETATM   10  C14 UNL     1      -4.117   8.881  14.349  1.00  0.00     0.021 C 
HETATM   11  C15 UNL     1      -3.976   7.524  13.623  1.00  0.00     0.052 C 
HETATM   12  C16 UNL     1      -2.763   7.055  12.854  1.00  0.00    -0.038 C 
HETATM   13  C17 UNL     1      -1.602   7.534  12.373  1.00  0.00     0.015 C 
HETATM   14  C18 UNL     1      -0.902   8.854  12.347  1.00  0.00     0.045 C 
HETATM   15  C19 UNL     1      -1.377   9.908  13.346  1.00  0.00     0.013 C 
HETATM   16  C20 UNL     1      -1.585   9.331  14.755  1.00  0.00     0.029 C 
HETATM   17  C21 UNL     1      -0.821   6.331  11.956  1.00  0.00     0.250 C 
HETATM   18  O1  UNL     1       0.244   6.352  11.367  1.00  0.00    -0.268 OA
HETATM   19  N1  UNL     1      -1.523   5.215  12.367  1.00  0.00    -0.338 N 
HETATM   20  C24 UNL     1      -2.852   5.562  12.740  1.00  0.00     0.120 C 
HETATM   21  C25 UNL     1      -3.313   5.191  14.133  1.00  0.00     0.068 C 
HETATM   22  C26 UNL     1      -4.397   6.245  14.441  1.00  0.00     0.064 C 
HETATM   23  C27 UNL     1      -5.788   5.752  14.016  1.00  0.00     0.046 C 
HETATM   24  O4  UNL     1       0.326   8.653  16.075  1.00  0.00    -0.370 OA
ENDROOT
BRANCH   1  25
HETATM   25  C4  UNL     1       2.303   8.192  14.839  1.00  0.00     0.007 C 
HETATM   26  C2  UNL     1       2.755   8.436  13.593  1.00  0.00    -0.089 C 
HETATM   27  C1  UNL     1       2.632   9.753  12.879  1.00  0.00     0.042 C 
HETATM   28  C3  UNL     1       3.434   7.351  12.799  1.00  0.00     0.042 C 
ENDBRANCH   1  25
BRANCH  22  29
HETATM   29  O3  UNL     1      -4.458   6.473  15.841  1.00  0.00    -0.389 OA
HETATM   30  H41 UNL     1      -4.556   5.616  16.291  1.00  0.00     0.210 HD
ENDBRANCH  22  29
BRANCH  19  31
HETATM   31  C22 UNL     1      -1.152   3.871  11.971  1.00  0.00     0.152 C 
BRANCH  31  32
HETATM   32  C23 UNL     1      -2.283   3.107  11.282  1.00  0.00     0.184 C 
BRANCH  32  33
HETATM   33  O2  UNL     1      -1.850   2.603  10.024  1.00  0.00    -0.399 OA
HETATM   34  H34 UNL     1      -1.740   3.369   9.433  1.00  0.00     0.209 HD
ENDBRANCH  32  33
ENDBRANCH  31  32
ENDBRANCH  19  31
TORSDOF 5
ENDMDL
MODEL 7
REMARK minimizedAffinity -7.7506423
REMARK  5 active torsions:
REMARK  status: ('A' for Active; 'I' for Inactive)
REMARK    1  A    between atoms: C4_4  and  C5_5 
REMARK    2  A    between atoms: N1_23  and  C22_24 
REMARK    3  A    between atoms: C22_24  and  C23_25 
REMARK    4  A    between atoms: C23_25  and  O2_26 
REMARK    5  A    between atoms: C26_29  and  O3_31 
ROOT
HETATM    1  C5  UNL     1       4.020   7.939  10.716  1.00  0.00     0.146 C 
HETATM    2  C6  UNL     1       3.763   6.444  10.737  1.00  0.00     0.043 C 
HETATM    3  C7  UNL     1       2.314   6.340  10.279  1.00  0.00     0.019 C 
HETATM    4  C8  UNL     1       2.270   6.302   8.745  1.00  0.00     0.013 C 
HETATM    5  C9  UNL     1       1.682   7.594  10.912  1.00  0.00     0.069 C 
HETATM    6  C10 UNL     1       0.536   8.271  10.116  1.00  0.00     0.040 C 
HETATM    7  C11 UNL     1      -0.519   8.665  11.160  1.00  0.00     0.012 C 
HETATM    8  C12 UNL     1      -0.432   7.549  12.211  1.00  0.00    -0.037 C 
HETATM    9  C13 UNL     1      -1.043   6.249  11.609  1.00  0.00     0.015 C 
HETATM   10  C14 UNL     1      -1.196   7.805  13.543  1.00  0.00     0.021 C 
HETATM   11  C15 UNL     1      -0.714   8.724  14.687  1.00  0.00     0.052 C 
HETATM   12  C16 UNL     1       0.690   8.779  15.244  1.00  0.00    -0.038 C 
HETATM   13  C17 UNL     1       1.848   8.099  15.182  1.00  0.00     0.015 C 
HETATM   14  C18 UNL     1       2.345   6.864  14.501  1.00  0.00     0.045 C 
HETATM   15  C19 UNL     1       1.523   6.347  13.322  1.00  0.00     0.013 C 
HETATM   16  C20 UNL     1       1.100   7.471  12.363  1.00  0.00     0.029 C 
HETATM   17  C21 UNL     1       2.861   8.983  15.831  1.00  0.00     0.250 C 
HETATM   18  O1  UNL     1       4.015   8.676  16.071  1.00  0.00    -0.268 OA
HETATM   19  N1  UNL     1       2.251  10.195  16.092  1.00  0.00    -0.338 N 
HETATM   20  C24 UNL     1       0.838  10.088  15.962  1.00  0.00     0.120 C 
HETATM   21  C25 UNL     1       0.146  11.028  14.999  1.00  0.00     0.068 C 
HETATM   22  C26 UNL     1      -1.117  10.244  14.583  1.00  0.00     0.064 C 
HETATM   23  C27 UNL     1      -2.300  10.565  15.507  1.00  0.00     0.046 C 
HETATM   24  O4  UNL     1       2.758   8.569  10.984  1.00  0.00    -0.370 OA
ENDROOT
BRANCH   1  25
HETATM   25  C4  UNL     1       5.000   8.391  11.755  1.00  0.00     0.007 C 
HETATM   26  C2  UNL     1       6.263   7.958  11.938  1.00  0.00    -0.089 C 
HETATM   27  C1  UNL     1       6.925   6.877  11.129  1.00  0.00     0.042 C 
HETATM   28  C3  UNL     1       7.125   8.550  13.022  1.00  0.00     0.042 C 
ENDBRANCH   1  25
BRANCH  22  29
HETATM   29  O3  UNL     1      -1.508  10.628  13.274  1.00  0.00    -0.389 OA
HETATM   30  H41 UNL     1      -1.580  11.598  13.244  1.00  0.00     0.210 HD
ENDBRANCH  22  29
BRANCH  19  31
HETATM   31  C22 UNL     1       2.884  11.232  16.882  1.00  0.00     0.152 C 
BRANCH  31  32
HETATM   32  C23 UNL     1       2.558  11.144  18.372  1.00  0.00     0.184 C 
BRANCH  32  33
HETATM   33  O2  UNL     1       2.507   9.785  18.793  1.00  0.00    -0.399 OA
HETATM   34  H34 UNL     1       1.711   9.394  18.392  1.00  0.00     0.209 HD
ENDBRANCH  32  33
ENDBRANCH  31  32
ENDBRANCH  19  31
TORSDOF 5
ENDMDL
MODEL 8
REMARK minimizedAffinity -7.53319454
REMARK  5 active torsions:
REMARK  status: ('A' for Active; 'I' for Inactive)
REMARK    1  A    between atoms: C4_4  and  C5_5 
REMARK    2  A    between atoms: N1_23  and  C22_24 
REMARK    3  A    between atoms: C22_24  and  C23_25 
REMARK    4  A    between atoms: C23_25  and  O2_26 
REMARK    5  A    between atoms: C26_29  and  O3_31 
ROOT
HETATM    1  C5  UNL     1      -3.804   5.674  14.258  1.00  0.00     0.146 C 
HETATM    2  C6  UNL     1      -4.064   5.967  12.792  1.00  0.00     0.043 C 
HETATM    3  C7  UNL     1      -2.880   5.306  12.097  1.00  0.00     0.019 C 
HETATM    4  C8  UNL     1      -3.205   3.829  11.835  1.00  0.00     0.013 C 
HETATM    5  C9  UNL     1      -1.737   5.547  13.102  1.00  0.00     0.069 C 
HETATM    6  C10 UNL     1      -0.647   4.448  13.192  1.00  0.00     0.040 C 
HETATM    7  C11 UNL     1       0.689   5.195  13.307  1.00  0.00     0.012 C 
HETATM    8  C12 UNL     1       0.479   6.457  12.457  1.00  0.00    -0.037 C 
HETATM    9  C13 UNL     1       0.466   6.049  10.954  1.00  0.00     0.015 C 
HETATM   10  C14 UNL     1       1.570   7.559  12.593  1.00  0.00     0.021 C 
HETATM   11  C15 UNL     1       1.700   8.548  13.772  1.00  0.00     0.052 C 
HETATM   12  C16 UNL     1       0.563   9.306  14.419  1.00  0.00    -0.038 C 
HETATM   13  C17 UNL     1      -0.737   9.582  14.214  1.00  0.00     0.015 C 
HETATM   14  C18 UNL     1      -1.760   9.269  13.169  1.00  0.00     0.045 C 
HETATM   15  C19 UNL     1      -1.452   8.105  12.228  1.00  0.00     0.013 C 
HETATM   16  C20 UNL     1      -0.912   6.874  12.974  1.00  0.00     0.029 C 
HETATM   17  C21 UNL     1      -1.218  10.189  15.490  1.00  0.00     0.250 C 
HETATM   18  O1  UNL     1      -2.320  10.676  15.667  1.00  0.00    -0.268 OA
HETATM   19  N1  UNL     1      -0.196  10.084  16.413  1.00  0.00    -0.338 N 
HETATM   20  C24 UNL     1       1.030   9.747  15.775  1.00  0.00     0.120 C 
HETATM   21  C25 UNL     1       1.754   8.506  16.250  1.00  0.00     0.068 C 
HETATM   22  C26 UNL     1       2.551   8.061  15.005  1.00  0.00     0.064 C 
HETATM   23  C27 UNL     1       3.953   8.687  14.990  1.00  0.00     0.046 C 
HETATM   24  O4  UNL     1      -2.380   5.590  14.406  1.00  0.00    -0.370 OA
ENDROOT
BRANCH   1  25
HETATM   25  C4  UNL     1      -4.310   6.742  15.178  1.00  0.00     0.007 C 
HETATM   26  C2  UNL     1      -4.883   7.915  14.842  1.00  0.00    -0.089 C 
HETATM   27  C1  UNL     1      -5.089   8.395  13.432  1.00  0.00     0.042 C 
HETATM   28  C3  UNL     1      -5.365   8.864  15.906  1.00  0.00     0.042 C 
ENDBRANCH   1  25
BRANCH  22  29
HETATM   29  O3  UNL     1       2.736   6.654  15.034  1.00  0.00    -0.389 OA
HETATM   30  H41 UNL     1       3.117   6.408  15.895  1.00  0.00     0.210 HD
ENDBRANCH  22  29
BRANCH  19  31
HETATM   31  C22 UNL     1      -0.247  10.731  17.709  1.00  0.00     0.152 C 
BRANCH  31  32
HETATM   32  C23 UNL     1       1.126  11.165  18.224  1.00  0.00     0.184 C 
BRANCH  32  33
HETATM   33  O2  UNL     1       1.560  10.306  19.272  1.00  0.00    -0.399 OA
HETATM   34  H34 UNL     1       0.993  10.488  20.043  1.00  0.00     0.209 HD
ENDBRANCH  32  33
ENDBRANCH  31  32
ENDBRANCH  19  31
TORSDOF 5
ENDMDL
MODEL 9
REMARK minimizedAffinity -7.51405334
REMARK  5 active torsions:
REMARK  status: ('A' for Active; 'I' for Inactive)
REMARK    1  A    between atoms: C4_4  and  C5_5 
REMARK    2  A    between atoms: N1_23  and  C22_24 
REMARK    3  A    between atoms: C22_24  and  C23_25 
REMARK    4  A    between atoms: C23_25  and  O2_26 
REMARK    5  A    between atoms: C26_29  and  O3_31 
ROOT
HETATM    1  C5  UNL     1       3.941   9.289  12.436  1.00  0.00     0.146 C 
HETATM    2  C6  UNL     1       4.363   7.833  12.480  1.00  0.00     0.043 C 
HETATM    3  C7  UNL     1       3.487   7.191  11.411  1.00  0.00     0.019 C 
HETATM    4  C8  UNL     1       4.174   7.324  10.045  1.00  0.00     0.013 C 
HETATM    5  C9  UNL     1       2.172   7.981  11.552  1.00  0.00     0.069 C 
HETATM    6  C10 UNL     1       1.357   8.210  10.253  1.00  0.00     0.040 C 
HETATM    7  C11 UNL     1      -0.114   7.999  10.641  1.00  0.00     0.012 C 
HETATM    8  C12 UNL     1      -0.057   6.902  11.714  1.00  0.00    -0.037 C 
HETATM    9  C13 UNL     1       0.293   5.549  11.025  1.00  0.00     0.015 C 
HETATM   10  C14 UNL     1      -1.374   6.652  12.504  1.00  0.00     0.021 C 
HETATM   11  C15 UNL     1      -1.913   7.542  13.647  1.00  0.00     0.052 C 
HETATM   12  C16 UNL     1      -1.097   8.109  14.785  1.00  0.00    -0.038 C 
HETATM   13  C17 UNL     1       0.123   7.986  15.336  1.00  0.00     0.015 C 
HETATM   14  C18 UNL     1       1.347   7.163  15.089  1.00  0.00     0.045 C 
HETATM   15  C19 UNL     1       1.466   6.498  13.718  1.00  0.00     0.013 C 
HETATM   16  C20 UNL     1       1.102   7.451  12.569  1.00  0.00     0.029 C 
HETATM   17  C21 UNL     1       0.242   9.126  16.293  1.00  0.00     0.250 C 
HETATM   18  O1  UNL     1       1.162   9.300  17.071  1.00  0.00    -0.268 OA
HETATM   19  N1  UNL     1      -0.867   9.931  16.122  1.00  0.00    -0.338 N 
HETATM   20  C24 UNL     1      -1.865   9.262  15.359  1.00  0.00     0.120 C 
HETATM   21  C25 UNL     1      -2.360   9.938  14.099  1.00  0.00     0.068 C 
HETATM   22  C26 UNL     1      -2.823   8.756  13.221  1.00  0.00     0.064 C 
HETATM   23  C27 UNL     1      -4.307   8.440  13.451  1.00  0.00     0.046 C 
HETATM   24  O4  UNL     1       2.567   9.298  12.023  1.00  0.00    -0.370 OA
ENDROOT
BRANCH   1  25
HETATM   25  C4  UNL     1       4.037   9.978  13.762  1.00  0.00     0.007 C 
HETATM   26  C2  UNL     1       4.473   9.462  14.928  1.00  0.00    -0.089 C 
HETATM   27  C1  UNL     1       4.919   8.040  15.123  1.00  0.00     0.042 C 
HETATM   28  C3  UNL     1       4.532  10.314  16.168  1.00  0.00     0.042 C 
ENDBRANCH   1  25
BRANCH  22  29
HETATM   29  O3  UNL     1      -2.689   9.099  11.849  1.00  0.00    -0.389 OA
HETATM   30  H41 UNL     1      -3.141   9.947  11.696  1.00  0.00     0.210 HD
ENDBRANCH  22  29
BRANCH  19  31
HETATM   31  C22 UNL     1      -1.175  11.034  17.011  1.00  0.00     0.152 C 
BRANCH  31  32
HETATM   32  C23 UNL     1      -1.588  10.586  18.412  1.00  0.00     0.184 C 
BRANCH  32  33
HETATM   33  O2  UNL     1      -2.716   9.720  18.348  1.00  0.00    -0.399 OA
HETATM   34  H34 UNL     1      -3.478  10.266  18.082  1.00  0.00     0.209 HD
ENDBRANCH  32  33
ENDBRANCH  31  32
ENDBRANCH  19  31
TORSDOF 5
ENDMDL
