MODEL 1
REMARK minimizedAffinity -5.77108049
REMARK CNNscore 0.501316428
REMARK CNNaffinity 6.40209532
REMARK  8 active torsions:
REMARK  status: ('A' for Active; 'I' for Inactive)
REMARK    1  A    between atoms: C12_14  and  C13_15 
REMARK    2  A    between atoms: C13_15  and  C15_17 
REMARK    3  A    between atoms: C15_17  and  C16_18 
REMARK    4  A    between atoms: C16_18  and  C17_20 
REMARK    5  A    between atoms: C26_29  and  C27_30 
REMARK    6  A    between atoms: C27_30  and  C28_31 
REMARK    7  A    between atoms: C28_31  and  C29_32 
REMARK    8  A    between atoms: C29_32  and  O5_34 
ROOT
HETATM    1  C1  UNL     1       6.901  55.146  -2.798  1.00  0.00     0.025 C 
HETATM    2  C2  UNL     1       7.100  55.435  -4.091  1.00  0.00     0.015 C 
HETATM    3  C3  UNL     1       8.432  55.830  -4.590  1.00  0.00     0.289 C 
HETATM    4  O1  UNL     1       9.354  56.271  -3.931  1.00  0.00    -0.260 OA
HETATM    5  O2  UNL     1       8.445  55.588  -5.925  1.00  0.00    -0.311 OA
HETATM    6  C4  UNL     1       7.223  54.929  -6.324  1.00  0.00     0.142 C 
HETATM    7  C5  UNL     1       6.947  55.303  -7.776  1.00  0.00     0.039 C 
HETATM    8  C6  UNL     1       5.540  55.789  -8.139  1.00  0.00     0.006 C 
HETATM    9  C7  UNL     1       4.880  56.663  -7.055  1.00  0.00    -0.027 A 
HETATM   10  C8  UNL     1       3.509  57.214  -7.474  1.00  0.00     0.011 C 
HETATM   11  C9  UNL     1       2.565  56.162  -8.088  1.00  0.00     0.011 C 
HETATM   12  C10 UNL     1       3.248  55.381  -9.226  1.00  0.00    -0.032 C 
HETATM   13  C11 UNL     1       3.533  56.375 -10.399  1.00  0.00     0.016 C 
HETATM   14  C12 UNL     1       2.495  54.144  -9.812  1.00  0.00    -0.002 C 
HETATM   15  C21 UNL     1       3.668  53.310 -10.424  1.00  0.00     0.006 C 
HETATM   16  C22 UNL     1       4.987  53.832  -9.815  1.00  0.00     0.011 C 
HETATM   17  C23 UNL     1       4.543  54.693  -8.624  1.00  0.00    -0.032 C 
HETATM   18  C24 UNL     1       4.254  53.698  -7.457  1.00  0.00     0.016 C 
HETATM   19  C25 UNL     1       5.761  57.650  -6.321  1.00  0.00     0.022 A 
HETATM   20  C26 UNL     1       5.243  56.438  -5.564  1.00  0.00    -0.021 A 
HETATM   21  C31 UNL     1       6.183  55.263  -5.257  1.00  0.00     0.063 C 
ENDROOT
BRANCH  14  22
HETATM   22  C13 UNL     1       1.330  54.339 -10.828  1.00  0.00    -0.007 C 
HETATM   23  C14 UNL     1       0.172  55.152 -10.236  1.00  0.00     0.011 C 
BRANCH  22  24
HETATM   24  C15 UNL     1       0.788  52.966 -11.295  1.00  0.00     0.087 C 
BRANCH  24  25
HETATM   25  C16 UNL     1       0.146  52.154 -10.178  1.00  0.00     0.149 C 
HETATM   26  O3  UNL     1       0.792  51.403  -9.454  1.00  0.00    -0.293 OA
BRANCH  25  27
HETATM   27  C17 UNL     1      -1.318  52.380  -9.970  1.00  0.00     0.052 C 
HETATM   28  C18 UNL     1      -2.313  51.844 -10.703  1.00  0.00    -0.084 C 
HETATM   29  C19 UNL     1      -2.125  50.957 -11.903  1.00  0.00     0.043 C 
HETATM   30  C20 UNL     1      -3.752  52.120 -10.352  1.00  0.00     0.043 C 
ENDBRANCH  25  27
ENDBRANCH  24  25
ENDBRANCH  22  24
ENDBRANCH  14  22
BRANCH  20  31
HETATM   31  C27 UNL     1       4.124  56.588  -4.516  1.00  0.00     0.021 C 
BRANCH  31  32
HETATM   32  C28 UNL     1       3.682  58.008  -4.168  1.00  0.00     0.112 C 
BRANCH  32  33
HETATM   33  C29 UNL     1       2.481  58.068  -3.261  1.00  0.00     0.258 C 
HETATM   34  O4  UNL     1       2.544  57.967  -2.042  1.00  0.00    -0.265 OA
BRANCH  33  35
HETATM   35  O5  UNL     1       1.342  58.294  -3.971  1.00  0.00    -0.326 OA
HETATM   36  C30 UNL     1       0.450  57.178  -3.996  1.00  0.00     0.213 C 
ENDBRANCH  33  35
ENDBRANCH  32  33
ENDBRANCH  31  32
ENDBRANCH  20  31
TORSDOF 8
ENDMDL
MODEL 2
REMARK minimizedAffinity -6.4759593
REMARK CNNscore 0.462572575
REMARK CNNaffinity 6.80670309
REMARK  8 active torsions:
REMARK  status: ('A' for Active; 'I' for Inactive)
REMARK    1  A    between atoms: C12_14  and  C13_15 
REMARK    2  A    between atoms: C13_15  and  C15_17 
REMARK    3  A    between atoms: C15_17  and  C16_18 
REMARK    4  A    between atoms: C16_18  and  C17_20 
REMARK    5  A    between atoms: C26_29  and  C27_30 
REMARK    6  A    between atoms: C27_30  and  C28_31 
REMARK    7  A    between atoms: C28_31  and  C29_32 
REMARK    8  A    between atoms: C29_32  and  O5_34 
ROOT
HETATM    1  C1  UNL     1      -3.256  50.977  -9.875  1.00  0.00     0.025 C 
HETATM    2  C2  UNL     1      -2.762  52.186 -10.174  1.00  0.00     0.015 C 
HETATM    3  C3  UNL     1      -3.572  53.187 -10.896  1.00  0.00     0.289 C 
HETATM    4  O1  UNL     1      -4.553  52.970 -11.581  1.00  0.00    -0.260 OA
HETATM    5  O2  UNL     1      -3.031  54.403 -10.633  1.00  0.00    -0.311 OA
HETATM    6  C4  UNL     1      -1.967  54.275  -9.664  1.00  0.00     0.142 C 
HETATM    7  C5  UNL     1      -0.973  55.404  -9.916  1.00  0.00     0.039 C 
HETATM    8  C6  UNL     1       0.515  55.047 -10.002  1.00  0.00     0.006 C 
HETATM    9  C7  UNL     1       0.796  53.700 -10.697  1.00  0.00    -0.027 A 
HETATM   10  C8  UNL     1       2.295  53.403 -10.855  1.00  0.00     0.011 C 
HETATM   11  C9  UNL     1       3.123  53.630  -9.575  1.00  0.00     0.011 C 
HETATM   12  C10 UNL     1       2.870  55.026  -8.975  1.00  0.00    -0.032 C 
HETATM   13  C11 UNL     1       3.409  56.095  -9.979  1.00  0.00     0.016 C 
HETATM   14  C12 UNL     1       3.476  55.333  -7.569  1.00  0.00    -0.002 C 
HETATM   15  C21 UNL     1       2.551  56.486  -7.060  1.00  0.00     0.006 C 
HETATM   16  C22 UNL     1       1.273  56.484  -7.928  1.00  0.00     0.011 C 
HETATM   17  C23 UNL     1       1.318  55.140  -8.670  1.00  0.00    -0.032 C 
HETATM   18  C24 UNL     1       0.784  54.075  -7.663  1.00  0.00     0.016 C 
HETATM   19  C25 UNL     1      -0.050  53.344 -11.899  1.00  0.00     0.022 A 
HETATM   20  C26 UNL     1      -0.253  52.561 -10.613  1.00  0.00    -0.021 A 
HETATM   21  C31 UNL     1      -1.487  52.828  -9.737  1.00  0.00     0.063 C 
ENDROOT
BRANCH  14  22
HETATM   22  C13 UNL     1       4.985  55.693  -7.423  1.00  0.00    -0.007 C 
HETATM   23  C14 UNL     1       5.207  57.198  -7.226  1.00  0.00     0.011 C 
BRANCH  22  24
HETATM   24  C15 UNL     1       5.772  55.233  -8.673  1.00  0.00     0.087 C 
BRANCH  24  25
HETATM   25  C16 UNL     1       6.513  53.917  -8.474  1.00  0.00     0.149 C 
HETATM   26  O3  UNL     1       7.061  53.322  -9.396  1.00  0.00    -0.293 OA
BRANCH  25  27
HETATM   27  C17 UNL     1       6.592  53.424  -7.063  1.00  0.00     0.052 C 
HETATM   28  C18 UNL     1       7.020  52.208  -6.672  1.00  0.00    -0.084 C 
HETATM   29  C19 UNL     1       7.450  51.102  -7.597  1.00  0.00     0.043 C 
HETATM   30  C20 UNL     1       7.094  51.860  -5.209  1.00  0.00     0.043 C 
ENDBRANCH  25  27
ENDBRANCH  24  25
ENDBRANCH  22  24
ENDBRANCH  14  22
BRANCH  20  31
HETATM   31  C27 UNL     1       0.258  51.113 -10.487  1.00  0.00     0.021 C 
BRANCH  31  32
HETATM   32  C28 UNL     1       0.428  50.321 -11.781  1.00  0.00     0.112 C 
BRANCH  32  33
HETATM   33  C29 UNL     1      -0.856  49.743 -12.317  1.00  0.00     0.258 C 
HETATM   34  O4  UNL     1      -1.563  50.306 -13.143  1.00  0.00    -0.265 OA
BRANCH  33  35
HETATM   35  O5  UNL     1      -1.090  48.507 -11.797  1.00  0.00    -0.326 OA
HETATM   36  C30 UNL     1      -2.414  48.026 -12.034  1.00  0.00     0.213 C 
ENDBRANCH  33  35
ENDBRANCH  32  33
ENDBRANCH  31  32
ENDBRANCH  20  31
TORSDOF 8
ENDMDL
MODEL 3
REMARK minimizedAffinity -6.91365814
REMARK CNNscore 0.412620753
REMARK CNNaffinity 6.43307686
REMARK  8 active torsions:
REMARK  status: ('A' for Active; 'I' for Inactive)
REMARK    1  A    between atoms: C12_14  and  C13_15 
REMARK    2  A    between atoms: C13_15  and  C15_17 
REMARK    3  A    between atoms: C15_17  and  C16_18 
REMARK    4  A    between atoms: C16_18  and  C17_20 
REMARK    5  A    between atoms: C26_29  and  C27_30 
REMARK    6  A    between atoms: C27_30  and  C28_31 
REMARK    7  A    between atoms: C28_31  and  C29_32 
REMARK    8  A    between atoms: C29_32  and  O5_34 
ROOT
HETATM    1  C1  UNL     1      -2.972  50.963  -9.454  1.00  0.00     0.025 C 
HETATM    2  C2  UNL     1      -2.463  52.115  -9.909  1.00  0.00     0.015 C 
HETATM    3  C3  UNL     1      -3.324  53.139 -10.534  1.00  0.00     0.289 C 
HETATM    4  O1  UNL     1      -4.425  52.964 -11.020  1.00  0.00    -0.260 OA
HETATM    5  O2  UNL     1      -2.665  54.322 -10.446  1.00  0.00    -0.311 OA
HETATM    6  C4  UNL     1      -1.454  54.161  -9.675  1.00  0.00     0.142 C 
HETATM    7  C5  UNL     1      -0.450  55.198 -10.167  1.00  0.00     0.039 C 
HETATM    8  C6  UNL     1       0.970  54.727 -10.494  1.00  0.00     0.006 C 
HETATM    9  C7  UNL     1       1.032  53.331 -11.145  1.00  0.00    -0.027 A 
HETATM   10  C8  UNL     1       2.455  52.915 -11.548  1.00  0.00     0.011 C 
HETATM   11  C9  UNL     1       3.514  53.140 -10.452  1.00  0.00     0.011 C 
HETATM   12  C10 UNL     1       3.466  54.578  -9.902  1.00  0.00    -0.032 C 
HETATM   13  C11 UNL     1       3.883  55.555 -11.049  1.00  0.00     0.016 C 
HETATM   14  C12 UNL     1       4.336  54.906  -8.647  1.00  0.00    -0.002 C 
HETATM   15  C21 UNL     1       3.595  56.148  -8.053  1.00  0.00     0.006 C 
HETATM   16  C22 UNL     1       2.184  56.201  -8.679  1.00  0.00     0.011 C 
HETATM   17  C23 UNL     1       2.006  54.824  -9.334  1.00  0.00    -0.032 C 
HETATM   18  C24 UNL     1       1.596  53.851  -8.186  1.00  0.00     0.016 C 
HETATM   19  C25 UNL     1      -0.039  52.983 -12.155  1.00  0.00     0.022 A 
HETATM   20  C26 UNL     1      -0.056  52.280 -10.808  1.00  0.00    -0.021 A 
HETATM   21  C31 UNL     1      -1.091  52.680  -9.744  1.00  0.00     0.063 C 
ENDROOT
BRANCH  14  22
HETATM   22  C13 UNL     1       5.866  55.159  -8.793  1.00  0.00    -0.007 C 
HETATM   23  C14 UNL     1       6.681  53.862  -8.705  1.00  0.00     0.011 C 
BRANCH  22  24
HETATM   24  C15 UNL     1       6.359  56.133  -7.696  1.00  0.00     0.087 C 
BRANCH  24  25
HETATM   25  C16 UNL     1       6.794  55.434  -6.415  1.00  0.00     0.149 C 
HETATM   26  O3  UNL     1       6.028  54.751  -5.742  1.00  0.00    -0.293 OA
BRANCH  25  27
HETATM   27  C17 UNL     1       8.240  55.574  -6.058  1.00  0.00     0.052 C 
HETATM   28  C18 UNL     1       8.798  56.615  -5.409  1.00  0.00    -0.084 C 
HETATM   29  C19 UNL     1       8.067  57.855  -4.970  1.00  0.00     0.043 C 
HETATM   30  C20 UNL     1      10.265  56.605  -5.071  1.00  0.00     0.043 C 
ENDBRANCH  25  27
ENDBRANCH  24  25
ENDBRANCH  22  24
ENDBRANCH  14  22
BRANCH  20  31
HETATM   31  C27 UNL     1       0.373  50.805 -10.688  1.00  0.00     0.021 C 
BRANCH  31  32
HETATM   32  C28 UNL     1      -0.159  49.837 -11.741  1.00  0.00     0.112 C 
BRANCH  32  33
HETATM   33  C29 UNL     1       0.755  49.661 -12.925  1.00  0.00     0.258 C 
HETATM   34  O4  UNL     1       1.940  49.364 -12.832  1.00  0.00    -0.265 OA
BRANCH  33  35
HETATM   35  O5  UNL     1       0.078  49.827 -14.094  1.00  0.00    -0.326 OA
HETATM   36  C30 UNL     1       0.737  49.254 -15.226  1.00  0.00     0.213 C 
ENDBRANCH  33  35
ENDBRANCH  32  33
ENDBRANCH  31  32
ENDBRANCH  20  31
TORSDOF 8
ENDMDL
MODEL 4
REMARK minimizedAffinity -6.79584503
REMARK CNNscore 0.338731825
REMARK CNNaffinity 6.60164213
REMARK  8 active torsions:
REMARK  status: ('A' for Active; 'I' for Inactive)
REMARK    1  A    between atoms: C12_14  and  C13_15 
REMARK    2  A    between atoms: C13_15  and  C15_17 
REMARK    3  A    between atoms: C15_17  and  C16_18 
REMARK    4  A    between atoms: C16_18  and  C17_20 
REMARK    5  A    between atoms: C26_29  and  C27_30 
REMARK    6  A    between atoms: C27_30  and  C28_31 
REMARK    7  A    between atoms: C28_31  and  C29_32 
REMARK    8  A    between atoms: C29_32  and  O5_34 
ROOT
HETATM    1  C1  UNL     1      -2.790  50.787  -9.447  1.00  0.00     0.025 C 
HETATM    2  C2  UNL     1      -2.357  51.998  -9.821  1.00  0.00     0.015 C 
HETATM    3  C3  UNL     1      -3.277  52.991 -10.410  1.00  0.00     0.289 C 
HETATM    4  O1  UNL     1      -4.351  52.766 -10.935  1.00  0.00    -0.260 OA
HETATM    5  O2  UNL     1      -2.710  54.212 -10.236  1.00  0.00    -0.311 OA
HETATM    6  C4  UNL     1      -1.509  54.094  -9.443  1.00  0.00     0.142 C 
HETATM    7  C5  UNL     1      -0.574  55.230  -9.847  1.00  0.00     0.039 C 
HETATM    8  C6  UNL     1       0.885  54.883 -10.162  1.00  0.00     0.006 C 
HETATM    9  C7  UNL     1       1.065  53.536 -10.890  1.00  0.00    -0.027 A 
HETATM   10  C8  UNL     1       2.524  53.250 -11.278  1.00  0.00     0.011 C 
HETATM   11  C9  UNL     1       3.538  53.486 -10.142  1.00  0.00     0.011 C 
HETATM   12  C10 UNL     1       3.371  54.882  -9.511  1.00  0.00    -0.032 C 
HETATM   13  C11 UNL     1       3.740  55.952 -10.589  1.00  0.00     0.016 C 
HETATM   14  C12 UNL     1       4.185  55.196  -8.216  1.00  0.00    -0.002 C 
HETATM   15  C21 UNL     1       3.341  56.344  -7.573  1.00  0.00     0.006 C 
HETATM   16  C22 UNL     1       1.945  56.331  -8.232  1.00  0.00     0.011 C 
HETATM   17  C23 UNL     1       1.884  54.986  -8.970  1.00  0.00    -0.032 C 
HETATM   18  C24 UNL     1       1.521  53.919  -7.891  1.00  0.00     0.016 C 
HETATM   19  C25 UNL     1       0.047  53.171 -11.947  1.00  0.00     0.022 A 
HETATM   20  C26 UNL     1       0.051  52.391 -10.643  1.00  0.00    -0.021 A 
HETATM   21  C31 UNL     1      -1.035  52.650  -9.587  1.00  0.00     0.063 C 
ENDROOT
BRANCH  14  22
HETATM   22  C13 UNL     1       5.695  55.568  -8.306  1.00  0.00    -0.007 C 
HETATM   23  C14 UNL     1       6.378  54.939  -9.527  1.00  0.00     0.011 C 
BRANCH  22  24
HETATM   24  C15 UNL     1       6.440  55.111  -7.028  1.00  0.00     0.087 C 
BRANCH  24  25
HETATM   25  C16 UNL     1       7.141  56.246  -6.295  1.00  0.00     0.149 C 
HETATM   26  O3  UNL     1       8.344  56.231  -6.051  1.00  0.00    -0.293 OA
BRANCH  25  27
HETATM   27  C17 UNL     1       6.283  57.422  -5.947  1.00  0.00     0.052 C 
HETATM   28  C18 UNL     1       5.546  57.559  -4.828  1.00  0.00    -0.084 C 
HETATM   29  C19 UNL     1       5.412  56.524  -3.745  1.00  0.00     0.043 C 
HETATM   30  C20 UNL     1       4.763  58.822  -4.582  1.00  0.00     0.043 C 
ENDBRANCH  25  27
ENDBRANCH  24  25
ENDBRANCH  22  24
ENDBRANCH  14  22
BRANCH  20  31
HETATM   31  C27 UNL     1       0.585  50.947 -10.597  1.00  0.00     0.021 C 
BRANCH  31  32
HETATM   32  C28 UNL     1       0.372  50.085 -11.838  1.00  0.00     0.112 C 
BRANCH  32  33
HETATM   33  C29 UNL     1       1.577  50.002 -12.739  1.00  0.00     0.258 C 
HETATM   34  O4  UNL     1       1.607  50.453 -13.877  1.00  0.00    -0.265 OA
BRANCH  33  35
HETATM   35  O5  UNL     1       2.623  49.410 -12.102  1.00  0.00    -0.326 OA
HETATM   36  C30 UNL     1       3.890  49.990 -12.417  1.00  0.00     0.213 C 
ENDBRANCH  33  35
ENDBRANCH  32  33
ENDBRANCH  31  32
ENDBRANCH  20  31
TORSDOF 8
ENDMDL
MODEL 5
REMARK minimizedAffinity -9.15027523
REMARK CNNscore 0.301792443
REMARK CNNaffinity 6.85533953
REMARK  8 active torsions:
REMARK  status: ('A' for Active; 'I' for Inactive)
REMARK    1  A    between atoms: C12_14  and  C13_15 
REMARK    2  A    between atoms: C13_15  and  C15_17 
REMARK    3  A    between atoms: C15_17  and  C16_18 
REMARK    4  A    between atoms: C16_18  and  C17_20 
REMARK    5  A    between atoms: C26_29  and  C27_30 
REMARK    6  A    between atoms: C27_30  and  C28_31 
REMARK    7  A    between atoms: C28_31  and  C29_32 
REMARK    8  A    between atoms: C29_32  and  O5_34 
ROOT
HETATM    1  C1  UNL     1       1.813  51.179 -26.238  1.00  0.00     0.025 C 
HETATM    2  C2  UNL     1       0.488  51.321 -26.382  1.00  0.00     0.015 C 
HETATM    3  C3  UNL     1      -0.092  51.888 -27.615  1.00  0.00     0.289 C 
HETATM    4  O1  UNL     1       0.480  52.579 -28.436  1.00  0.00    -0.260 OA
HETATM    5  O2  UNL     1      -1.382  51.472 -27.677  1.00  0.00    -0.311 OA
HETATM    6  C4  UNL     1      -1.659  50.547 -26.602  1.00  0.00     0.142 C 
HETATM    7  C5  UNL     1      -3.141  50.661 -26.263  1.00  0.00     0.039 C 
HETATM    8  C6  UNL     1      -3.532  50.819 -24.790  1.00  0.00     0.006 C 
HETATM    9  C7  UNL     1      -2.559  51.694 -23.974  1.00  0.00    -0.027 A 
HETATM   10  C8  UNL     1      -3.016  51.915 -22.524  1.00  0.00     0.011 C 
HETATM   11  C9  UNL     1      -3.460  50.631 -21.798  1.00  0.00     0.011 C 
HETATM   12  C10 UNL     1      -4.499  49.844 -22.618  1.00  0.00    -0.032 C 
HETATM   13  C11 UNL     1      -5.801  50.704 -22.712  1.00  0.00     0.016 C 
HETATM   14  C12 UNL     1      -4.895  48.419 -22.115  1.00  0.00    -0.002 C 
HETATM   15  C21 UNL     1      -5.418  47.745 -23.425  1.00  0.00     0.006 C 
HETATM   16  C22 UNL     1      -4.916  48.584 -24.621  1.00  0.00     0.011 C 
HETATM   17  C23 UNL     1      -3.841  49.500 -24.019  1.00  0.00    -0.032 C 
HETATM   18  C24 UNL     1      -2.545  48.637 -23.922  1.00  0.00     0.016 C 
HETATM   19  C25 UNL     1      -1.986  52.919 -24.651  1.00  0.00     0.022 A 
HETATM   20  C26 UNL     1      -1.062  51.747 -24.370  1.00  0.00    -0.021 A 
HETATM   21  C31 UNL     1      -0.622  50.822 -25.516  1.00  0.00     0.063 C 
ENDROOT
BRANCH  14  22
HETATM   22  C13 UNL     1      -5.900  48.251 -20.936  1.00  0.00    -0.007 C 
HETATM   23  C14 UNL     1      -5.954  49.493 -20.036  1.00  0.00     0.011 C 
BRANCH  22  24
HETATM   24  C15 UNL     1      -5.516  47.026 -20.072  1.00  0.00     0.087 C 
BRANCH  24  25
HETATM   25  C16 UNL     1      -4.025  46.715 -20.087  1.00  0.00     0.149 C 
HETATM   26  O3  UNL     1      -3.528  45.906 -20.864  1.00  0.00    -0.293 OA
BRANCH  25  27
HETATM   27  C17 UNL     1      -3.187  47.510 -19.136  1.00  0.00     0.052 C 
HETATM   28  C18 UNL     1      -1.974  48.033 -19.398  1.00  0.00    -0.084 C 
HETATM   29  C19 UNL     1      -1.218  47.866 -20.688  1.00  0.00     0.043 C 
HETATM   30  C20 UNL     1      -1.259  48.857 -18.360  1.00  0.00     0.043 C 
ENDBRANCH  25  27
ENDBRANCH  24  25
ENDBRANCH  22  24
ENDBRANCH  14  22
BRANCH  20  31
HETATM   31  C27 UNL     1      -0.016  51.826 -23.242  1.00  0.00     0.021 C 
BRANCH  31  32
HETATM   32  C28 UNL     1       0.706  53.158 -23.054  1.00  0.00     0.112 C 
BRANCH  32  33
HETATM   33  C29 UNL     1       1.032  53.478 -21.618  1.00  0.00     0.258 C 
HETATM   34  O4  UNL     1       1.766  54.396 -21.276  1.00  0.00    -0.265 OA
BRANCH  33  35
HETATM   35  O5  UNL     1       0.368  52.646 -20.770  1.00  0.00    -0.326 OA
HETATM   36  C30 UNL     1       0.577  52.948 -19.389  1.00  0.00     0.213 C 
ENDBRANCH  33  35
ENDBRANCH  32  33
ENDBRANCH  31  32
ENDBRANCH  20  31
TORSDOF 8
ENDMDL
MODEL 6
REMARK minimizedAffinity -7.31598854
REMARK CNNscore 0.290548354
REMARK CNNaffinity 6.79858971
REMARK  8 active torsions:
REMARK  status: ('A' for Active; 'I' for Inactive)
REMARK    1  A    between atoms: C12_14  and  C13_15 
REMARK    2  A    between atoms: C13_15  and  C15_17 
REMARK    3  A    between atoms: C15_17  and  C16_18 
REMARK    4  A    between atoms: C16_18  and  C17_20 
REMARK    5  A    between atoms: C26_29  and  C27_30 
REMARK    6  A    between atoms: C27_30  and  C28_31 
REMARK    7  A    between atoms: C28_31  and  C29_32 
REMARK    8  A    between atoms: C29_32  and  O5_34 
ROOT
HETATM    1  C1  UNL     1      -4.242  43.540 -18.805  1.00  0.00     0.025 C 
HETATM    2  C2  UNL     1      -4.164  44.838 -18.484  1.00  0.00     0.015 C 
HETATM    3  C3  UNL     1      -4.443  45.305 -17.111  1.00  0.00     0.289 C 
HETATM    4  O1  UNL     1      -5.076  44.714 -16.258  1.00  0.00    -0.260 OA
HETATM    5  O2  UNL     1      -3.839  46.512 -16.970  1.00  0.00    -0.311 OA
HETATM    6  C4  UNL     1      -3.060  46.819 -18.147  1.00  0.00     0.142 C 
HETATM    7  C5  UNL     1      -3.006  48.337 -18.284  1.00  0.00     0.039 C 
HETATM    8  C6  UNL     1      -3.330  48.948 -19.651  1.00  0.00     0.006 C 
HETATM    9  C7  UNL     1      -4.453  48.217 -20.413  1.00  0.00    -0.027 A 
HETATM   10  C8  UNL     1      -4.825  48.898 -21.739  1.00  0.00     0.011 C 
HETATM   11  C9  UNL     1      -3.617  49.275 -22.618  1.00  0.00     0.011 C 
HETATM   12  C10 UNL     1      -2.569  50.081 -21.828  1.00  0.00    -0.032 C 
HETATM   13  C11 UNL     1      -3.204  51.455 -21.434  1.00  0.00     0.016 C 
HETATM   14  C12 UNL     1      -1.197  50.363 -22.518  1.00  0.00    -0.002 C 
HETATM   15  C21 UNL     1      -0.260  50.608 -21.291  1.00  0.00     0.006 C 
HETATM   16  C22 UNL     1      -0.969  50.051 -20.037  1.00  0.00     0.011 C 
HETATM   17  C23 UNL     1      -2.114  49.195 -20.595  1.00  0.00    -0.032 C 
HETATM   18  C24 UNL     1      -1.476  47.828 -20.991  1.00  0.00     0.016 C 
HETATM   19  C25 UNL     1      -5.630  47.712 -19.609  1.00  0.00     0.022 A 
HETATM   20  C26 UNL     1      -4.663  46.697 -20.194  1.00  0.00    -0.021 A 
HETATM   21  C31 UNL     1      -3.648  45.988 -19.285  1.00  0.00     0.063 C 
ENDROOT
BRANCH  14  22
HETATM   22  C13 UNL     1      -1.067  51.494 -23.581  1.00  0.00    -0.007 C 
HETATM   23  C14 UNL     1      -1.623  51.075 -24.948  1.00  0.00     0.011 C 
BRANCH  22  24
HETATM   24  C15 UNL     1       0.416  51.906 -23.751  1.00  0.00     0.087 C 
BRANCH  24  25
HETATM   25  C16 UNL     1       0.612  53.096 -24.681  1.00  0.00     0.149 C 
HETATM   26  O3  UNL     1       0.969  54.198 -24.277  1.00  0.00    -0.293 OA
BRANCH  25  27
HETATM   27  C17 UNL     1       0.409  52.821 -26.138  1.00  0.00     0.052 C 
HETATM   28  C18 UNL     1       1.209  52.071 -26.921  1.00  0.00    -0.084 C 
HETATM   29  C19 UNL     1       2.488  51.415 -26.478  1.00  0.00     0.043 C 
HETATM   30  C20 UNL     1       0.857  51.837 -28.366  1.00  0.00     0.043 C 
ENDBRANCH  25  27
ENDBRANCH  24  25
ENDBRANCH  22  24
ENDBRANCH  14  22
BRANCH  20  31
HETATM   31  C27 UNL     1      -5.067  45.839 -21.408  1.00  0.00     0.021 C 
BRANCH  31  32
HETATM   32  C28 UNL     1      -6.557  45.750 -21.732  1.00  0.00     0.112 C 
BRANCH  32  33
HETATM   33  C29 UNL     1      -7.236  44.537 -21.151  1.00  0.00     0.258 C 
HETATM   34  O4  UNL     1      -7.368  43.478 -21.752  1.00  0.00    -0.265 OA
BRANCH  33  35
HETATM   35  O5  UNL     1      -7.633  44.768 -19.870  1.00  0.00    -0.326 OA
HETATM   36  C30 UNL     1      -7.857  43.575 -19.115  1.00  0.00     0.213 C 
ENDBRANCH  33  35
ENDBRANCH  32  33
ENDBRANCH  31  32
ENDBRANCH  20  31
TORSDOF 8
ENDMDL
MODEL 7
REMARK minimizedAffinity -6.18985462
REMARK CNNscore 0.271440506
REMARK CNNaffinity 6.12645769
REMARK  8 active torsions:
REMARK  status: ('A' for Active; 'I' for Inactive)
REMARK    1  A    between atoms: C12_14  and  C13_15 
REMARK    2  A    between atoms: C13_15  and  C15_17 
REMARK    3  A    between atoms: C15_17  and  C16_18 
REMARK    4  A    between atoms: C16_18  and  C17_20 
REMARK    5  A    between atoms: C26_29  and  C27_30 
REMARK    6  A    between atoms: C27_30  and  C28_31 
REMARK    7  A    between atoms: C28_31  and  C29_32 
REMARK    8  A    between atoms: C29_32  and  O5_34 
ROOT
HETATM    1  C1  UNL     1       3.568  57.343  -2.476  1.00  0.00     0.025 C 
HETATM    2  C2  UNL     1       4.080  57.579  -3.692  1.00  0.00     0.015 C 
HETATM    3  C3  UNL     1       5.107  58.618  -3.901  1.00  0.00     0.289 C 
HETATM    4  O1  UNL     1       5.345  59.562  -3.173  1.00  0.00    -0.260 OA
HETATM    5  O2  UNL     1       5.756  58.311  -5.053  1.00  0.00    -0.311 OA
HETATM    6  C4  UNL     1       5.293  57.040  -5.560  1.00  0.00     0.142 C 
HETATM    7  C5  UNL     1       5.455  57.059  -7.077  1.00  0.00     0.039 C 
HETATM    8  C6  UNL     1       4.264  56.620  -7.934  1.00  0.00     0.006 C 
HETATM    9  C7  UNL     1       2.895  57.052  -7.372  1.00  0.00    -0.027 A 
HETATM   10  C8  UNL     1       1.721  56.683  -8.290  1.00  0.00     0.011 C 
HETATM   11  C9  UNL     1       1.754  55.231  -8.805  1.00  0.00     0.011 C 
HETATM   12  C10 UNL     1       3.114  54.883  -9.438  1.00  0.00    -0.032 C 
HETATM   13  C11 UNL     1       3.293  55.753 -10.724  1.00  0.00     0.016 C 
HETATM   14  C12 UNL     1       3.377  53.392  -9.822  1.00  0.00    -0.002 C 
HETATM   15  C21 UNL     1       4.940  53.327  -9.823  1.00  0.00     0.006 C 
HETATM   16  C22 UNL     1       5.464  54.560  -9.055  1.00  0.00     0.011 C 
HETATM   17  C23 UNL     1       4.228  55.114  -8.333  1.00  0.00    -0.032 C 
HETATM   18  C24 UNL     1       4.049  54.240  -7.053  1.00  0.00     0.016 C 
HETATM   19  C25 UNL     1       2.800  58.426  -6.744  1.00  0.00     0.022 A 
HETATM   20  C26 UNL     1       2.711  57.207  -5.840  1.00  0.00    -0.021 A 
HETATM   21  C31 UNL     1       3.908  56.812  -4.961  1.00  0.00     0.063 C 
ENDROOT
BRANCH  14  22
HETATM   22  C13 UNL     1       2.772  52.796 -11.127  1.00  0.00    -0.007 C 
HETATM   23  C14 UNL     1       1.239  52.749 -11.090  1.00  0.00     0.011 C 
BRANCH  22  24
HETATM   24  C15 UNL     1       3.308  51.364 -11.366  1.00  0.00     0.087 C 
BRANCH  24  25
HETATM   25  C16 UNL     1       2.867  50.763 -12.694  1.00  0.00     0.149 C 
HETATM   26  O3  UNL     1       1.975  49.924 -12.775  1.00  0.00    -0.293 OA
BRANCH  25  27
HETATM   27  C17 UNL     1       3.543  51.311 -13.910  1.00  0.00     0.052 C 
HETATM   28  C18 UNL     1       2.934  51.902 -14.956  1.00  0.00    -0.084 C 
HETATM   29  C19 UNL     1       1.447  52.070 -15.111  1.00  0.00     0.043 C 
HETATM   30  C20 UNL     1       3.744  52.454 -16.099  1.00  0.00     0.043 C 
ENDBRANCH  25  27
ENDBRANCH  24  25
ENDBRANCH  22  24
ENDBRANCH  14  22
BRANCH  20  31
HETATM   31  C27 UNL     1       1.363  56.784  -5.226  1.00  0.00     0.021 C 
BRANCH  31  32
HETATM   32  C28 UNL     1       1.183  55.304  -4.896  1.00  0.00     0.112 C 
BRANCH  32  33
HETATM   33  C29 UNL     1      -0.176  54.760  -5.255  1.00  0.00     0.258 C 
HETATM   34  O4  UNL     1      -1.222  55.166  -4.766  1.00  0.00    -0.265 OA
BRANCH  33  35
HETATM   35  O5  UNL     1      -0.079  53.803  -6.218  1.00  0.00    -0.326 OA
HETATM   36  C30 UNL     1      -1.334  53.221  -6.577  1.00  0.00     0.213 C 
ENDBRANCH  33  35
ENDBRANCH  32  33
ENDBRANCH  31  32
ENDBRANCH  20  31
TORSDOF 8
ENDMDL
MODEL 8
REMARK minimizedAffinity -8.98765659
REMARK CNNscore 0.236936226
REMARK CNNaffinity 6.6243763
REMARK  8 active torsions:
REMARK  status: ('A' for Active; 'I' for Inactive)
REMARK    1  A    between atoms: C12_14  and  C13_15 
REMARK    2  A    between atoms: C13_15  and  C15_17 
REMARK    3  A    between atoms: C15_17  and  C16_18 
REMARK    4  A    between atoms: C16_18  and  C17_20 
REMARK    5  A    between atoms: C26_29  and  C27_30 
REMARK    6  A    between atoms: C27_30  and  C28_31 
REMARK    7  A    between atoms: C28_31  and  C29_32 
REMARK    8  A    between atoms: C29_32  and  O5_34 
ROOT
HETATM    1  C1  UNL     1       1.855  51.174 -26.009  1.00  0.00     0.025 C 
HETATM    2  C2  UNL     1       0.549  51.300 -26.275  1.00  0.00     0.015 C 
HETATM    3  C3  UNL     1       0.078  51.807 -27.579  1.00  0.00     0.289 C 
HETATM    4  O1  UNL     1       0.718  52.466 -28.376  1.00  0.00    -0.260 OA
HETATM    5  O2  UNL     1      -1.201  51.380 -27.735  1.00  0.00    -0.311 OA
HETATM    6  C4  UNL     1      -1.568  50.502 -26.649  1.00  0.00     0.142 C 
HETATM    7  C5  UNL     1      -3.075  50.620 -26.447  1.00  0.00     0.039 C 
HETATM    8  C6  UNL     1      -3.596  50.841 -25.023  1.00  0.00     0.006 C 
HETATM    9  C7  UNL     1      -2.701  51.758 -24.165  1.00  0.00    -0.027 A 
HETATM   10  C8  UNL     1      -3.286  52.041 -22.773  1.00  0.00     0.011 C 
HETATM   11  C9  UNL     1      -3.787  50.786 -22.031  1.00  0.00     0.011 C 
HETATM   12  C10 UNL     1      -4.747  49.956 -22.904  1.00  0.00    -0.032 C 
HETATM   13  C11 UNL     1      -6.039  50.802 -23.151  1.00  0.00     0.016 C 
HETATM   14  C12 UNL     1      -5.182  48.553 -22.373  1.00  0.00    -0.002 C 
HETATM   15  C21 UNL     1      -5.584  47.817 -23.693  1.00  0.00     0.006 C 
HETATM   16  C22 UNL     1      -4.982  48.605 -24.876  1.00  0.00     0.011 C 
HETATM   17  C23 UNL     1      -3.967  49.555 -24.224  1.00  0.00    -0.032 C 
HETATM   18  C24 UNL     1      -2.682  48.707 -23.975  1.00  0.00     0.016 C 
HETATM   19  C25 UNL     1      -2.074  52.956 -24.843  1.00  0.00     0.022 A 
HETATM   20  C26 UNL     1      -1.175  51.804 -24.430  1.00  0.00    -0.021 A 
HETATM   21  C31 UNL     1      -0.632  50.833 -25.489  1.00  0.00     0.063 C 
ENDROOT
BRANCH  14  22
HETATM   22  C13 UNL     1      -6.286  48.430 -21.282  1.00  0.00    -0.007 C 
HETATM   23  C14 UNL     1      -7.680  48.773 -21.823  1.00  0.00     0.011 C 
BRANCH  22  24
HETATM   24  C15 UNL     1      -5.971  49.365 -20.089  1.00  0.00     0.087 C 
BRANCH  24  25
HETATM   25  C16 UNL     1      -5.867  48.635 -18.756  1.00  0.00     0.149 C 
HETATM   26  O3  UNL     1      -4.966  48.854 -17.952  1.00  0.00    -0.293 OA
BRANCH  25  27
HETATM   27  C17 UNL     1      -6.975  47.675 -18.454  1.00  0.00     0.052 C 
HETATM   28  C18 UNL     1      -8.246  48.005 -18.152  1.00  0.00    -0.084 C 
HETATM   29  C19 UNL     1      -8.768  49.409 -18.014  1.00  0.00     0.043 C 
HETATM   30  C20 UNL     1      -9.275  46.931 -17.916  1.00  0.00     0.043 C 
ENDBRANCH  25  27
ENDBRANCH  24  25
ENDBRANCH  22  24
ENDBRANCH  14  22
BRANCH  20  31
HETATM   31  C27 UNL     1      -0.233  51.941 -23.218  1.00  0.00     0.021 C 
BRANCH  31  32
HETATM   32  C28 UNL     1       0.592  53.222 -23.119  1.00  0.00     0.112 C 
BRANCH  32  33
HETATM   33  C29 UNL     1       1.099  53.515 -21.731  1.00  0.00     0.258 C 
HETATM   34  O4  UNL     1       1.758  54.506 -21.442  1.00  0.00    -0.265 OA
BRANCH  33  35
HETATM   35  O5  UNL     1       0.688  52.563 -20.849  1.00  0.00    -0.326 OA
HETATM   36  C30 UNL     1       0.255  53.091 -19.594  1.00  0.00     0.213 C 
ENDBRANCH  33  35
ENDBRANCH  32  33
ENDBRANCH  31  32
ENDBRANCH  20  31
TORSDOF 8
ENDMDL
MODEL 9
REMARK minimizedAffinity -8.67681885
REMARK CNNscore 0.236084059
REMARK CNNaffinity 6.4047451
REMARK  8 active torsions:
REMARK  status: ('A' for Active; 'I' for Inactive)
REMARK    1  A    between atoms: C12_14  and  C13_15 
REMARK    2  A    between atoms: C13_15  and  C15_17 
REMARK    3  A    between atoms: C15_17  and  C16_18 
REMARK    4  A    between atoms: C16_18  and  C17_20 
REMARK    5  A    between atoms: C26_29  and  C27_30 
REMARK    6  A    between atoms: C27_30  and  C28_31 
REMARK    7  A    between atoms: C28_31  and  C29_32 
REMARK    8  A    between atoms: C29_32  and  O5_34 
ROOT
HETATM    1  C1  UNL     1       1.885  51.063 -26.219  1.00  0.00     0.025 C 
HETATM    2  C2  UNL     1       0.570  51.227 -26.415  1.00  0.00     0.015 C 
HETATM    3  C3  UNL     1       0.045  51.743 -27.695  1.00  0.00     0.289 C 
HETATM    4  O1  UNL     1       0.660  52.378 -28.529  1.00  0.00    -0.260 OA
HETATM    5  O2  UNL     1      -1.252  51.354 -27.779  1.00  0.00    -0.311 OA
HETATM    6  C4  UNL     1      -1.586  50.491 -26.670  1.00  0.00     0.142 C 
HETATM    7  C5  UNL     1      -3.076  50.656 -26.387  1.00  0.00     0.039 C 
HETATM    8  C6  UNL     1      -3.512  50.897 -24.939  1.00  0.00     0.006 C 
HETATM    9  C7  UNL     1      -2.546  51.790 -24.135  1.00  0.00    -0.027 A 
HETATM   10  C8  UNL     1      -3.045  52.096 -22.715  1.00  0.00     0.011 C 
HETATM   11  C9  UNL     1      -3.543  50.860 -21.940  1.00  0.00     0.011 C 
HETATM   12  C10 UNL     1      -4.573  50.056 -22.755  1.00  0.00    -0.032 C 
HETATM   13  C11 UNL     1      -5.850  50.939 -22.937  1.00  0.00     0.016 C 
HETATM   14  C12 UNL     1      -5.020  48.668 -22.194  1.00  0.00    -0.002 C 
HETATM   15  C21 UNL     1      -5.515  47.940 -23.486  1.00  0.00     0.006 C 
HETATM   16  C22 UNL     1      -4.954  48.705 -24.705  1.00  0.00     0.011 C 
HETATM   17  C23 UNL     1      -3.878  49.627 -24.114  1.00  0.00    -0.032 C 
HETATM   18  C24 UNL     1      -2.607  48.741 -23.929  1.00  0.00     0.016 C 
HETATM   19  C25 UNL     1      -1.921  52.967 -24.853  1.00  0.00     0.022 A 
HETATM   20  C26 UNL     1      -1.035  51.789 -24.482  1.00  0.00    -0.021 A 
HETATM   21  C31 UNL     1      -0.579  50.798 -25.564  1.00  0.00     0.063 C 
ENDROOT
BRANCH  14  22
HETATM   22  C13 UNL     1      -6.066  48.583 -21.044  1.00  0.00    -0.007 C 
HETATM   23  C14 UNL     1      -5.435  48.814 -19.665  1.00  0.00     0.011 C 
BRANCH  22  24
HETATM   24  C15 UNL     1      -6.761  47.200 -21.049  1.00  0.00     0.087 C 
BRANCH  24  25
HETATM   25  C16 UNL     1      -5.825  46.049 -20.706  1.00  0.00     0.149 C 
HETATM   26  O3  UNL     1      -5.085  46.069 -19.728  1.00  0.00    -0.293 OA
BRANCH  25  27
HETATM   27  C17 UNL     1      -5.912  44.854 -21.602  1.00  0.00     0.052 C 
HETATM   28  C18 UNL     1      -6.748  43.808 -21.448  1.00  0.00    -0.084 C 
HETATM   29  C19 UNL     1      -7.715  43.632 -20.309  1.00  0.00     0.043 C 
HETATM   30  C20 UNL     1      -6.763  42.690 -22.456  1.00  0.00     0.043 C 
ENDBRANCH  25  27
ENDBRANCH  24  25
ENDBRANCH  22  24
ENDBRANCH  14  22
BRANCH  20  31
HETATM   31  C27 UNL     1      -0.025  51.903 -23.324  1.00  0.00     0.021 C 
BRANCH  31  32
HETATM   32  C28 UNL     1       0.682  53.244 -23.145  1.00  0.00     0.112 C 
BRANCH  32  33
HETATM   33  C29 UNL     1       1.081  53.539 -21.723  1.00  0.00     0.258 C 
HETATM   34  O4  UNL     1       1.716  54.530 -21.386  1.00  0.00    -0.265 OA
BRANCH  33  35
HETATM   35  O5  UNL     1       0.603  52.588 -20.875  1.00  0.00    -0.326 OA
HETATM   36  C30 UNL     1       0.115  53.114 -19.639  1.00  0.00     0.213 C 
ENDBRANCH  33  35
ENDBRANCH  32  33
ENDBRANCH  31  32
ENDBRANCH  20  31
TORSDOF 8
ENDMDL
