MODEL 1
REMARK minimizedAffinity -8.16484451
REMARK CNNscore 0.69840169
REMARK CNNaffinity 6.85319757
REMARK  4 active torsions:
REMARK  status: ('A' for Active; 'I' for Inactive)
REMARK    1  A    between atoms: C4_4  and  C5_5 
REMARK    2  A    between atoms: C5_5  and  C6_7 
REMARK    3  A    between atoms: C6_7  and  C7_8 
REMARK    4  A    between atoms: C7_8  and  C9_10 
ROOT
HETATM    1  C9  UNL     1       0.169  12.429  17.972  1.00  0.00    -0.001 C 
HETATM    2  C10 UNL     1      -0.980  13.474  17.863  1.00  0.00     0.007 C 
HETATM    3  C11 UNL     1      -2.110  12.830  17.033  1.00  0.00     0.015 C 
HETATM    4  C12 UNL     1      -1.473  11.569  16.414  1.00  0.00    -0.013 C 
HETATM    5  C13 UNL     1      -0.716  12.049  15.132  1.00  0.00     0.021 C 
HETATM    6  C14 UNL     1      -2.401  10.445  15.960  1.00  0.00    -0.070 C 
HETATM    7  C15 UNL     1      -3.618  10.686  15.438  1.00  0.00    -0.022 C 
HETATM    8  C16 UNL     1      -4.521   9.632  14.867  1.00  0.00     0.034 C 
HETATM    9  C17 UNL     1      -4.066   8.185  15.161  1.00  0.00     0.013 C 
HETATM   10  C18 UNL     1      -4.933   7.053  14.486  1.00  0.00     0.018 C 
HETATM   11  C19 UNL     1      -5.968   7.592  13.474  1.00  0.00     0.023 C 
HETATM   12  C20 UNL     1      -5.718   6.291  15.579  1.00  0.00     0.023 C 
HETATM   13  C21 UNL     1      -4.078   5.998  13.768  1.00  0.00     0.135 C 
HETATM   14  O2  UNL     1      -4.463   5.439  12.738  1.00  0.00    -0.297 OA
HETATM   15  C22 UNL     1      -2.776   5.556  14.393  1.00  0.00     0.080 C 
HETATM   16  C23 UNL     1      -2.152   6.578  15.329  1.00  0.00     0.017 C 
HETATM   17  C24 UNL     1      -2.511   8.044  14.993  1.00  0.00    -0.031 C 
HETATM   18  C25 UNL     1      -2.040   8.392  13.560  1.00  0.00     0.016 C 
HETATM   19  C26 UNL     1      -1.847   9.016  16.050  1.00  0.00     0.024 C 
HETATM   20  C27 UNL     1      -0.299   8.983  16.080  1.00  0.00     0.010 C 
HETATM   21  C28 UNL     1       0.368   9.957  17.083  1.00  0.00     0.011 C 
HETATM   22  C29 UNL     1      -0.549  11.092  17.590  1.00  0.00    -0.029 C 
HETATM   23  C30 UNL     1      -1.337  10.589  18.843  1.00  0.00     0.016 C 
ENDROOT
BRANCH   1  24
HETATM   24  C7  UNL     1       0.938  12.530  19.319  1.00  0.00    -0.007 C 
HETATM   25  C8  UNL     1       0.492  13.716  20.181  1.00  0.00     0.011 C 
BRANCH  24  26
HETATM   26  C6  UNL     1       0.895  11.219  20.142  1.00  0.00     0.087 C 
BRANCH  26  27
HETATM   27  C5  UNL     1       2.193  10.429  20.231  1.00  0.00     0.149 C 
HETATM   28  O1  UNL     1       2.611   9.710  19.329  1.00  0.00    -0.293 OA
BRANCH  27  29
HETATM   29  C4  UNL     1       2.919  10.535  21.536  1.00  0.00     0.052 C 
HETATM   30  C2  UNL     1       2.808   9.676  22.567  1.00  0.00    -0.084 C 
HETATM   31  C1  UNL     1       3.550   9.927  23.853  1.00  0.00     0.043 C 
HETATM   32  C3  UNL     1       1.974   8.421  22.565  1.00  0.00     0.043 C 
ENDBRANCH  27  29
ENDBRANCH  26  27
ENDBRANCH  24  26
ENDBRANCH   1  24
TORSDOF 4
ENDMDL
MODEL 2
REMARK minimizedAffinity -7.73520613
REMARK CNNscore 0.632225931
REMARK CNNaffinity 6.76708984
REMARK  4 active torsions:
REMARK  status: ('A' for Active; 'I' for Inactive)
REMARK    1  A    between atoms: C4_4  and  C5_5 
REMARK    2  A    between atoms: C5_5  and  C6_7 
REMARK    3  A    between atoms: C6_7  and  C7_8 
REMARK    4  A    between atoms: C7_8  and  C9_10 
ROOT
HETATM    1  C9  UNL     1      -2.159   9.718  15.806  1.00  0.00    -0.001 C 
HETATM    2  C10 UNL     1      -1.094   9.262  16.847  1.00  0.00     0.007 C 
HETATM    3  C11 UNL     1       0.010   8.510  16.077  1.00  0.00     0.015 C 
HETATM    4  C12 UNL     1      -0.585   8.267  14.675  1.00  0.00    -0.013 C 
HETATM    5  C13 UNL     1      -1.468   6.981  14.795  1.00  0.00     0.021 C 
HETATM    6  C14 UNL     1       0.380   8.010  13.520  1.00  0.00    -0.070 C 
HETATM    7  C15 UNL     1       1.535   7.339  13.685  1.00  0.00    -0.022 C 
HETATM    8  C16 UNL     1       2.462   6.955  12.569  1.00  0.00     0.034 C 
HETATM    9  C17 UNL     1       2.129   7.622  11.216  1.00  0.00     0.013 C 
HETATM   10  C18 UNL     1       3.017   7.159   9.997  1.00  0.00     0.018 C 
HETATM   11  C19 UNL     1       3.934   5.960  10.324  1.00  0.00     0.023 C 
HETATM   12  C20 UNL     1       3.933   8.326   9.560  1.00  0.00     0.023 C 
HETATM   13  C21 UNL     1       2.183   6.791   8.761  1.00  0.00     0.135 C 
HETATM   14  O2  UNL     1       2.526   5.891   7.988  1.00  0.00    -0.297 OA
HETATM   15  C22 UNL     1       0.965   7.616   8.421  1.00  0.00     0.080 C 
HETATM   16  C23 UNL     1       0.346   8.336   9.607  1.00  0.00     0.017 C 
HETATM   17  C24 UNL     1       0.579   7.633  10.965  1.00  0.00    -0.031 C 
HETATM   18  C25 UNL     1      -0.022   6.206  10.933  1.00  0.00     0.016 C 
HETATM   19  C26 UNL     1      -0.068   8.485  12.130  1.00  0.00     0.024 C 
HETATM   20  C27 UNL     1      -1.603   8.661  12.032  1.00  0.00     0.010 C 
HETATM   21  C28 UNL     1      -2.257   9.460  13.186  1.00  0.00     0.011 C 
HETATM   22  C29 UNL     1      -1.383   9.601  14.452  1.00  0.00    -0.029 C 
HETATM   23  C30 UNL     1      -0.470  10.861  14.305  1.00  0.00     0.016 C 
ENDROOT
BRANCH   1  24
HETATM   24  C7  UNL     1      -2.828  11.067  16.192  1.00  0.00    -0.007 C 
HETATM   25  C8  UNL     1      -4.292  11.163  15.747  1.00  0.00     0.011 C 
BRANCH  24  26
HETATM   26  C6  UNL     1      -2.700  11.400  17.698  1.00  0.00     0.087 C 
BRANCH  26  27
HETATM   27  C5  UNL     1      -3.239  12.753  18.143  1.00  0.00     0.149 C 
HETATM   28  O1  UNL     1      -2.755  13.823  17.791  1.00  0.00    -0.293 OA
BRANCH  27  29
HETATM   29  C4  UNL     1      -4.385  12.700  19.106  1.00  0.00     0.052 C 
HETATM   30  C2  UNL     1      -4.614  13.580  20.100  1.00  0.00    -0.084 C 
HETATM   31  C1  UNL     1      -5.774  13.382  21.041  1.00  0.00     0.043 C 
HETATM   32  C3  UNL     1      -3.787  14.806  20.382  1.00  0.00     0.043 C 
ENDBRANCH  27  29
ENDBRANCH  26  27
ENDBRANCH  24  26
ENDBRANCH   1  24
TORSDOF 4
ENDMDL
MODEL 3
REMARK minimizedAffinity -6.20843649
REMARK CNNscore 0.611111641
REMARK CNNaffinity 6.63618517
REMARK  4 active torsions:
REMARK  status: ('A' for Active; 'I' for Inactive)
REMARK    1  A    between atoms: C4_4  and  C5_5 
REMARK    2  A    between atoms: C5_5  and  C6_7 
REMARK    3  A    between atoms: C6_7  and  C7_8 
REMARK    4  A    between atoms: C7_8  and  C9_10 
ROOT
HETATM    1  C9  UNL     1     -14.181 -12.149  27.293  1.00  0.00    -0.001 C 
HETATM    2  C10 UNL     1     -15.727 -12.259  27.448  1.00  0.00     0.007 C 
HETATM    3  C11 UNL     1     -16.189 -11.060  28.301  1.00  0.00     0.015 C 
HETATM    4  C12 UNL     1     -14.891 -10.468  28.885  1.00  0.00    -0.013 C 
HETATM    5  C13 UNL     1     -14.554 -11.323  30.151  1.00  0.00     0.021 C 
HETATM    6  C14 UNL     1     -14.909  -9.015  29.351  1.00  0.00    -0.070 C 
HETATM    7  C15 UNL     1     -15.997  -8.454  29.910  1.00  0.00    -0.022 C 
HETATM    8  C16 UNL     1     -16.037  -7.071  30.492  1.00  0.00     0.034 C 
HETATM    9  C17 UNL     1     -14.793  -6.215  30.166  1.00  0.00     0.013 C 
HETATM   10  C18 UNL     1     -14.752  -4.794  30.850  1.00  0.00     0.018 C 
HETATM   11  C19 UNL     1     -15.867  -4.583  31.899  1.00  0.00     0.023 C 
HETATM   12  C20 UNL     1     -14.930  -3.701  29.770  1.00  0.00     0.023 C 
HETATM   13  C21 UNL     1     -13.406  -4.500  31.530  1.00  0.00     0.135 C 
HETATM   14  O2  UNL     1     -13.331  -3.830  32.564  1.00  0.00    -0.297 OA
HETATM   15  C22 UNL     1     -12.130  -4.954  30.863  1.00  0.00     0.080 C 
HETATM   16  C23 UNL     1     -12.301  -6.136  29.923  1.00  0.00     0.017 C 
HETATM   17  C24 UNL     1     -13.480  -7.068  30.288  1.00  0.00    -0.031 C 
HETATM   18  C25 UNL     1     -13.282  -7.643  31.712  1.00  0.00     0.016 C 
HETATM   19  C26 UNL     1     -13.592  -8.234  29.225  1.00  0.00     0.024 C 
HETATM   20  C27 UNL     1     -12.358  -9.167  29.151  1.00  0.00     0.010 C 
HETATM   21  C28 UNL     1     -12.468 -10.337  28.143  1.00  0.00     0.011 C 
HETATM   22  C29 UNL     1     -13.905 -10.657  27.677  1.00  0.00    -0.029 C 
HETATM   23  C30 UNL     1     -14.251  -9.765  26.440  1.00  0.00     0.016 C 
ENDROOT
BRANCH   1  24
HETATM   24  C7  UNL     1     -13.681 -12.694  25.925  1.00  0.00    -0.007 C 
HETATM   25  C8  UNL     1     -14.533 -12.224  24.741  1.00  0.00     0.011 C 
BRANCH  24  26
HETATM   26  C6  UNL     1     -12.184 -12.398  25.664  1.00  0.00     0.087 C 
BRANCH  26  27
HETATM   27  C5  UNL     1     -11.358 -13.534  25.077  1.00  0.00     0.149 C 
HETATM   28  O1  UNL     1     -11.491 -13.945  23.930  1.00  0.00    -0.293 OA
BRANCH  27  29
HETATM   29  C4  UNL     1     -10.392 -14.178  26.024  1.00  0.00     0.052 C 
HETATM   30  C2  UNL     1      -9.143 -13.746  26.282  1.00  0.00    -0.084 C 
HETATM   31  C1  UNL     1      -8.247 -14.519  27.214  1.00  0.00     0.043 C 
HETATM   32  C3  UNL     1      -8.518 -12.504  25.705  1.00  0.00     0.043 C 
ENDBRANCH  27  29
ENDBRANCH  26  27
ENDBRANCH  24  26
ENDBRANCH   1  24
TORSDOF 4
ENDMDL
MODEL 4
REMARK minimizedAffinity -6.25426388
REMARK CNNscore 0.561799824
REMARK CNNaffinity 6.6334157
REMARK  4 active torsions:
REMARK  status: ('A' for Active; 'I' for Inactive)
REMARK    1  A    between atoms: C4_4  and  C5_5 
REMARK    2  A    between atoms: C5_5  and  C6_7 
REMARK    3  A    between atoms: C6_7  and  C7_8 
REMARK    4  A    between atoms: C7_8  and  C9_10 
ROOT
HETATM    1  C9  UNL     1     -13.302   9.481  23.259  1.00  0.00    -0.001 C 
HETATM    2  C10 UNL     1     -13.604   9.264  21.747  1.00  0.00     0.007 C 
HETATM    3  C11 UNL     1     -12.657  10.187  20.952  1.00  0.00     0.015 C 
HETATM    4  C12 UNL     1     -12.061  11.141  22.007  1.00  0.00    -0.013 C 
HETATM    5  C13 UNL     1     -13.113  12.282  22.205  1.00  0.00     0.021 C 
HETATM    6  C14 UNL     1     -10.741  11.836  21.683  1.00  0.00    -0.070 C 
HETATM    7  C15 UNL     1     -10.423  12.226  20.435  1.00  0.00    -0.022 C 
HETATM    8  C16 UNL     1      -9.198  13.016  20.077  1.00  0.00     0.034 C 
HETATM    9  C17 UNL     1      -8.166  13.131  21.221  1.00  0.00     0.013 C 
HETATM   10  C18 UNL     1      -6.916  14.043  20.916  1.00  0.00     0.018 C 
HETATM   11  C19 UNL     1      -7.040  14.835  19.595  1.00  0.00     0.023 C 
HETATM   12  C20 UNL     1      -5.654  13.158  20.799  1.00  0.00     0.023 C 
HETATM   13  C21 UNL     1      -6.624  15.048  22.041  1.00  0.00     0.135 C 
HETATM   14  O2  UNL     1      -6.172  16.172  21.809  1.00  0.00    -0.297 OA
HETATM   15  C22 UNL     1      -6.797  14.615  23.477  1.00  0.00     0.080 C 
HETATM   16  C23 UNL     1      -7.777  13.471  23.673  1.00  0.00     0.017 C 
HETATM   17  C24 UNL     1      -8.883  13.394  22.594  1.00  0.00    -0.031 C 
HETATM   18  C25 UNL     1      -9.708  14.704  22.586  1.00  0.00     0.016 C 
HETATM   19  C26 UNL     1      -9.817  12.147  22.869  1.00  0.00     0.024 C 
HETATM   20  C27 UNL     1     -10.579  12.191  24.217  1.00  0.00     0.010 C 
HETATM   21  C28 UNL     1     -11.528  10.996  24.483  1.00  0.00     0.011 C 
HETATM   22  C29 UNL     1     -11.897  10.170  23.231  1.00  0.00    -0.029 C 
HETATM   23  C30 UNL     1     -10.816   9.062  23.013  1.00  0.00     0.016 C 
ENDROOT
BRANCH   1  24
HETATM   24  C7  UNL     1     -13.505   8.187  24.097  1.00  0.00    -0.007 C 
HETATM   25  C8  UNL     1     -13.951   8.465  25.537  1.00  0.00     0.011 C 
BRANCH  24  26
HETATM   26  C6  UNL     1     -14.458   7.170  23.424  1.00  0.00     0.087 C 
BRANCH  26  27
HETATM   27  C5  UNL     1     -13.811   5.933  22.816  1.00  0.00     0.149 C 
HETATM   28  O1  UNL     1     -13.756   5.722  21.609  1.00  0.00    -0.293 OA
BRANCH  27  29
HETATM   29  C4  UNL     1     -13.287   4.935  23.802  1.00  0.00     0.052 C 
HETATM   30  C2  UNL     1     -13.921   3.814  24.195  1.00  0.00    -0.084 C 
HETATM   31  C1  UNL     1     -13.310   2.919  25.241  1.00  0.00     0.043 C 
HETATM   32  C3  UNL     1     -15.248   3.337  23.666  1.00  0.00     0.043 C 
ENDBRANCH  27  29
ENDBRANCH  26  27
ENDBRANCH  24  26
ENDBRANCH   1  24
TORSDOF 4
ENDMDL
MODEL 5
REMARK minimizedAffinity -6.3106966
REMARK CNNscore 0.529716969
REMARK CNNaffinity 6.58491945
REMARK  4 active torsions:
REMARK  status: ('A' for Active; 'I' for Inactive)
REMARK    1  A    between atoms: C4_4  and  C5_5 
REMARK    2  A    between atoms: C5_5  and  C6_7 
REMARK    3  A    between atoms: C6_7  and  C7_8 
REMARK    4  A    between atoms: C7_8  and  C9_10 
ROOT
HETATM    1  C9  UNL     1     -13.317 -12.499  27.964  1.00  0.00    -0.001 C 
HETATM    2  C10 UNL     1     -14.791 -12.926  27.702  1.00  0.00     0.007 C 
HETATM    3  C11 UNL     1     -15.679 -11.689  27.948  1.00  0.00     0.015 C 
HETATM    4  C12 UNL     1     -14.753 -10.673  28.649  1.00  0.00    -0.013 C 
HETATM    5  C13 UNL     1     -14.756 -11.058  30.165  1.00  0.00     0.021 C 
HETATM    6  C14 UNL     1     -15.130  -9.196  28.588  1.00  0.00    -0.070 C 
HETATM    7  C15 UNL     1     -16.411  -8.780  28.600  1.00  0.00    -0.022 C 
HETATM    8  C16 UNL     1     -16.838  -7.343  28.662  1.00  0.00     0.034 C 
HETATM    9  C17 UNL     1     -15.689  -6.334  28.440  1.00  0.00     0.013 C 
HETATM   10  C18 UNL     1     -16.081  -4.816  28.604  1.00  0.00     0.018 C 
HETATM   11  C19 UNL     1     -17.505  -4.605  29.164  1.00  0.00     0.023 C 
HETATM   12  C20 UNL     1     -16.028  -4.122  27.223  1.00  0.00     0.023 C 
HETATM   13  C21 UNL     1     -15.103  -4.042  29.502  1.00  0.00     0.135 C 
HETATM   14  O2  UNL     1     -15.480  -3.125  30.236  1.00  0.00    -0.297 OA
HETATM   15  C22 UNL     1     -13.626  -4.342  29.410  1.00  0.00     0.080 C 
HETATM   16  C23 UNL     1     -13.300  -5.736  28.902  1.00  0.00     0.017 C 
HETATM   17  C24 UNL     1     -14.392  -6.789  29.201  1.00  0.00    -0.031 C 
HETATM   18  C25 UNL     1     -14.616  -6.903  30.729  1.00  0.00     0.016 C 
HETATM   19  C26 UNL     1     -13.972  -8.188  28.593  1.00  0.00     0.024 C 
HETATM   20  C27 UNL     1     -12.670  -8.787  29.181  1.00  0.00     0.010 C 
HETATM   21  C28 UNL     1     -12.266 -10.174  28.624  1.00  0.00     0.011 C 
HETATM   22  C29 UNL     1     -13.398 -10.937  27.900  1.00  0.00    -0.029 C 
HETATM   23  C30 UNL     1     -13.419 -10.512  26.396  1.00  0.00     0.016 C 
ENDROOT
BRANCH   1  24
HETATM   24  C7  UNL     1     -12.308 -13.252  27.051  1.00  0.00    -0.007 C 
HETATM   25  C8  UNL     1     -12.803 -13.410  25.609  1.00  0.00     0.011 C 
BRANCH  24  26
HETATM   26  C6  UNL     1     -10.891 -12.631  27.070  1.00  0.00     0.087 C 
BRANCH  26  27
HETATM   27  C5  UNL     1      -9.784 -13.444  26.413  1.00  0.00     0.149 C 
HETATM   28  O1  UNL     1      -9.743 -14.669  26.429  1.00  0.00    -0.293 OA
BRANCH  27  29
HETATM   29  C4  UNL     1      -8.689 -12.641  25.780  1.00  0.00     0.052 C 
HETATM   30  C2  UNL     1      -8.730 -12.094  24.550  1.00  0.00    -0.084 C 
HETATM   31  C1  UNL     1      -7.536 -11.355  24.005  1.00  0.00     0.043 C 
HETATM   32  C3  UNL     1      -9.909 -12.146  23.615  1.00  0.00     0.043 C 
ENDBRANCH  27  29
ENDBRANCH  26  27
ENDBRANCH  24  26
ENDBRANCH   1  24
TORSDOF 4
ENDMDL
MODEL 6
REMARK minimizedAffinity -8.84727669
REMARK CNNscore 0.44055742
REMARK CNNaffinity 7.07644415
REMARK  4 active torsions:
REMARK  status: ('A' for Active; 'I' for Inactive)
REMARK    1  A    between atoms: C4_4  and  C5_5 
REMARK    2  A    between atoms: C5_5  and  C6_7 
REMARK    3  A    between atoms: C6_7  and  C7_8 
REMARK    4  A    between atoms: C7_8  and  C9_10 
ROOT
HETATM    1  C9  UNL     1      -3.182   6.914  14.282  1.00  0.00    -0.001 C 
HETATM    2  C10 UNL     1      -3.412   5.643  13.412  1.00  0.00     0.007 C 
HETATM    3  C11 UNL     1      -4.935   5.427  13.307  1.00  0.00     0.015 C 
HETATM    4  C12 UNL     1      -5.540   6.371  14.366  1.00  0.00    -0.013 C 
HETATM    5  C13 UNL     1      -5.460   5.606  15.727  1.00  0.00     0.021 C 
HETATM    6  C14 UNL     1      -6.999   6.792  14.204  1.00  0.00    -0.070 C 
HETATM    7  C15 UNL     1      -7.932   5.966  13.694  1.00  0.00    -0.022 C 
HETATM    8  C16 UNL     1      -9.397   6.281  13.621  1.00  0.00     0.034 C 
HETATM    9  C17 UNL     1      -9.741   7.754  13.936  1.00  0.00     0.013 C 
HETATM   10  C18 UNL     1     -11.281   8.096  13.973  1.00  0.00     0.018 C 
HETATM   11  C19 UNL     1     -12.190   6.850  13.893  1.00  0.00     0.023 C 
HETATM   12  C20 UNL     1     -11.634   8.996  12.766  1.00  0.00     0.023 C 
HETATM   13  C21 UNL     1     -11.683   8.892  15.224  1.00  0.00     0.135 C 
HETATM   14  O2  UNL     1     -12.782   8.744  15.765  1.00  0.00    -0.297 OA
HETATM   15  C22 UNL     1     -10.752   9.958  15.749  1.00  0.00     0.080 C 
HETATM   16  C23 UNL     1      -9.293   9.756  15.375  1.00  0.00     0.017 C 
HETATM   17  C24 UNL     1      -8.897   8.277  15.153  1.00  0.00    -0.031 C 
HETATM   18  C25 UNL     1      -9.155   7.459  16.443  1.00  0.00     0.016 C 
HETATM   19  C26 UNL     1      -7.376   8.185  14.729  1.00  0.00     0.024 C 
HETATM   20  C27 UNL     1      -6.374   8.710  15.786  1.00  0.00     0.010 C 
HETATM   21  C28 UNL     1      -4.878   8.591  15.401  1.00  0.00     0.011 C 
HETATM   22  C29 UNL     1      -4.583   7.610  14.244  1.00  0.00    -0.029 C 
HETATM   23  C30 UNL     1      -4.711   8.372  12.885  1.00  0.00     0.016 C 
ENDROOT
BRANCH   1  24
HETATM   24  C7  UNL     1      -1.918   7.710  13.849  1.00  0.00    -0.007 C 
HETATM   25  C8  UNL     1      -0.848   7.783  14.943  1.00  0.00     0.011 C 
BRANCH  24  26
HETATM   26  C6  UNL     1      -1.302   7.198  12.524  1.00  0.00     0.087 C 
BRANCH  26  27
HETATM   27  C5  UNL     1      -0.758   8.257  11.575  1.00  0.00     0.149 C 
HETATM   28  O1  UNL     1      -1.366   9.280  11.282  1.00  0.00    -0.293 OA
BRANCH  27  29
HETATM   29  C4  UNL     1       0.570   7.941  10.958  1.00  0.00     0.052 C 
HETATM   30  C2  UNL     1       0.846   7.963   9.640  1.00  0.00    -0.084 C 
HETATM   31  C1  UNL     1       2.211   7.566   9.140  1.00  0.00     0.043 C 
HETATM   32  C3  UNL     1      -0.120   8.367   8.557  1.00  0.00     0.043 C 
ENDBRANCH  27  29
ENDBRANCH  26  27
ENDBRANCH  24  26
ENDBRANCH   1  24
TORSDOF 4
ENDMDL
MODEL 7
REMARK minimizedAffinity -8.14931011
REMARK CNNscore 0.373977244
REMARK CNNaffinity 6.55383062
REMARK  4 active torsions:
REMARK  status: ('A' for Active; 'I' for Inactive)
REMARK    1  A    between atoms: C4_4  and  C5_5 
REMARK    2  A    between atoms: C5_5  and  C6_7 
REMARK    3  A    between atoms: C6_7  and  C7_8 
REMARK    4  A    between atoms: C7_8  and  C9_10 
ROOT
HETATM    1  C9  UNL     1      -2.014   5.897  13.198  1.00  0.00    -0.001 C 
HETATM    2  C10 UNL     1      -3.477   6.022  12.680  1.00  0.00     0.007 C 
HETATM    3  C11 UNL     1      -4.124   7.215  13.412  1.00  0.00     0.015 C 
HETATM    4  C12 UNL     1      -3.147   7.552  14.556  1.00  0.00    -0.013 C 
HETATM    5  C13 UNL     1      -3.487   6.567  15.722  1.00  0.00     0.021 C 
HETATM    6  C14 UNL     1      -3.201   8.954  15.157  1.00  0.00    -0.070 C 
HETATM    7  C15 UNL     1      -4.353   9.638  15.281  1.00  0.00    -0.022 C 
HETATM    8  C16 UNL     1      -4.485  10.965  15.969  1.00  0.00     0.034 C 
HETATM    9  C17 UNL     1      -3.135  11.636  16.307  1.00  0.00     0.013 C 
HETATM   10  C18 UNL     1      -3.234  12.981  17.126  1.00  0.00     0.018 C 
HETATM   11  C19 UNL     1      -4.660  13.290  17.632  1.00  0.00     0.023 C 
HETATM   12  C20 UNL     1      -2.805  14.161  16.223  1.00  0.00     0.023 C 
HETATM   13  C21 UNL     1      -2.288  13.010  18.336  1.00  0.00     0.135 C 
HETATM   14  O2  UNL     1      -2.592  13.585  19.386  1.00  0.00    -0.297 OA
HETATM   15  C22 UNL     1      -0.909  12.409  18.208  1.00  0.00     0.080 C 
HETATM   16  C23 UNL     1      -0.790  11.338  17.137  1.00  0.00     0.017 C 
HETATM   17  C24 UNL     1      -2.107  10.580  16.852  1.00  0.00    -0.031 C 
HETATM   18  C25 UNL     1      -2.608   9.882  18.140  1.00  0.00     0.016 C 
HETATM   19  C26 UNL     1      -1.880   9.524  15.696  1.00  0.00     0.024 C 
HETATM   20  C27 UNL     1      -0.848   8.417  16.021  1.00  0.00     0.010 C 
HETATM   21  C28 UNL     1      -0.643   7.352  14.915  1.00  0.00     0.011 C 
HETATM   22  C29 UNL     1      -1.765   7.296  13.854  1.00  0.00    -0.029 C 
HETATM   23  C30 UNL     1      -1.441   8.317  12.715  1.00  0.00     0.016 C 
ENDROOT
BRANCH   1  24
HETATM   24  C7  UNL     1      -1.037   5.378  12.105  1.00  0.00    -0.007 C 
HETATM   25  C8  UNL     1      -1.654   4.297  11.211  1.00  0.00     0.011 C 
BRANCH  24  26
HETATM   26  C6  UNL     1      -0.433   6.513  11.243  1.00  0.00     0.087 C 
BRANCH  26  27
HETATM   27  C5  UNL     1       0.841   6.180  10.478  1.00  0.00     0.149 C 
HETATM   28  O1  UNL     1       1.490   5.155  10.658  1.00  0.00    -0.293 OA
BRANCH  27  29
HETATM   29  C4  UNL     1       1.300   7.228   9.512  1.00  0.00     0.052 C 
HETATM   30  C2  UNL     1       2.222   7.054   8.546  1.00  0.00    -0.084 C 
HETATM   31  C1  UNL     1       2.640   8.209   7.674  1.00  0.00     0.043 C 
HETATM   32  C3  UNL     1       2.913   5.754   8.230  1.00  0.00     0.043 C 
ENDBRANCH  27  29
ENDBRANCH  26  27
ENDBRANCH  24  26
ENDBRANCH   1  24
TORSDOF 4
ENDMDL
MODEL 8
REMARK minimizedAffinity -7.510252
REMARK CNNscore 0.367757857
REMARK CNNaffinity 6.40048742
REMARK  4 active torsions:
REMARK  status: ('A' for Active; 'I' for Inactive)
REMARK    1  A    between atoms: C4_4  and  C5_5 
REMARK    2  A    between atoms: C5_5  and  C6_7 
REMARK    3  A    between atoms: C6_7  and  C7_8 
REMARK    4  A    between atoms: C7_8  and  C9_10 
ROOT
HETATM    1  C9  UNL     1     -13.599   7.945  23.572  1.00  0.00    -0.001 C 
HETATM    2  C10 UNL     1     -13.503   7.565  22.065  1.00  0.00     0.007 C 
HETATM    3  C11 UNL     1     -12.624   8.629  21.377  1.00  0.00     0.015 C 
HETATM    4  C12 UNL     1     -12.495   9.763  22.414  1.00  0.00    -0.013 C 
HETATM    5  C13 UNL     1     -13.784  10.637  22.264  1.00  0.00     0.021 C 
HETATM    6  C14 UNL     1     -11.317  10.724  22.285  1.00  0.00    -0.070 C 
HETATM    7  C15 UNL     1     -10.819  11.095  21.091  1.00  0.00    -0.022 C 
HETATM    8  C16 UNL     1      -9.743  12.124  20.899  1.00  0.00     0.034 C 
HETATM    9  C17 UNL     1      -9.042  12.552  22.207  1.00  0.00     0.013 C 
HETATM   10  C18 UNL     1      -7.980  13.709  22.058  1.00  0.00     0.018 C 
HETATM   11  C19 UNL     1      -7.974  14.361  20.658  1.00  0.00     0.023 C 
HETATM   12  C20 UNL     1      -6.564  13.137  22.300  1.00  0.00     0.023 C 
HETATM   13  C21 UNL     1      -8.168  14.826  23.096  1.00  0.00     0.135 C 
HETATM   14  O2  UNL     1      -7.927  16.007  22.833  1.00  0.00    -0.297 OA
HETATM   15  C22 UNL     1      -8.559  14.460  24.508  1.00  0.00     0.080 C 
HETATM   16  C23 UNL     1      -9.289  13.134  24.632  1.00  0.00     0.017 C 
HETATM   17  C24 UNL     1     -10.085  12.730  23.368  1.00  0.00    -0.031 C 
HETATM   18  C25 UNL     1     -11.149  13.807  23.044  1.00  0.00     0.016 C 
HETATM   19  C26 UNL     1     -10.767  11.320  23.590  1.00  0.00     0.024 C 
HETATM   20  C27 UNL     1     -11.801  11.273  24.742  1.00  0.00     0.010 C 
HETATM   21  C28 UNL     1     -12.507   9.910  24.947  1.00  0.00     0.011 C 
HETATM   22  C29 UNL     1     -12.404   8.940  23.748  1.00  0.00    -0.029 C 
HETATM   23  C30 UNL     1     -11.090   8.104  23.881  1.00  0.00     0.016 C 
ENDROOT
BRANCH   1  24
HETATM   24  C7  UNL     1     -13.701   6.698  24.494  1.00  0.00    -0.007 C 
HETATM   25  C8  UNL     1     -14.766   6.842  25.587  1.00  0.00     0.011 C 
BRANCH  24  26
HETATM   26  C6  UNL     1     -13.907   5.378  23.712  1.00  0.00     0.087 C 
BRANCH  26  27
HETATM   27  C5  UNL     1     -14.030   4.108  24.542  1.00  0.00     0.149 C 
HETATM   28  O1  UNL     1     -14.870   3.953  25.422  1.00  0.00    -0.293 OA
BRANCH  27  29
HETATM   29  C4  UNL     1     -13.004   3.055  24.257  1.00  0.00     0.052 C 
HETATM   30  C2  UNL     1     -12.365   2.314  25.181  1.00  0.00    -0.084 C 
HETATM   31  C1  UNL     1     -11.307   1.324  24.767  1.00  0.00     0.043 C 
HETATM   32  C3  UNL     1     -12.613   2.373  26.665  1.00  0.00     0.043 C 
ENDBRANCH  27  29
ENDBRANCH  26  27
ENDBRANCH  24  26
ENDBRANCH   1  24
TORSDOF 4
ENDMDL
MODEL 9
REMARK minimizedAffinity -6.07968283
REMARK CNNscore 0.362702936
REMARK CNNaffinity 6.07585478
REMARK  4 active torsions:
REMARK  status: ('A' for Active; 'I' for Inactive)
REMARK    1  A    between atoms: C4_4  and  C5_5 
REMARK    2  A    between atoms: C5_5  and  C6_7 
REMARK    3  A    between atoms: C6_7  and  C7_8 
REMARK    4  A    between atoms: C7_8  and  C9_10 
ROOT
HETATM    1  C9  UNL     1      -3.553  13.736  18.284  1.00  0.00    -0.001 C 
HETATM    2  C10 UNL     1      -5.004  13.744  17.719  1.00  0.00     0.007 C 
HETATM    3  C11 UNL     1      -5.101  12.603  16.686  1.00  0.00     0.015 C 
HETATM    4  C12 UNL     1      -3.642  12.170  16.439  1.00  0.00    -0.013 C 
HETATM    5  C13 UNL     1      -3.066  13.167  15.380  1.00  0.00     0.021 C 
HETATM    6  C14 UNL     1      -3.392  10.771  15.882  1.00  0.00    -0.070 C 
HETATM    7  C15 UNL     1      -4.230  10.187  15.005  1.00  0.00    -0.022 C 
HETATM    8  C16 UNL     1      -3.976   8.868  14.335  1.00  0.00     0.034 C 
HETATM    9  C17 UNL     1      -2.786   8.080  14.926  1.00  0.00     0.013 C 
HETATM   10  C18 UNL     1      -2.424   6.740  14.178  1.00  0.00     0.018 C 
HETATM   11  C19 UNL     1      -3.192   6.549  12.851  1.00  0.00     0.023 C 
HETATM   12  C20 UNL     1      -2.775   5.538  15.084  1.00  0.00     0.023 C 
HETATM   13  C21 UNL     1      -0.923   6.616  13.874  1.00  0.00     0.135 C 
HETATM   14  O2  UNL     1      -0.509   6.057  12.854  1.00  0.00    -0.297 OA
HETATM   15  C22 UNL     1       0.078   7.098  14.897  1.00  0.00     0.080 C 
HETATM   16  C23 UNL     1      -0.454   8.166  15.837  1.00  0.00     0.017 C 
HETATM   17  C24 UNL     1      -1.579   9.038  15.232  1.00  0.00    -0.031 C 
HETATM   18  C25 UNL     1      -1.066   9.762  13.964  1.00  0.00     0.016 C 
HETATM   19  C26 UNL     1      -2.085  10.084  16.306  1.00  0.00     0.024 C 
HETATM   20  C27 UNL     1      -1.014  11.094  16.784  1.00  0.00     0.010 C 
HETATM   21  C28 UNL     1      -1.504  12.150  17.806  1.00  0.00     0.011 C 
HETATM   22  C29 UNL     1      -3.039  12.314  17.882  1.00  0.00    -0.029 C 
HETATM   23  C30 UNL     1      -3.611  11.282  18.908  1.00  0.00     0.016 C 
ENDROOT
BRANCH   1  24
HETATM   24  C7  UNL     1      -3.492  14.182  19.772  1.00  0.00    -0.007 C 
HETATM   25  C8  UNL     1      -2.429  15.254  20.037  1.00  0.00     0.011 C 
BRANCH  24  26
HETATM   26  C6  UNL     1      -4.864  14.634  20.328  1.00  0.00     0.087 C 
BRANCH  26  27
HETATM   27  C5  UNL     1      -5.404  13.856  21.521  1.00  0.00     0.149 C 
HETATM   28  O1  UNL     1      -5.576  12.642  21.515  1.00  0.00    -0.293 OA
BRANCH  27  29
HETATM   29  C4  UNL     1      -5.777  14.686  22.710  1.00  0.00     0.052 C 
HETATM   30  C2  UNL     1      -6.920  14.578  23.413  1.00  0.00    -0.084 C 
HETATM   31  C1  UNL     1      -7.204  15.515  24.557  1.00  0.00     0.043 C 
HETATM   32  C3  UNL     1      -8.002  13.560  23.160  1.00  0.00     0.043 C 
ENDBRANCH  27  29
ENDBRANCH  26  27
ENDBRANCH  24  26
ENDBRANCH   1  24
TORSDOF 4
ENDMDL
