MODEL 1
REMARK minimizedAffinity -6.88981295
REMARK CNNscore 0.675166011
REMARK CNNaffinity 6.57528639
REMARK  14 active torsions:
REMARK  status: ('A' for Active; 'I' for Inactive)
REMARK    1  A    between atoms: C5_5  and  C6_6 
REMARK    2  A    between atoms: C6_6  and  C8_8 
REMARK    3  A    between atoms: C8_8  and  O1_9 
REMARK    4  A    between atoms: O1_9  and  C9_10 
REMARK    5  A    between atoms: C17_20  and  O4_21 
REMARK    6  A    between atoms: C19_23  and  O5_24 
REMARK    7  A    between atoms: O5_24  and  C20_25 
REMARK    8  A    between atoms: C20_25  and  C21_27 
REMARK    9  A    between atoms: C21_27  and  C22_28 
REMARK   10  A    between atoms: C21_27  and  O7_30 
REMARK   11  A    between atoms: O7_30  and  C24_31 
REMARK   12  A    between atoms: C24_31  and  C25_33 
REMARK   13  A    between atoms: C25_33  and  C26_34 
REMARK   14  A    between atoms: C28_36  and  O9_38 
ROOT
HETATM    1  C1  UNL     1      -6.383  47.814 -34.570  1.00  0.00     0.015 C 
HETATM    2  C2  UNL     1      -7.598  47.339 -34.236  1.00  0.00    -0.082 C 
HETATM    3  C3  UNL     1      -8.429  46.537 -35.195  1.00  0.00     0.034 C 
HETATM    4  C4  UNL     1      -8.943  45.285 -34.500  1.00  0.00     0.010 C 
HETATM    5  C5  UNL     1      -9.841  45.576 -33.273  1.00  0.00    -0.001 C 
HETATM    6  C11 UNL     1      -9.678  47.021 -32.704  1.00  0.00     0.033 C 
HETATM    7  C12 UNL     1      -9.699  47.145 -31.180  1.00  0.00     0.163 C 
HETATM    8  O3  UNL     1      -8.480  46.473 -30.859  1.00  0.00    -0.376 OA
HETATM    9  C13 UNL     1      -7.459  47.081 -31.645  1.00  0.00     0.134 C 
HETATM   10  C14 UNL     1      -6.836  48.168 -30.738  1.00  0.00     0.068 C 
HETATM   11  C15 UNL     1      -6.626  47.751 -29.263  1.00  0.00    -0.058 C 
HETATM   12  C16 UNL     1      -5.371  47.770 -28.776  1.00  0.00     0.017 C 
HETATM   13  C17 UNL     1      -7.848  47.295 -28.406  1.00  0.00     0.149 C 
HETATM   14  C18 UNL     1      -9.094  48.209 -28.470  1.00  0.00     0.072 C 
HETATM   15  C19 UNL     1     -10.495  47.606 -28.823  1.00  0.00     0.171 C 
HETATM   16  C28 UNL     1     -10.736  46.721 -30.136  1.00  0.00     0.107 C 
HETATM   17  C29 UNL     1     -10.707  45.221 -29.808  1.00  0.00     0.051 C 
HETATM   18  C30 UNL     1      -8.227  47.611 -32.896  1.00  0.00     0.050 C 
ENDROOT
BRANCH  15  19
HETATM   19  O5  UNL     1     -11.020  46.948 -27.650  1.00  0.00    -0.311 OA
BRANCH  19  20
HETATM   20  C20 UNL     1     -11.950  47.654 -26.939  1.00  0.00     0.289 C 
HETATM   21  O6  UNL     1     -11.834  48.831 -26.614  1.00  0.00    -0.262 OA
BRANCH  20  22
HETATM   22  C21 UNL     1     -13.154  46.771 -26.605  1.00  0.00     0.231 C 
BRANCH  22  23
HETATM   23  C22 UNL     1     -13.982  46.546 -27.875  1.00  0.00     0.038 C 
HETATM   24  C23 UNL     1     -14.129  45.067 -28.211  1.00  0.00     0.008 C 
ENDBRANCH  22  23
BRANCH  22  25
HETATM   25  O7  UNL     1     -13.987  47.424 -25.632  1.00  0.00    -0.306 OA
BRANCH  25  26
HETATM   26  C24 UNL     1     -14.620  46.569 -24.782  1.00  0.00     0.259 C 
HETATM   27  O8  UNL     1     -14.297  45.404 -24.599  1.00  0.00    -0.265 OA
BRANCH  26  28
HETATM   28  C25 UNL     1     -15.766  47.264 -24.087  1.00  0.00     0.111 C 
BRANCH  28  29
HETATM   29  C26 UNL     1     -17.119  46.768 -24.582  1.00  0.00     0.005 C 
HETATM   30  C27 UNL     1     -18.055  46.392 -23.442  1.00  0.00     0.005 C 
ENDBRANCH  28  29
ENDBRANCH  26  28
ENDBRANCH  25  26
ENDBRANCH  22  25
ENDBRANCH  20  22
ENDBRANCH  19  20
ENDBRANCH  15  19
BRANCH  16  31
HETATM   31  O9  UNL     1     -12.053  46.962 -30.659  1.00  0.00    -0.385 OA
HETATM   32  H45 UNL     1     -12.414  47.794 -30.300  1.00  0.00     0.210 HD
ENDBRANCH  16  31
BRANCH  13  33
HETATM   33  O4  UNL     1      -7.447  47.236 -27.026  1.00  0.00    -0.391 OA
HETATM   34  H25 UNL     1      -7.162  48.133 -26.778  1.00  0.00     0.210 HD
ENDBRANCH  13  33
BRANCH   5  35
HETATM   35  C6  UNL     1     -11.339  45.203 -33.525  1.00  0.00     0.010 C 
HETATM   36  C7  UNL     1     -11.993  45.995 -34.666  1.00  0.00     0.012 C 
BRANCH  35  37
HETATM   37  C8  UNL     1     -11.506  43.691 -33.777  1.00  0.00     0.183 C 
BRANCH  37  38
HETATM   38  O1  UNL     1     -12.298  43.482 -34.960  1.00  0.00    -0.321 OA
BRANCH  38  39
HETATM   39  C9  UNL     1     -12.408  42.203 -35.407  1.00  0.00     0.254 C 
HETATM   40  C10 UNL     1     -11.073  41.710 -35.871  1.00  0.00     0.126 C 
HETATM   41  O2  UNL     1     -13.431  41.531 -35.426  1.00  0.00    -0.266 OA
ENDBRANCH  38  39
ENDBRANCH  37  38
ENDBRANCH  35  37
ENDBRANCH   5  35
TORSDOF 14
ENDMDL
MODEL 2
REMARK minimizedAffinity -7.02244616
REMARK CNNscore 0.618238986
REMARK CNNaffinity 7.13008642
REMARK  14 active torsions:
REMARK  status: ('A' for Active; 'I' for Inactive)
REMARK    1  A    between atoms: C5_5  and  C6_6 
REMARK    2  A    between atoms: C6_6  and  C8_8 
REMARK    3  A    between atoms: C8_8  and  O1_9 
REMARK    4  A    between atoms: O1_9  and  C9_10 
REMARK    5  A    between atoms: C17_20  and  O4_21 
REMARK    6  A    between atoms: C19_23  and  O5_24 
REMARK    7  A    between atoms: O5_24  and  C20_25 
REMARK    8  A    between atoms: C20_25  and  C21_27 
REMARK    9  A    between atoms: C21_27  and  C22_28 
REMARK   10  A    between atoms: C21_27  and  O7_30 
REMARK   11  A    between atoms: O7_30  and  C24_31 
REMARK   12  A    between atoms: C24_31  and  C25_33 
REMARK   13  A    between atoms: C25_33  and  C26_34 
REMARK   14  A    between atoms: C28_36  and  O9_38 
ROOT
HETATM    1  C1  UNL     1      -0.546  48.841 -17.451  1.00  0.00     0.015 C 
HETATM    2  C2  UNL     1      -1.709  48.803 -18.128  1.00  0.00    -0.082 C 
HETATM    3  C3  UNL     1      -2.982  48.320 -17.495  1.00  0.00     0.034 C 
HETATM    4  C4  UNL     1      -4.100  49.314 -17.776  1.00  0.00     0.010 C 
HETATM    5  C5  UNL     1      -4.400  49.507 -19.282  1.00  0.00    -0.001 C 
HETATM    6  C11 UNL     1      -3.243  49.038 -20.219  1.00  0.00     0.033 C 
HETATM    7  C12 UNL     1      -2.971  49.920 -21.438  1.00  0.00     0.163 C 
HETATM    8  O3  UNL     1      -2.480  51.095 -20.791  1.00  0.00    -0.376 OA
HETATM    9  C13 UNL     1      -1.430  50.676 -19.922  1.00  0.00     0.134 C 
HETATM   10  C14 UNL     1      -0.128  50.853 -20.736  1.00  0.00     0.068 C 
HETATM   11  C15 UNL     1      -0.054  52.147 -21.581  1.00  0.00    -0.058 C 
HETATM   12  C16 UNL     1       0.946  53.011 -21.322  1.00  0.00     0.017 C 
HETATM   13  C17 UNL     1      -1.139  52.426 -22.667  1.00  0.00     0.149 C 
HETATM   14  C18 UNL     1      -1.453  51.250 -23.622  1.00  0.00     0.072 C 
HETATM   15  C19 UNL     1      -2.931  50.772 -23.820  1.00  0.00     0.171 C 
HETATM   16  C28 UNL     1      -3.873  50.382 -22.585  1.00  0.00     0.107 C 
HETATM   17  C29 UNL     1      -4.807  51.543 -22.210  1.00  0.00     0.051 C 
HETATM   18  C30 UNL     1      -1.810  49.201 -19.576  1.00  0.00     0.050 C 
ENDROOT
BRANCH  15  19
HETATM   19  O5  UNL     1      -3.597  51.693 -24.711  1.00  0.00    -0.311 OA
BRANCH  19  20
HETATM   20  C20 UNL     1      -2.900  52.040 -25.835  1.00  0.00     0.289 C 
HETATM   21  O6  UNL     1      -2.139  52.998 -25.916  1.00  0.00    -0.262 OA
BRANCH  20  22
HETATM   22  C21 UNL     1      -3.206  51.068 -26.976  1.00  0.00     0.231 C 
BRANCH  22  23
HETATM   23  C22 UNL     1      -3.574  49.701 -26.389  1.00  0.00     0.038 C 
HETATM   24  C23 UNL     1      -4.057  48.726 -27.456  1.00  0.00     0.008 C 
ENDBRANCH  22  23
BRANCH  22  25
HETATM   25  O7  UNL     1      -2.044  50.905 -27.807  1.00  0.00    -0.306 OA
BRANCH  25  26
HETATM   26  C24 UNL     1      -0.923  50.539 -27.127  1.00  0.00     0.259 C 
HETATM   27  O8  UNL     1      -0.865  49.617 -26.326  1.00  0.00    -0.265 OA
BRANCH  26  28
HETATM   28  C25 UNL     1       0.240  51.422 -27.511  1.00  0.00     0.111 C 
BRANCH  28  29
HETATM   29  C26 UNL     1       1.363  51.365 -26.482  1.00  0.00     0.005 C 
HETATM   30  C27 UNL     1       2.723  51.689 -27.084  1.00  0.00     0.005 C 
ENDBRANCH  28  29
ENDBRANCH  26  28
ENDBRANCH  25  26
ENDBRANCH  22  25
ENDBRANCH  20  22
ENDBRANCH  19  20
ENDBRANCH  15  19
BRANCH  16  31
HETATM   31  O9  UNL     1      -4.750  49.304 -22.954  1.00  0.00    -0.385 OA
HETATM   32  H45 UNL     1      -4.413  48.848 -23.748  1.00  0.00     0.210 HD
ENDBRANCH  16  31
BRANCH  13  33
HETATM   33  O4  UNL     1      -0.699  53.522 -23.488  1.00  0.00    -0.391 OA
HETATM   34  H25 UNL     1       0.141  53.247 -23.896  1.00  0.00     0.210 HD
ENDBRANCH  13  33
BRANCH   5  35
HETATM   35  C6  UNL     1      -5.782  48.905 -19.699  1.00  0.00     0.010 C 
HETATM   36  C7  UNL     1      -6.737  49.923 -20.337  1.00  0.00     0.012 C 
BRANCH  35  37
HETATM   37  C8  UNL     1      -5.605  47.695 -20.640  1.00  0.00     0.183 C 
BRANCH  37  38
HETATM   38  O1  UNL     1      -6.615  47.727 -21.665  1.00  0.00    -0.321 OA
BRANCH  38  39
HETATM   39  C9  UNL     1      -7.291  46.572 -21.896  1.00  0.00     0.254 C 
HETATM   40  C10 UNL     1      -6.349  45.410 -21.831  1.00  0.00     0.126 C 
HETATM   41  O2  UNL     1      -8.491  46.468 -22.117  1.00  0.00    -0.266 OA
ENDBRANCH  38  39
ENDBRANCH  37  38
ENDBRANCH  35  37
ENDBRANCH   5  35
TORSDOF 14
ENDMDL
MODEL 3
REMARK minimizedAffinity -6.41538286
REMARK CNNscore 0.589600563
REMARK CNNaffinity 6.5409379
REMARK  14 active torsions:
REMARK  status: ('A' for Active; 'I' for Inactive)
REMARK    1  A    between atoms: C5_5  and  C6_6 
REMARK    2  A    between atoms: C6_6  and  C8_8 
REMARK    3  A    between atoms: C8_8  and  O1_9 
REMARK    4  A    between atoms: O1_9  and  C9_10 
REMARK    5  A    between atoms: C17_20  and  O4_21 
REMARK    6  A    between atoms: C19_23  and  O5_24 
REMARK    7  A    between atoms: O5_24  and  C20_25 
REMARK    8  A    between atoms: C20_25  and  C21_27 
REMARK    9  A    between atoms: C21_27  and  C22_28 
REMARK   10  A    between atoms: C21_27  and  O7_30 
REMARK   11  A    between atoms: O7_30  and  C24_31 
REMARK   12  A    between atoms: C24_31  and  C25_33 
REMARK   13  A    between atoms: C25_33  and  C26_34 
REMARK   14  A    between atoms: C28_36  and  O9_38 
ROOT
HETATM    1  C1  UNL     1       3.210  49.945 -11.164  1.00  0.00     0.015 C 
HETATM    2  C2  UNL     1       1.904  49.774 -11.442  1.00  0.00    -0.082 C 
HETATM    3  C3  UNL     1       0.891  49.501 -10.368  1.00  0.00     0.034 C 
HETATM    4  C4  UNL     1      -0.304  50.425 -10.549  1.00  0.00     0.010 C 
HETATM    5  C5  UNL     1      -1.034  50.247 -11.901  1.00  0.00    -0.001 C 
HETATM    6  C11 UNL     1      -0.176  49.526 -12.988  1.00  0.00     0.033 C 
HETATM    7  C12 UNL     1      -0.308  50.070 -14.411  1.00  0.00     0.163 C 
HETATM    8  O3  UNL     1       0.295  51.354 -14.245  1.00  0.00    -0.376 OA
HETATM    9  C13 UNL     1       1.568  51.133 -13.643  1.00  0.00     0.134 C 
HETATM   10  C14 UNL     1       2.571  51.064 -14.818  1.00  0.00     0.068 C 
HETATM   11  C15 UNL     1       2.340  52.105 -15.939  1.00  0.00    -0.058 C 
HETATM   12  C16 UNL     1       3.332  52.977 -16.203  1.00  0.00     0.017 C 
HETATM   13  C17 UNL     1       0.976  52.137 -16.697  1.00  0.00     0.149 C 
HETATM   14  C18 UNL     1       0.453  50.771 -17.199  1.00  0.00     0.072 C 
HETATM   15  C19 UNL     1      -0.996  50.301 -16.836  1.00  0.00     0.171 C 
HETATM   16  C28 UNL     1      -1.523  50.258 -15.324  1.00  0.00     0.107 C 
HETATM   17  C29 UNL     1      -2.360  51.502 -14.991  1.00  0.00     0.051 C 
HETATM   18  C30 UNL     1       1.372  49.802 -12.850  1.00  0.00     0.050 C 
ENDROOT
BRANCH  15  19
HETATM   19  O5  UNL     1      -1.931  50.991 -17.692  1.00  0.00    -0.311 OA
BRANCH  19  20
HETATM   20  C20 UNL     1      -1.619  51.004 -19.023  1.00  0.00     0.289 C 
HETATM   21  O6  UNL     1      -1.077  51.938 -19.604  1.00  0.00    -0.262 OA
BRANCH  20  22
HETATM   22  C21 UNL     1      -2.043  49.691 -19.686  1.00  0.00     0.231 C 
BRANCH  22  23
HETATM   23  C22 UNL     1      -1.039  49.336 -20.788  1.00  0.00     0.038 C 
HETATM   24  C23 UNL     1      -0.872  47.831 -20.952  1.00  0.00     0.008 C 
ENDBRANCH  22  23
BRANCH  22  25
HETATM   25  O7  UNL     1      -3.340  49.841 -20.287  1.00  0.00    -0.306 OA
BRANCH  25  26
HETATM   26  C24 UNL     1      -3.305  50.212 -21.596  1.00  0.00     0.259 C 
HETATM   27  O8  UNL     1      -2.857  51.274 -22.006  1.00  0.00    -0.265 OA
BRANCH  26  28
HETATM   28  C25 UNL     1      -3.882  49.126 -22.471  1.00  0.00     0.111 C 
BRANCH  28  29
HETATM   29  C26 UNL     1      -3.137  49.003 -23.795  1.00  0.00     0.005 C 
HETATM   30  C27 UNL     1      -4.028  48.499 -24.921  1.00  0.00     0.005 C 
ENDBRANCH  28  29
ENDBRANCH  26  28
ENDBRANCH  25  26
ENDBRANCH  22  25
ENDBRANCH  20  22
ENDBRANCH  19  20
ENDBRANCH  15  19
BRANCH  16  31
HETATM   31  O9  UNL     1      -2.419  49.148 -15.145  1.00  0.00    -0.385 OA
HETATM   32  H45 UNL     1      -2.305  48.500 -15.865  1.00  0.00     0.210 HD
ENDBRANCH  16  31
BRANCH  13  33
HETATM   33  O4  UNL     1       1.110  52.981 -17.854  1.00  0.00    -0.391 OA
HETATM   34  H25 UNL     1       1.808  52.589 -18.407  1.00  0.00     0.210 HD
ENDBRANCH  13  33
BRANCH   5  35
HETATM   35  C6  UNL     1      -2.449  49.600 -11.737  1.00  0.00     0.010 C 
HETATM   36  C7  UNL     1      -2.718  49.041 -10.333  1.00  0.00     0.012 C 
BRANCH  35  37
HETATM   37  C8  UNL     1      -3.567  50.588 -12.128  1.00  0.00     0.183 C 
BRANCH  37  38
HETATM   38  O1  UNL     1      -3.877  51.436 -11.007  1.00  0.00    -0.321 OA
BRANCH  38  39
HETATM   39  C9  UNL     1      -3.753  52.775 -11.197  1.00  0.00     0.254 C 
HETATM   40  C10 UNL     1      -2.867  53.359 -10.141  1.00  0.00     0.126 C 
HETATM   41  O2  UNL     1      -4.268  53.427 -12.096  1.00  0.00    -0.266 OA
ENDBRANCH  38  39
ENDBRANCH  37  38
ENDBRANCH  35  37
ENDBRANCH   5  35
TORSDOF 14
ENDMDL
MODEL 4
REMARK minimizedAffinity -6.35744572
REMARK CNNscore 0.466355026
REMARK CNNaffinity 6.15352249
REMARK  14 active torsions:
REMARK  status: ('A' for Active; 'I' for Inactive)
REMARK    1  A    between atoms: C5_5  and  C6_6 
REMARK    2  A    between atoms: C6_6  and  C8_8 
REMARK    3  A    between atoms: C8_8  and  O1_9 
REMARK    4  A    between atoms: O1_9  and  C9_10 
REMARK    5  A    between atoms: C17_20  and  O4_21 
REMARK    6  A    between atoms: C19_23  and  O5_24 
REMARK    7  A    between atoms: O5_24  and  C20_25 
REMARK    8  A    between atoms: C20_25  and  C21_27 
REMARK    9  A    between atoms: C21_27  and  C22_28 
REMARK   10  A    between atoms: C21_27  and  O7_30 
REMARK   11  A    between atoms: O7_30  and  C24_31 
REMARK   12  A    between atoms: C24_31  and  C25_33 
REMARK   13  A    between atoms: C25_33  and  C26_34 
REMARK   14  A    between atoms: C28_36  and  O9_38 
ROOT
HETATM    1  C1  UNL     1       0.674  52.346 -22.563  1.00  0.00     0.015 C 
HETATM    2  C2  UNL     1       0.407  51.976 -21.296  1.00  0.00    -0.082 C 
HETATM    3  C3  UNL     1       0.795  52.826 -20.121  1.00  0.00     0.034 C 
HETATM    4  C4  UNL     1      -0.394  52.971 -19.183  1.00  0.00     0.010 C 
HETATM    5  C5  UNL     1      -0.905  51.628 -18.608  1.00  0.00    -0.001 C 
HETATM    6  C11 UNL     1      -0.443  50.380 -19.424  1.00  0.00     0.033 C 
HETATM    7  C12 UNL     1      -1.481  49.270 -19.592  1.00  0.00     0.163 C 
HETATM    8  O3  UNL     1      -2.427  49.938 -20.428  1.00  0.00    -0.376 OA
HETATM    9  C13 UNL     1      -1.698  50.454 -21.539  1.00  0.00     0.134 C 
HETATM   10  C14 UNL     1      -1.818  49.380 -22.644  1.00  0.00     0.068 C 
HETATM   11  C15 UNL     1      -3.218  48.736 -22.783  1.00  0.00    -0.058 C 
HETATM   12  C16 UNL     1      -3.855  48.863 -23.963  1.00  0.00     0.017 C 
HETATM   13  C17 UNL     1      -3.856  48.000 -21.565  1.00  0.00     0.149 C 
HETATM   14  C18 UNL     1      -2.939  46.993 -20.830  1.00  0.00     0.072 C 
HETATM   15  C19 UNL     1      -2.739  47.096 -19.281  1.00  0.00     0.171 C 
HETATM   16  C28 UNL     1      -2.280  48.456 -18.570  1.00  0.00     0.107 C 
HETATM   17  C29 UNL     1      -3.482  49.210 -17.981  1.00  0.00     0.051 C 
HETATM   18  C30 UNL     1      -0.261  50.669 -20.965  1.00  0.00     0.050 C 
ENDROOT
BRANCH  15  19
HETATM   19  O5  UNL     1      -3.900  46.537 -18.630  1.00  0.00    -0.311 OA
BRANCH  19  20
HETATM   20  C20 UNL     1      -4.873  46.056 -19.461  1.00  0.00     0.289 C 
HETATM   21  O6  UNL     1      -5.907  46.651 -19.744  1.00  0.00    -0.262 OA
BRANCH  20  22
HETATM   22  C21 UNL     1      -4.491  44.670 -19.987  1.00  0.00     0.231 C 
BRANCH  22  23
HETATM   23  C22 UNL     1      -5.767  43.892 -20.329  1.00  0.00     0.038 C 
HETATM   24  C23 UNL     1      -6.093  43.944 -21.816  1.00  0.00     0.008 C 
ENDBRANCH  22  23
BRANCH  22  25
HETATM   25  O7  UNL     1      -3.774  43.941 -18.977  1.00  0.00    -0.306 OA
BRANCH  25  26
HETATM   26  C24 UNL     1      -4.449  42.867 -18.484  1.00  0.00     0.259 C 
HETATM   27  O8  UNL     1      -4.454  41.755 -18.992  1.00  0.00    -0.265 OA
BRANCH  26  28
HETATM   28  C25 UNL     1      -5.180  43.237 -17.216  1.00  0.00     0.111 C 
BRANCH  28  29
HETATM   29  C26 UNL     1      -5.214  42.085 -16.219  1.00  0.00     0.005 C 
HETATM   30  C27 UNL     1      -5.871  42.472 -14.902  1.00  0.00     0.005 C 
ENDBRANCH  28  29
ENDBRANCH  26  28
ENDBRANCH  25  26
ENDBRANCH  22  25
ENDBRANCH  20  22
ENDBRANCH  19  20
ENDBRANCH  15  19
BRANCH  16  31
HETATM   31  O9  UNL     1      -1.436  48.163 -17.443  1.00  0.00    -0.385 OA
HETATM   32  H45 UNL     1      -1.088  47.254 -17.506  1.00  0.00     0.210 HD
ENDBRANCH  16  31
BRANCH  13  33
HETATM   33  O4  UNL     1      -5.003  47.261 -22.020  1.00  0.00    -0.391 OA
HETATM   34  H25 UNL     1      -4.681  46.625 -22.683  1.00  0.00     0.210 HD
ENDBRANCH  13  33
BRANCH   5  35
HETATM   35  C6  UNL     1      -0.610  51.480 -17.079  1.00  0.00     0.010 C 
HETATM   36  C7  UNL     1      -1.777  50.888 -16.276  1.00  0.00     0.012 C 
BRANCH  35  37
HETATM   37  C8  UNL     1       0.666  50.651 -16.832  1.00  0.00     0.183 C 
BRANCH  37  38
HETATM   38  O1  UNL     1       1.799  51.531 -16.711  1.00  0.00    -0.321 OA
BRANCH  38  39
HETATM   39  C9  UNL     1       2.315  51.700 -15.465  1.00  0.00     0.254 C 
HETATM   40  C10 UNL     1       3.738  52.153 -15.562  1.00  0.00     0.126 C 
HETATM   41  O2  UNL     1       1.721  51.526 -14.409  1.00  0.00    -0.266 OA
ENDBRANCH  38  39
ENDBRANCH  37  38
ENDBRANCH  35  37
ENDBRANCH   5  35
TORSDOF 14
ENDMDL
MODEL 5
REMARK minimizedAffinity -6.52932262
REMARK CNNscore 0.434257388
REMARK CNNaffinity 6.3666954
REMARK  14 active torsions:
REMARK  status: ('A' for Active; 'I' for Inactive)
REMARK    1  A    between atoms: C5_5  and  C6_6 
REMARK    2  A    between atoms: C6_6  and  C8_8 
REMARK    3  A    between atoms: C8_8  and  O1_9 
REMARK    4  A    between atoms: O1_9  and  C9_10 
REMARK    5  A    between atoms: C17_20  and  O4_21 
REMARK    6  A    between atoms: C19_23  and  O5_24 
REMARK    7  A    between atoms: O5_24  and  C20_25 
REMARK    8  A    between atoms: C20_25  and  C21_27 
REMARK    9  A    between atoms: C21_27  and  C22_28 
REMARK   10  A    between atoms: C21_27  and  O7_30 
REMARK   11  A    between atoms: O7_30  and  C24_31 
REMARK   12  A    between atoms: C24_31  and  C25_33 
REMARK   13  A    between atoms: C25_33  and  C26_34 
REMARK   14  A    between atoms: C28_36  and  O9_38 
ROOT
HETATM    1  C1  UNL     1     -10.844  45.916 -35.138  1.00  0.00     0.015 C 
HETATM    2  C2  UNL     1     -10.821  45.541 -33.845  1.00  0.00    -0.082 C 
HETATM    3  C3  UNL     1     -11.692  44.436 -33.322  1.00  0.00     0.034 C 
HETATM    4  C4  UNL     1     -10.854  43.477 -32.492  1.00  0.00     0.010 C 
HETATM    5  C5  UNL     1     -10.186  44.134 -31.260  1.00  0.00    -0.001 C 
HETATM    6  C11 UNL     1     -10.101  45.690 -31.348  1.00  0.00     0.033 C 
HETATM    7  C12 UNL     1      -8.811  46.320 -30.821  1.00  0.00     0.163 C 
HETATM    8  O3  UNL     1      -7.883  45.836 -31.792  1.00  0.00    -0.376 OA
HETATM    9  C13 UNL     1      -8.413  46.177 -33.071  1.00  0.00     0.134 C 
HETATM   10  C14 UNL     1      -7.754  47.525 -33.442  1.00  0.00     0.068 C 
HETATM   11  C15 UNL     1      -6.249  47.636 -33.100  1.00  0.00    -0.058 C 
HETATM   12  C16 UNL     1      -5.388  47.859 -34.111  1.00  0.00     0.017 C 
HETATM   13  C17 UNL     1      -5.776  47.456 -31.624  1.00  0.00     0.149 C 
HETATM   14  C18 UNL     1      -6.568  48.254 -30.561  1.00  0.00     0.072 C 
HETATM   15  C19 UNL     1      -7.171  47.523 -29.315  1.00  0.00     0.171 C 
HETATM   16  C28 UNL     1      -8.119  46.239 -29.458  1.00  0.00     0.107 C 
HETATM   17  C29 UNL     1      -7.332  44.939 -29.239  1.00  0.00     0.051 C 
HETATM   18  C30 UNL     1      -9.954  46.228 -32.825  1.00  0.00     0.050 C 
ENDROOT
BRANCH  15  19
HETATM   19  O5  UNL     1      -6.111  47.281 -28.366  1.00  0.00    -0.311 OA
BRANCH  19  20
HETATM   20  C20 UNL     1      -6.341  47.725 -27.093  1.00  0.00     0.289 C 
HETATM   21  O6  UNL     1      -7.364  47.505 -26.452  1.00  0.00    -0.262 OA
BRANCH  20  22
HETATM   22  C21 UNL     1      -5.148  48.535 -26.583  1.00  0.00     0.231 C 
BRANCH  22  23
HETATM   23  C22 UNL     1      -4.003  48.439 -27.597  1.00  0.00     0.038 C 
HETATM   24  C23 UNL     1      -3.396  49.800 -27.912  1.00  0.00     0.008 C 
ENDBRANCH  22  23
BRANCH  22  25
HETATM   25  O7  UNL     1      -4.689  47.999 -25.331  1.00  0.00    -0.306 OA
BRANCH  25  26
HETATM   26  C24 UNL     1      -4.698  48.896 -24.307  1.00  0.00     0.259 C 
HETATM   27  O8  UNL     1      -4.598  50.108 -24.443  1.00  0.00    -0.265 OA
BRANCH  26  28
HETATM   28  C25 UNL     1      -4.862  48.189 -22.984  1.00  0.00     0.111 C 
BRANCH  28  29
HETATM   29  C26 UNL     1      -3.781  48.585 -21.986  1.00  0.00     0.005 C 
HETATM   30  C27 UNL     1      -2.415  48.023 -22.352  1.00  0.00     0.005 C 
ENDBRANCH  28  29
ENDBRANCH  26  28
ENDBRANCH  25  26
ENDBRANCH  22  25
ENDBRANCH  20  22
ENDBRANCH  19  20
ENDBRANCH  15  19
BRANCH  16  31
HETATM   31  O9  UNL     1      -9.119  46.247 -28.424  1.00  0.00    -0.385 OA
HETATM   32  H45 UNL     1      -9.202  47.139 -28.038  1.00  0.00     0.210 HD
ENDBRANCH  16  31
BRANCH  13  33
HETATM   33  O4  UNL     1      -4.405  47.878 -31.524  1.00  0.00    -0.391 OA
HETATM   34  H25 UNL     1      -4.380  48.815 -31.786  1.00  0.00     0.210 HD
ENDBRANCH  13  33
BRANCH   5  35
HETATM   35  C6  UNL     1     -10.810  43.650 -29.910  1.00  0.00     0.010 C 
HETATM   36  C7  UNL     1      -9.810  42.952 -28.978  1.00  0.00     0.012 C 
BRANCH  35  37
HETATM   37  C8  UNL     1     -11.498  44.809 -29.163  1.00  0.00     0.183 C 
BRANCH  37  38
HETATM   38  O1  UNL     1     -12.912  44.790 -29.434  1.00  0.00    -0.321 OA
BRANCH  38  39
HETATM   39  C9  UNL     1     -13.669  45.731 -28.813  1.00  0.00     0.254 C 
HETATM   40  C10 UNL     1     -15.033  45.182 -28.533  1.00  0.00     0.126 C 
HETATM   41  O2  UNL     1     -13.309  46.861 -28.507  1.00  0.00    -0.266 OA
ENDBRANCH  38  39
ENDBRANCH  37  38
ENDBRANCH  35  37
ENDBRANCH   5  35
TORSDOF 14
ENDMDL
MODEL 6
REMARK minimizedAffinity -7.49800014
REMARK CNNscore 0.418300301
REMARK CNNaffinity 6.89402246
REMARK  14 active torsions:
REMARK  status: ('A' for Active; 'I' for Inactive)
REMARK    1  A    between atoms: C5_5  and  C6_6 
REMARK    2  A    between atoms: C6_6  and  C8_8 
REMARK    3  A    between atoms: C8_8  and  O1_9 
REMARK    4  A    between atoms: O1_9  and  C9_10 
REMARK    5  A    between atoms: C17_20  and  O4_21 
REMARK    6  A    between atoms: C19_23  and  O5_24 
REMARK    7  A    between atoms: O5_24  and  C20_25 
REMARK    8  A    between atoms: C20_25  and  C21_27 
REMARK    9  A    between atoms: C21_27  and  C22_28 
REMARK   10  A    between atoms: C21_27  and  O7_30 
REMARK   11  A    between atoms: O7_30  and  C24_31 
REMARK   12  A    between atoms: C24_31  and  C25_33 
REMARK   13  A    between atoms: C25_33  and  C26_34 
REMARK   14  A    between atoms: C28_36  and  O9_38 
ROOT
HETATM    1  C1  UNL     1      -7.955  46.258 -24.040  1.00  0.00     0.015 C 
HETATM    2  C2  UNL     1      -7.509  47.055 -23.050  1.00  0.00    -0.082 C 
HETATM    3  C3  UNL     1      -7.855  46.805 -21.611  1.00  0.00     0.034 C 
HETATM    4  C4  UNL     1      -6.593  46.871 -20.765  1.00  0.00     0.010 C 
HETATM    5  C5  UNL     1      -5.876  48.242 -20.816  1.00  0.00    -0.001 C 
HETATM    6  C11 UNL     1      -6.287  49.119 -22.040  1.00  0.00     0.033 C 
HETATM    7  C12 UNL     1      -5.158  49.909 -22.704  1.00  0.00     0.163 C 
HETATM    8  O3  UNL     1      -4.390  48.835 -23.250  1.00  0.00    -0.376 OA
HETATM    9  C13 UNL     1      -5.291  48.034 -24.011  1.00  0.00     0.134 C 
HETATM   10  C14 UNL     1      -5.176  48.554 -25.462  1.00  0.00     0.068 C 
HETATM   11  C15 UNL     1      -3.738  48.879 -25.931  1.00  0.00    -0.058 C 
HETATM   12  C16 UNL     1      -3.254  48.205 -26.992  1.00  0.00     0.017 C 
HETATM   13  C17 UNL     1      -2.892  49.936 -25.156  1.00  0.00     0.149 C 
HETATM   14  C18 UNL     1      -3.605  51.272 -24.843  1.00  0.00     0.072 C 
HETATM   15  C19 UNL     1      -3.642  51.820 -23.376  1.00  0.00     0.171 C 
HETATM   16  C28 UNL     1      -4.166  50.934 -22.149  1.00  0.00     0.107 C 
HETATM   17  C29 UNL     1      -2.996  50.308 -21.375  1.00  0.00     0.051 C 
HETATM   18  C30 UNL     1      -6.669  48.275 -23.318  1.00  0.00     0.050 C 
ENDROOT
BRANCH  15  19
HETATM   19  O5  UNL     1      -2.361  52.416 -23.076  1.00  0.00    -0.311 OA
BRANCH  19  20
HETATM   20  C20 UNL     1      -1.267  51.657 -23.385  1.00  0.00     0.289 C 
HETATM   21  O6  UNL     1      -1.192  50.443 -23.226  1.00  0.00    -0.262 OA
BRANCH  20  22
HETATM   22  C21 UNL     1      -0.149  52.534 -23.953  1.00  0.00     0.231 C 
BRANCH  22  23
HETATM   23  C22 UNL     1       0.681  53.103 -22.797  1.00  0.00     0.038 C 
HETATM   24  C23 UNL     1       1.231  54.489 -23.111  1.00  0.00     0.008 C 
ENDBRANCH  22  23
BRANCH  22  25
HETATM   25  O7  UNL     1      -0.712  53.633 -24.690  1.00  0.00    -0.306 OA
BRANCH  25  26
HETATM   26  C24 UNL     1      -0.120  53.853 -25.895  1.00  0.00     0.259 C 
HETATM   27  O8  UNL     1       0.199  54.954 -26.323  1.00  0.00    -0.265 OA
BRANCH  26  28
HETATM   28  C25 UNL     1       0.101  52.550 -26.624  1.00  0.00     0.111 C 
BRANCH  28  29
HETATM   29  C26 UNL     1       1.578  52.179 -26.696  1.00  0.00     0.005 C 
HETATM   30  C27 UNL     1       1.985  51.671 -28.072  1.00  0.00     0.005 C 
ENDBRANCH  28  29
ENDBRANCH  26  28
ENDBRANCH  25  26
ENDBRANCH  22  25
ENDBRANCH  20  22
ENDBRANCH  19  20
ENDBRANCH  15  19
BRANCH  16  31
HETATM   31  O9  UNL     1      -4.841  51.768 -21.192  1.00  0.00    -0.385 OA
HETATM   32  H45 UNL     1      -5.093  52.618 -21.599  1.00  0.00     0.210 HD
ENDBRANCH  16  31
BRANCH  13  33
HETATM   33  O4  UNL     1      -1.728  50.259 -25.938  1.00  0.00    -0.391 OA
HETATM   34  H25 UNL     1      -2.050  50.621 -26.782  1.00  0.00     0.210 HD
ENDBRANCH  13  33
BRANCH   5  35
HETATM   35  C6  UNL     1      -5.981  49.023 -19.465  1.00  0.00     0.010 C 
HETATM   36  C7  UNL     1      -7.168  48.596 -18.590  1.00  0.00     0.012 C 
BRANCH  35  37
HETATM   37  C8  UNL     1      -4.673  48.922 -18.655  1.00  0.00     0.183 C 
BRANCH  37  38
HETATM   38  O1  UNL     1      -4.658  47.689 -17.912  1.00  0.00    -0.321 OA
BRANCH  38  39
HETATM   39  C9  UNL     1      -3.468  47.038 -17.828  1.00  0.00     0.254 C 
HETATM   40  C10 UNL     1      -2.709  47.200 -19.108  1.00  0.00     0.126 C 
HETATM   41  O2  UNL     1      -3.052  46.417 -16.858  1.00  0.00    -0.266 OA
ENDBRANCH  38  39
ENDBRANCH  37  38
ENDBRANCH  35  37
ENDBRANCH   5  35
TORSDOF 14
ENDMDL
MODEL 7
REMARK minimizedAffinity -7.23368311
REMARK CNNscore 0.345021993
REMARK CNNaffinity 6.73826027
REMARK  14 active torsions:
REMARK  status: ('A' for Active; 'I' for Inactive)
REMARK    1  A    between atoms: C5_5  and  C6_6 
REMARK    2  A    between atoms: C6_6  and  C8_8 
REMARK    3  A    between atoms: C8_8  and  O1_9 
REMARK    4  A    between atoms: O1_9  and  C9_10 
REMARK    5  A    between atoms: C17_20  and  O4_21 
REMARK    6  A    between atoms: C19_23  and  O5_24 
REMARK    7  A    between atoms: O5_24  and  C20_25 
REMARK    8  A    between atoms: C20_25  and  C21_27 
REMARK    9  A    between atoms: C21_27  and  C22_28 
REMARK   10  A    between atoms: C21_27  and  O7_30 
REMARK   11  A    between atoms: O7_30  and  C24_31 
REMARK   12  A    between atoms: C24_31  and  C25_33 
REMARK   13  A    between atoms: C25_33  and  C26_34 
REMARK   14  A    between atoms: C28_36  and  O9_38 
ROOT
HETATM    1  C1  UNL     1      -8.681  46.478 -19.782  1.00  0.00     0.015 C 
HETATM    2  C2  UNL     1      -7.451  46.993 -19.595  1.00  0.00    -0.082 C 
HETATM    3  C3  UNL     1      -6.660  46.728 -18.347  1.00  0.00     0.034 C 
HETATM    4  C4  UNL     1      -5.246  46.307 -18.720  1.00  0.00     0.010 C 
HETATM    5  C5  UNL     1      -4.465  47.377 -19.521  1.00  0.00    -0.001 C 
HETATM    6  C11 UNL     1      -5.379  48.453 -20.188  1.00  0.00     0.033 C 
HETATM    7  C12 UNL     1      -4.967  48.902 -21.590  1.00  0.00     0.163 C 
HETATM    8  O3  UNL     1      -5.210  47.698 -22.319  1.00  0.00    -0.376 OA
HETATM    9  C13 UNL     1      -6.547  47.302 -22.022  1.00  0.00     0.134 C 
HETATM   10  C14 UNL     1      -7.412  47.896 -23.157  1.00  0.00     0.068 C 
HETATM   11  C15 UNL     1      -6.798  47.791 -24.574  1.00  0.00    -0.058 C 
HETATM   12  C16 UNL     1      -7.483  47.103 -25.507  1.00  0.00     0.017 C 
HETATM   13  C17 UNL     1      -5.412  48.443 -24.867  1.00  0.00     0.149 C 
HETATM   14  C18 UNL     1      -5.236  49.900 -24.379  1.00  0.00     0.072 C 
HETATM   15  C19 UNL     1      -4.013  50.287 -23.481  1.00  0.00     0.171 C 
HETATM   16  C28 UNL     1      -3.665  49.500 -22.129  1.00  0.00     0.107 C 
HETATM   17  C29 UNL     1      -2.556  48.463 -22.359  1.00  0.00     0.051 C 
HETATM   18  C30 UNL     1      -6.798  47.901 -20.602  1.00  0.00     0.050 C 
ENDROOT
BRANCH  15  19
HETATM   19  O5  UNL     1      -2.846  50.412 -24.323  1.00  0.00    -0.311 OA
BRANCH  19  20
HETATM   20  C20 UNL     1      -2.421  51.690 -24.560  1.00  0.00     0.289 C 
HETATM   21  O6  UNL     1      -2.575  52.632 -23.790  1.00  0.00    -0.262 OA
BRANCH  20  22
HETATM   22  C21 UNL     1      -1.730  51.781 -25.923  1.00  0.00     0.231 C 
BRANCH  22  23
HETATM   23  C22 UNL     1      -1.985  50.486 -26.704  1.00  0.00     0.038 C 
HETATM   24  C23 UNL     1      -2.957  50.692 -27.859  1.00  0.00     0.008 C 
ENDBRANCH  22  23
BRANCH  22  25
HETATM   25  O7  UNL     1      -0.312  51.930 -25.746  1.00  0.00    -0.306 OA
BRANCH  25  26
HETATM   26  C24 UNL     1       0.192  53.087 -26.257  1.00  0.00     0.259 C 
HETATM   27  O8  UNL     1       0.425  54.093 -25.602  1.00  0.00    -0.265 OA
BRANCH  26  28
HETATM   28  C25 UNL     1       0.436  52.949 -27.740  1.00  0.00     0.111 C 
BRANCH  28  29
HETATM   29  C26 UNL     1       1.270  51.717 -28.071  1.00  0.00     0.005 C 
HETATM   30  C27 UNL     1       2.603  51.701 -27.337  1.00  0.00     0.005 C 
ENDBRANCH  28  29
ENDBRANCH  26  28
ENDBRANCH  25  26
ENDBRANCH  22  25
ENDBRANCH  20  22
ENDBRANCH  19  20
ENDBRANCH  15  19
BRANCH  16  31
HETATM   31  O9  UNL     1      -3.128  50.409 -21.154  1.00  0.00    -0.385 OA
HETATM   32  H45 UNL     1      -3.345  51.330 -21.391  1.00  0.00     0.210 HD
ENDBRANCH  16  31
BRANCH  13  33
HETATM   33  O4  UNL     1      -5.198  48.453 -26.290  1.00  0.00    -0.391 OA
HETATM   34  H25 UNL     1      -5.919  48.978 -26.678  1.00  0.00     0.210 HD
ENDBRANCH  13  33
BRANCH   5  35
HETATM   35  C6  UNL     1      -3.304  48.017 -18.691  1.00  0.00     0.010 C 
HETATM   36  C7  UNL     1      -1.913  47.810 -19.307  1.00  0.00     0.012 C 
BRANCH  35  37
HETATM   37  C8  UNL     1      -3.549  49.520 -18.450  1.00  0.00     0.183 C 
BRANCH  37  38
HETATM   38  O1  UNL     1      -2.536  50.041 -17.571  1.00  0.00    -0.321 OA
BRANCH  38  39
HETATM   39  C9  UNL     1      -1.790  51.076 -18.039  1.00  0.00     0.254 C 
HETATM   40  C10 UNL     1      -0.335  50.782 -17.847  1.00  0.00     0.126 C 
HETATM   41  O2  UNL     1      -2.219  52.100 -18.555  1.00  0.00    -0.266 OA
ENDBRANCH  38  39
ENDBRANCH  37  38
ENDBRANCH  35  37
ENDBRANCH   5  35
TORSDOF 14
ENDMDL
MODEL 8
REMARK minimizedAffinity -7.01174164
REMARK CNNscore 0.330554664
REMARK CNNaffinity 6.06553984
REMARK  14 active torsions:
REMARK  status: ('A' for Active; 'I' for Inactive)
REMARK    1  A    between atoms: C5_5  and  C6_6 
REMARK    2  A    between atoms: C6_6  and  C8_8 
REMARK    3  A    between atoms: C8_8  and  O1_9 
REMARK    4  A    between atoms: O1_9  and  C9_10 
REMARK    5  A    between atoms: C17_20  and  O4_21 
REMARK    6  A    between atoms: C19_23  and  O5_24 
REMARK    7  A    between atoms: O5_24  and  C20_25 
REMARK    8  A    between atoms: C20_25  and  C21_27 
REMARK    9  A    between atoms: C21_27  and  C22_28 
REMARK   10  A    between atoms: C21_27  and  O7_30 
REMARK   11  A    between atoms: O7_30  and  C24_31 
REMARK   12  A    between atoms: C24_31  and  C25_33 
REMARK   13  A    between atoms: C25_33  and  C26_34 
REMARK   14  A    between atoms: C28_36  and  O9_38 
ROOT
HETATM    1  C1  UNL     1      -2.510  48.751 -18.670  1.00  0.00     0.015 C 
HETATM    2  C2  UNL     1      -2.653  49.334 -19.875  1.00  0.00    -0.082 C 
HETATM    3  C3  UNL     1      -1.564  50.165 -20.490  1.00  0.00     0.034 C 
HETATM    4  C4  UNL     1      -1.343  49.730 -21.931  1.00  0.00     0.010 C 
HETATM    5  C5  UNL     1      -2.590  49.897 -22.833  1.00  0.00    -0.001 C 
HETATM    6  C11 UNL     1      -3.927  50.023 -22.038  1.00  0.00     0.033 C 
HETATM    7  C12 UNL     1      -5.133  49.299 -22.640  1.00  0.00     0.163 C 
HETATM    8  O3  UNL     1      -4.719  47.943 -22.470  1.00  0.00    -0.376 OA
HETATM    9  C13 UNL     1      -4.365  47.792 -21.097  1.00  0.00     0.134 C 
HETATM   10  C14 UNL     1      -5.637  47.255 -20.402  1.00  0.00     0.068 C 
HETATM   11  C15 UNL     1      -6.412  46.175 -21.194  1.00  0.00    -0.058 C 
HETATM   12  C16 UNL     1      -6.567  44.965 -20.623  1.00  0.00     0.017 C 
HETATM   13  C17 UNL     1      -6.953  46.500 -22.621  1.00  0.00     0.149 C 
HETATM   14  C18 UNL     1      -7.719  47.837 -22.762  1.00  0.00     0.072 C 
HETATM   15  C19 UNL     1      -7.305  48.869 -23.864  1.00  0.00     0.171 C 
HETATM   16  C28 UNL     1      -5.801  49.398 -24.014  1.00  0.00     0.107 C 
HETATM   17  C29 UNL     1      -5.053  48.641 -25.121  1.00  0.00     0.051 C 
HETATM   18  C30 UNL     1      -3.924  49.229 -20.674  1.00  0.00     0.050 C 
ENDROOT
BRANCH  15  19
HETATM   19  O5  UNL     1      -7.826  48.419 -25.133  1.00  0.00    -0.311 OA
BRANCH  19  20
HETATM   20  C20 UNL     1      -9.091  48.838 -25.438  1.00  0.00     0.289 C 
HETATM   21  O6  UNL     1      -9.452  50.011 -25.457  1.00  0.00    -0.262 OA
BRANCH  20  22
HETATM   22  C21 UNL     1      -9.993  47.642 -25.748  1.00  0.00     0.231 C 
BRANCH  22  23
HETATM   23  C22 UNL     1      -9.507  46.965 -27.035  1.00  0.00     0.038 C 
HETATM   24  C23 UNL     1      -8.888  45.598 -26.769  1.00  0.00     0.008 C 
ENDBRANCH  22  23
BRANCH  22  25
HETATM   25  O7  UNL     1     -11.345  48.085 -25.953  1.00  0.00    -0.306 OA
BRANCH  25  26
HETATM   26  C24 UNL     1     -12.236  47.074 -26.144  1.00  0.00     0.259 C 
HETATM   27  O8  UNL     1     -12.254  46.032 -25.504  1.00  0.00    -0.265 OA
BRANCH  26  28
HETATM   28  C25 UNL     1     -13.208  47.425 -27.245  1.00  0.00     0.111 C 
BRANCH  28  29
HETATM   29  C26 UNL     1     -13.230  46.371 -28.345  1.00  0.00     0.005 C 
HETATM   30  C27 UNL     1     -14.585  45.692 -28.476  1.00  0.00     0.005 C 
ENDBRANCH  28  29
ENDBRANCH  26  28
ENDBRANCH  25  26
ENDBRANCH  22  25
ENDBRANCH  20  22
ENDBRANCH  19  20
ENDBRANCH  15  19
BRANCH  16  31
HETATM   31  O9  UNL     1      -5.801  50.772 -24.437  1.00  0.00    -0.385 OA
HETATM   32  H45 UNL     1      -6.672  51.178 -24.273  1.00  0.00     0.210 HD
ENDBRANCH  16  31
BRANCH  13  33
HETATM   33  O4  UNL     1      -7.859  45.457 -23.020  1.00  0.00    -0.391 OA
HETATM   34  H25 UNL     1      -8.581  45.448 -22.367  1.00  0.00     0.210 HD
ENDBRANCH  13  33
BRANCH   5  35
HETATM   35  C6  UNL     1      -2.418  51.038 -23.888  1.00  0.00     0.010 C 
HETATM   36  C7  UNL     1      -3.128  52.346 -23.511  1.00  0.00     0.012 C 
BRANCH  35  37
HETATM   37  C8  UNL     1      -0.929  51.318 -24.175  1.00  0.00     0.183 C 
BRANCH  37  38
HETATM   38  O1  UNL     1      -0.639  51.033 -25.556  1.00  0.00    -0.321 OA
BRANCH  38  39
HETATM   39  C9  UNL     1       0.298  51.809 -26.159  1.00  0.00     0.254 C 
HETATM   40  C10 UNL     1       0.231  51.627 -27.643  1.00  0.00     0.126 C 
HETATM   41  O2  UNL     1       1.083  52.562 -25.597  1.00  0.00    -0.266 OA
ENDBRANCH  38  39
ENDBRANCH  37  38
ENDBRANCH  35  37
ENDBRANCH   5  35
TORSDOF 14
ENDMDL
MODEL 9
REMARK minimizedAffinity -7.25292444
REMARK CNNscore 0.315357
REMARK CNNaffinity 6.47465324
REMARK  14 active torsions:
REMARK  status: ('A' for Active; 'I' for Inactive)
REMARK    1  A    between atoms: C5_5  and  C6_6 
REMARK    2  A    between atoms: C6_6  and  C8_8 
REMARK    3  A    between atoms: C8_8  and  O1_9 
REMARK    4  A    between atoms: O1_9  and  C9_10 
REMARK    5  A    between atoms: C17_20  and  O4_21 
REMARK    6  A    between atoms: C19_23  and  O5_24 
REMARK    7  A    between atoms: O5_24  and  C20_25 
REMARK    8  A    between atoms: C20_25  and  C21_27 
REMARK    9  A    between atoms: C21_27  and  C22_28 
REMARK   10  A    between atoms: C21_27  and  O7_30 
REMARK   11  A    between atoms: O7_30  and  C24_31 
REMARK   12  A    between atoms: C24_31  and  C25_33 
REMARK   13  A    between atoms: C25_33  and  C26_34 
REMARK   14  A    between atoms: C28_36  and  O9_38 
ROOT
HETATM    1  C1  UNL     1      -1.467  51.390 -18.880  1.00  0.00     0.015 C 
HETATM    2  C2  UNL     1      -1.603  51.454 -20.218  1.00  0.00    -0.082 C 
HETATM    3  C3  UNL     1      -0.621  52.191 -21.083  1.00  0.00     0.034 C 
HETATM    4  C4  UNL     1      -0.210  51.309 -22.252  1.00  0.00     0.010 C 
HETATM    5  C5  UNL     1      -1.387  50.898 -23.170  1.00  0.00    -0.001 C 
HETATM    6  C11 UNL     1      -2.789  51.054 -22.500  1.00  0.00     0.033 C 
HETATM    7  C12 UNL     1      -3.801  49.949 -22.806  1.00  0.00     0.163 C 
HETATM    8  O3  UNL     1      -3.182  48.852 -22.134  1.00  0.00    -0.376 OA
HETATM    9  C13 UNL     1      -2.924  49.282 -20.799  1.00  0.00     0.134 C 
HETATM   10  C14 UNL     1      -4.142  48.809 -19.973  1.00  0.00     0.068 C 
HETATM   11  C15 UNL     1      -4.656  47.390 -20.314  1.00  0.00    -0.058 C 
HETATM   12  C16 UNL     1      -4.653  46.467 -19.334  1.00  0.00     0.017 C 
HETATM   13  C17 UNL     1      -5.122  47.065 -21.767  1.00  0.00     0.149 C 
HETATM   14  C18 UNL     1      -6.086  48.088 -22.411  1.00  0.00     0.072 C 
HETATM   15  C19 UNL     1      -5.760  48.704 -23.813  1.00  0.00     0.171 C 
HETATM   16  C28 UNL     1      -4.358  49.412 -24.127  1.00  0.00     0.107 C 
HETATM   17  C29 UNL     1      -3.404  48.456 -24.858  1.00  0.00     0.051 C 
HETATM   18  C30 UNL     1      -2.767  50.829 -20.939  1.00  0.00     0.050 C 
ENDROOT
BRANCH  15  19
HETATM   19  O5  UNL     1      -6.090  47.732 -24.829  1.00  0.00    -0.311 OA
BRANCH  19  20
HETATM   20  C20 UNL     1      -7.291  47.914 -25.455  1.00  0.00     0.289 C 
HETATM   21  O6  UNL     1      -8.171  48.677 -25.070  1.00  0.00    -0.262 OA
BRANCH  20  22
HETATM   22  C21 UNL     1      -7.386  47.029 -26.700  1.00  0.00     0.231 C 
BRANCH  22  23
HETATM   23  C22 UNL     1      -7.012  47.855 -27.935  1.00  0.00     0.038 C 
HETATM   24  C23 UNL     1      -5.513  47.838 -28.207  1.00  0.00     0.008 C 
ENDBRANCH  22  23
BRANCH  22  25
HETATM   25  O7  UNL     1      -8.733  46.555 -26.865  1.00  0.00    -0.306 OA
BRANCH  25  26
HETATM   26  C24 UNL     1      -8.829  45.210 -27.049  1.00  0.00     0.259 C 
HETATM   27  O8  UNL     1      -8.598  44.372 -26.188  1.00  0.00    -0.265 OA
BRANCH  26  28
HETATM   28  C25 UNL     1      -9.274  44.897 -28.457  1.00  0.00     0.111 C 
BRANCH  28  29
HETATM   29  C26 UNL     1      -8.323  43.933 -29.156  1.00  0.00     0.005 C 
HETATM   30  C27 UNL     1      -7.086  44.628 -29.704  1.00  0.00     0.005 C 
ENDBRANCH  28  29
ENDBRANCH  26  28
ENDBRANCH  25  26
ENDBRANCH  22  25
ENDBRANCH  20  22
ENDBRANCH  19  20
ENDBRANCH  15  19
BRANCH  16  31
HETATM   31  O9  UNL     1      -4.553  50.510 -25.034  1.00  0.00    -0.385 OA
HETATM   32  H45 UNL     1      -5.490  50.778 -25.048  1.00  0.00     0.210 HD
ENDBRANCH  16  31
BRANCH  13  33
HETATM   33  O4  UNL     1      -5.804  45.798 -21.760  1.00  0.00    -0.391 OA
HETATM   34  H25 UNL     1      -6.566  45.894 -21.162  1.00  0.00     0.210 HD
ENDBRANCH  13  33
BRANCH   5  35
HETATM   35  C6  UNL     1      -1.320  51.585 -24.573  1.00  0.00     0.010 C 
HETATM   36  C7  UNL     1      -2.094  52.908 -24.655  1.00  0.00     0.012 C 
BRANCH  35  37
HETATM   37  C8  UNL     1       0.139  51.807 -25.021  1.00  0.00     0.183 C 
BRANCH  37  38
HETATM   38  O1  UNL     1       0.443  50.937 -26.127  1.00  0.00    -0.321 OA
BRANCH  38  39
HETATM   39  C9  UNL     1       1.112  51.487 -27.174  1.00  0.00     0.254 C 
HETATM   40  C10 UNL     1       2.576  51.543 -26.869  1.00  0.00     0.126 C 
HETATM   41  O2  UNL     1       0.615  51.875 -28.223  1.00  0.00    -0.266 OA
ENDBRANCH  38  39
ENDBRANCH  37  38
ENDBRANCH  35  37
ENDBRANCH   5  35
TORSDOF 14
ENDMDL
