MODEL 1
REMARK minimizedAffinity -9.10772133
REMARK CNNscore 0.582663
REMARK CNNaffinity 7.07586479
REMARK  12 active torsions:
REMARK  status: ('A' for Active; 'I' for Inactive)
REMARK    1  A    between atoms: O1_2  and  C2_3 
REMARK    2  A    between atoms: C4_5  and  O2_6 
REMARK    3  A    between atoms: O2_6  and  C5_7 
REMARK    4  A    between atoms: C8_10  and  C9_11 
REMARK    5  A    between atoms: N1_12  and  C10_14 
REMARK    6  A    between atoms: C10_14  and  C11_15 
REMARK    7  A    between atoms: C11_15  and  C12_16 
REMARK    8  A    between atoms: C12_16  and  O3_17 
REMARK    9  A    between atoms: C18_23  and  C19_24 
REMARK   10  A    between atoms: C25_32  and  O6_33 
REMARK   11  A    between atoms: C29_37  and  O7_38 
REMARK   12  A    between atoms: C33_43  and  O9_44 
ROOT
HETATM    1  C5  UNL     1       0.376   8.545  13.418  1.00  0.00     0.127 C 
HETATM    2  C6  UNL     1      -0.206   7.148  13.306  1.00  0.00     0.033 C 
HETATM    3  C7  UNL     1      -1.053   6.833  14.522  1.00  0.00     0.021 C 
HETATM    4  C8  UNL     1      -2.216   7.849  14.805  1.00  0.00     0.026 C 
HETATM    5  C13 UNL     1      -3.578   7.061  14.573  1.00  0.00     0.009 C 
HETATM    6  C14 UNL     1      -3.937   6.121  15.726  1.00  0.00     0.007 C 
HETATM    7  C15 UNL     1      -5.053   5.202  15.266  1.00  0.00     0.013 C 
HETATM    8  C16 UNL     1      -6.375   5.948  15.021  1.00  0.00    -0.005 C 
HETATM    9  C17 UNL     1      -7.040   6.149  16.411  1.00  0.00     0.019 C 
HETATM   10  C18 UNL     1      -7.387   5.114  14.126  1.00  0.00     0.028 C 
HETATM   11  C23 UNL     1      -8.044   6.168  13.242  1.00  0.00     0.013 C 
HETATM   12  C24 UNL     1      -6.908   7.134  12.927  1.00  0.00     0.040 C 
HETATM   13  C25 UNL     1      -6.199   7.342  14.276  1.00  0.00     0.070 C 
HETATM   14  C26 UNL     1      -4.767   7.983  14.231  1.00  0.00     0.026 C 
HETATM   15  C27 UNL     1      -4.470   8.744  12.908  1.00  0.00     0.011 C 
HETATM   16  C28 UNL     1      -2.978   8.921  12.604  1.00  0.00     0.039 C 
HETATM   17  C29 UNL     1      -2.142   9.136  13.882  1.00  0.00     0.073 C 
HETATM   18  C30 UNL     1      -0.716   9.619  13.520  1.00  0.00     0.071 C 
ENDROOT
BRANCH   1  19
HETATM   19  O2  UNL     1       1.233   8.735  12.288  1.00  0.00    -0.356 OA
BRANCH  19  20
HETATM   20  C4  UNL     1       2.121   7.644  12.061  1.00  0.00     0.263 C 
HETATM   21  C3  UNL     1       1.765   7.042  10.707  1.00  0.00     0.095 C 
HETATM   22  C2  UNL     1       2.701   5.884  10.396  1.00  0.00     0.156 C 
HETATM   23  C33 UNL     1       4.160   6.362  10.467  1.00  0.00     0.175 C 
HETATM   24  C31 UNL     1       4.411   7.034  11.824  1.00  0.00     0.151 C 
HETATM   25  O8  UNL     1       3.476   8.093  12.053  1.00  0.00    -0.354 OA
HETATM   26  C32 UNL     1       5.813   7.630  11.899  1.00  0.00     0.042 C 
BRANCH  22  27
HETATM   27  O1  UNL     1       2.407   5.425   9.066  1.00  0.00    -0.388 OA
HETATM   28  C1  UNL     1       2.551   6.443   8.082  1.00  0.00     0.202 C 
ENDBRANCH  22  27
BRANCH  23  29
HETATM   29  O9  UNL     1       5.031   5.238  10.284  1.00  0.00    -0.390 OA
HETATM   30  H51 UNL     1       4.821   4.890   9.399  1.00  0.00     0.210 HD
ENDBRANCH  23  29
ENDBRANCH  19  20
ENDBRANCH   1  19
BRANCH  17  31
HETATM   31  O7  UNL     1      -2.810  10.270  14.486  1.00  0.00    -0.389 OA
HETATM   32  H43 UNL     1      -2.422  10.389  15.378  1.00  0.00     0.210 HD
ENDBRANCH  17  31
BRANCH   4  33
HETATM   33  C9  UNL     1      -2.019   8.209  16.301  1.00  0.00     0.068 C 
HETATM   34  N1  UNL     1      -2.737   9.101  16.891  1.00  0.00    -0.401 N 
ATOM     35  H1  UNL     1      -3.521   9.556  16.422  1.00  0.00     0.158 HD
BRANCH  34  36
HETATM   36  C10 UNL     1      -2.368   9.427  18.269  1.00  0.00     0.121 C 
BRANCH  36  37
HETATM   37  C11 UNL     1      -3.334  10.493  18.801  1.00  0.00     0.045 C 
BRANCH  37  38
HETATM   38  C12 UNL     1      -3.269  11.769  17.979  1.00  0.00     0.165 C 
BRANCH  38  39
HETATM   39  O3  UNL     1      -4.096  11.672  16.822  1.00  0.00    -0.401 OA
HETATM   40  H20 UNL     1      -4.993  11.441  17.122  1.00  0.00     0.209 HD
ENDBRANCH  38  39
ENDBRANCH  37  38
ENDBRANCH  36  37
ENDBRANCH  34  36
ENDBRANCH   4  33
BRANCH  13  41
HETATM   41  O6  UNL     1      -7.031   8.333  14.937  1.00  0.00    -0.389 OA
HETATM   42  H37 UNL     1      -6.906   9.187  14.485  1.00  0.00     0.210 HD
ENDBRANCH  13  41
BRANCH  10  43
HETATM   43  C19 UNL     1      -6.847   3.953  13.318  1.00  0.00    -0.045 A 
HETATM   44  C20 UNL     1      -5.663   3.928  12.693  1.00  0.00     0.087 A 
HETATM   45  C21 UNL     1      -5.555   2.635  12.028  1.00  0.00     0.283 A 
HETATM   46  O4  UNL     1      -4.614   2.289  11.342  1.00  0.00    -0.260 OA
HETATM   47  O5  UNL     1      -6.670   1.899  12.282  1.00  0.00    -0.314 OA
HETATM   48  C22 UNL     1      -7.543   2.657  13.122  1.00  0.00     0.213 A 
ENDBRANCH  10  43
TORSDOF 12
ENDMDL
MODEL 2
REMARK minimizedAffinity -9.71262455
REMARK CNNscore 0.560917199
REMARK CNNaffinity 6.92442179
REMARK  12 active torsions:
REMARK  status: ('A' for Active; 'I' for Inactive)
REMARK    1  A    between atoms: O1_2  and  C2_3 
REMARK    2  A    between atoms: C4_5  and  O2_6 
REMARK    3  A    between atoms: O2_6  and  C5_7 
REMARK    4  A    between atoms: C8_10  and  C9_11 
REMARK    5  A    between atoms: N1_12  and  C10_14 
REMARK    6  A    between atoms: C10_14  and  C11_15 
REMARK    7  A    between atoms: C11_15  and  C12_16 
REMARK    8  A    between atoms: C12_16  and  O3_17 
REMARK    9  A    between atoms: C18_23  and  C19_24 
REMARK   10  A    between atoms: C25_32  and  O6_33 
REMARK   11  A    between atoms: C29_37  and  O7_38 
REMARK   12  A    between atoms: C33_43  and  O9_44 
ROOT
HETATM    1  C5  UNL     1      -6.112   7.318  14.377  1.00  0.00     0.127 C 
HETATM    2  C6  UNL     1      -5.391   7.927  13.189  1.00  0.00     0.033 C 
HETATM    3  C7  UNL     1      -4.133   8.637  13.647  1.00  0.00     0.021 C 
HETATM    4  C8  UNL     1      -3.123   7.748  14.455  1.00  0.00     0.026 C 
HETATM    5  C13 UNL     1      -1.821   7.600  13.555  1.00  0.00     0.009 C 
HETATM    6  C14 UNL     1      -0.936   8.847  13.560  1.00  0.00     0.007 C 
HETATM    7  C15 UNL     1       0.080   8.720  12.441  1.00  0.00     0.013 C 
HETATM    8  C16 UNL     1       1.095   7.591  12.685  1.00  0.00    -0.005 C 
HETATM    9  C17 UNL     1       2.163   8.154  13.664  1.00  0.00     0.019 C 
HETATM   10  C18 UNL     1       1.850   7.156  11.358  1.00  0.00     0.028 C 
HETATM   11  C23 UNL     1       1.978   5.642  11.494  1.00  0.00     0.013 C 
HETATM   12  C24 UNL     1       0.665   5.226  12.146  1.00  0.00     0.040 C 
HETATM   13  C25 UNL     1       0.449   6.259  13.264  1.00  0.00     0.070 C 
HETATM   14  C26 UNL     1      -0.991   6.341  13.883  1.00  0.00     0.026 C 
HETATM   15  C27 UNL     1      -1.850   5.071  13.625  1.00  0.00     0.011 C 
HETATM   16  C28 UNL     1      -3.361   5.299  13.735  1.00  0.00     0.039 C 
HETATM   17  C29 UNL     1      -3.721   6.327  14.827  1.00  0.00     0.073 C 
HETATM   18  C30 UNL     1      -5.240   6.295  15.120  1.00  0.00     0.071 C 
ENDROOT
BRANCH   1  19
HETATM   19  O2  UNL     1      -7.329   6.750  13.883  1.00  0.00    -0.356 OA
BRANCH  19  20
HETATM   20  C4  UNL     1      -8.457   7.019  14.710  1.00  0.00     0.263 C 
HETATM   21  C3  UNL     1      -8.411   8.499  15.076  1.00  0.00     0.095 C 
HETATM   22  C2  UNL     1      -9.610   8.853  15.941  1.00  0.00     0.156 C 
HETATM   23  C33 UNL     1     -10.907   8.462  15.217  1.00  0.00     0.175 C 
HETATM   24  C31 UNL     1     -10.837   6.985  14.805  1.00  0.00     0.151 C 
HETATM   25  O8  UNL     1      -9.670   6.727  14.018  1.00  0.00    -0.354 OA
HETATM   26  C32 UNL     1     -12.053   6.578  13.978  1.00  0.00     0.042 C 
BRANCH  22  27
HETATM   27  O1  UNL     1      -9.589  10.273  16.163  1.00  0.00    -0.388 OA
HETATM   28  C1  UNL     1      -9.925  11.022  14.999  1.00  0.00     0.202 C 
ENDBRANCH  22  27
BRANCH  23  29
HETATM   29  O9  UNL     1     -12.020   8.697  16.089  1.00  0.00    -0.390 OA
HETATM   30  H51 UNL     1     -12.002   9.653  16.279  1.00  0.00     0.210 HD
ENDBRANCH  23  29
ENDBRANCH  19  20
ENDBRANCH   1  19
BRANCH  17  31
HETATM   31  O7  UNL     1      -3.074   5.760  15.991  1.00  0.00    -0.389 OA
HETATM   32  H43 UNL     1      -3.140   6.425  16.707  1.00  0.00     0.210 HD
ENDBRANCH  17  31
BRANCH   4  33
HETATM   33  C9  UNL     1      -2.840   8.595  15.724  1.00  0.00     0.068 C 
HETATM   34  N1  UNL     1      -3.734   9.358  16.252  1.00  0.00    -0.401 N 
ATOM     35  H1  UNL     1      -4.694   9.380  15.907  1.00  0.00     0.158 HD
BRANCH  34  36
HETATM   36  C10 UNL     1      -3.299  10.190  17.374  1.00  0.00     0.121 C 
BRANCH  36  37
HETATM   37  C11 UNL     1      -3.644  11.653  17.068  1.00  0.00     0.045 C 
BRANCH  37  38
HETATM   38  C12 UNL     1      -4.048  11.842  15.616  1.00  0.00     0.165 C 
BRANCH  38  39
HETATM   39  O3  UNL     1      -4.974  12.917  15.481  1.00  0.00    -0.401 OA
HETATM   40  H20 UNL     1      -4.569  13.705  15.883  1.00  0.00     0.209 HD
ENDBRANCH  38  39
ENDBRANCH  37  38
ENDBRANCH  36  37
ENDBRANCH  34  36
ENDBRANCH   4  33
BRANCH  13  41
HETATM   41  O6  UNL     1       1.289   5.762  14.340  1.00  0.00    -0.389 OA
HETATM   42  H37 UNL     1       0.879   4.955  14.700  1.00  0.00     0.210 HD
ENDBRANCH  13  41
BRANCH  10  43
HETATM   43  C19 UNL     1       1.255   7.555  10.025  1.00  0.00    -0.045 A 
HETATM   44  C20 UNL     1       1.717   7.180   8.826  1.00  0.00     0.087 A 
HETATM   45  C21 UNL     1       0.861   7.800   7.821  1.00  0.00     0.283 A 
HETATM   46  O4  UNL     1       1.017   7.693   6.621  1.00  0.00    -0.260 OA
HETATM   47  O5  UNL     1      -0.113   8.522   8.437  1.00  0.00    -0.314 OA
HETATM   48  C22 UNL     1       0.047   8.401   9.852  1.00  0.00     0.213 A 
ENDBRANCH  10  43
TORSDOF 12
ENDMDL
MODEL 3
REMARK minimizedAffinity -7.68844366
REMARK CNNscore 0.543256581
REMARK CNNaffinity 6.89855719
REMARK  12 active torsions:
REMARK  status: ('A' for Active; 'I' for Inactive)
REMARK    1  A    between atoms: O1_2  and  C2_3 
REMARK    2  A    between atoms: C4_5  and  O2_6 
REMARK    3  A    between atoms: O2_6  and  C5_7 
REMARK    4  A    between atoms: C8_10  and  C9_11 
REMARK    5  A    between atoms: N1_12  and  C10_14 
REMARK    6  A    between atoms: C10_14  and  C11_15 
REMARK    7  A    between atoms: C11_15  and  C12_16 
REMARK    8  A    between atoms: C12_16  and  O3_17 
REMARK    9  A    between atoms: C18_23  and  C19_24 
REMARK   10  A    between atoms: C25_32  and  O6_33 
REMARK   11  A    between atoms: C29_37  and  O7_38 
REMARK   12  A    between atoms: C33_43  and  O9_44 
ROOT
HETATM    1  C5  UNL     1       1.800   7.051  13.469  1.00  0.00     0.127 C 
HETATM    2  C6  UNL     1       0.784   5.933  13.602  1.00  0.00     0.033 C 
HETATM    3  C7  UNL     1      -0.137   6.196  14.776  1.00  0.00     0.021 C 
HETATM    4  C8  UNL     1      -0.894   7.570  14.734  1.00  0.00     0.026 C 
HETATM    5  C13 UNL     1      -2.438   7.237  14.553  1.00  0.00     0.009 C 
HETATM    6  C14 UNL     1      -3.108   6.754  15.840  1.00  0.00     0.007 C 
HETATM    7  C15 UNL     1      -4.462   6.167  15.486  1.00  0.00     0.013 C 
HETATM    8  C16 UNL     1      -5.452   7.226  14.972  1.00  0.00    -0.005 C 
HETATM    9  C17 UNL     1      -6.030   7.943  16.224  1.00  0.00     0.019 C 
HETATM   10  C18 UNL     1      -6.674   6.584  14.186  1.00  0.00     0.028 C 
HETATM   11  C23 UNL     1      -6.925   7.564  13.045  1.00  0.00     0.013 C 
HETATM   12  C24 UNL     1      -5.526   8.010  12.637  1.00  0.00     0.040 C 
HETATM   13  C25 UNL     1      -4.807   8.278  13.969  1.00  0.00     0.070 C 
HETATM   14  C26 UNL     1      -3.243   8.391  13.919  1.00  0.00     0.026 C 
HETATM   15  C27 UNL     1      -2.688   8.691  12.498  1.00  0.00     0.011 C 
HETATM   16  C28 UNL     1      -1.220   8.300  12.298  1.00  0.00     0.039 C 
HETATM   17  C29 UNL     1      -0.378   8.517  13.572  1.00  0.00     0.073 C 
HETATM   18  C30 UNL     1       1.132   8.415  13.245  1.00  0.00     0.071 C 
ENDROOT
BRANCH   1  19
HETATM   19  O2  UNL     1       2.687   6.689  12.406  1.00  0.00    -0.356 OA
BRANCH  19  20
HETATM   20  C4  UNL     1       2.645   7.589  11.303  1.00  0.00     0.263 C 
HETATM   21  C3  UNL     1       4.053   8.144  11.114  1.00  0.00     0.095 C 
HETATM   22  C2  UNL     1       4.076   9.095   9.928  1.00  0.00     0.156 C 
HETATM   23  C33 UNL     1       3.550   8.377   8.675  1.00  0.00     0.175 C 
HETATM   24  C31 UNL     1       2.172   7.772   8.976  1.00  0.00     0.151 C 
HETATM   25  O8  UNL     1       2.227   6.912  10.118  1.00  0.00    -0.354 OA
HETATM   26  C32 UNL     1       1.657   6.948   7.800  1.00  0.00     0.042 C 
BRANCH  22  27
HETATM   27  O1  UNL     1       5.439   9.500   9.716  1.00  0.00    -0.388 OA
HETATM   28  C1  UNL     1       6.117   9.823  10.925  1.00  0.00     0.202 C 
ENDBRANCH  22  27
BRANCH  23  29
HETATM   29  O9  UNL     1       3.472   9.316   7.595  1.00  0.00    -0.390 OA
HETATM   30  H51 UNL     1       4.385   9.629   7.459  1.00  0.00     0.210 HD
ENDBRANCH  23  29
ENDBRANCH  19  20
ENDBRANCH   1  19
BRANCH  17  31
HETATM   31  O7  UNL     1      -0.634   9.912  13.862  1.00  0.00    -0.389 OA
HETATM   32  H43 UNL     1      -0.241  10.099  14.739  1.00  0.00     0.210 HD
ENDBRANCH  17  31
BRANCH   4  33
HETATM   33  C9  UNL     1      -0.607   8.178  16.132  1.00  0.00     0.068 C 
HETATM   34  N1  UNL     1      -0.775   9.431  16.382  1.00  0.00    -0.401 N 
ATOM     35  H1  UNL     1      -1.179  10.067  15.693  1.00  0.00     0.158 HD
BRANCH  34  36
HETATM   36  C10 UNL     1      -0.356   9.893  17.705  1.00  0.00     0.121 C 
BRANCH  36  37
HETATM   37  C11 UNL     1      -1.416  10.857  18.252  1.00  0.00     0.045 C 
BRANCH  37  38
HETATM   38  C12 UNL     1      -2.670  10.121  18.693  1.00  0.00     0.165 C 
BRANCH  38  39
HETATM   39  O3  UNL     1      -3.492   9.800  17.574  1.00  0.00    -0.401 OA
HETATM   40  H20 UNL     1      -2.945   9.304  16.941  1.00  0.00     0.209 HD
ENDBRANCH  38  39
ENDBRANCH  37  38
ENDBRANCH  36  37
ENDBRANCH  34  36
ENDBRANCH   4  33
BRANCH  13  41
HETATM   41  O6  UNL     1      -5.266   9.608  14.331  1.00  0.00    -0.389 OA
HETATM   42  H37 UNL     1      -4.855  10.249  13.722  1.00  0.00     0.210 HD
ENDBRANCH  13  41
BRANCH  10  43
HETATM   43  C19 UNL     1      -6.545   5.159  13.691  1.00  0.00    -0.045 A 
HETATM   44  C20 UNL     1      -7.521   4.243  13.704  1.00  0.00     0.087 A 
HETATM   45  C21 UNL     1      -6.964   3.013  13.154  1.00  0.00     0.283 A 
HETATM   46  O4  UNL     1      -7.573   1.967  13.048  1.00  0.00    -0.260 OA
HETATM   47  O5  UNL     1      -5.666   3.219  12.803  1.00  0.00    -0.314 OA
HETATM   48  C22 UNL     1      -5.320   4.576  13.089  1.00  0.00     0.213 A 
ENDBRANCH  10  43
TORSDOF 12
ENDMDL
MODEL 4
REMARK minimizedAffinity -8.70428562
REMARK CNNscore 0.503934801
REMARK CNNaffinity 7.29685593
REMARK  12 active torsions:
REMARK  status: ('A' for Active; 'I' for Inactive)
REMARK    1  A    between atoms: O1_2  and  C2_3 
REMARK    2  A    between atoms: C4_5  and  O2_6 
REMARK    3  A    between atoms: O2_6  and  C5_7 
REMARK    4  A    between atoms: C8_10  and  C9_11 
REMARK    5  A    between atoms: N1_12  and  C10_14 
REMARK    6  A    between atoms: C10_14  and  C11_15 
REMARK    7  A    between atoms: C11_15  and  C12_16 
REMARK    8  A    between atoms: C12_16  and  O3_17 
REMARK    9  A    between atoms: C18_23  and  C19_24 
REMARK   10  A    between atoms: C25_32  and  O6_33 
REMARK   11  A    between atoms: C29_37  and  O7_38 
REMARK   12  A    between atoms: C33_43  and  O9_44 
ROOT
HETATM    1  C5  UNL     1      -4.251   6.870  14.853  1.00  0.00     0.127 C 
HETATM    2  C6  UNL     1      -3.911   7.351  13.455  1.00  0.00     0.033 C 
HETATM    3  C7  UNL     1      -2.816   8.397  13.512  1.00  0.00     0.021 C 
HETATM    4  C8  UNL     1      -1.496   7.941  14.229  1.00  0.00     0.026 C 
HETATM    5  C13 UNL     1      -0.364   7.887  13.115  1.00  0.00     0.009 C 
HETATM    6  C14 UNL     1       0.166   9.268  12.723  1.00  0.00     0.007 C 
HETATM    7  C15 UNL     1       0.985   9.126  11.454  1.00  0.00     0.013 C 
HETATM    8  C16 UNL     1       2.278   8.321  11.668  1.00  0.00    -0.005 C 
HETATM    9  C17 UNL     1       3.314   9.297  12.291  1.00  0.00     0.019 C 
HETATM   10  C18 UNL     1       2.892   7.784  10.305  1.00  0.00     0.028 C 
HETATM   11  C23 UNL     1       3.418   6.398  10.666  1.00  0.00     0.013 C 
HETATM   12  C24 UNL     1       2.377   5.859  11.639  1.00  0.00     0.040 C 
HETATM   13  C25 UNL     1       2.092   7.037  12.586  1.00  0.00     0.070 C 
HETATM   14  C26 UNL     1       0.799   6.937  13.470  1.00  0.00     0.026 C 
HETATM   15  C27 UNL     1       0.258   5.487  13.616  1.00  0.00     0.011 C 
HETATM   16  C28 UNL     1      -1.223   5.402  14.000  1.00  0.00     0.039 C 
HETATM   17  C29 UNL     1      -1.647   6.538  14.953  1.00  0.00     0.073 C 
HETATM   18  C30 UNL     1      -3.040   6.243  15.559  1.00  0.00     0.071 C 
ENDROOT
BRANCH   1  19
HETATM   19  O2  UNL     1      -5.349   5.961  14.728  1.00  0.00    -0.356 OA
BRANCH  19  20
HETATM   20  C4  UNL     1      -5.448   5.364  13.439  1.00  0.00     0.263 C 
HETATM   21  C3  UNL     1      -4.176   4.553  13.214  1.00  0.00     0.095 C 
HETATM   22  C2  UNL     1      -4.236   3.868  11.858  1.00  0.00     0.156 C 
HETATM   23  C33 UNL     1      -5.509   3.013  11.763  1.00  0.00     0.175 C 
HETATM   24  C31 UNL     1      -6.732   3.881  12.089  1.00  0.00     0.151 C 
HETATM   25  O8  UNL     1      -6.588   4.511  13.366  1.00  0.00    -0.354 OA
HETATM   26  C32 UNL     1      -8.011   3.050  12.123  1.00  0.00     0.042 C 
BRANCH  22  27
HETATM   27  O1  UNL     1      -3.077   3.025  11.740  1.00  0.00    -0.388 OA
HETATM   28  C1  UNL     1      -2.266   3.351  10.617  1.00  0.00     0.202 C 
ENDBRANCH  22  27
BRANCH  23  29
HETATM   29  O9  UNL     1      -5.608   2.465  10.442  1.00  0.00    -0.390 OA
HETATM   30  H51 UNL     1      -4.810   1.916  10.330  1.00  0.00     0.210 HD
ENDBRANCH  23  29
ENDBRANCH  19  20
ENDBRANCH   1  19
BRANCH  17  31
HETATM   31  O7  UNL     1      -0.697   6.387  16.035  1.00  0.00    -0.389 OA
HETATM   32  H43 UNL     1      -0.811   7.160  16.626  1.00  0.00     0.210 HD
ENDBRANCH  17  31
BRANCH   4  33
HETATM   33  C9  UNL     1      -1.233   9.081  15.248  1.00  0.00     0.068 C 
HETATM   34  N1  UNL     1      -1.659   9.026  16.463  1.00  0.00    -0.401 N 
ATOM     35  H1  UNL     1      -2.122   8.195  16.833  1.00  0.00     0.158 HD
BRANCH  34  36
HETATM   36  C10 UNL     1      -1.443  10.218  17.283  1.00  0.00     0.121 C 
BRANCH  36  37
HETATM   37  C11 UNL     1       0.063  10.391  17.519  1.00  0.00     0.045 C 
BRANCH  37  38
HETATM   38  C12 UNL     1       0.609  11.608  16.791  1.00  0.00     0.165 C 
BRANCH  38  39
HETATM   39  O3  UNL     1       1.700  11.249  15.948  1.00  0.00    -0.401 OA
HETATM   40  H20 UNL     1       1.393  10.540  15.356  1.00  0.00     0.209 HD
ENDBRANCH  38  39
ENDBRANCH  37  38
ENDBRANCH  36  37
ENDBRANCH  34  36
ENDBRANCH   4  33
BRANCH  13  41
HETATM   41  O6  UNL     1       3.195   6.975  13.530  1.00  0.00    -0.389 OA
HETATM   42  H37 UNL     1       3.066   6.195  14.100  1.00  0.00     0.210 HD
ENDBRANCH  13  41
BRANCH  10  43
HETATM   43  C19 UNL     1       2.006   7.751   9.078  1.00  0.00    -0.045 A 
HETATM   44  C20 UNL     1       2.392   7.373   7.853  1.00  0.00     0.087 A 
HETATM   45  C21 UNL     1       1.234   7.507   6.977  1.00  0.00     0.283 A 
HETATM   46  O4  UNL     1       1.242   7.275   5.784  1.00  0.00    -0.260 OA
HETATM   47  O5  UNL     1       0.167   7.947   7.697  1.00  0.00    -0.314 OA
HETATM   48  C22 UNL     1       0.565   8.105   9.061  1.00  0.00     0.213 A 
ENDBRANCH  10  43
TORSDOF 12
ENDMDL
MODEL 5
REMARK minimizedAffinity -8.51782703
REMARK CNNscore 0.500439823
REMARK CNNaffinity 7.2584672
REMARK  12 active torsions:
REMARK  status: ('A' for Active; 'I' for Inactive)
REMARK    1  A    between atoms: O1_2  and  C2_3 
REMARK    2  A    between atoms: C4_5  and  O2_6 
REMARK    3  A    between atoms: O2_6  and  C5_7 
REMARK    4  A    between atoms: C8_10  and  C9_11 
REMARK    5  A    between atoms: N1_12  and  C10_14 
REMARK    6  A    between atoms: C10_14  and  C11_15 
REMARK    7  A    between atoms: C11_15  and  C12_16 
REMARK    8  A    between atoms: C12_16  and  O3_17 
REMARK    9  A    between atoms: C18_23  and  C19_24 
REMARK   10  A    between atoms: C25_32  and  O6_33 
REMARK   11  A    between atoms: C29_37  and  O7_38 
REMARK   12  A    between atoms: C33_43  and  O9_44 
ROOT
HETATM    1  C5  UNL     1      -5.681   6.776  14.794  1.00  0.00     0.127 C 
HETATM    2  C6  UNL     1      -5.048   7.131  13.462  1.00  0.00     0.033 C 
HETATM    3  C7  UNL     1      -4.174   8.361  13.606  1.00  0.00     0.021 C 
HETATM    4  C8  UNL     1      -3.047   8.253  14.693  1.00  0.00     0.026 C 
HETATM    5  C13 UNL     1      -1.660   8.269  13.917  1.00  0.00     0.009 C 
HETATM    6  C14 UNL     1      -1.251   9.663  13.437  1.00  0.00     0.007 C 
HETATM    7  C15 UNL     1      -0.106   9.516  12.452  1.00  0.00     0.013 C 
HETATM    8  C16 UNL     1       1.183   8.999  13.112  1.00  0.00    -0.005 C 
HETATM    9  C17 UNL     1       1.857  10.223  13.794  1.00  0.00     0.019 C 
HETATM   10  C18 UNL     1       2.215   8.417  12.055  1.00  0.00     0.028 C 
HETATM   11  C23 UNL     1       2.820   7.211  12.766  1.00  0.00     0.013 C 
HETATM   12  C24 UNL     1       1.645   6.615  13.531  1.00  0.00     0.040 C 
HETATM   13  C25 UNL     1       0.945   7.830  14.162  1.00  0.00     0.070 C 
HETATM   14  C26 UNL     1      -0.511   7.605  14.705  1.00  0.00     0.026 C 
HETATM   15  C27 UNL     1      -0.853   6.110  14.960  1.00  0.00     0.011 C 
HETATM   16  C28 UNL     1      -2.354   5.801  14.977  1.00  0.00     0.039 C 
HETATM   17  C29 UNL     1      -3.182   6.950  15.587  1.00  0.00     0.073 C 
HETATM   18  C30 UNL     1      -4.629   6.481  15.873  1.00  0.00     0.071 C 
ENDROOT
BRANCH   1  19
HETATM   19  O2  UNL     1      -6.559   5.671  14.561  1.00  0.00    -0.356 OA
BRANCH  19  20
HETATM   20  C4  UNL     1      -6.287   4.977  13.347  1.00  0.00     0.263 C 
HETATM   21  C3  UNL     1      -4.778   4.775  13.266  1.00  0.00     0.095 C 
HETATM   22  C2  UNL     1      -4.429   4.013  11.997  1.00  0.00     0.156 C 
HETATM   23  C33 UNL     1      -5.207   2.689  11.955  1.00  0.00     0.175 C 
HETATM   24  C31 UNL     1      -6.705   2.972  12.132  1.00  0.00     0.151 C 
HETATM   25  O8  UNL     1      -6.949   3.713  13.332  1.00  0.00    -0.354 OA
HETATM   26  C32 UNL     1      -7.511   1.679  12.214  1.00  0.00     0.042 C 
BRANCH  22  27
HETATM   27  O1  UNL     1      -3.017   3.743  12.021  1.00  0.00    -0.388 OA
HETATM   28  C1  UNL     1      -2.515   3.300  10.764  1.00  0.00     0.202 C 
ENDBRANCH  22  27
BRANCH  23  29
HETATM   29  O9  UNL     1      -4.955   2.036  10.704  1.00  0.00    -0.390 OA
HETATM   30  H51 UNL     1      -3.994   1.876  10.686  1.00  0.00     0.210 HD
ENDBRANCH  23  29
ENDBRANCH  19  20
ENDBRANCH   1  19
BRANCH  17  31
HETATM   31  O7  UNL     1      -2.550   7.117  16.879  1.00  0.00    -0.389 OA
HETATM   32  H43 UNL     1      -2.931   7.924  17.282  1.00  0.00     0.210 HD
ENDBRANCH  17  31
BRANCH   4  33
HETATM   33  C9  UNL     1      -3.240   9.542  15.534  1.00  0.00     0.068 C 
HETATM   34  N1  UNL     1      -3.031   9.568  16.806  1.00  0.00    -0.401 N 
ATOM     35  H1  UNL     1      -2.654   8.761  17.305  1.00  0.00     0.158 HD
BRANCH  34  36
HETATM   36  C10 UNL     1      -3.364  10.815  17.495  1.00  0.00     0.121 C 
BRANCH  36  37
HETATM   37  C11 UNL     1      -2.268  11.849  17.202  1.00  0.00     0.045 C 
BRANCH  37  38
HETATM   38  C12 UNL     1      -2.850  13.235  16.985  1.00  0.00     0.165 C 
BRANCH  38  39
HETATM   39  O3  UNL     1      -3.618  13.283  15.786  1.00  0.00    -0.401 OA
HETATM   40  H20 UNL     1      -4.287  12.578  15.838  1.00  0.00     0.209 HD
ENDBRANCH  38  39
ENDBRANCH  37  38
ENDBRANCH  36  37
ENDBRANCH  34  36
ENDBRANCH   4  33
BRANCH  13  41
HETATM   41  O6  UNL     1       1.747   8.095  15.345  1.00  0.00    -0.389 OA
HETATM   42  H37 UNL     1       1.584   7.383  15.990  1.00  0.00     0.210 HD
ENDBRANCH  13  41
BRANCH  10  43
HETATM   43  C19 UNL     1       1.710   8.064  10.672  1.00  0.00    -0.045 A 
HETATM   44  C20 UNL     1       0.639   8.604  10.076  1.00  0.00     0.087 A 
HETATM   45  C21 UNL     1       0.507   7.969   8.771  1.00  0.00     0.283 A 
HETATM   46  O4  UNL     1      -0.382   8.204   7.976  1.00  0.00    -0.260 OA
HETATM   47  O5  UNL     1       1.513   7.070   8.598  1.00  0.00    -0.314 OA
HETATM   48  C22 UNL     1       2.348   7.083   9.759  1.00  0.00     0.213 A 
ENDBRANCH  10  43
TORSDOF 12
ENDMDL
MODEL 6
REMARK minimizedAffinity -7.65896606
REMARK CNNscore 0.461705267
REMARK CNNaffinity 7.02142477
REMARK  12 active torsions:
REMARK  status: ('A' for Active; 'I' for Inactive)
REMARK    1  A    between atoms: O1_2  and  C2_3 
REMARK    2  A    between atoms: C4_5  and  O2_6 
REMARK    3  A    between atoms: O2_6  and  C5_7 
REMARK    4  A    between atoms: C8_10  and  C9_11 
REMARK    5  A    between atoms: N1_12  and  C10_14 
REMARK    6  A    between atoms: C10_14  and  C11_15 
REMARK    7  A    between atoms: C11_15  and  C12_16 
REMARK    8  A    between atoms: C12_16  and  O3_17 
REMARK    9  A    between atoms: C18_23  and  C19_24 
REMARK   10  A    between atoms: C25_32  and  O6_33 
REMARK   11  A    between atoms: C29_37  and  O7_38 
REMARK   12  A    between atoms: C33_43  and  O9_44 
ROOT
HETATM    1  C5  UNL     1       0.917   7.799  11.420  1.00  0.00     0.127 C 
HETATM    2  C6  UNL     1       0.101   6.521  11.381  1.00  0.00     0.033 C 
HETATM    3  C7  UNL     1      -0.360   6.149  12.776  1.00  0.00     0.021 C 
HETATM    4  C8  UNL     1      -1.184   7.258  13.521  1.00  0.00     0.026 C 
HETATM    5  C13 UNL     1      -2.662   6.696  13.686  1.00  0.00     0.009 C 
HETATM    6  C14 UNL     1      -2.795   5.657  14.801  1.00  0.00     0.007 C 
HETATM    7  C15 UNL     1      -4.138   4.966  14.657  1.00  0.00     0.013 C 
HETATM    8  C16 UNL     1      -5.322   5.906  14.936  1.00  0.00    -0.005 C 
HETATM    9  C17 UNL     1      -5.471   5.992  16.481  1.00  0.00     0.019 C 
HETATM   10  C18 UNL     1      -6.691   5.346  14.358  1.00  0.00     0.028 C 
HETATM   11  C23 UNL     1      -7.404   6.592  13.843  1.00  0.00     0.013 C 
HETATM   12  C24 UNL     1      -6.278   7.436  13.258  1.00  0.00     0.040 C 
HETATM   13  C25 UNL     1      -5.156   7.356  14.305  1.00  0.00     0.070 C 
HETATM   14  C26 UNL     1      -3.724   7.804  13.845  1.00  0.00     0.026 C 
HETATM   15  C27 UNL     1      -3.734   8.700  12.573  1.00  0.00     0.011 C 
HETATM   16  C28 UNL     1      -2.407   8.722  11.808  1.00  0.00     0.039 C 
HETATM   17  C29 UNL     1      -1.187   8.643  12.748  1.00  0.00     0.073 C 
HETATM   18  C30 UNL     1       0.112   8.982  11.977  1.00  0.00     0.071 C 
ENDROOT
BRANCH   1  19
HETATM   19  O2  UNL     1       1.394   8.034  10.091  1.00  0.00    -0.356 OA
BRANCH  19  20
HETATM   20  C4  UNL     1       2.721   7.563   9.874  1.00  0.00     0.263 C 
HETATM   21  C3  UNL     1       3.559   7.991  11.073  1.00  0.00     0.095 C 
HETATM   22  C2  UNL     1       4.986   7.491  10.909  1.00  0.00     0.156 C 
HETATM   23  C33 UNL     1       4.983   5.969  10.702  1.00  0.00     0.175 C 
HETATM   24  C31 UNL     1       4.049   5.614   9.537  1.00  0.00     0.151 C 
HETATM   25  O8  UNL     1       2.736   6.141   9.753  1.00  0.00    -0.354 OA
HETATM   26  C32 UNL     1       3.920   4.104   9.366  1.00  0.00     0.042 C 
BRANCH  22  27
HETATM   27  O1  UNL     1       5.706   7.815  12.111  1.00  0.00    -0.388 OA
HETATM   28  C1  UNL     1       6.406   6.702  12.655  1.00  0.00     0.202 C 
ENDBRANCH  22  27
BRANCH  23  29
HETATM   29  O9  UNL     1       6.321   5.529  10.437  1.00  0.00    -0.390 OA
HETATM   30  H51 UNL     1       6.834   5.772  11.229  1.00  0.00     0.210 HD
ENDBRANCH  23  29
ENDBRANCH  19  20
ENDBRANCH   1  19
BRANCH  17  31
HETATM   31  O7  UNL     1      -1.428   9.756  13.641  1.00  0.00    -0.389 OA
HETATM   32  H43 UNL     1      -0.765   9.696  14.359  1.00  0.00     0.210 HD
ENDBRANCH  17  31
BRANCH   4  33
HETATM   33  C9  UNL     1      -0.468   7.374  14.892  1.00  0.00     0.068 C 
HETATM   34  N1  UNL     1       0.732   7.832  15.001  1.00  0.00    -0.401 N 
ATOM     35  H1  UNL     1       1.237   8.213  14.200  1.00  0.00     0.158 HD
BRANCH  34  36
HETATM   36  C10 UNL     1       1.330   7.776  16.335  1.00  0.00     0.121 C 
BRANCH  36  37
HETATM   37  C11 UNL     1       2.560   8.694  16.364  1.00  0.00     0.045 C 
BRANCH  37  38
HETATM   38  C12 UNL     1       3.263   8.733  15.018  1.00  0.00     0.165 C 
BRANCH  38  39
HETATM   39  O3  UNL     1       3.634   7.422  14.599  1.00  0.00    -0.401 OA
HETATM   40  H20 UNL     1       2.830   6.873  14.609  1.00  0.00     0.209 HD
ENDBRANCH  38  39
ENDBRANCH  37  38
ENDBRANCH  36  37
ENDBRANCH  34  36
ENDBRANCH   4  33
BRANCH  13  41
HETATM   41  O6  UNL     1      -5.556   8.343  15.294  1.00  0.00    -0.389 OA
HETATM   42  H37 UNL     1      -5.437   9.229  14.906  1.00  0.00     0.210 HD
ENDBRANCH  13  41
BRANCH  10  43
HETATM   43  C19 UNL     1      -6.639   4.251  13.313  1.00  0.00    -0.045 A 
HETATM   44  C20 UNL     1      -5.813   4.224  12.259  1.00  0.00     0.087 A 
HETATM   45  C21 UNL     1      -6.110   3.008  11.512  1.00  0.00     0.283 A 
HETATM   46  O4  UNL     1      -5.562   2.684  10.477  1.00  0.00    -0.260 OA
HETATM   47  O5  UNL     1      -7.097   2.316  12.142  1.00  0.00    -0.314 OA
HETATM   48  C22 UNL     1      -7.479   3.028  13.321  1.00  0.00     0.213 A 
ENDBRANCH  10  43
TORSDOF 12
ENDMDL
MODEL 7
REMARK minimizedAffinity -7.95653582
REMARK CNNscore 0.457331985
REMARK CNNaffinity 6.95803785
REMARK  12 active torsions:
REMARK  status: ('A' for Active; 'I' for Inactive)
REMARK    1  A    between atoms: O1_2  and  C2_3 
REMARK    2  A    between atoms: C4_5  and  O2_6 
REMARK    3  A    between atoms: O2_6  and  C5_7 
REMARK    4  A    between atoms: C8_10  and  C9_11 
REMARK    5  A    between atoms: N1_12  and  C10_14 
REMARK    6  A    between atoms: C10_14  and  C11_15 
REMARK    7  A    between atoms: C11_15  and  C12_16 
REMARK    8  A    between atoms: C12_16  and  O3_17 
REMARK    9  A    between atoms: C18_23  and  C19_24 
REMARK   10  A    between atoms: C25_32  and  O6_33 
REMARK   11  A    between atoms: C29_37  and  O7_38 
REMARK   12  A    between atoms: C33_43  and  O9_44 
ROOT
HETATM    1  C5  UNL     1       0.191   8.609  13.208  1.00  0.00     0.127 C 
HETATM    2  C6  UNL     1      -0.364   7.202  13.086  1.00  0.00     0.033 C 
HETATM    3  C7  UNL     1      -1.157   6.841  14.326  1.00  0.00     0.021 C 
HETATM    4  C8  UNL     1      -2.330   7.823  14.675  1.00  0.00     0.026 C 
HETATM    5  C13 UNL     1      -3.682   7.010  14.478  1.00  0.00     0.009 C 
HETATM    6  C14 UNL     1      -3.976   6.036  15.621  1.00  0.00     0.007 C 
HETATM    7  C15 UNL     1      -5.088   5.102  15.182  1.00  0.00     0.013 C 
HETATM    8  C16 UNL     1      -6.435   5.822  15.005  1.00  0.00    -0.005 C 
HETATM    9  C17 UNL     1      -7.050   5.977  16.423  1.00  0.00     0.019 C 
HETATM   10  C18 UNL     1      -7.461   4.984  14.130  1.00  0.00     0.028 C 
HETATM   11  C23 UNL     1      -8.175   6.043  13.295  1.00  0.00     0.013 C 
HETATM   12  C24 UNL     1      -7.074   7.041  12.960  1.00  0.00     0.040 C 
HETATM   13  C25 UNL     1      -6.318   7.236  14.285  1.00  0.00     0.070 C 
HETATM   14  C26 UNL     1      -4.904   7.911  14.201  1.00  0.00     0.026 C 
HETATM   15  C27 UNL     1      -4.674   8.707  12.886  1.00  0.00     0.011 C 
HETATM   16  C28 UNL     1      -3.200   8.926  12.530  1.00  0.00     0.039 C 
HETATM   17  C29 UNL     1      -2.320   9.132  13.780  1.00  0.00     0.073 C 
HETATM   18  C30 UNL     1      -0.921   9.656  13.376  1.00  0.00     0.071 C 
ENDROOT
BRANCH   1  19
HETATM   19  O2  UNL     1       1.000   8.844  12.052  1.00  0.00    -0.356 OA
BRANCH  19  20
HETATM   20  C4  UNL     1       2.381   9.020  12.352  1.00  0.00     0.263 C 
HETATM   21  C3  UNL     1       2.602   8.530  13.780  1.00  0.00     0.095 C 
HETATM   22  C2  UNL     1       4.071   8.670  14.149  1.00  0.00     0.156 C 
HETATM   23  C33 UNL     1       4.938   7.921  13.125  1.00  0.00     0.175 C 
HETATM   24  C31 UNL     1       4.591   8.407  11.711  1.00  0.00     0.151 C 
HETATM   25  O8  UNL     1       3.191   8.268  11.450  1.00  0.00    -0.354 OA
HETATM   26  C32 UNL     1       5.343   7.611  10.649  1.00  0.00     0.042 C 
BRANCH  22  27
HETATM   27  O1  UNL     1       4.253   8.091  15.453  1.00  0.00    -0.388 OA
HETATM   28  C1  UNL     1       3.130   7.331  15.885  1.00  0.00     0.202 C 
ENDBRANCH  22  27
BRANCH  23  29
HETATM   29  O9  UNL     1       6.320   8.155  13.422  1.00  0.00    -0.390 OA
HETATM   30  H51 UNL     1       6.456   7.800  14.319  1.00  0.00     0.210 HD
ENDBRANCH  23  29
ENDBRANCH  19  20
ENDBRANCH   1  19
BRANCH  17  31
HETATM   31  O7  UNL     1      -2.990  10.236  14.435  1.00  0.00    -0.389 OA
HETATM   32  H43 UNL     1      -2.571  10.344  15.314  1.00  0.00     0.210 HD
ENDBRANCH  17  31
BRANCH   4  33
HETATM   33  C9  UNL     1      -2.084   8.155  16.171  1.00  0.00     0.068 C 
HETATM   34  N1  UNL     1      -2.857   8.944  16.833  1.00  0.00    -0.401 N 
ATOM     35  H1  UNL     1      -3.712   9.326  16.427  1.00  0.00     0.158 HD
BRANCH  34  36
HETATM   36  C10 UNL     1      -2.444   9.264  18.200  1.00  0.00     0.121 C 
BRANCH  36  37
HETATM   37  C11 UNL     1      -3.054  10.614  18.599  1.00  0.00     0.045 C 
BRANCH  37  38
HETATM   38  C12 UNL     1      -2.076  11.756  18.386  1.00  0.00     0.165 C 
BRANCH  38  39
HETATM   39  O3  UNL     1      -1.019  11.366  17.513  1.00  0.00    -0.401 OA
HETATM   40  H20 UNL     1      -1.425  11.035  16.692  1.00  0.00     0.209 HD
ENDBRANCH  38  39
ENDBRANCH  37  38
ENDBRANCH  36  37
ENDBRANCH  34  36
ENDBRANCH   4  33
BRANCH  13  41
HETATM   41  O6  UNL     1      -7.146   8.192  15.000  1.00  0.00    -0.389 OA
HETATM   42  H37 UNL     1      -7.057   9.059  14.564  1.00  0.00     0.210 HD
ENDBRANCH  13  41
BRANCH  10  43
HETATM   43  C19 UNL     1      -6.927   3.855  13.275  1.00  0.00    -0.045 A 
HETATM   44  C20 UNL     1      -5.757   3.862  12.623  1.00  0.00     0.087 A 
HETATM   45  C21 UNL     1      -5.650   2.591  11.918  1.00  0.00     0.283 A 
HETATM   46  O4  UNL     1      -4.721   2.277  11.201  1.00  0.00    -0.260 OA
HETATM   47  O5  UNL     1      -6.750   1.834  12.175  1.00  0.00    -0.314 OA
HETATM   48  C22 UNL     1      -7.612   2.556  13.057  1.00  0.00     0.213 A 
ENDBRANCH  10  43
TORSDOF 12
ENDMDL
MODEL 8
REMARK minimizedAffinity -7.63514566
REMARK CNNscore 0.43420127
REMARK CNNaffinity 6.83438921
REMARK  12 active torsions:
REMARK  status: ('A' for Active; 'I' for Inactive)
REMARK    1  A    between atoms: O1_2  and  C2_3 
REMARK    2  A    between atoms: C4_5  and  O2_6 
REMARK    3  A    between atoms: O2_6  and  C5_7 
REMARK    4  A    between atoms: C8_10  and  C9_11 
REMARK    5  A    between atoms: N1_12  and  C10_14 
REMARK    6  A    between atoms: C10_14  and  C11_15 
REMARK    7  A    between atoms: C11_15  and  C12_16 
REMARK    8  A    between atoms: C12_16  and  O3_17 
REMARK    9  A    between atoms: C18_23  and  C19_24 
REMARK   10  A    between atoms: C25_32  and  O6_33 
REMARK   11  A    between atoms: C29_37  and  O7_38 
REMARK   12  A    between atoms: C33_43  and  O9_44 
ROOT
HETATM    1  C5  UNL     1       0.825   8.004  13.184  1.00  0.00     0.127 C 
HETATM    2  C6  UNL     1       0.063   6.693  13.187  1.00  0.00     0.033 C 
HETATM    3  C7  UNL     1      -0.779   6.577  14.441  1.00  0.00     0.021 C 
HETATM    4  C8  UNL     1      -1.790   7.755  14.675  1.00  0.00     0.026 C 
HETATM    5  C13 UNL     1      -3.249   7.140  14.533  1.00  0.00     0.009 C 
HETATM    6  C14 UNL     1      -3.691   6.338  15.759  1.00  0.00     0.007 C 
HETATM    7  C15 UNL     1      -4.931   5.545  15.392  1.00  0.00     0.013 C 
HETATM    8  C16 UNL     1      -6.152   6.441  15.124  1.00  0.00    -0.005 C 
HETATM    9  C17 UNL     1      -6.740   6.823  16.511  1.00  0.00     0.019 C 
HETATM   10  C18 UNL     1      -7.292   5.688  14.316  1.00  0.00     0.028 C 
HETATM   11  C23 UNL     1      -7.834   6.756  13.372  1.00  0.00     0.013 C 
HETATM   12  C24 UNL     1      -6.593   7.539  12.962  1.00  0.00     0.040 C 
HETATM   13  C25 UNL     1      -5.819   7.744  14.276  1.00  0.00     0.070 C 
HETATM   14  C26 UNL     1      -4.319   8.185  14.152  1.00  0.00     0.026 C 
HETATM   15  C27 UNL     1      -3.967   8.807  12.770  1.00  0.00     0.011 C 
HETATM   16  C28 UNL     1      -2.476   8.764  12.421  1.00  0.00     0.039 C 
HETATM   17  C29 UNL     1      -1.578   8.954  13.660  1.00  0.00     0.073 C 
HETATM   18  C30 UNL     1      -0.114   9.218  13.232  1.00  0.00     0.071 C 
ENDROOT
BRANCH   1  19
HETATM   19  O2  UNL     1       1.663   8.000  12.024  1.00  0.00    -0.356 OA
BRANCH  19  20
HETATM   20  C4  UNL     1       3.052   8.082  12.328  1.00  0.00     0.263 C 
HETATM   21  C3  UNL     1       3.793   7.224  11.309  1.00  0.00     0.095 C 
HETATM   22  C2  UNL     1       5.290   7.294  11.568  1.00  0.00     0.156 C 
HETATM   23  C33 UNL     1       5.752   8.759  11.558  1.00  0.00     0.175 C 
HETATM   24  C31 UNL     1       4.899   9.570  12.543  1.00  0.00     0.151 C 
HETATM   25  O8  UNL     1       3.506   9.432  12.249  1.00  0.00    -0.354 OA
HETATM   26  C32 UNL     1       5.241  11.056  12.483  1.00  0.00     0.042 C 
BRANCH  22  27
HETATM   27  O1  UNL     1       5.953   6.570  10.518  1.00  0.00    -0.388 OA
HETATM   28  C1  UNL     1       6.745   5.490  11.002  1.00  0.00     0.202 C 
ENDBRANCH  22  27
BRANCH  23  29
HETATM   29  O9  UNL     1       7.139   8.816  11.914  1.00  0.00    -0.390 OA
HETATM   30  H51 UNL     1       7.603   8.299  11.231  1.00  0.00     0.210 HD
ENDBRANCH  23  29
ENDBRANCH  19  20
ENDBRANCH   1  19
BRANCH  17  31
HETATM   31  O7  UNL     1      -2.073  10.205  14.195  1.00  0.00    -0.389 OA
HETATM   32  H43 UNL     1      -1.644  10.333  15.067  1.00  0.00     0.210 HD
ENDBRANCH  17  31
BRANCH   4  33
HETATM   33  C9  UNL     1      -1.499   8.188  16.137  1.00  0.00     0.068 C 
HETATM   34  N1  UNL     1      -2.128   9.163  16.700  1.00  0.00    -0.401 N 
ATOM     35  H1  UNL     1      -2.900   9.643  16.237  1.00  0.00     0.158 HD
BRANCH  34  36
HETATM   36  C10 UNL     1      -1.674   9.542  18.038  1.00  0.00     0.121 C 
BRANCH  36  37
HETATM   37  C11 UNL     1      -1.505  11.066  18.089  1.00  0.00     0.045 C 
BRANCH  37  38
HETATM   38  C12 UNL     1      -0.329  11.471  18.962  1.00  0.00     0.165 C 
BRANCH  38  39
HETATM   39  O3  UNL     1      -0.511  12.785  19.484  1.00  0.00    -0.401 OA
HETATM   40  H20 UNL     1      -1.369  12.800  19.944  1.00  0.00     0.209 HD
ENDBRANCH  38  39
ENDBRANCH  37  38
ENDBRANCH  36  37
ENDBRANCH  34  36
ENDBRANCH   4  33
BRANCH  13  41
HETATM   41  O6  UNL     1      -6.493   8.880  14.882  1.00  0.00    -0.389 OA
HETATM   42  H37 UNL     1      -6.273   9.677  14.366  1.00  0.00     0.210 HD
ENDBRANCH  13  41
BRANCH  10  43
HETATM   43  C19 UNL     1      -6.935   4.413  13.581  1.00  0.00    -0.045 A 
HETATM   44  C20 UNL     1      -7.662   3.289  13.580  1.00  0.00     0.087 A 
HETATM   45  C21 UNL     1      -6.947   2.315  12.764  1.00  0.00     0.283 A 
HETATM   46  O4  UNL     1      -7.314   1.172  12.575  1.00  0.00    -0.260 OA
HETATM   47  O5  UNL     1      -5.811   2.879  12.274  1.00  0.00    -0.314 OA
HETATM   48  C22 UNL     1      -5.735   4.232  12.727  1.00  0.00     0.213 A 
ENDBRANCH  10  43
TORSDOF 12
ENDMDL
MODEL 9
REMARK minimizedAffinity -7.60530186
REMARK CNNscore 0.39750129
REMARK CNNaffinity 7.02261972
REMARK  12 active torsions:
REMARK  status: ('A' for Active; 'I' for Inactive)
REMARK    1  A    between atoms: O1_2  and  C2_3 
REMARK    2  A    between atoms: C4_5  and  O2_6 
REMARK    3  A    between atoms: O2_6  and  C5_7 
REMARK    4  A    between atoms: C8_10  and  C9_11 
REMARK    5  A    between atoms: N1_12  and  C10_14 
REMARK    6  A    between atoms: C10_14  and  C11_15 
REMARK    7  A    between atoms: C11_15  and  C12_16 
REMARK    8  A    between atoms: C12_16  and  O3_17 
REMARK    9  A    between atoms: C18_23  and  C19_24 
REMARK   10  A    between atoms: C25_32  and  O6_33 
REMARK   11  A    between atoms: C29_37  and  O7_38 
REMARK   12  A    between atoms: C33_43  and  O9_44 
ROOT
HETATM    1  C5  UNL     1       1.805   5.418  11.853  1.00  0.00     0.127 C 
HETATM    2  C6  UNL     1       0.602   4.642  12.356  1.00  0.00     0.033 C 
HETATM    3  C7  UNL     1       0.174   5.159  13.715  1.00  0.00     0.021 C 
HETATM    4  C8  UNL     1      -0.149   6.694  13.771  1.00  0.00     0.026 C 
HETATM    5  C13 UNL     1      -1.708   6.824  14.056  1.00  0.00     0.009 C 
HETATM    6  C14 UNL     1      -2.082   6.554  15.514  1.00  0.00     0.007 C 
HETATM    7  C15 UNL     1      -3.587   6.387  15.602  1.00  0.00     0.013 C 
HETATM    8  C16 UNL     1      -4.348   7.688  15.299  1.00  0.00    -0.005 C 
HETATM    9  C17 UNL     1      -4.313   8.540  16.598  1.00  0.00     0.019 C 
HETATM   10  C18 UNL     1      -5.874   7.431  14.940  1.00  0.00     0.028 C 
HETATM   11  C23 UNL     1      -6.163   8.443  13.837  1.00  0.00     0.013 C 
HETATM   12  C24 UNL     1      -4.877   8.464  13.020  1.00  0.00     0.040 C 
HETATM   13  C25 UNL     1      -3.757   8.509  14.072  1.00  0.00     0.070 C 
HETATM   14  C26 UNL     1      -2.308   8.163  13.578  1.00  0.00     0.026 C 
HETATM   15  C27 UNL     1      -2.130   8.292  12.039  1.00  0.00     0.011 C 
HETATM   16  C28 UNL     1      -0.953   7.492  11.471  1.00  0.00     0.039 C 
HETATM   17  C29 UNL     1       0.249   7.453  12.437  1.00  0.00     0.073 C 
HETATM   18  C30 UNL     1       1.507   6.918  11.712  1.00  0.00     0.071 C 
ENDROOT
BRANCH   1  19
HETATM   19  O2  UNL     1       2.207   4.816  10.619  1.00  0.00    -0.356 OA
BRANCH  19  20
HETATM   20  C4  UNL     1       2.754   5.744   9.687  1.00  0.00     0.263 C 
HETATM   21  C3  UNL     1       1.590   6.349   8.910  1.00  0.00     0.095 C 
HETATM   22  C2  UNL     1       2.113   7.372   7.914  1.00  0.00     0.156 C 
HETATM   23  C33 UNL     1       2.951   8.431   8.647  1.00  0.00     0.175 C 
HETATM   24  C31 UNL     1       4.041   7.737   9.475  1.00  0.00     0.151 C 
HETATM   25  O8  UNL     1       3.472   6.773  10.366  1.00  0.00    -0.354 OA
HETATM   26  C32 UNL     1       4.826   8.739  10.315  1.00  0.00     0.042 C 
BRANCH  22  27
HETATM   27  O1  UNL     1       0.980   7.999   7.290  1.00  0.00    -0.388 OA
HETATM   28  C1  UNL     1      -0.019   8.394   8.223  1.00  0.00     0.202 C 
ENDBRANCH  22  27
BRANCH  23  29
HETATM   29  O9  UNL     1       3.528   9.322   7.684  1.00  0.00    -0.390 OA
HETATM   30  H51 UNL     1       2.773   9.731   7.225  1.00  0.00     0.210 HD
ENDBRANCH  23  29
ENDBRANCH  19  20
ENDBRANCH   1  19
BRANCH  17  31
HETATM   31  O7  UNL     1       0.487   8.862  12.670  1.00  0.00    -0.389 OA
HETATM   32  H43 UNL     1       1.154   8.925  13.384  1.00  0.00     0.210 HD
ENDBRANCH  17  31
BRANCH   4  33
HETATM   33  C9  UNL     1       0.689   7.191  14.979  1.00  0.00     0.068 C 
HETATM   34  N1  UNL     1       0.802   8.442  15.266  1.00  0.00    -0.401 N 
ATOM     35  H1  UNL     1       0.282   9.159  14.760  1.00  0.00     0.158 HD
BRANCH  34  36
HETATM   36  C10 UNL     1       1.716   8.778  16.358  1.00  0.00     0.121 C 
BRANCH  36  37
HETATM   37  C11 UNL     1       3.108   9.049  15.772  1.00  0.00     0.045 C 
BRANCH  37  38
HETATM   38  C12 UNL     1       3.172  10.400  15.079  1.00  0.00     0.165 C 
BRANCH  38  39
HETATM   39  O3  UNL     1       1.947  11.111  15.237  1.00  0.00    -0.401 OA
HETATM   40  H20 UNL     1       1.760  11.165  16.190  1.00  0.00     0.209 HD
ENDBRANCH  38  39
ENDBRANCH  37  38
ENDBRANCH  36  37
ENDBRANCH  34  36
ENDBRANCH   4  33
BRANCH  13  41
HETATM   41  O6  UNL     1      -3.701   9.915  14.435  1.00  0.00    -0.389 OA
HETATM   42  H37 UNL     1      -3.323  10.410  13.686  1.00  0.00     0.210 HD
ENDBRANCH  13  41
BRANCH  10  43
HETATM   43  C19 UNL     1      -6.296   6.031  14.549  1.00  0.00    -0.045 A 
HETATM   44  C20 UNL     1      -5.867   5.364  13.470  1.00  0.00     0.087 A 
HETATM   45  C21 UNL     1      -6.535   4.069  13.470  1.00  0.00     0.283 A 
HETATM   46  O4  UNL     1      -6.396   3.221  12.610  1.00  0.00    -0.260 OA
HETATM   47  O5  UNL     1      -7.340   3.973  14.561  1.00  0.00    -0.314 OA
HETATM   48  C22 UNL     1      -7.231   5.177  15.324  1.00  0.00     0.213 A 
ENDBRANCH  10  43
TORSDOF 12
ENDMDL
