MODEL 1
REMARK minimizedAffinity -9.2082777
REMARK  4 active torsions:
REMARK  status: ('A' for Active; 'I' for Inactive)
REMARK    1  A    between atoms: C4_4  and  C5_5 
REMARK    2  A    between atoms: C5_5  and  C6_6 
REMARK    3  A    between atoms: C6_6  and  C7_7 
REMARK    4  A    between atoms: C7_7  and  C9_9 
ROOT
HETATM    1  C9  UNL     1      -6.234   7.068  13.696  1.00  0.00    -0.002 C 
HETATM    2  C10 UNL     1      -6.227   8.472  14.387  1.00  0.00     0.006 C 
HETATM    3  C11 UNL     1      -4.813   8.715  14.952  1.00  0.00     0.011 C 
HETATM    4  C12 UNL     1      -3.945   7.637  14.291  1.00  0.00    -0.032 C 
HETATM    5  C13 UNL     1      -3.598   8.175  12.867  1.00  0.00     0.016 C 
HETATM    6  C14 UNL     1      -2.638   7.244  15.040  1.00  0.00     0.004 C 
HETATM    7  C15 UNL     1      -1.670   8.389  15.359  1.00  0.00     0.007 C 
HETATM    8  C16 UNL     1      -0.627   8.773  14.315  1.00  0.00     0.007 C 
HETATM    9  C17 UNL     1      -0.247   7.745  13.232  1.00  0.00     0.010 C 
HETATM   10  C18 UNL     1       1.278   7.743  12.855  1.00  0.00     0.018 C 
HETATM   11  C19 UNL     1       1.685   9.106  12.271  1.00  0.00     0.023 C 
HETATM   12  C20 UNL     1       2.204   7.396  14.036  1.00  0.00     0.023 C 
HETATM   13  C21 UNL     1       1.530   6.689  11.763  1.00  0.00     0.135 C 
HETATM   14  O1  UNL     1       2.667   6.401  11.381  1.00  0.00    -0.297 OA
HETATM   15  C22 UNL     1       0.323   6.054  11.123  1.00  0.00     0.080 C 
HETATM   16  C23 UNL     1      -0.570   5.438  12.188  1.00  0.00     0.018 C 
HETATM   17  C24 UNL     1      -0.755   6.316  13.427  1.00  0.00    -0.026 A 
HETATM   18  C25 UNL     1      -0.581   5.650  14.776  1.00  0.00     0.021 A 
HETATM   19  C26 UNL     1      -1.971   6.055  14.334  1.00  0.00    -0.027 A 
HETATM   20  C27 UNL     1      -2.919   4.875  14.079  1.00  0.00     0.011 C 
HETATM   21  C28 UNL     1      -4.282   5.276  13.481  1.00  0.00     0.011 C 
HETATM   22  C29 UNL     1      -4.948   6.406  14.289  1.00  0.00    -0.032 C 
HETATM   23  C30 UNL     1      -5.296   5.856  15.709  1.00  0.00     0.016 C 
ENDROOT
BRANCH   1  24
HETATM   24  C7  UNL     1      -7.625   6.369  13.828  1.00  0.00    -0.014 C 
HETATM   25  C8  UNL     1      -7.957   6.010  15.281  1.00  0.00     0.010 C 
BRANCH  24  26
HETATM   26  C6  UNL     1      -7.656   5.092  12.940  1.00  0.00     0.008 C 
BRANCH  26  27
HETATM   27  C5  UNL     1      -7.410   3.752  13.647  1.00  0.00     0.028 C 
BRANCH  27  28
HETATM   28  C4  UNL     1      -7.309   2.578  12.712  1.00  0.00    -0.025 C 
HETATM   29  C2  UNL     1      -6.299   2.301  11.864  1.00  0.00    -0.091 C 
HETATM   30  C1  UNL     1      -5.099   3.179  11.646  1.00  0.00     0.042 C 
HETATM   31  C3  UNL     1      -6.312   1.045  11.032  1.00  0.00     0.042 C 
ENDBRANCH  27  28
ENDBRANCH  26  27
ENDBRANCH  24  26
ENDBRANCH   1  24
TORSDOF 4
ENDMDL
MODEL 2
REMARK minimizedAffinity -8.67164421
REMARK  4 active torsions:
REMARK  status: ('A' for Active; 'I' for Inactive)
REMARK    1  A    between atoms: C4_4  and  C5_5 
REMARK    2  A    between atoms: C5_5  and  C6_6 
REMARK    3  A    between atoms: C6_6  and  C7_7 
REMARK    4  A    between atoms: C7_7  and  C9_9 
ROOT
HETATM    1  C9  UNL     1      -3.457   7.808  14.734  1.00  0.00    -0.002 C 
HETATM    2  C10 UNL     1      -2.672   8.178  16.035  1.00  0.00     0.006 C 
HETATM    3  C11 UNL     1      -1.219   7.691  15.867  1.00  0.00     0.011 C 
HETATM    4  C12 UNL     1      -1.091   7.373  14.372  1.00  0.00    -0.032 C 
HETATM    5  C13 UNL     1      -0.842   8.739  13.660  1.00  0.00     0.016 C 
HETATM    6  C14 UNL     1       0.020   6.358  13.973  1.00  0.00     0.004 C 
HETATM    7  C15 UNL     1       1.444   6.699  14.426  1.00  0.00     0.007 C 
HETATM    8  C16 UNL     1       2.306   7.574  13.523  1.00  0.00     0.007 C 
HETATM    9  C17 UNL     1       1.945   7.681  12.028  1.00  0.00     0.010 C 
HETATM   10  C18 UNL     1       3.188   7.733  11.069  1.00  0.00     0.018 C 
HETATM   11  C19 UNL     1       4.038   8.981  11.364  1.00  0.00     0.023 C 
HETATM   12  C20 UNL     1       4.079   6.478  11.148  1.00  0.00     0.023 C 
HETATM   13  C21 UNL     1       2.704   7.849   9.614  1.00  0.00     0.135 C 
HETATM   14  O1  UNL     1       3.480   7.781   8.658  1.00  0.00    -0.297 OA
HETATM   15  C22 UNL     1       1.236   8.112   9.393  1.00  0.00     0.080 C 
HETATM   16  C23 UNL     1       0.404   7.049  10.094  1.00  0.00     0.018 C 
HETATM   17  C24 UNL     1       0.898   6.700  11.498  1.00  0.00    -0.026 A 
HETATM   18  C25 UNL     1       1.027   5.230  11.838  1.00  0.00     0.021 A 
HETATM   19  C26 UNL     1      -0.086   6.033  12.476  1.00  0.00    -0.027 A 
HETATM   20  C27 UNL     1      -1.496   5.619  12.031  1.00  0.00     0.011 C 
HETATM   21  C28 UNL     1      -2.621   6.533  12.556  1.00  0.00     0.011 C 
HETATM   22  C29 UNL     1      -2.518   6.743  14.079  1.00  0.00    -0.032 C 
HETATM   23  C30 UNL     1      -2.775   5.372  14.782  1.00  0.00     0.016 C 
ENDROOT
BRANCH   1  24
HETATM   24  C7  UNL     1      -4.952   7.474  15.039  1.00  0.00    -0.014 C 
HETATM   25  C8  UNL     1      -5.097   6.268  15.974  1.00  0.00     0.010 C 
BRANCH  24  26
HETATM   26  C6  UNL     1      -5.714   7.214  13.707  1.00  0.00     0.008 C 
BRANCH  26  27
HETATM   27  C5  UNL     1      -6.519   5.910  13.615  1.00  0.00     0.028 C 
BRANCH  27  28
HETATM   28  C4  UNL     1      -5.858   4.843  12.786  1.00  0.00    -0.025 C 
HETATM   29  C2  UNL     1      -6.292   3.582  12.590  1.00  0.00    -0.091 C 
HETATM   30  C1  UNL     1      -7.507   2.984  13.243  1.00  0.00     0.042 C 
HETATM   31  C3  UNL     1      -5.550   2.644  11.675  1.00  0.00     0.042 C 
ENDBRANCH  27  28
ENDBRANCH  26  27
ENDBRANCH  24  26
ENDBRANCH   1  24
TORSDOF 4
ENDMDL
MODEL 3
REMARK minimizedAffinity -8.62205029
REMARK  4 active torsions:
REMARK  status: ('A' for Active; 'I' for Inactive)
REMARK    1  A    between atoms: C4_4  and  C5_5 
REMARK    2  A    between atoms: C5_5  and  C6_6 
REMARK    3  A    between atoms: C6_6  and  C7_7 
REMARK    4  A    between atoms: C7_7  and  C9_9 
ROOT
HETATM    1  C9  UNL     1      -7.001   6.944  13.792  1.00  0.00    -0.002 C 
HETATM    2  C10 UNL     1      -6.999   8.205  14.718  1.00  0.00     0.006 C 
HETATM    3  C11 UNL     1      -5.594   8.336  15.339  1.00  0.00     0.011 C 
HETATM    4  C12 UNL     1      -4.720   7.384  14.512  1.00  0.00    -0.032 C 
HETATM    5  C13 UNL     1      -4.348   8.162  13.210  1.00  0.00     0.016 C 
HETATM    6  C14 UNL     1      -3.426   6.858  15.200  1.00  0.00     0.004 C 
HETATM    7  C15 UNL     1      -2.459   7.922  15.730  1.00  0.00     0.007 C 
HETATM    8  C16 UNL     1      -1.398   8.476  14.786  1.00  0.00     0.007 C 
HETATM    9  C17 UNL     1      -1.004   7.651  13.544  1.00  0.00     0.010 C 
HETATM   10  C18 UNL     1       0.526   7.705  13.196  1.00  0.00     0.018 C 
HETATM   11  C19 UNL     1       0.948   9.147  12.867  1.00  0.00     0.023 C 
HETATM   12  C20 UNL     1       1.432   7.150  14.312  1.00  0.00     0.023 C 
HETATM   13  C21 UNL     1       0.792   6.858  11.940  1.00  0.00     0.135 C 
HETATM   14  O1  UNL     1       1.934   6.633  11.531  1.00  0.00    -0.297 OA
HETATM   15  C22 UNL     1      -0.408   6.353  11.180  1.00  0.00     0.080 C 
HETATM   16  C23 UNL     1      -1.320   5.566  12.107  1.00  0.00     0.018 C 
HETATM   17  C24 UNL     1      -1.521   6.213  13.478  1.00  0.00    -0.026 A 
HETATM   18  C25 UNL     1      -1.372   5.321  14.692  1.00  0.00     0.021 A 
HETATM   19  C26 UNL     1      -2.753   5.806  14.307  1.00  0.00    -0.027 A 
HETATM   20  C27 UNL     1      -3.701   4.696  13.834  1.00  0.00     0.011 C 
HETATM   21  C28 UNL     1      -5.053   5.204  13.295  1.00  0.00     0.011 C 
HETATM   22  C29 UNL     1      -5.727   6.180  14.279  1.00  0.00    -0.032 C 
HETATM   23  C30 UNL     1      -6.100   5.392  15.574  1.00  0.00     0.016 C 
ENDROOT
BRANCH   1  24
HETATM   24  C7  UNL     1      -8.397   6.243  13.778  1.00  0.00    -0.014 C 
HETATM   25  C8  UNL     1      -8.798   5.780  12.372  1.00  0.00     0.010 C 
BRANCH  24  26
HETATM   26  C6  UNL     1      -9.475   7.208  14.352  1.00  0.00     0.008 C 
BRANCH  26  27
HETATM   27  C5  UNL     1     -10.799   7.301  13.582  1.00  0.00     0.028 C 
BRANCH  27  28
HETATM   28  C4  UNL     1     -11.935   6.557  14.231  1.00  0.00    -0.025 C 
HETATM   29  C2  UNL     1     -13.244   6.647  13.922  1.00  0.00    -0.091 C 
HETATM   30  C1  UNL     1     -13.820   7.584  12.899  1.00  0.00     0.042 C 
HETATM   31  C3  UNL     1     -14.262   5.785  14.622  1.00  0.00     0.042 C 
ENDBRANCH  27  28
ENDBRANCH  26  27
ENDBRANCH  24  26
ENDBRANCH   1  24
TORSDOF 4
ENDMDL
MODEL 4
REMARK minimizedAffinity -8.51222706
REMARK  4 active torsions:
REMARK  status: ('A' for Active; 'I' for Inactive)
REMARK    1  A    between atoms: C4_4  and  C5_5 
REMARK    2  A    between atoms: C5_5  and  C6_6 
REMARK    3  A    between atoms: C6_6  and  C7_7 
REMARK    4  A    between atoms: C7_7  and  C9_9 
ROOT
HETATM    1  C9  UNL     1      -1.213   6.349  13.190  1.00  0.00    -0.002 C 
HETATM    2  C10 UNL     1      -1.335   5.731  11.758  1.00  0.00     0.006 C 
HETATM    3  C11 UNL     1      -0.207   6.323  10.888  1.00  0.00     0.011 C 
HETATM    4  C12 UNL     1       0.744   6.986  11.892  1.00  0.00    -0.032 C 
HETATM    5  C13 UNL     1       1.630   5.838  12.469  1.00  0.00     0.016 C 
HETATM    6  C14 UNL     1       1.650   8.125  11.339  1.00  0.00     0.004 C 
HETATM    7  C15 UNL     1       2.531   7.768  10.137  1.00  0.00     0.007 C 
HETATM    8  C16 UNL     1       3.912   7.175  10.398  1.00  0.00     0.007 C 
HETATM    9  C17 UNL     1       4.569   7.397  11.774  1.00  0.00     0.010 C 
HETATM   10  C18 UNL     1       6.119   7.637  11.714  1.00  0.00     0.018 C 
HETATM   11  C19 UNL     1       6.828   6.404  11.130  1.00  0.00     0.023 C 
HETATM   12  C20 UNL     1       6.519   8.887  10.906  1.00  0.00     0.023 C 
HETATM   13  C21 UNL     1       6.659   7.835  13.141  1.00  0.00     0.135 C 
HETATM   14  O1  UNL     1       7.827   8.165  13.360  1.00  0.00    -0.297 OA
HETATM   15  C22 UNL     1       5.716   7.550  14.282  1.00  0.00     0.080 C 
HETATM   16  C23 UNL     1       4.447   8.374  14.129  1.00  0.00     0.018 C 
HETATM   17  C24 UNL     1       3.902   8.415  12.701  1.00  0.00    -0.026 A 
HETATM   18  C25 UNL     1       3.515   9.771  12.149  1.00  0.00     0.021 A 
HETATM   19  C26 UNL     1       2.422   8.782  12.492  1.00  0.00    -0.027 A 
HETATM   20  C27 UNL     1       1.532   9.210  13.668  1.00  0.00     0.011 C 
HETATM   21  C28 UNL     1       0.520   8.139  14.120  1.00  0.00     0.011 C 
HETATM   22  C29 UNL     1      -0.293   7.587  12.933  1.00  0.00    -0.032 C 
HETATM   23  C30 UNL     1      -1.179   8.741  12.366  1.00  0.00     0.016 C 
ENDROOT
BRANCH   1  24
HETATM   24  C7  UNL     1      -2.611   6.520  13.864  1.00  0.00    -0.014 C 
HETATM   25  C8  UNL     1      -2.500   7.009  15.312  1.00  0.00     0.010 C 
BRANCH  24  26
HETATM   26  C6  UNL     1      -3.386   5.171  13.812  1.00  0.00     0.008 C 
BRANCH  26  27
HETATM   27  C5  UNL     1      -4.687   5.152  12.997  1.00  0.00     0.028 C 
BRANCH  27  28
HETATM   28  C4  UNL     1      -4.906   3.878  12.228  1.00  0.00    -0.025 C 
HETATM   29  C2  UNL     1      -5.993   3.084  12.267  1.00  0.00    -0.091 C 
HETATM   30  C1  UNL     1      -7.178   3.298  13.167  1.00  0.00     0.042 C 
HETATM   31  C3  UNL     1      -6.092   1.867  11.384  1.00  0.00     0.042 C 
ENDBRANCH  27  28
ENDBRANCH  26  27
ENDBRANCH  24  26
ENDBRANCH   1  24
TORSDOF 4
ENDMDL
MODEL 5
REMARK minimizedAffinity -8.50217342
REMARK  4 active torsions:
REMARK  status: ('A' for Active; 'I' for Inactive)
REMARK    1  A    between atoms: C4_4  and  C5_5 
REMARK    2  A    between atoms: C5_5  and  C6_6 
REMARK    3  A    between atoms: C6_6  and  C7_7 
REMARK    4  A    between atoms: C7_7  and  C9_9 
ROOT
HETATM    1  C9  UNL     1      -5.101   6.320  14.690  1.00  0.00    -0.002 C 
HETATM    2  C10 UNL     1      -4.141   5.470  13.795  1.00  0.00     0.006 C 
HETATM    3  C11 UNL     1      -2.929   6.350  13.428  1.00  0.00     0.011 C 
HETATM    4  C12 UNL     1      -3.024   7.549  14.381  1.00  0.00    -0.032 C 
HETATM    5  C13 UNL     1      -2.418   7.071  15.738  1.00  0.00     0.016 C 
HETATM    6  C14 UNL     1      -2.319   8.858  13.919  1.00  0.00     0.004 C 
HETATM    7  C15 UNL     1      -0.830   8.742  13.579  1.00  0.00     0.007 C 
HETATM    8  C16 UNL     1       0.189   8.918  14.700  1.00  0.00     0.007 C 
HETATM    9  C17 UNL     1      -0.235   9.665  15.979  1.00  0.00     0.010 C 
HETATM   10  C18 UNL     1       0.883  10.585  16.587  1.00  0.00     0.018 C 
HETATM   11  C19 UNL     1       2.100   9.740  17.004  1.00  0.00     0.023 C 
HETATM   12  C20 UNL     1       1.342  11.707  15.636  1.00  0.00     0.023 C 
HETATM   13  C21 UNL     1       0.347  11.265  17.858  1.00  0.00     0.135 C 
HETATM   14  O1  UNL     1       0.986  12.134  18.455  1.00  0.00    -0.297 OA
HETATM   15  C22 UNL     1      -0.978  10.784  18.393  1.00  0.00     0.080 C 
HETATM   16  C23 UNL     1      -2.043  10.880  17.311  1.00  0.00     0.018 C 
HETATM   17  C24 UNL     1      -1.574  10.403  15.935  1.00  0.00    -0.026 A 
HETATM   18  C25 UNL     1      -1.884  11.298  14.754  1.00  0.00     0.021 A 
HETATM   19  C26 UNL     1      -2.638   9.995  14.901  1.00  0.00    -0.027 A 
HETATM   20  C27 UNL     1      -4.137  10.163  15.188  1.00  0.00     0.011 C 
HETATM   21  C28 UNL     1      -4.876   8.845  15.492  1.00  0.00     0.011 C 
HETATM   22  C29 UNL     1      -4.595   7.775  14.420  1.00  0.00    -0.032 C 
HETATM   23  C30 UNL     1      -5.210   8.259  13.068  1.00  0.00     0.016 C 
ENDROOT
BRANCH   1  24
HETATM   24  C7  UNL     1      -6.597   5.938  14.453  1.00  0.00    -0.014 C 
HETATM   25  C8  UNL     1      -7.284   5.465  15.739  1.00  0.00     0.010 C 
BRANCH  24  26
HETATM   26  C6  UNL     1      -6.690   4.835  13.359  1.00  0.00     0.008 C 
BRANCH  26  27
HETATM   27  C5  UNL     1      -7.482   3.571  13.718  1.00  0.00     0.028 C 
BRANCH  27  28
HETATM   28  C4  UNL     1      -7.267   2.426  12.766  1.00  0.00    -0.025 C 
HETATM   29  C2  UNL     1      -6.277   2.298  11.862  1.00  0.00    -0.091 C 
HETATM   30  C1  UNL     1      -5.227   3.339  11.589  1.00  0.00     0.042 C 
HETATM   31  C3  UNL     1      -6.158   1.055  11.018  1.00  0.00     0.042 C 
ENDBRANCH  27  28
ENDBRANCH  26  27
ENDBRANCH  24  26
ENDBRANCH   1  24
TORSDOF 4
ENDMDL
MODEL 6
REMARK minimizedAffinity -8.45431519
REMARK  4 active torsions:
REMARK  status: ('A' for Active; 'I' for Inactive)
REMARK    1  A    between atoms: C4_4  and  C5_5 
REMARK    2  A    between atoms: C5_5  and  C6_6 
REMARK    3  A    between atoms: C6_6  and  C7_7 
REMARK    4  A    between atoms: C7_7  and  C9_9 
ROOT
HETATM    1  C9  UNL     1       0.695   7.169  12.149  1.00  0.00    -0.002 C 
HETATM    2  C10 UNL     1       0.509   5.934  11.207  1.00  0.00     0.006 C 
HETATM    3  C11 UNL     1      -0.663   5.093  11.752  1.00  0.00     0.011 C 
HETATM    4  C12 UNL     1      -1.353   6.011  12.769  1.00  0.00    -0.032 C 
HETATM    5  C13 UNL     1      -2.268   6.965  11.937  1.00  0.00     0.016 C 
HETATM    6  C14 UNL     1      -2.192   5.310  13.878  1.00  0.00     0.004 C 
HETATM    7  C15 UNL     1      -3.291   4.358  13.396  1.00  0.00     0.007 C 
HETATM    8  C16 UNL     1      -4.673   4.931  13.102  1.00  0.00     0.007 C 
HETATM    9  C17 UNL     1      -5.069   6.279  13.735  1.00  0.00     0.010 C 
HETATM   10  C18 UNL     1      -6.568   6.358  14.195  1.00  0.00     0.018 C 
HETATM   11  C19 UNL     1      -7.506   6.195  12.986  1.00  0.00     0.023 C 
HETATM   12  C20 UNL     1      -6.938   5.320  15.271  1.00  0.00     0.023 C 
HETATM   13  C21 UNL     1      -6.844   7.747  14.797  1.00  0.00     0.135 C 
HETATM   14  O1  UNL     1      -7.913   8.022  15.347  1.00  0.00    -0.297 OA
HETATM   15  C22 UNL     1      -5.771   8.794  14.638  1.00  0.00     0.080 C 
HETATM   16  C23 UNL     1      -4.453   8.281  15.195  1.00  0.00     0.018 C 
HETATM   17  C24 UNL     1      -4.144   6.830  14.821  1.00  0.00    -0.026 A 
HETATM   18  C25 UNL     1      -3.689   5.912  15.936  1.00  0.00     0.021 A 
HETATM   19  C26 UNL     1      -2.683   6.351  14.894  1.00  0.00    -0.027 A 
HETATM   20  C27 UNL     1      -1.571   7.260  15.436  1.00  0.00     0.011 C 
HETATM   21  C28 UNL     1      -0.636   7.834  14.353  1.00  0.00     0.011 C 
HETATM   22  C29 UNL     1      -0.098   6.729  13.423  1.00  0.00    -0.032 C 
HETATM   23  C30 UNL     1       0.819   5.784  14.263  1.00  0.00     0.016 C 
ENDROOT
BRANCH   1  24
HETATM   24  C7  UNL     1       2.194   7.596  12.249  1.00  0.00    -0.014 C 
HETATM   25  C8  UNL     1       2.359   9.119  12.305  1.00  0.00     0.010 C 
BRANCH  24  26
HETATM   26  C6  UNL     1       2.987   7.015  11.042  1.00  0.00     0.008 C 
BRANCH  26  27
HETATM   27  C5  UNL     1       3.352   7.996   9.920  1.00  0.00     0.028 C 
BRANCH  27  28
HETATM   28  C4  UNL     1       3.025   7.493   8.540  1.00  0.00    -0.025 C 
HETATM   29  C2  UNL     1       1.865   7.650   7.874  1.00  0.00    -0.091 C 
HETATM   30  C1  UNL     1       0.637   8.310   8.436  1.00  0.00     0.042 C 
HETATM   31  C3  UNL     1       1.710   7.142   6.464  1.00  0.00     0.042 C 
ENDBRANCH  27  28
ENDBRANCH  26  27
ENDBRANCH  24  26
ENDBRANCH   1  24
TORSDOF 4
ENDMDL
MODEL 7
REMARK minimizedAffinity -8.38130093
REMARK  4 active torsions:
REMARK  status: ('A' for Active; 'I' for Inactive)
REMARK    1  A    between atoms: C4_4  and  C5_5 
REMARK    2  A    between atoms: C5_5  and  C6_6 
REMARK    3  A    between atoms: C6_6  and  C7_7 
REMARK    4  A    between atoms: C7_7  and  C9_9 
ROOT
HETATM    1  C9  UNL     1      -4.108   7.404  13.223  1.00  0.00    -0.002 C 
HETATM    2  C10 UNL     1      -4.026   8.941  13.502  1.00  0.00     0.006 C 
HETATM    3  C11 UNL     1      -2.558   9.288  13.821  1.00  0.00     0.011 C 
HETATM    4  C12 UNL     1      -1.767   8.047  13.386  1.00  0.00    -0.032 C 
HETATM    5  C13 UNL     1      -1.585   8.172  11.841  1.00  0.00     0.016 C 
HETATM    6  C14 UNL     1      -0.383   7.834  14.066  1.00  0.00     0.004 C 
HETATM    7  C15 UNL     1       0.612   8.995  13.955  1.00  0.00     0.007 C 
HETATM    8  C16 UNL     1       1.529   9.053  12.738  1.00  0.00     0.007 C 
HETATM    9  C17 UNL     1       1.787   7.761  11.939  1.00  0.00     0.010 C 
HETATM   10  C18 UNL     1       3.259   7.614  11.412  1.00  0.00     0.018 C 
HETATM   11  C19 UNL     1       3.594   8.757  10.439  1.00  0.00     0.023 C 
HETATM   12  C20 UNL     1       4.314   7.573  12.534  1.00  0.00     0.023 C 
HETATM   13  C21 UNL     1       3.389   6.298  10.626  1.00  0.00     0.135 C 
HETATM   14  O1  UNL     1       4.476   5.885  10.214  1.00  0.00    -0.297 OA
HETATM   15  C22 UNL     1       2.118   5.548  10.318  1.00  0.00     0.080 C 
HETATM   16  C23 UNL     1       1.353   5.268  11.602  1.00  0.00     0.018 C 
HETATM   17  C24 UNL     1       1.308   6.452  12.569  1.00  0.00    -0.026 A 
HETATM   18  C25 UNL     1       1.635   6.170  14.020  1.00  0.00     0.021 A 
HETATM   19  C26 UNL     1       0.203   6.480  13.640  1.00  0.00    -0.027 A 
HETATM   20  C27 UNL     1      -0.765   5.303  13.820  1.00  0.00     0.011 C 
HETATM   21  C28 UNL     1      -2.188   5.565  13.289  1.00  0.00     0.011 C 
HETATM   22  C29 UNL     1      -2.761   6.891  13.828  1.00  0.00    -0.032 C 
HETATM   23  C30 UNL     1      -2.944   6.754  15.373  1.00  0.00     0.016 C 
ENDROOT
BRANCH   1  24
HETATM   24  C7  UNL     1      -5.473   6.807  13.690  1.00  0.00    -0.014 C 
HETATM   25  C8  UNL     1      -5.779   7.140  15.155  1.00  0.00     0.010 C 
BRANCH  24  26
HETATM   26  C6  UNL     1      -5.470   5.264  13.481  1.00  0.00     0.008 C 
BRANCH  26  27
HETATM   27  C5  UNL     1      -6.809   4.615  13.109  1.00  0.00     0.028 C 
BRANCH  27  28
HETATM   28  C4  UNL     1      -8.012   5.401  13.553  1.00  0.00    -0.025 C 
HETATM   29  C2  UNL     1      -8.966   5.938  12.767  1.00  0.00    -0.091 C 
HETATM   30  C1  UNL     1      -8.955   5.906  11.264  1.00  0.00     0.042 C 
HETATM   31  C3  UNL     1     -10.152   6.648  13.367  1.00  0.00     0.042 C 
ENDBRANCH  27  28
ENDBRANCH  26  27
ENDBRANCH  24  26
ENDBRANCH   1  24
TORSDOF 4
ENDMDL
MODEL 8
REMARK minimizedAffinity -8.31064796
REMARK  4 active torsions:
REMARK  status: ('A' for Active; 'I' for Inactive)
REMARK    1  A    between atoms: C4_4  and  C5_5 
REMARK    2  A    between atoms: C5_5  and  C6_6 
REMARK    3  A    between atoms: C6_6  and  C7_7 
REMARK    4  A    between atoms: C7_7  and  C9_9 
ROOT
HETATM    1  C9  UNL     1      -5.072   7.615  13.471  1.00  0.00    -0.002 C 
HETATM    2  C10 UNL     1      -4.956   8.872  14.395  1.00  0.00     0.006 C 
HETATM    3  C11 UNL     1      -3.503   8.956  14.904  1.00  0.00     0.011 C 
HETATM    4  C12 UNL     1      -2.728   7.979  14.010  1.00  0.00    -0.032 C 
HETATM    5  C13 UNL     1      -2.434   8.748  12.684  1.00  0.00     0.016 C 
HETATM    6  C14 UNL     1      -1.402   7.409  14.596  1.00  0.00     0.004 C 
HETATM    7  C15 UNL     1      -0.362   8.440  15.048  1.00  0.00     0.007 C 
HETATM    8  C16 UNL     1       0.639   8.962  14.023  1.00  0.00     0.007 C 
HETATM    9  C17 UNL     1       0.907   8.129  12.755  1.00  0.00     0.010 C 
HETATM   10  C18 UNL     1       2.406   8.134  12.288  1.00  0.00     0.018 C 
HETATM   11  C19 UNL     1       2.848   9.563  11.927  1.00  0.00     0.023 C 
HETATM   12  C20 UNL     1       3.378   7.548  13.330  1.00  0.00     0.023 C 
HETATM   13  C21 UNL     1       2.546   7.282  11.015  1.00  0.00     0.135 C 
HETATM   14  O1  UNL     1       3.644   7.022  10.518  1.00  0.00    -0.297 OA
HETATM   15  C22 UNL     1       1.274   6.819  10.351  1.00  0.00     0.080 C 
HETATM   16  C23 UNL     1       0.413   6.058  11.347  1.00  0.00     0.018 C 
HETATM   17  C24 UNL     1       0.340   6.709  12.729  1.00  0.00    -0.026 A 
HETATM   18  C25 UNL     1       0.555   5.808  13.927  1.00  0.00     0.021 A 
HETATM   19  C26 UNL     1      -0.835   6.339  13.652  1.00  0.00    -0.027 A 
HETATM   20  C27 UNL     1      -1.853   5.261  13.254  1.00  0.00     0.011 C 
HETATM   21  C28 UNL     1      -3.226   5.814  12.823  1.00  0.00     0.011 C 
HETATM   22  C29 UNL     1      -3.789   6.809  13.857  1.00  0.00    -0.032 C 
HETATM   23  C30 UNL     1      -4.084   6.029  15.178  1.00  0.00     0.016 C 
ENDROOT
BRANCH   1  24
HETATM   24  C7  UNL     1      -6.486   6.959  13.567  1.00  0.00    -0.014 C 
HETATM   25  C8  UNL     1      -6.903   6.691  15.017  1.00  0.00     0.010 C 
BRANCH  24  26
HETATM   26  C6  UNL     1      -6.506   5.634  12.750  1.00  0.00     0.008 C 
BRANCH  26  27
HETATM   27  C5  UNL     1      -6.692   4.335  13.546  1.00  0.00     0.028 C 
BRANCH  27  28
HETATM   28  C4  UNL     1      -6.891   3.117  12.686  1.00  0.00    -0.025 C 
HETATM   29  C2  UNL     1      -5.950   2.458  11.981  1.00  0.00    -0.091 C 
HETATM   30  C1  UNL     1      -4.512   2.881  11.869  1.00  0.00     0.042 C 
HETATM   31  C3  UNL     1      -6.294   1.208  11.214  1.00  0.00     0.042 C 
ENDBRANCH  27  28
ENDBRANCH  26  27
ENDBRANCH  24  26
ENDBRANCH   1  24
TORSDOF 4
ENDMDL
MODEL 9
REMARK minimizedAffinity -8.0763607
REMARK  4 active torsions:
REMARK  status: ('A' for Active; 'I' for Inactive)
REMARK    1  A    between atoms: C4_4  and  C5_5 
REMARK    2  A    between atoms: C5_5  and  C6_6 
REMARK    3  A    between atoms: C6_6  and  C7_7 
REMARK    4  A    between atoms: C7_7  and  C9_9 
ROOT
HETATM    1  C9  UNL     1      -1.993   9.188  15.320  1.00  0.00    -0.002 C 
HETATM    2  C10 UNL     1      -0.761   9.172  16.283  1.00  0.00     0.006 C 
HETATM    3  C11 UNL     1       0.317   8.262  15.660  1.00  0.00     0.011 C 
HETATM    4  C12 UNL     1      -0.148   8.053  14.213  1.00  0.00    -0.032 C 
HETATM    5  C13 UNL     1       0.301   9.325  13.427  1.00  0.00     0.016 C 
HETATM    6  C14 UNL     1       0.377   6.775  13.495  1.00  0.00     0.004 C 
HETATM    7  C15 UNL     1       1.899   6.601  13.449  1.00  0.00     0.007 C 
HETATM    8  C16 UNL     1       2.669   7.230  12.293  1.00  0.00     0.007 C 
HETATM    9  C17 UNL     1       1.912   7.578  10.997  1.00  0.00     0.010 C 
HETATM   10  C18 UNL     1       2.730   7.314   9.684  1.00  0.00     0.018 C 
HETATM   11  C19 UNL     1       3.993   8.193   9.655  1.00  0.00     0.023 C 
HETATM   12  C20 UNL     1       3.132   5.838   9.494  1.00  0.00     0.023 C 
HETATM   13  C21 UNL     1       1.878   7.707   8.465  1.00  0.00     0.135 C 
HETATM   14  O1  UNL     1       2.243   7.479   7.309  1.00  0.00    -0.297 OA
HETATM   15  C22 UNL     1       0.591   8.444   8.731  1.00  0.00     0.080 C 
HETATM   16  C23 UNL     1      -0.279   7.647   9.689  1.00  0.00     0.018 C 
HETATM   17  C24 UNL     1       0.488   7.035  10.862  1.00  0.00    -0.026 A 
HETATM   18  C25 UNL     1       0.223   5.577  11.175  1.00  0.00     0.021 A 
HETATM   19  C26 UNL     1      -0.299   6.635  12.123  1.00  0.00    -0.027 A 
HETATM   20  C27 UNL     1      -1.830   6.735  12.174  1.00  0.00     0.011 C 
HETATM   21  C28 UNL     1      -2.361   7.910  13.017  1.00  0.00     0.011 C 
HETATM   22  C29 UNL     1      -1.719   7.941  14.418  1.00  0.00    -0.032 C 
HETATM   23  C30 UNL     1      -2.178   6.668  15.197  1.00  0.00     0.016 C 
ENDROOT
BRANCH   1  24
HETATM   24  C7  UNL     1      -3.336   9.326  16.105  1.00  0.00    -0.014 C 
HETATM   25  C8  UNL     1      -4.558   9.138  15.200  1.00  0.00     0.010 C 
BRANCH  24  26
HETATM   26  C6  UNL     1      -3.396  10.715  16.804  1.00  0.00     0.008 C 
BRANCH  26  27
HETATM   27  C5  UNL     1      -3.401  10.717  18.339  1.00  0.00     0.028 C 
BRANCH  27  28
HETATM   28  C4  UNL     1      -2.047  10.489  18.954  1.00  0.00    -0.025 C 
HETATM   29  C2  UNL     1      -1.084  11.409  19.157  1.00  0.00    -0.091 C 
HETATM   30  C1  UNL     1      -1.168  12.847  18.727  1.00  0.00     0.042 C 
HETATM   31  C3  UNL     1       0.203  11.039  19.847  1.00  0.00     0.042 C 
ENDBRANCH  27  28
ENDBRANCH  26  27
ENDBRANCH  24  26
ENDBRANCH   1  24
TORSDOF 4
ENDMDL
