MODEL 1
REMARK minimizedAffinity -7.78759718
REMARK CNNscore 0.206642985
REMARK CNNaffinity 6.82231522
REMARK  14 active torsions:
REMARK  status: ('A' for Active; 'I' for Inactive)
REMARK    1  A    between atoms: C2_2  and  C3_3 
REMARK    2  A    between atoms: C6_6  and  C7_7 
REMARK    3  A    between atoms: C7_7  and  C8_8 
REMARK    4  A    between atoms: C14_17  and  C15_18 
REMARK    5  A    between atoms: C15_18  and  O3_20 
REMARK    6  A    between atoms: C19_24  and  C20_25 
REMARK    7  A    between atoms: C20_25  and  C21_26 
REMARK    8  A    between atoms: C22_27  and  C23_28 
REMARK    9  A    between atoms: C25_30  and  C26_31 
REMARK   10  A    between atoms: C27_33  and  C28_34 
REMARK   11  A    between atoms: C29_38  and  C30_39 
REMARK   12  A    between atoms: C30_39  and  C31_40 
REMARK   13  A    between atoms: C31_40  and  C32_41 
REMARK   14  A    between atoms: C32_41  and  O7_43 
ROOT
HETATM    1  C8  UNL     1       2.585  55.586  -8.987  1.00  0.00     0.016 C 
HETATM    2  N1  UNL     1       1.558  54.797  -9.048  1.00  0.00    -0.362 N 
ATOM      3  H1  UNL     1       0.745  54.822  -8.431  1.00  0.00     0.165 HD
HETATM    4  C9  UNL     1       1.756  53.921 -10.091  1.00  0.00     0.024 C 
HETATM    5  C10 UNL     1       0.774  53.093 -10.480  1.00  0.00     0.014 C 
HETATM    6  C11 UNL     1       0.864  52.066 -11.440  1.00  0.00     0.056 A 
HETATM    7  C12 UNL     1      -0.172  51.180 -11.373  1.00  0.00     0.046 A 
HETATM    8  C13 UNL     1      -1.072  51.588 -10.308  1.00  0.00     0.180 C 
HETATM    9  O1  UNL     1      -2.027  50.939  -9.898  1.00  0.00    -0.291 OA
HETATM   10  C14 UNL     1      -0.605  52.969  -9.762  1.00  0.00     0.197 C 
HETATM   11  C17 UNL     1       0.016  50.206 -12.367  1.00  0.00    -0.023 A 
HETATM   12  C18 UNL     1      -0.881  49.058 -12.666  1.00  0.00     0.051 C 
HETATM   13  C19 UNL     1       1.188  50.580 -13.041  1.00  0.00     0.022 A 
HETATM   14  N3  UNL     1       1.694  51.731 -12.448  1.00  0.00    -0.357 N 
HETATM   15  C29 UNL     1       3.172  54.017 -10.620  1.00  0.00     0.046 C 
HETATM   16  C34 UNL     1       3.619  55.384 -10.071  1.00  0.00     0.041 C 
HETATM   17  C35 UNL     1       3.494  56.496 -11.110  1.00  0.00     0.017 C 
HETATM   18  H25 UNL     1       2.515  52.228 -12.759  1.00  0.00     0.166 HD
ENDROOT
BRANCH  10  19
HETATM   19  C15 UNL     1      -1.560  54.049 -10.205  1.00  0.00     0.274 C 
HETATM   20  O2  UNL     1      -1.229  55.137 -10.668  1.00  0.00    -0.264 OA
BRANCH  19  21
HETATM   21  O3  UNL     1      -2.855  53.660 -10.013  1.00  0.00    -0.326 OA
HETATM   22  C16 UNL     1      -3.703  53.833 -11.155  1.00  0.00     0.213 C 
ENDBRANCH  19  21
ENDBRANCH  10  19
BRANCH  15  23
HETATM   23  C30 UNL     1       4.096  52.872 -10.150  1.00  0.00     0.021 C 
BRANCH  23  24
HETATM   24  C31 UNL     1       4.975  53.174  -8.929  1.00  0.00     0.112 C 
BRANCH  24  25
HETATM   25  C32 UNL     1       6.441  53.195  -9.303  1.00  0.00     0.258 C 
HETATM   26  O6  UNL     1       7.126  54.204  -9.388  1.00  0.00    -0.265 OA
BRANCH  25  27
HETATM   27  O7  UNL     1       6.890  51.921  -9.489  1.00  0.00    -0.326 OA
HETATM   28  C33 UNL     1       7.096  51.191  -8.281  1.00  0.00     0.213 C 
ENDBRANCH  25  27
ENDBRANCH  24  25
ENDBRANCH  23  24
ENDBRANCH  15  23
BRANCH   1  29
HETATM   29  C7  UNL     1       2.797  56.636  -7.964  1.00  0.00     0.055 C 
BRANCH  29  30
HETATM   30  C6  UNL     1       3.970  56.805  -7.349  1.00  0.00     0.043 A 
HETATM   31  C4  UNL     1       4.290  57.652  -6.215  1.00  0.00    -0.019 A 
HETATM   32  C3  UNL     1       5.590  57.515  -5.866  1.00  0.00     0.039 A 
HETATM   33  C5  UNL     1       3.253  58.521  -5.583  1.00  0.00     0.052 C 
HETATM   34  C36 UNL     1       6.166  56.532  -6.844  1.00  0.00     0.256 A 
HETATM   35  N4  UNL     1       5.130  56.177  -7.675  1.00  0.00    -0.322 N 
HETATM   36  O8  UNL     1       7.309  56.120  -6.900  1.00  0.00    -0.267 OA
HETATM   37  H38 UNL     1       5.238  55.540  -8.462  1.00  0.00     0.169 HD
BRANCH  32  38
HETATM   38  C2  UNL     1       6.306  58.185  -4.805  1.00  0.00     0.007 C 
HETATM   39  C1  UNL     1       7.394  58.951  -4.939  1.00  0.00     0.012 C 
ENDBRANCH  32  38
ENDBRANCH  29  30
ENDBRANCH   1  29
BRANCH  13  40
HETATM   40  C20 UNL     1       1.880  49.962 -14.220  1.00  0.00     0.115 C 
BRANCH  40  41
HETATM   41  C21 UNL     1       1.301  50.424 -15.523  1.00  0.00     0.022 A 
HETATM   42  C22 UNL     1       1.529  51.557 -16.295  1.00  0.00    -0.020 A 
HETATM   43  C25 UNL     1       0.653  51.471 -17.436  1.00  0.00     0.040 A 
HETATM   44  C27 UNL     1      -0.058  50.284 -17.319  1.00  0.00     0.084 A 
HETATM   45  N2  UNL     1       0.357  49.668 -16.165  1.00  0.00    -0.356 N 
HETATM   46  H24 UNL     1      -0.022  48.784 -15.842  1.00  0.00     0.166 HD
BRANCH  42  47
HETATM   47  C23 UNL     1       2.492  52.671 -15.994  1.00  0.00     0.037 C 
HETATM   48  C24 UNL     1       3.932  52.305 -16.324  1.00  0.00     0.010 C 
ENDBRANCH  42  47
BRANCH  43  49
HETATM   49  C26 UNL     1       0.517  52.439 -18.518  1.00  0.00     0.273 C 
HETATM   50  O4  UNL     1      -0.536  52.996 -18.812  1.00  0.00    -0.301 OA
ENDBRANCH  43  49
BRANCH  44  51
HETATM   51  C28 UNL     1      -1.064  49.691 -18.169  1.00  0.00     0.288 C 
HETATM   52  O5  UNL     1      -1.758  48.739 -17.814  1.00  0.00    -0.300 OA
ENDBRANCH  44  51
ENDBRANCH  40  41
ENDBRANCH  13  40
TORSDOF 14
ENDMDL
MODEL 2
REMARK minimizedAffinity -7.10261393
REMARK CNNscore 0.192344069
REMARK CNNaffinity 6.78765726
REMARK  14 active torsions:
REMARK  status: ('A' for Active; 'I' for Inactive)
REMARK    1  A    between atoms: C2_2  and  C3_3 
REMARK    2  A    between atoms: C6_6  and  C7_7 
REMARK    3  A    between atoms: C7_7  and  C8_8 
REMARK    4  A    between atoms: C14_17  and  C15_18 
REMARK    5  A    between atoms: C15_18  and  O3_20 
REMARK    6  A    between atoms: C19_24  and  C20_25 
REMARK    7  A    between atoms: C20_25  and  C21_26 
REMARK    8  A    between atoms: C22_27  and  C23_28 
REMARK    9  A    between atoms: C25_30  and  C26_31 
REMARK   10  A    between atoms: C27_33  and  C28_34 
REMARK   11  A    between atoms: C29_38  and  C30_39 
REMARK   12  A    between atoms: C30_39  and  C31_40 
REMARK   13  A    between atoms: C31_40  and  C32_41 
REMARK   14  A    between atoms: C32_41  and  O7_43 
ROOT
HETATM    1  C8  UNL     1       1.830  52.677  -9.129  1.00  0.00     0.016 C 
HETATM    2  N1  UNL     1       0.661  52.270  -9.515  1.00  0.00    -0.362 N 
ATOM      3  H1  UNL     1      -0.204  52.333  -8.978  1.00  0.00     0.165 HD
HETATM    4  C9  UNL     1       0.793  51.739 -10.779  1.00  0.00     0.024 C 
HETATM    5  C10 UNL     1      -0.292  51.385 -11.484  1.00  0.00     0.014 C 
HETATM    6  C11 UNL     1      -0.315  50.721 -12.726  1.00  0.00     0.056 A 
HETATM    7  C12 UNL     1      -1.535  50.190 -13.026  1.00  0.00     0.046 A 
HETATM    8  C13 UNL     1      -2.457  50.488 -11.944  1.00  0.00     0.180 C 
HETATM    9  O1  UNL     1      -3.594  50.042 -11.836  1.00  0.00    -0.291 OA
HETATM   10  C14 UNL     1      -1.752  51.441 -10.936  1.00  0.00     0.197 C 
HETATM   11  C17 UNL     1      -1.446  49.558 -14.278  1.00  0.00    -0.023 A 
HETATM   12  C18 UNL     1      -2.543  48.861 -15.001  1.00  0.00     0.051 C 
HETATM   13  C19 UNL     1      -0.129  49.773 -14.711  1.00  0.00     0.022 A 
HETATM   14  N3  UNL     1       0.549  50.492 -13.734  1.00  0.00    -0.357 N 
HETATM   15  C29 UNL     1       2.252  51.588 -11.155  1.00  0.00     0.046 C 
HETATM   16  C34 UNL     1       2.934  52.534 -10.151  1.00  0.00     0.041 C 
HETATM   17  C35 UNL     1       3.247  53.899 -10.759  1.00  0.00     0.017 C 
HETATM   18  H25 UNL     1       1.505  50.806 -13.808  1.00  0.00     0.166 HD
ENDROOT
BRANCH  10  19
HETATM   19  C15 UNL     1      -2.332  52.830 -11.047  1.00  0.00     0.274 C 
HETATM   20  O2  UNL     1      -3.008  53.239 -11.987  1.00  0.00    -0.264 OA
BRANCH  19  21
HETATM   21  O3  UNL     1      -1.995  53.585  -9.960  1.00  0.00    -0.326 OA
HETATM   22  C16 UNL     1      -1.613  54.931 -10.267  1.00  0.00     0.213 C 
ENDBRANCH  19  21
ENDBRANCH  10  19
BRANCH  15  23
HETATM   23  C30 UNL     1       2.781  50.141 -11.043  1.00  0.00     0.021 C 
BRANCH  23  24
HETATM   24  C31 UNL     1       4.200  49.985 -10.480  1.00  0.00     0.112 C 
BRANCH  24  25
HETATM   25  C32 UNL     1       5.215  49.826 -11.590  1.00  0.00     0.258 C 
HETATM   26  O6  UNL     1       4.940  49.703 -12.775  1.00  0.00    -0.265 OA
BRANCH  25  27
HETATM   27  O7  UNL     1       6.476  49.883 -11.076  1.00  0.00    -0.326 OA
HETATM   28  C33 UNL     1       6.596  49.348  -9.759  1.00  0.00     0.213 C 
ENDBRANCH  25  27
ENDBRANCH  24  25
ENDBRANCH  23  24
ENDBRANCH  15  23
BRANCH   1  29
HETATM   29  C7  UNL     1       2.137  53.256  -7.800  1.00  0.00     0.055 C 
BRANCH  29  30
HETATM   30  C6  UNL     1       1.843  54.521  -7.489  1.00  0.00     0.043 A 
HETATM   31  C4  UNL     1       2.743  55.641  -7.286  1.00  0.00    -0.019 A 
HETATM   32  C3  UNL     1       2.049  56.771  -7.018  1.00  0.00     0.039 A 
HETATM   33  C5  UNL     1       4.223  55.472  -7.386  1.00  0.00     0.052 C 
HETATM   34  C36 UNL     1       0.604  56.365  -7.024  1.00  0.00     0.256 A 
HETATM   35  N4  UNL     1       0.592  55.020  -7.310  1.00  0.00    -0.322 N 
HETATM   36  O8  UNL     1      -0.369  57.068  -6.826  1.00  0.00    -0.267 OA
HETATM   37  H38 UNL     1      -0.260  54.464  -7.348  1.00  0.00     0.169 HD
BRANCH  32  38
HETATM   38  C2  UNL     1       2.564  58.093  -6.746  1.00  0.00     0.007 C 
HETATM   39  C1  UNL     1       3.027  58.542  -5.574  1.00  0.00     0.012 C 
ENDBRANCH  32  38
ENDBRANCH  29  30
ENDBRANCH   1  29
BRANCH  13  40
HETATM   40  C20 UNL     1       0.559  49.378 -15.985  1.00  0.00     0.115 C 
BRANCH  40  41
HETATM   41  C21 UNL     1       0.291  50.346 -17.097  1.00  0.00     0.022 A 
HETATM   42  C22 UNL     1       0.642  51.678 -17.279  1.00  0.00    -0.020 A 
HETATM   43  C25 UNL     1       0.074  52.094 -18.537  1.00  0.00     0.040 A 
HETATM   44  C27 UNL     1      -0.583  50.995 -19.074  1.00  0.00     0.084 A 
HETATM   45  N2  UNL     1      -0.431  49.953 -18.193  1.00  0.00    -0.356 N 
HETATM   46  H24 UNL     1      -0.831  49.034 -18.347  1.00  0.00     0.166 HD
BRANCH  42  47
HETATM   47  C23 UNL     1       1.446  52.532 -16.340  1.00  0.00     0.037 C 
HETATM   48  C24 UNL     1       2.940  52.466 -16.622  1.00  0.00     0.010 C 
ENDBRANCH  42  47
BRANCH  43  49
HETATM   49  C26 UNL     1       0.156  53.415 -19.147  1.00  0.00     0.273 C 
HETATM   50  O4  UNL     1       0.967  53.722 -20.014  1.00  0.00    -0.301 OA
ENDBRANCH  43  49
BRANCH  44  51
HETATM   51  C28 UNL     1      -1.322  50.837 -20.305  1.00  0.00     0.288 C 
HETATM   52  O5  UNL     1      -1.389  51.719 -21.159  1.00  0.00    -0.300 OA
ENDBRANCH  44  51
ENDBRANCH  40  41
ENDBRANCH  13  40
TORSDOF 14
ENDMDL
MODEL 3
REMARK minimizedAffinity -8.40293789
REMARK CNNscore 0.174866736
REMARK CNNaffinity 6.53633451
REMARK  14 active torsions:
REMARK  status: ('A' for Active; 'I' for Inactive)
REMARK    1  A    between atoms: C2_2  and  C3_3 
REMARK    2  A    between atoms: C6_6  and  C7_7 
REMARK    3  A    between atoms: C7_7  and  C8_8 
REMARK    4  A    between atoms: C14_17  and  C15_18 
REMARK    5  A    between atoms: C15_18  and  O3_20 
REMARK    6  A    between atoms: C19_24  and  C20_25 
REMARK    7  A    between atoms: C20_25  and  C21_26 
REMARK    8  A    between atoms: C22_27  and  C23_28 
REMARK    9  A    between atoms: C25_30  and  C26_31 
REMARK   10  A    between atoms: C27_33  and  C28_34 
REMARK   11  A    between atoms: C29_38  and  C30_39 
REMARK   12  A    between atoms: C30_39  and  C31_40 
REMARK   13  A    between atoms: C31_40  and  C32_41 
REMARK   14  A    between atoms: C32_41  and  O7_43 
ROOT
HETATM    1  C8  UNL     1      -4.437  48.973 -23.733  1.00  0.00     0.016 C 
HETATM    2  N1  UNL     1      -3.407  49.652 -24.128  1.00  0.00    -0.362 N 
ATOM      3  H1  UNL     1      -3.060  49.712 -25.086  1.00  0.00     0.165 HD
HETATM    4  C9  UNL     1      -2.863  50.279 -23.030  1.00  0.00     0.024 C 
HETATM    5  C10 UNL     1      -1.878  51.177 -23.177  1.00  0.00     0.014 C 
HETATM    6  C11 UNL     1      -1.144  51.804 -22.151  1.00  0.00     0.056 A 
HETATM    7  C12 UNL     1       0.006  52.389 -22.597  1.00  0.00     0.046 A 
HETATM    8  C13 UNL     1       0.114  52.181 -24.031  1.00  0.00     0.180 C 
HETATM    9  O1  UNL     1       1.090  52.462 -24.718  1.00  0.00    -0.291 OA
HETATM   10  C14 UNL     1      -1.200  51.521 -24.539  1.00  0.00     0.197 C 
HETATM   11  C17 UNL     1       0.654  52.982 -21.501  1.00  0.00    -0.023 A 
HETATM   12  C18 UNL     1       1.932  53.742 -21.529  1.00  0.00     0.051 C 
HETATM   13  C19 UNL     1      -0.185  52.748 -20.401  1.00  0.00     0.022 A 
HETATM   14  N3  UNL     1      -1.287  52.017 -20.828  1.00  0.00    -0.357 N 
HETATM   15  C29 UNL     1      -3.486  49.766 -21.748  1.00  0.00     0.046 C 
HETATM   16  C34 UNL     1      -4.781  49.116 -22.268  1.00  0.00     0.041 C 
HETATM   17  C35 UNL     1      -5.993  50.033 -22.116  1.00  0.00     0.017 C 
HETATM   18  H25 UNL     1      -2.060  51.741 -20.241  1.00  0.00     0.166 HD
ENDROOT
BRANCH  10  19
HETATM   19  C15 UNL     1      -2.011  52.524 -25.324  1.00  0.00     0.274 C 
HETATM   20  O2  UNL     1      -3.231  52.647 -25.262  1.00  0.00    -0.264 OA
BRANCH  19  21
HETATM   21  O3  UNL     1      -1.204  53.277 -26.128  1.00  0.00    -0.326 OA
HETATM   22  C16 UNL     1      -1.238  52.911 -27.513  1.00  0.00     0.213 C 
ENDBRANCH  19  21
ENDBRANCH  10  19
BRANCH  15  23
HETATM   23  C30 UNL     1      -2.600  48.761 -20.980  1.00  0.00     0.021 C 
BRANCH  23  24
HETATM   24  C31 UNL     1      -3.102  47.312 -20.942  1.00  0.00     0.112 C 
BRANCH  24  25
HETATM   25  C32 UNL     1      -3.738  46.988 -19.608  1.00  0.00     0.258 C 
HETATM   26  O6  UNL     1      -4.301  47.799 -18.887  1.00  0.00    -0.265 OA
BRANCH  25  27
HETATM   27  O7  UNL     1      -3.625  45.653 -19.353  1.00  0.00    -0.326 OA
HETATM   28  C33 UNL     1      -3.359  45.339 -17.987  1.00  0.00     0.213 C 
ENDBRANCH  25  27
ENDBRANCH  24  25
ENDBRANCH  23  24
ENDBRANCH  15  23
BRANCH   1  29
HETATM   29  C7  UNL     1      -5.269  48.103 -24.595  1.00  0.00     0.055 C 
BRANCH  29  30
HETATM   30  C6  UNL     1      -6.603  48.095 -24.524  1.00  0.00     0.043 A 
HETATM   31  C4  UNL     1      -7.467  47.269 -23.702  1.00  0.00    -0.019 A 
HETATM   32  C3  UNL     1      -8.766  47.592 -23.896  1.00  0.00     0.039 A 
HETATM   33  C5  UNL     1      -6.903  46.231 -22.789  1.00  0.00     0.052 C 
HETATM   34  C36 UNL     1      -8.758  48.684 -24.926  1.00  0.00     0.256 A 
HETATM   35  N4  UNL     1      -7.436  48.904 -25.231  1.00  0.00    -0.322 N 
HETATM   36  O8  UNL     1      -9.714  49.269 -25.400  1.00  0.00    -0.267 OA
HETATM   37  H38 UNL     1      -7.128  49.576 -25.931  1.00  0.00     0.169 HD
BRANCH  32  38
HETATM   38  C2  UNL     1      -9.935  47.005 -23.282  1.00  0.00     0.007 C 
HETATM   39  C1  UNL     1     -11.060  46.635 -23.904  1.00  0.00     0.012 C 
ENDBRANCH  32  38
ENDBRANCH  29  30
ENDBRANCH   1  29
BRANCH  13  40
HETATM   40  C20 UNL     1      -0.058  53.168 -18.966  1.00  0.00     0.115 C 
BRANCH  40  41
HETATM   41  C21 UNL     1       0.013  51.994 -18.036  1.00  0.00     0.022 A 
HETATM   42  C22 UNL     1       0.740  51.768 -16.874  1.00  0.00    -0.020 A 
HETATM   43  C25 UNL     1       0.418  50.435 -16.430  1.00  0.00     0.040 A 
HETATM   44  C27 UNL     1      -0.502  49.914 -17.330  1.00  0.00     0.084 A 
HETATM   45  N2  UNL     1      -0.736  50.874 -18.282  1.00  0.00    -0.356 N 
HETATM   46  H24 UNL     1      -1.365  50.736 -19.065  1.00  0.00     0.166 HD
BRANCH  42  47
HETATM   47  C23 UNL     1       1.694  52.721 -16.211  1.00  0.00     0.037 C 
HETATM   48  C24 UNL     1       3.144  52.455 -16.591  1.00  0.00     0.010 C 
ENDBRANCH  42  47
BRANCH  43  49
HETATM   49  C26 UNL     1       0.951  49.742 -15.263  1.00  0.00     0.273 C 
HETATM   50  O4  UNL     1       1.111  50.268 -14.167  1.00  0.00    -0.301 OA
ENDBRANCH  43  49
BRANCH  44  51
HETATM   51  C28 UNL     1      -1.164  48.631 -17.377  1.00  0.00     0.288 C 
HETATM   52  O5  UNL     1      -1.996  48.279 -16.543  1.00  0.00    -0.300 OA
ENDBRANCH  44  51
ENDBRANCH  40  41
ENDBRANCH  13  40
TORSDOF 14
ENDMDL
MODEL 4
REMARK minimizedAffinity -8.14754486
REMARK CNNscore 0.144839033
REMARK CNNaffinity 6.77979469
REMARK  14 active torsions:
REMARK  status: ('A' for Active; 'I' for Inactive)
REMARK    1  A    between atoms: C2_2  and  C3_3 
REMARK    2  A    between atoms: C6_6  and  C7_7 
REMARK    3  A    between atoms: C7_7  and  C8_8 
REMARK    4  A    between atoms: C14_17  and  C15_18 
REMARK    5  A    between atoms: C15_18  and  O3_20 
REMARK    6  A    between atoms: C19_24  and  C20_25 
REMARK    7  A    between atoms: C20_25  and  C21_26 
REMARK    8  A    between atoms: C22_27  and  C23_28 
REMARK    9  A    between atoms: C25_30  and  C26_31 
REMARK   10  A    between atoms: C27_33  and  C28_34 
REMARK   11  A    between atoms: C29_38  and  C30_39 
REMARK   12  A    between atoms: C30_39  and  C31_40 
REMARK   13  A    between atoms: C31_40  and  C32_41 
REMARK   14  A    between atoms: C32_41  and  O7_43 
ROOT
HETATM    1  C8  UNL     1      -4.484  49.046 -23.981  1.00  0.00     0.016 C 
HETATM    2  N1  UNL     1      -3.373  49.607 -24.342  1.00  0.00    -0.362 N 
ATOM      3  H1  UNL     1      -2.929  49.524 -25.257  1.00  0.00     0.165 HD
HETATM    4  C9  UNL     1      -2.897  50.334 -23.275  1.00  0.00     0.024 C 
HETATM    5  C10 UNL     1      -1.840  51.146 -23.422  1.00  0.00     0.014 C 
HETATM    6  C11 UNL     1      -1.168  51.854 -22.406  1.00  0.00     0.056 A 
HETATM    7  C12 UNL     1       0.059  52.308 -22.793  1.00  0.00     0.046 A 
HETATM    8  C13 UNL     1       0.294  51.914 -24.171  1.00  0.00     0.180 C 
HETATM    9  O1  UNL     1       1.351  52.047 -24.778  1.00  0.00    -0.291 OA
HETATM   10  C14 UNL     1      -1.008  51.274 -24.735  1.00  0.00     0.197 C 
HETATM   11  C17 UNL     1       0.637  52.995 -21.712  1.00  0.00    -0.023 A 
HETATM   12  C18 UNL     1       1.962  53.669 -21.694  1.00  0.00     0.051 C 
HETATM   13  C19 UNL     1      -0.322  52.953 -20.689  1.00  0.00     0.022 A 
HETATM   14  N3  UNL     1      -1.426  52.241 -21.141  1.00  0.00    -0.357 N 
HETATM   15  C29 UNL     1      -3.680  50.026 -22.015  1.00  0.00     0.046 C 
HETATM   16  C34 UNL     1      -4.961  49.394 -22.590  1.00  0.00     0.041 C 
HETATM   17  C35 UNL     1      -6.112  50.393 -22.679  1.00  0.00     0.017 C 
HETATM   18  H25 UNL     1      -2.271  52.088 -20.612  1.00  0.00     0.166 HD
ENDROOT
BRANCH  10  19
HETATM   19  C15 UNL     1      -1.662  52.215 -25.717  1.00  0.00     0.274 C 
HETATM   20  O2  UNL     1      -2.547  53.020 -25.439  1.00  0.00    -0.264 OA
BRANCH  19  21
HETATM   21  O3  UNL     1      -1.144  52.046 -26.969  1.00  0.00    -0.326 OA
HETATM   22  C16 UNL     1      -0.619  53.242 -27.560  1.00  0.00     0.213 C 
ENDBRANCH  19  21
ENDBRANCH  10  19
BRANCH  15  23
HETATM   23  C30 UNL     1      -2.949  49.075 -21.041  1.00  0.00     0.021 C 
BRANCH  23  24
HETATM   24  C31 UNL     1      -3.288  47.585 -21.173  1.00  0.00     0.112 C 
BRANCH  24  25
HETATM   25  C32 UNL     1      -3.911  47.051 -19.902  1.00  0.00     0.258 C 
HETATM   26  O6  UNL     1      -4.049  45.866 -19.637  1.00  0.00    -0.265 OA
BRANCH  25  27
HETATM   27  O7  UNL     1      -4.254  48.086 -19.084  1.00  0.00    -0.326 OA
HETATM   28  C33 UNL     1      -4.461  47.712 -17.723  1.00  0.00     0.213 C 
ENDBRANCH  25  27
ENDBRANCH  24  25
ENDBRANCH  23  24
ENDBRANCH  15  23
BRANCH   1  29
HETATM   29  C7  UNL     1      -5.287  48.124 -24.817  1.00  0.00     0.055 C 
BRANCH  29  30
HETATM   30  C6  UNL     1      -6.616  48.041 -24.711  1.00  0.00     0.043 A 
HETATM   31  C4  UNL     1      -7.409  47.217 -23.817  1.00  0.00    -0.019 A 
HETATM   32  C3  UNL     1      -8.730  47.449 -23.997  1.00  0.00     0.039 A 
HETATM   33  C5  UNL     1      -6.762  46.273 -22.859  1.00  0.00     0.052 C 
HETATM   34  C36 UNL     1      -8.812  48.473 -25.091  1.00  0.00     0.256 A 
HETATM   35  N4  UNL     1      -7.513  48.753 -25.443  1.00  0.00    -0.322 N 
HETATM   36  O8  UNL     1      -9.812  48.969 -25.575  1.00  0.00    -0.267 OA
HETATM   37  H38 UNL     1      -7.262  49.397 -26.190  1.00  0.00     0.169 HD
BRANCH  32  38
HETATM   38  C2  UNL     1      -9.846  46.832 -23.319  1.00  0.00     0.007 C 
HETATM   39  C1  UNL     1     -10.459  45.695 -23.666  1.00  0.00     0.012 C 
ENDBRANCH  32  38
ENDBRANCH  29  30
ENDBRANCH   1  29
BRANCH  13  40
HETATM   40  C20 UNL     1      -0.308  53.544 -19.309  1.00  0.00     0.115 C 
BRANCH  40  41
HETATM   41  C21 UNL     1       0.269  52.602 -18.296  1.00  0.00     0.022 A 
HETATM   42  C22 UNL     1      -0.147  51.357 -17.837  1.00  0.00    -0.020 A 
HETATM   43  C25 UNL     1       0.799  50.943 -16.831  1.00  0.00     0.040 A 
HETATM   44  C27 UNL     1       1.758  51.943 -16.734  1.00  0.00     0.084 A 
HETATM   45  N2  UNL     1       1.422  52.925 -17.631  1.00  0.00    -0.356 N 
HETATM   46  H24 UNL     1       1.959  53.777 -17.747  1.00  0.00     0.166 HD
BRANCH  42  47
HETATM   47  C23 UNL     1      -1.360  50.593 -18.286  1.00  0.00     0.037 C 
HETATM   48  C24 UNL     1      -2.618  50.993 -17.528  1.00  0.00     0.010 C 
ENDBRANCH  42  47
BRANCH  43  49
HETATM   49  C26 UNL     1       0.770  49.714 -16.048  1.00  0.00     0.273 C 
HETATM   50  O4  UNL     1       0.190  48.691 -16.397  1.00  0.00    -0.301 OA
ENDBRANCH  43  49
BRANCH  44  51
HETATM   51  C28 UNL     1       2.929  52.058 -15.897  1.00  0.00     0.288 C 
HETATM   52  O5  UNL     1       4.052  52.278 -16.349  1.00  0.00    -0.300 OA
ENDBRANCH  44  51
ENDBRANCH  40  41
ENDBRANCH  13  40
TORSDOF 14
ENDMDL
MODEL 5
REMARK minimizedAffinity -7.28709888
REMARK CNNscore 0.0938274264
REMARK CNNaffinity 5.8933754
REMARK  14 active torsions:
REMARK  status: ('A' for Active; 'I' for Inactive)
REMARK    1  A    between atoms: C2_2  and  C3_3 
REMARK    2  A    between atoms: C6_6  and  C7_7 
REMARK    3  A    between atoms: C7_7  and  C8_8 
REMARK    4  A    between atoms: C14_17  and  C15_18 
REMARK    5  A    between atoms: C15_18  and  O3_20 
REMARK    6  A    between atoms: C19_24  and  C20_25 
REMARK    7  A    between atoms: C20_25  and  C21_26 
REMARK    8  A    between atoms: C22_27  and  C23_28 
REMARK    9  A    between atoms: C25_30  and  C26_31 
REMARK   10  A    between atoms: C27_33  and  C28_34 
REMARK   11  A    between atoms: C29_38  and  C30_39 
REMARK   12  A    between atoms: C30_39  and  C31_40 
REMARK   13  A    between atoms: C31_40  and  C32_41 
REMARK   14  A    between atoms: C32_41  and  O7_43 
ROOT
HETATM    1  C8  UNL     1      -1.522  48.987 -14.016  1.00  0.00     0.016 C 
HETATM    2  N1  UNL     1      -1.175  49.899 -14.869  1.00  0.00    -0.362 N 
ATOM      3  H1  UNL     1      -0.883  50.850 -14.645  1.00  0.00     0.165 HD
HETATM    4  C9  UNL     1      -1.271  49.358 -16.132  1.00  0.00     0.024 C 
HETATM    5  C10 UNL     1      -0.819  50.035 -17.198  1.00  0.00     0.014 C 
HETATM    6  C11 UNL     1      -0.957  49.672 -18.552  1.00  0.00     0.056 A 
HETATM    7  C12 UNL     1      -0.715  50.705 -19.409  1.00  0.00     0.046 A 
HETATM    8  C13 UNL     1      -0.377  51.888 -18.638  1.00  0.00     0.180 C 
HETATM    9  O1  UNL     1      -0.234  53.017 -19.094  1.00  0.00    -0.291 OA
HETATM   10  C14 UNL     1      -0.252  51.487 -17.139  1.00  0.00     0.197 C 
HETATM   11  C17 UNL     1      -0.877  50.235 -20.724  1.00  0.00    -0.023 A 
HETATM   12  C18 UNL     1      -0.695  51.017 -21.976  1.00  0.00     0.051 C 
HETATM   13  C19 UNL     1      -1.189  48.873 -20.597  1.00  0.00     0.022 A 
HETATM   14  N3  UNL     1      -1.235  48.550 -19.246  1.00  0.00    -0.357 N 
HETATM   15  C29 UNL     1      -1.970  48.015 -16.095  1.00  0.00     0.046 C 
HETATM   16  C34 UNL     1      -1.839  47.634 -14.610  1.00  0.00     0.041 C 
HETATM   17  C35 UNL     1      -0.676  46.678 -14.355  1.00  0.00     0.017 C 
HETATM   18  H25 UNL     1      -1.409  47.627 -18.878  1.00  0.00     0.166 HD
ENDROOT
BRANCH  10  19
HETATM   19  C15 UNL     1       1.198  51.500 -16.720  1.00  0.00     0.274 C 
HETATM   20  O2  UNL     1       1.715  50.698 -15.947  1.00  0.00    -0.264 OA
BRANCH  19  21
HETATM   21  O3  UNL     1       1.864  52.535 -17.311  1.00  0.00    -0.326 OA
HETATM   22  C16 UNL     1       3.043  52.957 -16.614  1.00  0.00     0.213 C 
ENDBRANCH  19  21
ENDBRANCH  10  19
BRANCH  15  23
HETATM   23  C30 UNL     1      -3.444  48.063 -16.556  1.00  0.00     0.021 C 
BRANCH  23  24
HETATM   24  C31 UNL     1      -3.830  47.091 -17.679  1.00  0.00     0.112 C 
BRANCH  24  25
HETATM   25  C32 UNL     1      -4.338  45.782 -17.118  1.00  0.00     0.258 C 
HETATM   26  O6  UNL     1      -4.078  45.351 -16.005  1.00  0.00    -0.265 OA
BRANCH  25  27
HETATM   27  O7  UNL     1      -5.161  45.179 -18.023  1.00  0.00    -0.326 OA
HETATM   28  C33 UNL     1      -4.492  44.302 -18.928  1.00  0.00     0.213 C 
ENDBRANCH  25  27
ENDBRANCH  24  25
ENDBRANCH  23  24
ENDBRANCH  15  23
BRANCH   1  29
HETATM   29  C7  UNL     1      -1.617  49.180 -12.550  1.00  0.00     0.055 C 
BRANCH  29  30
HETATM   30  C6  UNL     1      -2.545  49.962 -11.993  1.00  0.00     0.043 A 
HETATM   31  C4  UNL     1      -2.586  51.411 -11.913  1.00  0.00    -0.019 A 
HETATM   32  C3  UNL     1      -3.716  51.825 -11.296  1.00  0.00     0.039 A 
HETATM   33  C5  UNL     1      -1.482  52.247 -12.471  1.00  0.00     0.052 C 
HETATM   34  C36 UNL     1      -4.455  50.571 -10.929  1.00  0.00     0.256 A 
HETATM   35  N4  UNL     1      -3.679  49.531 -11.382  1.00  0.00    -0.322 N 
HETATM   36  O8  UNL     1      -5.523  50.476 -10.354  1.00  0.00    -0.267 OA
HETATM   37  H38 UNL     1      -3.920  48.551 -11.242  1.00  0.00     0.169 HD
BRANCH  32  38
HETATM   38  C2  UNL     1      -4.133  53.178 -11.009  1.00  0.00     0.007 C 
HETATM   39  C1  UNL     1      -3.502  54.055 -10.221  1.00  0.00     0.012 C 
ENDBRANCH  32  38
ENDBRANCH  29  30
ENDBRANCH   1  29
BRANCH  13  40
HETATM   40  C20 UNL     1      -1.436  47.824 -21.641  1.00  0.00     0.115 C 
BRANCH  40  41
HETATM   41  C21 UNL     1      -2.848  47.843 -22.141  1.00  0.00     0.022 A 
HETATM   42  C22 UNL     1      -3.430  48.408 -23.270  1.00  0.00    -0.020 A 
HETATM   43  C25 UNL     1      -4.841  48.122 -23.203  1.00  0.00     0.040 A 
HETATM   44  C27 UNL     1      -5.056  47.382 -22.047  1.00  0.00     0.084 A 
HETATM   45  N2  UNL     1      -3.840  47.221 -21.431  1.00  0.00    -0.356 N 
HETATM   46  H24 UNL     1      -3.725  46.724 -20.554  1.00  0.00     0.166 HD
BRANCH  42  47
HETATM   47  C23 UNL     1      -2.730  49.184 -24.349  1.00  0.00     0.037 C 
HETATM   48  C24 UNL     1      -2.957  48.595 -25.734  1.00  0.00     0.010 C 
ENDBRANCH  42  47
BRANCH  43  49
HETATM   49  C26 UNL     1      -5.869  48.528 -24.154  1.00  0.00     0.273 C 
HETATM   50  O4  UNL     1      -6.390  47.770 -24.966  1.00  0.00    -0.301 OA
ENDBRANCH  43  49
BRANCH  44  51
HETATM   51  C28 UNL     1      -6.264  46.829 -21.483  1.00  0.00     0.288 C 
HETATM   52  O5  UNL     1      -6.572  46.970 -20.300  1.00  0.00    -0.300 OA
ENDBRANCH  44  51
ENDBRANCH  40  41
ENDBRANCH  13  40
TORSDOF 14
ENDMDL
MODEL 6
REMARK minimizedAffinity -8.60474014
REMARK CNNscore 0.0890530944
REMARK CNNaffinity 6.71357965
REMARK  14 active torsions:
REMARK  status: ('A' for Active; 'I' for Inactive)
REMARK    1  A    between atoms: C2_2  and  C3_3 
REMARK    2  A    between atoms: C6_6  and  C7_7 
REMARK    3  A    between atoms: C7_7  and  C8_8 
REMARK    4  A    between atoms: C14_17  and  C15_18 
REMARK    5  A    between atoms: C15_18  and  O3_20 
REMARK    6  A    between atoms: C19_24  and  C20_25 
REMARK    7  A    between atoms: C20_25  and  C21_26 
REMARK    8  A    between atoms: C22_27  and  C23_28 
REMARK    9  A    between atoms: C25_30  and  C26_31 
REMARK   10  A    between atoms: C27_33  and  C28_34 
REMARK   11  A    between atoms: C29_38  and  C30_39 
REMARK   12  A    between atoms: C30_39  and  C31_40 
REMARK   13  A    between atoms: C31_40  and  C32_41 
REMARK   14  A    between atoms: C32_41  and  O7_43 
ROOT
HETATM    1  C8  UNL     1      -4.356  48.974 -24.000  1.00  0.00     0.016 C 
HETATM    2  N1  UNL     1      -3.261  49.569 -24.356  1.00  0.00    -0.362 N 
ATOM      3  H1  UNL     1      -2.814  49.505 -25.271  1.00  0.00     0.165 HD
HETATM    4  C9  UNL     1      -2.807  50.303 -23.283  1.00  0.00     0.024 C 
HETATM    5  C10 UNL     1      -1.773  51.145 -23.424  1.00  0.00     0.014 C 
HETATM    6  C11 UNL     1      -1.123  51.865 -22.403  1.00  0.00     0.056 A 
HETATM    7  C12 UNL     1       0.091  52.356 -22.785  1.00  0.00     0.046 A 
HETATM    8  C13 UNL     1       0.339  51.979 -24.165  1.00  0.00     0.180 C 
HETATM    9  O1  UNL     1       1.392  52.146 -24.770  1.00  0.00    -0.291 OA
HETATM   10  C14 UNL     1      -0.944  51.306 -24.735  1.00  0.00     0.197 C 
HETATM   11  C17 UNL     1       0.648  53.053 -21.699  1.00  0.00    -0.023 A 
HETATM   12  C18 UNL     1       1.954  53.764 -21.675  1.00  0.00     0.051 C 
HETATM   13  C19 UNL     1      -0.310  52.977 -20.677  1.00  0.00     0.022 A 
HETATM   14  N3  UNL     1      -1.393  52.236 -21.136  1.00  0.00    -0.357 N 
HETATM   15  C29 UNL     1      -3.582  49.963 -22.027  1.00  0.00     0.046 C 
HETATM   16  C34 UNL     1      -4.843  49.299 -22.607  1.00  0.00     0.041 C 
HETATM   17  C35 UNL     1      -6.023  50.265 -22.691  1.00  0.00     0.017 C 
HETATM   18  H25 UNL     1      -2.234  52.055 -20.608  1.00  0.00     0.166 HD
ENDROOT
BRANCH  10  19
HETATM   19  C15 UNL     1      -1.624  52.234 -25.711  1.00  0.00     0.274 C 
HETATM   20  O2  UNL     1      -2.529  53.014 -25.428  1.00  0.00    -0.264 OA
BRANCH  19  21
HETATM   21  O3  UNL     1      -1.103  52.086 -26.965  1.00  0.00    -0.326 OA
HETATM   22  C16 UNL     1      -0.597  53.295 -27.545  1.00  0.00     0.213 C 
ENDBRANCH  19  21
ENDBRANCH  10  19
BRANCH  15  23
HETATM   23  C30 UNL     1      -2.825  49.028 -21.058  1.00  0.00     0.021 C 
BRANCH  23  24
HETATM   24  C31 UNL     1      -3.106  47.527 -21.214  1.00  0.00     0.112 C 
BRANCH  24  25
HETATM   25  C32 UNL     1      -3.627  46.931 -19.925  1.00  0.00     0.258 C 
HETATM   26  O6  UNL     1      -3.697  45.735 -19.687  1.00  0.00    -0.265 OA
BRANCH  25  27
HETATM   27  O7  UNL     1      -3.966  47.928 -19.058  1.00  0.00    -0.326 OA
HETATM   28  C33 UNL     1      -4.078  47.508 -17.699  1.00  0.00     0.213 C 
ENDBRANCH  25  27
ENDBRANCH  24  25
ENDBRANCH  23  24
ENDBRANCH  15  23
BRANCH   1  29
HETATM   29  C7  UNL     1      -5.132  48.035 -24.843  1.00  0.00     0.055 C 
BRANCH  29  30
HETATM   30  C6  UNL     1      -5.191  48.152 -26.172  1.00  0.00     0.043 A 
HETATM   31  C4  UNL     1      -6.185  47.627 -27.090  1.00  0.00    -0.019 A 
HETATM   32  C3  UNL     1      -5.906  47.996 -28.361  1.00  0.00     0.039 A 
HETATM   33  C5  UNL     1      -7.330  46.804 -26.600  1.00  0.00     0.052 C 
HETATM   34  C36 UNL     1      -4.638  48.796 -28.278  1.00  0.00     0.256 A 
HETATM   35  N4  UNL     1      -4.300  48.827 -26.945  1.00  0.00    -0.322 N 
HETATM   36  O8  UNL     1      -4.026  49.321 -29.189  1.00  0.00    -0.267 OA
HETATM   37  H38 UNL     1      -3.458  49.278 -26.593  1.00  0.00     0.169 HD
BRANCH  32  38
HETATM   38  C2  UNL     1      -6.635  47.674 -29.565  1.00  0.00     0.007 C 
HETATM   39  C1  UNL     1      -6.925  46.449 -30.017  1.00  0.00     0.012 C 
ENDBRANCH  32  38
ENDBRANCH  29  30
ENDBRANCH   1  29
BRANCH  13  40
HETATM   40  C20 UNL     1      -0.314  53.558 -19.293  1.00  0.00     0.115 C 
BRANCH  40  41
HETATM   41  C21 UNL     1       0.275  52.620 -18.283  1.00  0.00     0.022 A 
HETATM   42  C22 UNL     1      -0.136  51.378 -17.814  1.00  0.00    -0.020 A 
HETATM   43  C25 UNL     1       0.823  50.968 -16.818  1.00  0.00     0.040 A 
HETATM   44  C27 UNL     1       1.783  51.967 -16.737  1.00  0.00     0.084 A 
HETATM   45  N2  UNL     1       1.436  52.945 -17.635  1.00  0.00    -0.356 N 
HETATM   46  H24 UNL     1       1.973  53.797 -17.761  1.00  0.00     0.166 HD
BRANCH  42  47
HETATM   47  C23 UNL     1      -1.355  50.613 -18.244  1.00  0.00     0.037 C 
HETATM   48  C24 UNL     1      -2.602  51.017 -17.470  1.00  0.00     0.010 C 
ENDBRANCH  42  47
BRANCH  43  49
HETATM   49  C26 UNL     1       0.803  49.742 -16.029  1.00  0.00     0.273 C 
HETATM   50  O4  UNL     1       0.256  48.704 -16.387  1.00  0.00    -0.301 OA
ENDBRANCH  43  49
BRANCH  44  51
HETATM   51  C28 UNL     1       2.965  52.085 -15.916  1.00  0.00     0.288 C 
HETATM   52  O5  UNL     1       4.084  52.287 -16.385  1.00  0.00    -0.300 OA
ENDBRANCH  44  51
ENDBRANCH  40  41
ENDBRANCH  13  40
TORSDOF 14
ENDMDL
MODEL 7
REMARK minimizedAffinity -8.00336933
REMARK CNNscore 0.0826785564
REMARK CNNaffinity 6.29737091
REMARK  14 active torsions:
REMARK  status: ('A' for Active; 'I' for Inactive)
REMARK    1  A    between atoms: C2_2  and  C3_3 
REMARK    2  A    between atoms: C6_6  and  C7_7 
REMARK    3  A    between atoms: C7_7  and  C8_8 
REMARK    4  A    between atoms: C14_17  and  C15_18 
REMARK    5  A    between atoms: C15_18  and  O3_20 
REMARK    6  A    between atoms: C19_24  and  C20_25 
REMARK    7  A    between atoms: C20_25  and  C21_26 
REMARK    8  A    between atoms: C22_27  and  C23_28 
REMARK    9  A    between atoms: C25_30  and  C26_31 
REMARK   10  A    between atoms: C27_33  and  C28_34 
REMARK   11  A    between atoms: C29_38  and  C30_39 
REMARK   12  A    between atoms: C30_39  and  C31_40 
REMARK   13  A    between atoms: C31_40  and  C32_41 
REMARK   14  A    between atoms: C32_41  and  O7_43 
ROOT
HETATM    1  C8  UNL     1      -3.138  50.926 -23.404  1.00  0.00     0.016 C 
HETATM    2  N1  UNL     1      -3.046  49.981 -22.521  1.00  0.00    -0.362 N 
ATOM      3  H1  UNL     1      -2.317  49.890 -21.813  1.00  0.00     0.165 HD
HETATM    4  C9  UNL     1      -4.105  49.121 -22.708  1.00  0.00     0.024 C 
HETATM    5  C10 UNL     1      -4.345  48.136 -21.829  1.00  0.00     0.014 C 
HETATM    6  C11 UNL     1      -5.305  47.112 -21.947  1.00  0.00     0.056 A 
HETATM    7  C12 UNL     1      -5.085  46.074 -21.090  1.00  0.00     0.046 A 
HETATM    8  C13 UNL     1      -3.902  46.358 -20.298  1.00  0.00     0.180 C 
HETATM    9  O1  UNL     1      -3.354  45.574 -19.530  1.00  0.00    -0.291 OA
HETATM   10  C14 UNL     1      -3.433  47.810 -20.607  1.00  0.00     0.197 C 
HETATM   11  C17 UNL     1      -6.094  45.116 -21.289  1.00  0.00    -0.023 A 
HETATM   12  C18 UNL     1      -6.257  43.831 -20.558  1.00  0.00     0.051 C 
HETATM   13  C19 UNL     1      -6.933  45.657 -22.275  1.00  0.00     0.022 A 
HETATM   14  N3  UNL     1      -6.422  46.889 -22.666  1.00  0.00    -0.357 N 
HETATM   15  C29 UNL     1      -4.835  49.431 -23.998  1.00  0.00     0.046 C 
HETATM   16  C34 UNL     1      -4.360  50.866 -24.290  1.00  0.00     0.041 C 
HETATM   17  C35 UNL     1      -5.372  51.916 -23.837  1.00  0.00     0.017 C 
HETATM   18  H25 UNL     1      -6.851  47.504 -23.342  1.00  0.00     0.166 HD
ENDROOT
BRANCH  10  19
HETATM   19  C15 UNL     1      -3.734  48.710 -19.434  1.00  0.00     0.274 C 
HETATM   20  O2  UNL     1      -4.691  48.583 -18.675  1.00  0.00    -0.264 OA
BRANCH  19  21
HETATM   21  O3  UNL     1      -2.800  49.701 -19.331  1.00  0.00    -0.326 OA
HETATM   22  C16 UNL     1      -3.345  51.012 -19.137  1.00  0.00     0.213 C 
ENDBRANCH  19  21
ENDBRANCH  10  19
BRANCH  15  23
HETATM   23  C30 UNL     1      -4.502  48.462 -25.155  1.00  0.00     0.021 C 
BRANCH  23  24
HETATM   24  C31 UNL     1      -3.460  48.955 -26.167  1.00  0.00     0.112 C 
BRANCH  24  25
HETATM   25  C32 UNL     1      -4.017  48.945 -27.573  1.00  0.00     0.258 C 
HETATM   26  O6  UNL     1      -3.591  49.622 -28.498  1.00  0.00    -0.265 OA
BRANCH  25  27
HETATM   27  O7  UNL     1      -5.035  48.042 -27.663  1.00  0.00    -0.326 OA
HETATM   28  C33 UNL     1      -5.630  47.957 -28.957  1.00  0.00     0.213 C 
ENDBRANCH  25  27
ENDBRANCH  24  25
ENDBRANCH  23  24
ENDBRANCH  15  23
BRANCH   1  29
HETATM   29  C7  UNL     1      -2.159  52.023 -23.586  1.00  0.00     0.055 C 
BRANCH  29  30
HETATM   30  C6  UNL     1      -1.674  52.352 -24.786  1.00  0.00     0.043 A 
HETATM   31  C4  UNL     1      -0.317  52.228 -25.285  1.00  0.00    -0.019 A 
HETATM   32  C3  UNL     1      -0.239  52.642 -26.571  1.00  0.00     0.039 A 
HETATM   33  C5  UNL     1       0.779  51.696 -24.421  1.00  0.00     0.052 C 
HETATM   34  C36 UNL     1      -1.626  53.087 -26.933  1.00  0.00     0.256 A 
HETATM   35  N4  UNL     1      -2.394  52.877 -25.812  1.00  0.00    -0.322 N 
HETATM   36  O8  UNL     1      -2.011  53.538 -27.996  1.00  0.00    -0.267 OA
HETATM   37  H38 UNL     1      -3.381  53.120 -25.757  1.00  0.00     0.169 HD
BRANCH  32  38
HETATM   38  C2  UNL     1       0.924  52.690 -27.425  1.00  0.00     0.007 C 
HETATM   39  C1  UNL     1       1.312  51.751 -28.296  1.00  0.00     0.012 C 
ENDBRANCH  32  38
ENDBRANCH  29  30
ENDBRANCH   1  29
BRANCH  13  40
HETATM   40  C20 UNL     1      -8.199  45.128 -22.882  1.00  0.00     0.115 C 
BRANCH  40  41
HETATM   41  C21 UNL     1      -8.402  45.619 -24.284  1.00  0.00     0.022 A 
HETATM   42  C22 UNL     1      -8.289  44.989 -25.517  1.00  0.00    -0.020 A 
HETATM   43  C25 UNL     1      -8.580  45.981 -26.523  1.00  0.00     0.040 A 
HETATM   44  C27 UNL     1      -8.874  47.164 -25.859  1.00  0.00     0.084 A 
HETATM   45  N2  UNL     1      -8.769  46.918 -24.513  1.00  0.00    -0.356 N 
HETATM   46  H24 UNL     1      -8.923  47.629 -23.806  1.00  0.00     0.166 HD
BRANCH  42  47
HETATM   47  C23 UNL     1      -7.917  43.555 -25.764  1.00  0.00     0.037 C 
HETATM   48  C24 UNL     1      -9.123  42.626 -25.740  1.00  0.00     0.010 C 
ENDBRANCH  42  47
BRANCH  43  49
HETATM   49  C26 UNL     1      -8.567  45.799 -27.969  1.00  0.00     0.273 C 
HETATM   50  O4  UNL     1      -9.470  45.261 -28.601  1.00  0.00    -0.301 OA
ENDBRANCH  43  49
BRANCH  44  51
HETATM   51  C28 UNL     1      -9.234  48.471 -26.359  1.00  0.00     0.288 C 
HETATM   52  O5  UNL     1     -10.216  49.091 -25.955  1.00  0.00    -0.300 OA
ENDBRANCH  44  51
ENDBRANCH  40  41
ENDBRANCH  13  40
TORSDOF 14
ENDMDL
MODEL 8
REMARK minimizedAffinity -8.301548
REMARK CNNscore 0.0825230852
REMARK CNNaffinity 6.96698141
REMARK  14 active torsions:
REMARK  status: ('A' for Active; 'I' for Inactive)
REMARK    1  A    between atoms: C2_2  and  C3_3 
REMARK    2  A    between atoms: C6_6  and  C7_7 
REMARK    3  A    between atoms: C7_7  and  C8_8 
REMARK    4  A    between atoms: C14_17  and  C15_18 
REMARK    5  A    between atoms: C15_18  and  O3_20 
REMARK    6  A    between atoms: C19_24  and  C20_25 
REMARK    7  A    between atoms: C20_25  and  C21_26 
REMARK    8  A    between atoms: C22_27  and  C23_28 
REMARK    9  A    between atoms: C25_30  and  C26_31 
REMARK   10  A    between atoms: C27_33  and  C28_34 
REMARK   11  A    between atoms: C29_38  and  C30_39 
REMARK   12  A    between atoms: C30_39  and  C31_40 
REMARK   13  A    between atoms: C31_40  and  C32_41 
REMARK   14  A    between atoms: C32_41  and  O7_43 
ROOT
HETATM    1  C8  UNL     1      -1.866  50.676 -23.644  1.00  0.00     0.016 C 
HETATM    2  N1  UNL     1      -2.544  49.682 -23.162  1.00  0.00    -0.362 N 
ATOM      3  H1  UNL     1      -2.197  48.981 -22.507  1.00  0.00     0.165 HD
HETATM    4  C9  UNL     1      -3.815  49.740 -23.688  1.00  0.00     0.024 C 
HETATM    5  C10 UNL     1      -4.776  48.921 -23.235  1.00  0.00     0.014 C 
HETATM    6  C11 UNL     1      -6.079  48.777 -23.753  1.00  0.00     0.056 A 
HETATM    7  C12 UNL     1      -6.702  47.642 -23.323  1.00  0.00     0.046 A 
HETATM    8  C13 UNL     1      -5.806  46.919 -22.438  1.00  0.00     0.180 C 
HETATM    9  O1  UNL     1      -6.005  45.797 -21.987  1.00  0.00    -0.291 OA
HETATM   10  C14 UNL     1      -4.545  47.794 -22.181  1.00  0.00     0.197 C 
HETATM   11  C17 UNL     1      -7.985  47.600 -23.894  1.00  0.00    -0.023 A 
HETATM   12  C18 UNL     1      -9.016  46.548 -23.686  1.00  0.00     0.051 C 
HETATM   13  C19 UNL     1      -8.097  48.777 -24.648  1.00  0.00     0.022 A 
HETATM   14  N3  UNL     1      -6.905  49.486 -24.546  1.00  0.00    -0.357 N 
HETATM   15  C29 UNL     1      -3.895  50.760 -24.805  1.00  0.00     0.046 C 
HETATM   16  C34 UNL     1      -2.643  51.615 -24.538  1.00  0.00     0.041 C 
HETATM   17  C35 UNL     1      -2.967  52.897 -23.774  1.00  0.00     0.017 C 
HETATM   18  H25 UNL     1      -6.731  50.385 -24.969  1.00  0.00     0.166 HD
ENDROOT
BRANCH  10  19
HETATM   19  C15 UNL     1      -4.573  48.339 -20.774  1.00  0.00     0.274 C 
HETATM   20  O2  UNL     1      -5.215  49.320 -20.410  1.00  0.00    -0.264 OA
BRANCH  19  21
HETATM   21  O3  UNL     1      -3.773  47.597 -19.951  1.00  0.00    -0.326 OA
HETATM   22  C16 UNL     1      -2.562  47.133 -20.562  1.00  0.00     0.213 C 
ENDBRANCH  19  21
ENDBRANCH  10  19
BRANCH  15  23
HETATM   23  C30 UNL     1      -3.885  50.141 -26.220  1.00  0.00     0.021 C 
BRANCH  23  24
HETATM   24  C31 UNL     1      -3.873  48.608 -26.284  1.00  0.00     0.112 C 
BRANCH  24  25
HETATM   25  C32 UNL     1      -4.825  48.097 -27.343  1.00  0.00     0.258 C 
HETATM   26  O6  UNL     1      -5.987  47.775 -27.140  1.00  0.00    -0.265 OA
BRANCH  25  27
HETATM   27  O7  UNL     1      -4.207  48.091 -28.558  1.00  0.00    -0.326 OA
HETATM   28  C33 UNL     1      -5.101  48.050 -29.669  1.00  0.00     0.213 C 
ENDBRANCH  25  27
ENDBRANCH  24  25
ENDBRANCH  23  24
ENDBRANCH  15  23
BRANCH   1  29
HETATM   29  C7  UNL     1      -0.433  50.942 -23.379  1.00  0.00     0.055 C 
BRANCH  29  30
HETATM   30  C6  UNL     1      -0.030  51.803 -22.442  1.00  0.00     0.043 A 
HETATM   31  C4  UNL     1      -0.202  51.730 -21.003  1.00  0.00    -0.019 A 
HETATM   32  C3  UNL     1       0.384  52.788 -20.395  1.00  0.00     0.039 A 
HETATM   33  C5  UNL     1      -0.939  50.597 -20.369  1.00  0.00     0.052 C 
HETATM   34  C36 UNL     1       0.960  53.619 -21.505  1.00  0.00     0.256 A 
HETATM   35  N4  UNL     1       0.660  52.952 -22.669  1.00  0.00    -0.322 N 
HETATM   36  O8  UNL     1       1.574  54.665 -21.411  1.00  0.00    -0.267 OA
HETATM   37  H38 UNL     1       0.902  53.304 -23.593  1.00  0.00     0.169 HD
BRANCH  32  38
HETATM   38  C2  UNL     1       0.432  53.095 -18.985  1.00  0.00     0.007 C 
HETATM   39  C1  UNL     1       0.610  52.223 -17.986  1.00  0.00     0.012 C 
ENDBRANCH  32  38
ENDBRANCH  29  30
ENDBRANCH   1  29
BRANCH  13  40
HETATM   40  C20 UNL     1      -9.241  49.320 -25.454  1.00  0.00     0.115 C 
BRANCH  40  41
HETATM   41  C21 UNL     1      -9.410  48.596 -26.755  1.00  0.00     0.022 A 
HETATM   42  C22 UNL     1     -10.168  47.487 -27.113  1.00  0.00    -0.020 A 
HETATM   43  C25 UNL     1      -9.903  47.230 -28.507  1.00  0.00     0.040 A 
HETATM   44  C27 UNL     1      -9.012  48.202 -28.941  1.00  0.00     0.084 A 
HETATM   45  N2  UNL     1      -8.737  49.017 -27.871  1.00  0.00    -0.356 N 
HETATM   46  H24 UNL     1      -8.098  49.802 -27.922  1.00  0.00     0.166 HD
BRANCH  42  47
HETATM   47  C23 UNL     1     -11.077  46.692 -26.219  1.00  0.00     0.037 C 
HETATM   48  C24 UNL     1     -12.507  47.213 -26.227  1.00  0.00     0.010 C 
ENDBRANCH  42  47
BRANCH  43  49
HETATM   49  C26 UNL     1     -10.452  46.156 -29.325  1.00  0.00     0.273 C 
HETATM   50  O4  UNL     1     -11.417  46.286 -30.071  1.00  0.00    -0.301 OA
ENDBRANCH  43  49
BRANCH  44  51
HETATM   51  C28 UNL     1      -8.409  48.430 -30.233  1.00  0.00     0.288 C 
HETATM   52  O5  UNL     1      -9.070  48.626 -31.252  1.00  0.00    -0.300 OA
ENDBRANCH  44  51
ENDBRANCH  40  41
ENDBRANCH  13  40
TORSDOF 14
ENDMDL
MODEL 9
REMARK minimizedAffinity -8.7946949
REMARK CNNscore 0.0822187513
REMARK CNNaffinity 5.84053421
REMARK  14 active torsions:
REMARK  status: ('A' for Active; 'I' for Inactive)
REMARK    1  A    between atoms: C2_2  and  C3_3 
REMARK    2  A    between atoms: C6_6  and  C7_7 
REMARK    3  A    between atoms: C7_7  and  C8_8 
REMARK    4  A    between atoms: C14_17  and  C15_18 
REMARK    5  A    between atoms: C15_18  and  O3_20 
REMARK    6  A    between atoms: C19_24  and  C20_25 
REMARK    7  A    between atoms: C20_25  and  C21_26 
REMARK    8  A    between atoms: C22_27  and  C23_28 
REMARK    9  A    between atoms: C25_30  and  C26_31 
REMARK   10  A    between atoms: C27_33  and  C28_34 
REMARK   11  A    between atoms: C29_38  and  C30_39 
REMARK   12  A    between atoms: C30_39  and  C31_40 
REMARK   13  A    between atoms: C31_40  and  C32_41 
REMARK   14  A    between atoms: C32_41  and  O7_43 
ROOT
HETATM    1  C8  UNL     1      -1.767  50.481 -22.666  1.00  0.00     0.016 C 
HETATM    2  N1  UNL     1      -2.503  49.524 -22.196  1.00  0.00    -0.362 N 
ATOM      3  H1  UNL     1      -2.322  48.991 -21.345  1.00  0.00     0.165 HD
HETATM    4  C9  UNL     1      -3.572  49.353 -23.046  1.00  0.00     0.024 C 
HETATM    5  C10 UNL     1      -4.579  48.531 -22.716  1.00  0.00     0.014 C 
HETATM    6  C11 UNL     1      -5.670  48.161 -23.526  1.00  0.00     0.056 A 
HETATM    7  C12 UNL     1      -6.332  47.062 -23.062  1.00  0.00     0.046 A 
HETATM    8  C13 UNL     1      -5.691  46.607 -21.841  1.00  0.00     0.180 C 
HETATM    9  O1  UNL     1      -5.953  45.568 -21.245  1.00  0.00    -0.291 OA
HETATM   10  C14 UNL     1      -4.602  47.642 -21.434  1.00  0.00     0.197 C 
HETATM   11  C17 UNL     1      -7.395  46.783 -23.938  1.00  0.00    -0.023 A 
HETATM   12  C18 UNL     1      -8.387  45.683 -23.810  1.00  0.00     0.051 C 
HETATM   13  C19 UNL     1      -7.346  47.789 -24.915  1.00  0.00     0.022 A 
HETATM   14  N3  UNL     1      -6.271  48.626 -24.639  1.00  0.00    -0.357 N 
HETATM   15  C29 UNL     1      -3.381  50.143 -24.324  1.00  0.00     0.046 C 
HETATM   16  C34 UNL     1      -2.303  51.159 -23.906  1.00  0.00     0.041 C 
HETATM   17  C35 UNL     1      -2.896  52.515 -23.532  1.00  0.00     0.017 C 
HETATM   18  H25 UNL     1      -6.028  49.449 -25.171  1.00  0.00     0.166 HD
ENDROOT
BRANCH  10  19
HETATM   19  C15 UNL     1      -5.058  48.423 -20.226  1.00  0.00     0.274 C 
HETATM   20  O2  UNL     1      -5.081  47.992 -19.076  1.00  0.00    -0.264 OA
BRANCH  19  21
HETATM   21  O3  UNL     1      -5.455  49.680 -20.583  1.00  0.00    -0.326 OA
HETATM   22  C16 UNL     1      -6.836  49.962 -20.321  1.00  0.00     0.213 C 
ENDBRANCH  19  21
ENDBRANCH  10  19
BRANCH  15  23
HETATM   23  C30 UNL     1      -2.936  49.285 -25.530  1.00  0.00     0.021 C 
BRANCH  23  24
HETATM   24  C31 UNL     1      -2.004  49.972 -26.537  1.00  0.00     0.112 C 
BRANCH  24  25
HETATM   25  C32 UNL     1      -2.792  50.725 -27.586  1.00  0.00     0.258 C 
HETATM   26  O6  UNL     1      -3.335  50.213 -28.553  1.00  0.00    -0.265 OA
BRANCH  25  27
HETATM   27  O7  UNL     1      -2.838  52.050 -27.267  1.00  0.00    -0.326 OA
HETATM   28  C33 UNL     1      -1.616  52.750 -27.495  1.00  0.00     0.213 C 
ENDBRANCH  25  27
ENDBRANCH  24  25
ENDBRANCH  23  24
ENDBRANCH  15  23
BRANCH   1  29
HETATM   29  C7  UNL     1      -0.485  50.939 -22.082  1.00  0.00     0.055 C 
BRANCH  29  30
HETATM   30  C6  UNL     1      -0.276  50.981 -20.764  1.00  0.00     0.043 A 
HETATM   31  C4  UNL     1       0.235  52.072 -19.956  1.00  0.00    -0.019 A 
HETATM   32  C3  UNL     1       0.265  51.728 -18.648  1.00  0.00     0.039 A 
HETATM   33  C5  UNL     1       0.644  53.367 -20.577  1.00  0.00     0.052 C 
HETATM   34  C36 UNL     1      -0.238  50.315 -18.594  1.00  0.00     0.256 A 
HETATM   35  N4  UNL     1      -0.528  49.969 -19.893  1.00  0.00    -0.322 N 
HETATM   36  O8  UNL     1      -0.374  49.609 -17.612  1.00  0.00    -0.267 OA
HETATM   37  H38 UNL     1      -0.861  49.046 -20.164  1.00  0.00     0.169 HD
BRANCH  32  38
HETATM   38  C2  UNL     1       0.713  52.519 -17.526  1.00  0.00     0.007 C 
HETATM   39  C1  UNL     1       1.860  52.371 -16.854  1.00  0.00     0.012 C 
ENDBRANCH  32  38
ENDBRANCH  29  30
ENDBRANCH   1  29
BRANCH  13  40
HETATM   40  C20 UNL     1      -8.238  48.056 -26.092  1.00  0.00     0.115 C 
BRANCH  40  41
HETATM   41  C21 UNL     1      -7.705  47.451 -27.355  1.00  0.00     0.022 A 
HETATM   42  C22 UNL     1      -7.931  46.225 -27.970  1.00  0.00    -0.020 A 
HETATM   43  C25 UNL     1      -7.111  46.193 -29.155  1.00  0.00     0.040 A 
HETATM   44  C27 UNL     1      -6.435  47.404 -29.220  1.00  0.00     0.084 A 
HETATM   45  N2  UNL     1      -6.816  48.147 -28.131  1.00  0.00    -0.356 N 
HETATM   46  H24 UNL     1      -6.453  49.074 -27.938  1.00  0.00     0.166 HD
BRANCH  42  47
HETATM   47  C23 UNL     1      -8.840  45.131 -27.487  1.00  0.00     0.037 C 
HETATM   48  C24 UNL     1     -10.302  45.398 -27.819  1.00  0.00     0.010 C 
ENDBRANCH  42  47
BRANCH  43  49
HETATM   49  C26 UNL     1      -6.992  45.102 -30.115  1.00  0.00     0.273 C 
HETATM   50  O4  UNL     1      -6.773  43.936 -29.805  1.00  0.00    -0.301 OA
ENDBRANCH  43  49
BRANCH  44  51
HETATM   51  C28 UNL     1      -5.489  47.915 -30.185  1.00  0.00     0.288 C 
HETATM   52  O5  UNL     1      -4.673  47.198 -30.761  1.00  0.00    -0.300 OA
ENDBRANCH  44  51
ENDBRANCH  40  41
ENDBRANCH  13  40
TORSDOF 14
ENDMDL
