MODEL 1
REMARK minimizedAffinity -9.83791924
REMARK CNNscore 0.691780508
REMARK CNNaffinity 7.4504528
REMARK  10 active torsions:
REMARK  status: ('A' for Active; 'I' for Inactive)
REMARK    1  A    between atoms: O1_2  and  C2_3 
REMARK    2  A    between atoms: C4_5  and  O2_6 
REMARK    3  A    between atoms: O2_6  and  C5_7 
REMARK    4  A    between atoms: C19_21  and  C20_22 
REMARK    5  A    between atoms: C24_28  and  O5_29 
REMARK    6  A    between atoms: O5_29  and  C25_30 
REMARK    7  A    between atoms: C25_30  and  C26_32 
REMARK    8  A    between atoms: C26_32  and  C27_33 
REMARK    9  A    between atoms: C31_37  and  O7_38 
REMARK   10  A    between atoms: C35_43  and  O9_44 
ROOT
HETATM    1  C5  UNL     1      -1.776  49.464 -15.624  1.00  0.00     0.125 C 
HETATM    2  C6  UNL     1      -0.677  49.247 -16.643  1.00  0.00     0.033 C 
HETATM    3  C7  UNL     1      -1.197  48.492 -17.861  1.00  0.00     0.012 C 
HETATM    4  C8  UNL     1      -2.621  48.906 -18.367  1.00  0.00    -0.036 C 
HETATM    5  C9  UNL     1      -3.634  47.806 -17.932  1.00  0.00     0.016 C 
HETATM    6  C10 UNL     1      -3.130  50.232 -17.717  1.00  0.00    -0.004 C 
HETATM    7  C11 UNL     1      -2.588  51.441 -18.476  1.00  0.00     0.006 C 
HETATM    8  C12 UNL     1      -3.174  51.507 -19.884  1.00  0.00     0.008 C 
HETATM    9  C13 UNL     1      -3.475  50.128 -20.527  1.00  0.00     0.026 C 
HETATM   10  C14 UNL     1      -2.540  49.043 -19.953  1.00  0.00     0.001 C 
HETATM   11  C15 UNL     1      -2.751  47.699 -20.667  1.00  0.00     0.007 C 
HETATM   12  C16 UNL     1      -2.546  47.828 -22.164  1.00  0.00     0.013 C 
HETATM   13  C17 UNL     1      -3.519  48.830 -22.838  1.00  0.00    -0.003 C 
HETATM   14  C18 UNL     1      -4.946  48.251 -22.839  1.00  0.00     0.019 C 
HETATM   15  C19 UNL     1      -2.913  49.142 -24.276  1.00  0.00     0.058 C 
HETATM   16  C24 UNL     1      -2.572  50.651 -24.241  1.00  0.00     0.144 C 
HETATM   17  C30 UNL     1      -2.344  50.944 -22.757  1.00  0.00     0.072 C 
HETATM   18  C31 UNL     1      -3.503  50.212 -22.088  1.00  0.00     0.072 C 
HETATM   19  C32 UNL     1      -2.881  50.352 -16.198  1.00  0.00     0.037 C 
ENDROOT
BRANCH   1  20
HETATM   20  O2  UNL     1      -1.213  50.126 -14.486  1.00  0.00    -0.356 OA
BRANCH  20  21
HETATM   21  C4  UNL     1      -2.192  50.736 -13.646  1.00  0.00     0.263 C 
HETATM   22  C3  UNL     1      -2.517  49.746 -12.531  1.00  0.00     0.095 C 
HETATM   23  C2  UNL     1      -3.508  50.329 -11.518  1.00  0.00     0.156 C 
HETATM   24  C35 UNL     1      -3.841  51.799 -11.824  1.00  0.00     0.175 C 
HETATM   25  C33 UNL     1      -2.567  52.596 -12.166  1.00  0.00     0.151 C 
HETATM   26  O8  UNL     1      -1.688  51.942 -13.085  1.00  0.00    -0.354 OA
HETATM   27  C34 UNL     1      -1.723  52.944 -10.939  1.00  0.00     0.042 C 
BRANCH  23  28
HETATM   28  O1  UNL     1      -4.738  49.580 -11.574  1.00  0.00    -0.388 OA
HETATM   29  C1  UNL     1      -4.620  48.290 -10.986  1.00  0.00     0.202 C 
ENDBRANCH  23  28
BRANCH  24  30
HETATM   30  O9  UNL     1      -4.541  52.388 -10.724  1.00  0.00    -0.390 OA
HETATM   31  H54 UNL     1      -5.202  52.999 -11.095  1.00  0.00     0.210 HD
ENDBRANCH  24  30
ENDBRANCH  20  21
ENDBRANCH   1  20
BRANCH  18  32
HETATM   32  O7  UNL     1      -4.692  50.942 -22.446  1.00  0.00    -0.389 OA
HETATM   33  H46 UNL     1      -4.647  51.832 -22.050  1.00  0.00     0.210 HD
ENDBRANCH  18  32
BRANCH  15  34
HETATM   34  C20 UNL     1      -3.605  48.665 -25.534  1.00  0.00    -0.043 A 
HETATM   35  C21 UNL     1      -3.098  48.591 -26.766  1.00  0.00     0.087 A 
HETATM   36  C22 UNL     1      -4.181  48.184 -27.664  1.00  0.00     0.283 A 
HETATM   37  O3  UNL     1      -4.061  48.011 -28.862  1.00  0.00    -0.260 OA
HETATM   38  O4  UNL     1      -5.330  48.055 -26.947  1.00  0.00    -0.314 OA
HETATM   39  C23 UNL     1      -5.059  48.345 -25.576  1.00  0.00     0.214 A 
ENDBRANCH  15  34
BRANCH  16  40
HETATM   40  O5  UNL     1      -1.373  50.901 -24.994  1.00  0.00    -0.315 OA
BRANCH  40  41
HETATM   41  C25 UNL     1      -1.428  51.962 -25.846  1.00  0.00     0.259 C 
HETATM   42  O6  UNL     1      -2.025  53.009 -25.635  1.00  0.00    -0.265 OA
BRANCH  41  43
HETATM   43  C26 UNL     1      -0.636  51.679 -27.099  1.00  0.00     0.115 C 
BRANCH  43  44
HETATM   44  C27 UNL     1       0.774  52.291 -27.107  1.00  0.00    -0.013 C 
HETATM   45  C28 UNL     1       1.655  51.723 -28.223  1.00  0.00     0.010 C 
HETATM   46  C29 UNL     1       1.470  52.152 -25.749  1.00  0.00     0.010 C 
ENDBRANCH  43  44
ENDBRANCH  41  43
ENDBRANCH  40  41
ENDBRANCH  16  40
TORSDOF 10
ENDMDL
MODEL 2
REMARK minimizedAffinity -8.37661552
REMARK CNNscore 0.579598546
REMARK CNNaffinity 7.68781996
REMARK  10 active torsions:
REMARK  status: ('A' for Active; 'I' for Inactive)
REMARK    1  A    between atoms: O1_2  and  C2_3 
REMARK    2  A    between atoms: C4_5  and  O2_6 
REMARK    3  A    between atoms: O2_6  and  C5_7 
REMARK    4  A    between atoms: C19_21  and  C20_22 
REMARK    5  A    between atoms: C24_28  and  O5_29 
REMARK    6  A    between atoms: O5_29  and  C25_30 
REMARK    7  A    between atoms: C25_30  and  C26_32 
REMARK    8  A    between atoms: C26_32  and  C27_33 
REMARK    9  A    between atoms: C31_37  and  O7_38 
REMARK   10  A    between atoms: C35_43  and  O9_44 
ROOT
HETATM    1  C5  UNL     1      -0.571  51.640 -22.471  1.00  0.00     0.125 C 
HETATM    2  C6  UNL     1      -1.895  51.917 -21.791  1.00  0.00     0.033 C 
HETATM    3  C7  UNL     1      -2.286  50.776 -20.860  1.00  0.00     0.012 C 
HETATM    4  C8  UNL     1      -1.123  50.154 -20.013  1.00  0.00    -0.036 C 
HETATM    5  C9  UNL     1      -0.738  48.783 -20.643  1.00  0.00     0.016 C 
HETATM    6  C10 UNL     1       0.178  51.017 -20.051  1.00  0.00    -0.004 C 
HETATM    7  C11 UNL     1       0.110  52.130 -19.006  1.00  0.00     0.006 C 
HETATM    8  C12 UNL     1       0.126  51.552 -17.593  1.00  0.00     0.008 C 
HETATM    9  C13 UNL     1      -0.560  50.169 -17.450  1.00  0.00     0.026 C 
HETATM   10  C14 UNL     1      -1.657  49.991 -18.521  1.00  0.00     0.001 C 
HETATM   11  C15 UNL     1      -2.421  48.674 -18.314  1.00  0.00     0.007 C 
HETATM   12  C16 UNL     1      -3.027  48.596 -16.925  1.00  0.00     0.013 C 
HETATM   13  C17 UNL     1      -1.976  48.667 -15.787  1.00  0.00    -0.003 C 
HETATM   14  C18 UNL     1      -1.147  47.369 -15.761  1.00  0.00     0.019 C 
HETATM   15  C19 UNL     1      -2.785  48.981 -14.453  1.00  0.00     0.058 C 
HETATM   16  C24 UNL     1      -2.270  50.368 -13.997  1.00  0.00     0.144 C 
HETATM   17  C30 UNL     1      -1.795  51.029 -15.292  1.00  0.00     0.072 C 
HETATM   18  C31 UNL     1      -1.027  49.905 -15.981  1.00  0.00     0.072 C 
HETATM   19  C32 UNL     1       0.560  51.563 -21.443  1.00  0.00     0.037 C 
ENDROOT
BRANCH   1  20
HETATM   20  O2  UNL     1      -0.289  52.718 -23.369  1.00  0.00    -0.356 OA
BRANCH  20  21
HETATM   21  C4  UNL     1      -0.651  52.437 -24.720  1.00  0.00     0.263 C 
HETATM   22  C3  UNL     1       0.481  51.622 -25.337  1.00  0.00     0.095 C 
HETATM   23  C2  UNL     1       0.164  51.196 -26.774  1.00  0.00     0.156 C 
HETATM   24  C35 UNL     1      -1.257  51.607 -27.193  1.00  0.00     0.175 C 
HETATM   25  C33 UNL     1      -2.275  51.294 -26.079  1.00  0.00     0.151 C 
HETATM   26  O8  UNL     1      -1.861  51.692 -24.769  1.00  0.00    -0.354 OA
HETATM   27  C34 UNL     1      -2.632  49.810 -25.984  1.00  0.00     0.042 C 
BRANCH  23  28
HETATM   28  O1  UNL     1       1.089  51.837 -27.674  1.00  0.00    -0.388 OA
HETATM   29  C1  UNL     1       2.437  51.749 -27.227  1.00  0.00     0.202 C 
ENDBRANCH  23  28
BRANCH  24  30
HETATM   30  O9  UNL     1      -1.618  50.967 -28.420  1.00  0.00    -0.390 OA
HETATM   31  H54 UNL     1      -2.150  51.601 -28.933  1.00  0.00     0.210 HD
ENDBRANCH  24  30
ENDBRANCH  20  21
ENDBRANCH   1  20
BRANCH  18  32
HETATM   32  O7  UNL     1       0.163  49.698 -15.196  1.00  0.00    -0.389 OA
HETATM   33  H46 UNL     1       0.718  50.499 -15.246  1.00  0.00     0.210 HD
ENDBRANCH  18  32
BRANCH  15  34
HETATM   34  C20 UNL     1      -2.911  47.946 -13.356  1.00  0.00    -0.043 A 
HETATM   35  C21 UNL     1      -3.940  47.131 -13.118  1.00  0.00     0.087 A 
HETATM   36  C22 UNL     1      -3.646  46.400 -11.884  1.00  0.00     0.283 A 
HETATM   37  O3  UNL     1      -4.374  45.563 -11.383  1.00  0.00    -0.260 OA
HETATM   38  O4  UNL     1      -2.453  46.823 -11.388  1.00  0.00    -0.314 OA
HETATM   39  C23 UNL     1      -1.910  47.814 -12.261  1.00  0.00     0.214 A 
ENDBRANCH  15  34
BRANCH  16  40
HETATM   40  O5  UNL     1      -3.344  51.122 -13.412  1.00  0.00    -0.315 OA
BRANCH  40  41
HETATM   41  C25 UNL     1      -3.322  51.212 -12.053  1.00  0.00     0.259 C 
HETATM   42  O6  UNL     1      -4.016  50.555 -11.289  1.00  0.00    -0.265 OA
BRANCH  41  43
HETATM   43  C26 UNL     1      -2.309  52.237 -11.604  1.00  0.00     0.115 C 
BRANCH  43  44
HETATM   44  C27 UNL     1      -2.692  52.981 -10.314  1.00  0.00    -0.013 C 
HETATM   45  C28 UNL     1      -3.820  53.993 -10.532  1.00  0.00     0.010 C 
HETATM   46  C29 UNL     1      -1.484  53.654  -9.656  1.00  0.00     0.010 C 
ENDBRANCH  43  44
ENDBRANCH  41  43
ENDBRANCH  40  41
ENDBRANCH  16  40
TORSDOF 10
ENDMDL
MODEL 3
REMARK minimizedAffinity -7.75838661
REMARK CNNscore 0.508913577
REMARK CNNaffinity 6.41710997
REMARK  10 active torsions:
REMARK  status: ('A' for Active; 'I' for Inactive)
REMARK    1  A    between atoms: O1_2  and  C2_3 
REMARK    2  A    between atoms: C4_5  and  O2_6 
REMARK    3  A    between atoms: O2_6  and  C5_7 
REMARK    4  A    between atoms: C19_21  and  C20_22 
REMARK    5  A    between atoms: C24_28  and  O5_29 
REMARK    6  A    between atoms: O5_29  and  C25_30 
REMARK    7  A    between atoms: C25_30  and  C26_32 
REMARK    8  A    between atoms: C26_32  and  C27_33 
REMARK    9  A    between atoms: C31_37  and  O7_38 
REMARK   10  A    between atoms: C35_43  and  O9_44 
ROOT
HETATM    1  C5  UNL     1     -14.311  46.480 -26.962  1.00  0.00     0.125 C 
HETATM    2  C6  UNL     1     -13.962  45.392 -27.956  1.00  0.00     0.033 C 
HETATM    3  C7  UNL     1     -13.114  45.941 -29.097  1.00  0.00     0.012 C 
HETATM    4  C8  UNL     1     -12.005  46.973 -28.693  1.00  0.00    -0.036 C 
HETATM    5  C9  UNL     1     -12.492  48.396 -29.096  1.00  0.00     0.016 C 
HETATM    6  C10 UNL     1     -11.767  47.027 -27.151  1.00  0.00    -0.004 C 
HETATM    7  C11 UNL     1     -10.798  45.928 -26.721  1.00  0.00     0.006 C 
HETATM    8  C12 UNL     1      -9.403  46.180 -27.290  1.00  0.00     0.008 C 
HETATM    9  C13 UNL     1      -9.383  46.878 -28.675  1.00  0.00     0.026 C 
HETATM   10  C14 UNL     1     -10.672  46.563 -29.463  1.00  0.00     0.001 C 
HETATM   11  C15 UNL     1     -10.610  47.154 -30.879  1.00  0.00     0.007 C 
HETATM   12  C16 UNL     1      -9.396  46.651 -31.638  1.00  0.00     0.013 C 
HETATM   13  C17 UNL     1      -8.049  47.016 -30.961  1.00  0.00    -0.003 C 
HETATM   14  C18 UNL     1      -7.798  48.531 -31.081  1.00  0.00     0.019 C 
HETATM   15  C19 UNL     1      -6.945  46.090 -31.637  1.00  0.00     0.058 C 
HETATM   16  C24 UNL     1      -6.422  45.196 -30.486  1.00  0.00     0.144 C 
HETATM   17  C30 UNL     1      -7.591  45.140 -29.502  1.00  0.00     0.072 C 
HETATM   18  C31 UNL     1      -8.054  46.592 -29.447  1.00  0.00     0.072 C 
HETATM   19  C32 UNL     1     -13.049  47.026 -26.291  1.00  0.00     0.037 C 
ENDROOT
BRANCH   1  20
HETATM   20  O2  UNL     1     -15.150  45.915 -25.949  1.00  0.00    -0.356 OA
BRANCH  20  21
HETATM   21  C4  UNL     1     -16.127  45.012 -26.464  1.00  0.00     0.263 C 
HETATM   22  C3  UNL     1     -16.209  43.831 -25.502  1.00  0.00     0.095 C 
HETATM   23  C2  UNL     1     -17.289  42.827 -25.918  1.00  0.00     0.156 C 
HETATM   24  C35 UNL     1     -18.088  43.318 -27.137  1.00  0.00     0.175 C 
HETATM   25  C33 UNL     1     -18.466  44.804 -26.991  1.00  0.00     0.151 C 
HETATM   26  O8  UNL     1     -17.396  45.647 -26.554  1.00  0.00    -0.354 OA
HETATM   27  C34 UNL     1     -19.624  45.041 -26.020  1.00  0.00     0.042 C 
BRANCH  23  28
HETATM   28  O1  UNL     1     -16.664  41.579 -26.276  1.00  0.00    -0.388 OA
HETATM   29  C1  UNL     1     -15.621  41.213 -25.380  1.00  0.00     0.202 C 
ENDBRANCH  23  28
BRANCH  24  30
HETATM   30  O9  UNL     1     -19.248  42.504 -27.331  1.00  0.00    -0.390 OA
HETATM   31  H54 UNL     1     -19.381  42.411 -28.291  1.00  0.00     0.210 HD
ENDBRANCH  24  30
ENDBRANCH  20  21
ENDBRANCH   1  20
BRANCH  18  32
HETATM   32  O7  UNL     1      -7.011  47.315 -28.765  1.00  0.00    -0.389 OA
HETATM   33  H46 UNL     1      -6.955  46.996 -27.845  1.00  0.00     0.210 HD
ENDBRANCH  18  32
BRANCH  15  34
HETATM   34  C20 UNL     1      -5.878  46.678 -32.535  1.00  0.00    -0.043 A 
HETATM   35  C21 UNL     1      -4.596  46.899 -32.241  1.00  0.00     0.087 A 
HETATM   36  C22 UNL     1      -3.995  47.587 -33.386  1.00  0.00     0.283 A 
HETATM   37  O3  UNL     1      -2.830  47.931 -33.456  1.00  0.00    -0.260 OA
HETATM   38  O4  UNL     1      -4.948  47.793 -34.334  1.00  0.00    -0.314 OA
HETATM   39  C23 UNL     1      -6.186  47.247 -33.876  1.00  0.00     0.214 A 
ENDBRANCH  15  34
BRANCH  16  40
HETATM   40  O5  UNL     1      -6.120  43.883 -30.985  1.00  0.00    -0.315 OA
BRANCH  40  41
HETATM   41  C25 UNL     1      -6.095  43.763 -32.342  1.00  0.00     0.259 C 
HETATM   42  O6  UNL     1      -7.077  43.780 -33.072  1.00  0.00    -0.265 OA
BRANCH  41  43
HETATM   43  C26 UNL     1      -4.676  43.616 -32.837  1.00  0.00     0.115 C 
BRANCH  43  44
HETATM   44  C27 UNL     1      -4.309  42.193 -33.286  1.00  0.00    -0.013 C 
HETATM   45  C28 UNL     1      -3.877  42.132 -34.753  1.00  0.00     0.010 C 
HETATM   46  C29 UNL     1      -5.438  41.193 -33.015  1.00  0.00     0.010 C 
ENDBRANCH  43  44
ENDBRANCH  41  43
ENDBRANCH  40  41
ENDBRANCH  16  40
TORSDOF 10
ENDMDL
MODEL 4
REMARK minimizedAffinity -8.42896748
REMARK CNNscore 0.450110018
REMARK CNNaffinity 6.41583824
REMARK  10 active torsions:
REMARK  status: ('A' for Active; 'I' for Inactive)
REMARK    1  A    between atoms: O1_2  and  C2_3 
REMARK    2  A    between atoms: C4_5  and  O2_6 
REMARK    3  A    between atoms: O2_6  and  C5_7 
REMARK    4  A    between atoms: C19_21  and  C20_22 
REMARK    5  A    between atoms: C24_28  and  O5_29 
REMARK    6  A    between atoms: O5_29  and  C25_30 
REMARK    7  A    between atoms: C25_30  and  C26_32 
REMARK    8  A    between atoms: C26_32  and  C27_33 
REMARK    9  A    between atoms: C31_37  and  O7_38 
REMARK   10  A    between atoms: C35_43  and  O9_44 
ROOT
HETATM    1  C5  UNL     1      -9.215  46.753 -21.598  1.00  0.00     0.125 C 
HETATM    2  C6  UNL     1      -8.739  47.717 -22.666  1.00  0.00     0.033 C 
HETATM    3  C7  UNL     1      -7.919  48.848 -22.059  1.00  0.00     0.012 C 
HETATM    4  C8  UNL     1      -6.924  48.439 -20.918  1.00  0.00    -0.036 C 
HETATM    5  C9  UNL     1      -7.534  48.881 -19.556  1.00  0.00     0.016 C 
HETATM    6  C10 UNL     1      -6.732  46.892 -20.814  1.00  0.00    -0.004 C 
HETATM    7  C11 UNL     1      -5.673  46.418 -21.808  1.00  0.00     0.006 C 
HETATM    8  C12 UNL     1      -4.295  46.959 -21.435  1.00  0.00     0.008 C 
HETATM    9  C13 UNL     1      -4.306  48.356 -20.762  1.00  0.00     0.026 C 
HETATM   10  C14 UNL     1      -5.538  49.168 -21.212  1.00  0.00     0.001 C 
HETATM   11  C15 UNL     1      -5.497  50.595 -20.643  1.00  0.00     0.007 C 
HETATM   12  C16 UNL     1      -4.222  51.314 -21.041  1.00  0.00     0.013 C 
HETATM   13  C17 UNL     1      -2.933  50.612 -20.538  1.00  0.00    -0.003 C 
HETATM   14  C18 UNL     1      -2.824  50.757 -19.008  1.00  0.00     0.019 C 
HETATM   15  C19 UNL     1      -1.730  51.244 -21.365  1.00  0.00     0.058 C 
HETATM   16  C24 UNL     1      -1.153  50.064 -22.185  1.00  0.00     0.144 C 
HETATM   17  C30 UNL     1      -2.336  49.107 -22.335  1.00  0.00     0.072 C 
HETATM   18  C31 UNL     1      -2.936  49.091 -20.933  1.00  0.00     0.072 C 
HETATM   19  C32 UNL     1      -8.029  46.063 -20.923  1.00  0.00     0.037 C 
ENDROOT
BRANCH   1  20
HETATM   20  O2  UNL     1     -10.022  45.749 -22.223  1.00  0.00    -0.356 OA
BRANCH  20  21
HETATM   21  C4  UNL     1     -10.905  46.270 -23.216  1.00  0.00     0.263 C 
HETATM   22  C3  UNL     1     -10.821  45.351 -24.430  1.00  0.00     0.095 C 
HETATM   23  C2  UNL     1     -11.791  45.774 -25.538  1.00  0.00     0.156 C 
HETATM   24  C35 UNL     1     -12.678  46.953 -25.103  1.00  0.00     0.175 C 
HETATM   25  C33 UNL     1     -13.219  46.742 -23.676  1.00  0.00     0.151 C 
HETATM   26  O8  UNL     1     -12.241  46.303 -22.729  1.00  0.00    -0.354 OA
HETATM   27  C34 UNL     1     -14.367  45.733 -23.607  1.00  0.00     0.042 C 
BRANCH  23  28
HETATM   28  O1  UNL     1     -11.038  46.193 -26.692  1.00  0.00    -0.388 OA
HETATM   29  C1  UNL     1     -11.214  45.325 -27.805  1.00  0.00     0.202 C 
ENDBRANCH  23  28
BRANCH  24  30
HETATM   30  O9  UNL     1     -13.742  47.145 -26.039  1.00  0.00    -0.390 OA
HETATM   31  H54 UNL     1     -13.893  48.104 -26.114  1.00  0.00     0.210 HD
ENDBRANCH  24  30
ENDBRANCH  20  21
ENDBRANCH   1  20
BRANCH  18  32
HETATM   32  O7  UNL     1      -1.984  48.399 -20.102  1.00  0.00    -0.389 OA
HETATM   33  H46 UNL     1      -1.922  47.472 -20.398  1.00  0.00     0.210 HD
ENDBRANCH  18  32
BRANCH  15  34
HETATM   34  C20 UNL     1      -0.701  52.128 -20.695  1.00  0.00    -0.043 A 
HETATM   35  C21 UNL     1       0.099  53.029 -21.268  1.00  0.00     0.087 A 
HETATM   36  C22 UNL     1       0.997  53.542 -20.232  1.00  0.00     0.283 A 
HETATM   37  O3  UNL     1       1.852  54.390 -20.412  1.00  0.00    -0.260 OA
HETATM   38  O4  UNL     1       0.734  52.907 -19.059  1.00  0.00    -0.314 OA
HETATM   39  C23 UNL     1      -0.335  51.983 -19.259  1.00  0.00     0.214 A 
ENDBRANCH  15  34
BRANCH  16  40
HETATM   40  O5  UNL     1      -0.715  50.529 -23.472  1.00  0.00    -0.315 OA
BRANCH  40  41
HETATM   41  C25 UNL     1      -1.694  51.026 -24.279  1.00  0.00     0.259 C 
HETATM   42  O6  UNL     1      -2.704  50.425 -24.618  1.00  0.00    -0.265 OA
BRANCH  41  43
HETATM   43  C26 UNL     1      -1.371  52.440 -24.699  1.00  0.00     0.115 C 
BRANCH  43  44
HETATM   44  C27 UNL     1       0.124  52.703 -24.934  1.00  0.00    -0.013 C 
HETATM   45  C28 UNL     1       0.487  54.186 -24.811  1.00  0.00     0.010 C 
HETATM   46  C29 UNL     1       0.606  52.140 -26.275  1.00  0.00     0.010 C 
ENDBRANCH  43  44
ENDBRANCH  41  43
ENDBRANCH  40  41
ENDBRANCH  16  40
TORSDOF 10
ENDMDL
MODEL 5
REMARK minimizedAffinity -7.75520372
REMARK CNNscore 0.442539573
REMARK CNNaffinity 7.26419783
REMARK  10 active torsions:
REMARK  status: ('A' for Active; 'I' for Inactive)
REMARK    1  A    between atoms: O1_2  and  C2_3 
REMARK    2  A    between atoms: C4_5  and  O2_6 
REMARK    3  A    between atoms: O2_6  and  C5_7 
REMARK    4  A    between atoms: C19_21  and  C20_22 
REMARK    5  A    between atoms: C24_28  and  O5_29 
REMARK    6  A    between atoms: O5_29  and  C25_30 
REMARK    7  A    between atoms: C25_30  and  C26_32 
REMARK    8  A    between atoms: C26_32  and  C27_33 
REMARK    9  A    between atoms: C31_37  and  O7_38 
REMARK   10  A    between atoms: C35_43  and  O9_44 
ROOT
HETATM    1  C5  UNL     1      -1.793  51.517 -22.814  1.00  0.00     0.125 C 
HETATM    2  C6  UNL     1      -3.061  50.846 -23.298  1.00  0.00     0.033 C 
HETATM    3  C7  UNL     1      -3.141  49.404 -22.812  1.00  0.00     0.012 C 
HETATM    4  C8  UNL     1      -2.674  49.151 -21.337  1.00  0.00    -0.036 C 
HETATM    5  C9  UNL     1      -1.267  48.486 -21.378  1.00  0.00     0.016 C 
HETATM    6  C10 UNL     1      -2.494  50.474 -20.528  1.00  0.00    -0.004 C 
HETATM    7  C11 UNL     1      -3.831  50.932 -19.948  1.00  0.00     0.006 C 
HETATM    8  C12 UNL     1      -4.330  49.951 -18.890  1.00  0.00     0.008 C 
HETATM    9  C13 UNL     1      -3.941  48.471 -19.142  1.00  0.00     0.026 C 
HETATM   10  C14 UNL     1      -3.757  48.205 -20.651  1.00  0.00     0.001 C 
HETATM   11  C15 UNL     1      -3.487  46.717 -20.920  1.00  0.00     0.007 C 
HETATM   12  C16 UNL     1      -4.596  45.842 -20.366  1.00  0.00     0.013 C 
HETATM   13  C17 UNL     1      -4.780  45.976 -18.832  1.00  0.00    -0.003 C 
HETATM   14  C18 UNL     1      -3.583  45.335 -18.105  1.00  0.00     0.019 C 
HETATM   15  C19 UNL     1      -6.198  45.335 -18.496  1.00  0.00     0.058 C 
HETATM   16  C24 UNL     1      -7.040  46.511 -17.945  1.00  0.00     0.144 C 
HETATM   17  C30 UNL     1      -6.408  47.749 -18.581  1.00  0.00     0.072 C 
HETATM   18  C31 UNL     1      -4.914  47.486 -18.416  1.00  0.00     0.072 C 
HETATM   19  C32 UNL     1      -1.780  51.614 -21.287  1.00  0.00     0.037 C 
ENDROOT
BRANCH   1  20
HETATM   20  O2  UNL     1      -1.752  52.845 -23.347  1.00  0.00    -0.356 OA
BRANCH  20  21
HETATM   21  C4  UNL     1      -1.315  52.895 -24.705  1.00  0.00     0.263 C 
HETATM   22  C3  UNL     1      -0.136  51.937 -24.841  1.00  0.00     0.095 C 
HETATM   23  C2  UNL     1       0.370  51.851 -26.285  1.00  0.00     0.156 C 
HETATM   24  C35 UNL     1      -0.506  52.671 -27.247  1.00  0.00     0.175 C 
HETATM   25  C33 UNL     1      -2.003  52.442 -26.966  1.00  0.00     0.151 C 
HETATM   26  O8  UNL     1      -2.361  52.497 -25.582  1.00  0.00    -0.354 OA
HETATM   27  C34 UNL     1      -2.520  51.100 -27.489  1.00  0.00     0.042 C 
BRANCH  23  28
HETATM   28  O1  UNL     1       1.708  52.381 -26.350  1.00  0.00    -0.388 OA
HETATM   29  C1  UNL     1       2.665  51.402 -26.738  1.00  0.00     0.202 C 
ENDBRANCH  23  28
BRANCH  24  30
HETATM   30  O9  UNL     1      -0.180  52.357 -28.604  1.00  0.00    -0.390 OA
HETATM   31  H54 UNL     1      -0.250  53.181 -29.118  1.00  0.00     0.210 HD
ENDBRANCH  24  30
ENDBRANCH  20  21
ENDBRANCH   1  20
BRANCH  18  32
HETATM   32  O7  UNL     1      -4.645  47.598 -17.005  1.00  0.00    -0.389 OA
HETATM   33  H46 UNL     1      -4.808  48.519 -16.725  1.00  0.00     0.210 HD
ENDBRANCH  18  32
BRANCH  15  34
HETATM   34  C20 UNL     1      -6.305  44.043 -17.717  1.00  0.00    -0.043 A 
HETATM   35  C21 UNL     1      -6.438  43.894 -16.398  1.00  0.00     0.087 A 
HETATM   36  C22 UNL     1      -6.379  42.460 -16.109  1.00  0.00     0.283 A 
HETATM   37  O3  UNL     1      -6.478  41.970 -14.999  1.00  0.00    -0.260 OA
HETATM   38  O4  UNL     1      -6.177  41.778 -17.269  1.00  0.00    -0.314 OA
HETATM   39  C23 UNL     1      -6.114  42.708 -18.350  1.00  0.00     0.214 A 
ENDBRANCH  15  34
BRANCH  16  40
HETATM   40  O5  UNL     1      -8.408  46.373 -18.364  1.00  0.00    -0.315 OA
BRANCH  40  41
HETATM   41  C25 UNL     1      -9.275  47.285 -17.842  1.00  0.00     0.259 C 
HETATM   42  O6  UNL     1      -9.447  47.495 -16.648  1.00  0.00    -0.265 OA
BRANCH  41  43
HETATM   43  C26 UNL     1     -10.001  48.021 -18.942  1.00  0.00     0.115 C 
BRANCH  43  44
HETATM   44  C27 UNL     1     -11.208  47.265 -19.518  1.00  0.00    -0.013 C 
HETATM   45  C28 UNL     1     -10.945  46.720 -20.924  1.00  0.00     0.010 C 
HETATM   46  C29 UNL     1     -12.483  48.115 -19.499  1.00  0.00     0.010 C 
ENDBRANCH  43  44
ENDBRANCH  41  43
ENDBRANCH  40  41
ENDBRANCH  16  40
TORSDOF 10
ENDMDL
MODEL 6
REMARK minimizedAffinity -10.0384083
REMARK CNNscore 0.417298585
REMARK CNNaffinity 7.43194246
REMARK  10 active torsions:
REMARK  status: ('A' for Active; 'I' for Inactive)
REMARK    1  A    between atoms: O1_2  and  C2_3 
REMARK    2  A    between atoms: C4_5  and  O2_6 
REMARK    3  A    between atoms: O2_6  and  C5_7 
REMARK    4  A    between atoms: C19_21  and  C20_22 
REMARK    5  A    between atoms: C24_28  and  O5_29 
REMARK    6  A    between atoms: O5_29  and  C25_30 
REMARK    7  A    between atoms: C25_30  and  C26_32 
REMARK    8  A    between atoms: C26_32  and  C27_33 
REMARK    9  A    between atoms: C31_37  and  O7_38 
REMARK   10  A    between atoms: C35_43  and  O9_44 
ROOT
HETATM    1  C5  UNL     1      -1.131  49.641 -15.653  1.00  0.00     0.125 C 
HETATM    2  C6  UNL     1      -0.094  49.553 -16.753  1.00  0.00     0.033 C 
HETATM    3  C7  UNL     1      -0.622  48.762 -17.944  1.00  0.00     0.012 C 
HETATM    4  C8  UNL     1      -2.116  49.031 -18.338  1.00  0.00    -0.036 C 
HETATM    5  C9  UNL     1      -2.974  47.826 -17.852  1.00  0.00     0.016 C 
HETATM    6  C10 UNL     1      -2.709  50.288 -17.626  1.00  0.00    -0.004 C 
HETATM    7  C11 UNL     1      -2.353  51.556 -18.400  1.00  0.00     0.006 C 
HETATM    8  C12 UNL     1      -3.046  51.577 -19.760  1.00  0.00     0.008 C 
HETATM    9  C13 UNL     1      -3.249  50.181 -20.406  1.00  0.00     0.026 C 
HETATM   10  C14 UNL     1      -2.167  49.194 -19.922  1.00  0.00     0.001 C 
HETATM   11  C15 UNL     1      -2.290  47.843 -20.644  1.00  0.00     0.007 C 
HETATM   12  C16 UNL     1      -2.211  48.010 -22.151  1.00  0.00     0.013 C 
HETATM   13  C17 UNL     1      -3.330  48.913 -22.732  1.00  0.00    -0.003 C 
HETATM   14  C18 UNL     1      -4.686  48.187 -22.641  1.00  0.00     0.019 C 
HETATM   15  C19 UNL     1      -2.868  49.303 -24.204  1.00  0.00     0.058 C 
HETATM   16  C24 UNL     1      -2.684  50.839 -24.165  1.00  0.00     0.144 C 
HETATM   17  C30 UNL     1      -2.378  51.137 -22.696  1.00  0.00     0.072 C 
HETATM   18  C31 UNL     1      -3.402  50.279 -21.959  1.00  0.00     0.072 C 
HETATM   19  C32 UNL     1      -2.362  50.416 -16.128  1.00  0.00     0.037 C 
ENDROOT
BRANCH   1  20
HETATM   20  O2  UNL     1      -0.557  50.346 -14.547  1.00  0.00    -0.356 OA
BRANCH  20  21
HETATM   21  C4  UNL     1       0.847  50.133 -14.408  1.00  0.00     0.263 C 
HETATM   22  C3  UNL     1       1.495  51.494 -14.174  1.00  0.00     0.095 C 
HETATM   23  C2  UNL     1       3.004  51.378 -13.934  1.00  0.00     0.156 C 
HETATM   24  C35 UNL     1       3.464  49.911 -13.885  1.00  0.00     0.175 C 
HETATM   25  C33 UNL     1       2.504  49.057 -13.034  1.00  0.00     0.151 C 
HETATM   26  O8  UNL     1       1.117  49.277 -13.305  1.00  0.00    -0.354 OA
HETATM   27  C34 UNL     1       2.684  49.262 -11.529  1.00  0.00     0.042 C 
BRANCH  23  28
HETATM   28  O1  UNL     1       3.706  52.022 -15.014  1.00  0.00    -0.388 OA
HETATM   29  C1  UNL     1       2.871  52.273 -16.138  1.00  0.00     0.202 C 
ENDBRANCH  23  28
BRANCH  24  30
HETATM   30  O9  UNL     1       4.805  49.828 -13.394  1.00  0.00    -0.390 OA
HETATM   31  H54 UNL     1       5.248  49.111 -13.882  1.00  0.00     0.210 HD
ENDBRANCH  24  30
ENDBRANCH  20  21
ENDBRANCH   1  20
BRANCH  18  32
HETATM   32  O7  UNL     1      -4.684  50.885 -22.215  1.00  0.00    -0.389 OA
HETATM   33  H46 UNL     1      -4.702  51.771 -21.807  1.00  0.00     0.210 HD
ENDBRANCH  18  32
BRANCH  15  34
HETATM   34  C20 UNL     1      -3.599  48.770 -25.418  1.00  0.00    -0.043 A 
HETATM   35  C21 UNL     1      -3.118  48.603 -26.650  1.00  0.00     0.087 A 
HETATM   36  C22 UNL     1      -4.230  48.176 -27.502  1.00  0.00     0.283 A 
HETATM   37  O3  UNL     1      -4.138  47.924 -28.689  1.00  0.00    -0.260 OA
HETATM   38  O4  UNL     1      -5.368  48.130 -26.760  1.00  0.00    -0.314 OA
HETATM   39  C23 UNL     1      -5.063  48.497 -25.415  1.00  0.00     0.214 A 
ENDBRANCH  15  34
BRANCH  16  40
HETATM   40  O5  UNL     1      -1.577  51.222 -24.998  1.00  0.00    -0.315 OA
BRANCH  40  41
HETATM   41  C25 UNL     1      -1.698  52.431 -25.613  1.00  0.00     0.259 C 
HETATM   42  O6  UNL     1      -2.743  52.907 -26.038  1.00  0.00    -0.265 OA
BRANCH  41  43
HETATM   43  C26 UNL     1      -0.360  53.123 -25.696  1.00  0.00     0.115 C 
BRANCH  43  44
HETATM   44  C27 UNL     1       0.307  53.045 -27.078  1.00  0.00    -0.013 C 
HETATM   45  C28 UNL     1      -0.435  53.866 -28.136  1.00  0.00     0.010 C 
HETATM   46  C29 UNL     1       0.492  51.599 -27.549  1.00  0.00     0.010 C 
ENDBRANCH  43  44
ENDBRANCH  41  43
ENDBRANCH  40  41
ENDBRANCH  16  40
TORSDOF 10
ENDMDL
MODEL 7
REMARK minimizedAffinity -9.89698505
REMARK CNNscore 0.397509605
REMARK CNNaffinity 7.21410608
REMARK  10 active torsions:
REMARK  status: ('A' for Active; 'I' for Inactive)
REMARK    1  A    between atoms: O1_2  and  C2_3 
REMARK    2  A    between atoms: C4_5  and  O2_6 
REMARK    3  A    between atoms: O2_6  and  C5_7 
REMARK    4  A    between atoms: C19_21  and  C20_22 
REMARK    5  A    between atoms: C24_28  and  O5_29 
REMARK    6  A    between atoms: O5_29  and  C25_30 
REMARK    7  A    between atoms: C25_30  and  C26_32 
REMARK    8  A    between atoms: C26_32  and  C27_33 
REMARK    9  A    between atoms: C31_37  and  O7_38 
REMARK   10  A    between atoms: C35_43  and  O9_44 
ROOT
HETATM    1  C5  UNL     1      -8.718  47.648 -23.920  1.00  0.00     0.125 C 
HETATM    2  C6  UNL     1      -8.451  49.107 -24.230  1.00  0.00     0.033 C 
HETATM    3  C7  UNL     1      -7.598  49.753 -23.144  1.00  0.00     0.012 C 
HETATM    4  C8  UNL     1      -6.426  48.878 -22.582  1.00  0.00    -0.036 C 
HETATM    5  C9  UNL     1      -6.841  48.348 -21.178  1.00  0.00     0.016 C 
HETATM    6  C10 UNL     1      -6.152  47.609 -23.450  1.00  0.00    -0.004 C 
HETATM    7  C11 UNL     1      -5.236  47.952 -24.623  1.00  0.00     0.006 C 
HETATM    8  C12 UNL     1      -3.842  48.336 -24.132  1.00  0.00     0.008 C 
HETATM    9  C13 UNL     1      -3.813  49.050 -22.755  1.00  0.00     0.026 C 
HETATM   10  C14 UNL     1      -5.134  49.808 -22.506  1.00  0.00     0.001 C 
HETATM   11  C15 UNL     1      -5.069  50.612 -21.199  1.00  0.00     0.007 C 
HETATM   12  C16 UNL     1      -3.902  51.582 -21.201  1.00  0.00     0.013 C 
HETATM   13  C17 UNL     1      -2.523  50.887 -21.347  1.00  0.00    -0.003 C 
HETATM   14  C18 UNL     1      -2.190  50.112 -20.059  1.00  0.00     0.019 C 
HETATM   15  C19 UNL     1      -1.487  52.032 -21.736  1.00  0.00     0.058 C 
HETATM   16  C24 UNL     1      -0.991  51.649 -23.151  1.00  0.00     0.144 C 
HETATM   17  C30 UNL     1      -2.139  50.826 -23.736  1.00  0.00     0.072 C 
HETATM   18  C31 UNL     1      -2.519  49.909 -22.577  1.00  0.00     0.072 C 
HETATM   19  C32 UNL     1      -7.413  46.849 -23.913  1.00  0.00     0.037 C 
ENDROOT
BRANCH   1  20
HETATM   20  O2  UNL     1      -9.565  47.116 -24.944  1.00  0.00    -0.356 OA
BRANCH  20  21
HETATM   21  C4  UNL     1      -8.951  47.096 -26.231  1.00  0.00     0.263 C 
HETATM   22  C3  UNL     1      -9.399  48.351 -26.971  1.00  0.00     0.095 C 
HETATM   23  C2  UNL     1      -8.736  48.474 -28.347  1.00  0.00     0.156 C 
HETATM   24  C35 UNL     1      -7.707  47.357 -28.588  1.00  0.00     0.175 C 
HETATM   25  C33 UNL     1      -6.819  47.145 -27.347  1.00  0.00     0.151 C 
HETATM   26  O8  UNL     1      -7.533  47.091 -26.109  1.00  0.00    -0.354 OA
HETATM   27  C34 UNL     1      -5.748  48.223 -27.178  1.00  0.00     0.042 C 
BRANCH  23  28
HETATM   28  O1  UNL     1      -9.745  48.369 -29.371  1.00  0.00    -0.388 OA
HETATM   29  C1  UNL     1      -9.192  48.145 -30.663  1.00  0.00     0.202 C 
ENDBRANCH  23  28
BRANCH  24  30
HETATM   30  O9  UNL     1      -6.919  47.649 -29.746  1.00  0.00    -0.390 OA
HETATM   31  H54 UNL     1      -6.745  46.805 -30.199  1.00  0.00     0.210 HD
ENDBRANCH  24  30
ENDBRANCH  20  21
ENDBRANCH   1  20
BRANCH  18  32
HETATM   32  O7  UNL     1      -1.423  48.986 -22.426  1.00  0.00    -0.389 OA
HETATM   33  H46 UNL     1      -1.365  48.431 -23.226  1.00  0.00     0.210 HD
ENDBRANCH  18  32
BRANCH  15  34
HETATM   34  C20 UNL     1      -0.409  52.469 -20.769  1.00  0.00    -0.043 A 
HETATM   35  C21 UNL     1      -0.205  52.036 -19.524  1.00  0.00     0.087 A 
HETATM   36  C22 UNL     1       0.878  52.837 -18.951  1.00  0.00     0.283 A 
HETATM   37  O3  UNL     1       1.325  52.698 -17.828  1.00  0.00    -0.260 OA
HETATM   38  O4  UNL     1       1.279  53.763 -19.863  1.00  0.00    -0.314 OA
HETATM   39  C23 UNL     1       0.510  53.605 -21.056  1.00  0.00     0.214 A 
ENDBRANCH  15  34
BRANCH  16  40
HETATM   40  O5  UNL     1      -0.773  52.836 -23.932  1.00  0.00    -0.315 OA
BRANCH  40  41
HETATM   41  C25 UNL     1       0.398  52.873 -24.627  1.00  0.00     0.259 C 
HETATM   42  O6  UNL     1       1.309  53.668 -24.437  1.00  0.00    -0.265 OA
BRANCH  41  43
HETATM   43  C26 UNL     1       0.433  51.783 -25.671  1.00  0.00     0.115 C 
BRANCH  43  44
HETATM   44  C27 UNL     1       1.300  52.110 -26.896  1.00  0.00    -0.013 C 
HETATM   45  C28 UNL     1       0.586  51.814 -28.218  1.00  0.00     0.010 C 
HETATM   46  C29 UNL     1       2.658  51.401 -26.848  1.00  0.00     0.010 C 
ENDBRANCH  43  44
ENDBRANCH  41  43
ENDBRANCH  40  41
ENDBRANCH  16  40
TORSDOF 10
ENDMDL
MODEL 8
REMARK minimizedAffinity -7.9335947
REMARK CNNscore 0.384391665
REMARK CNNaffinity 6.11810541
REMARK  10 active torsions:
REMARK  status: ('A' for Active; 'I' for Inactive)
REMARK    1  A    between atoms: O1_2  and  C2_3 
REMARK    2  A    between atoms: C4_5  and  O2_6 
REMARK    3  A    between atoms: O2_6  and  C5_7 
REMARK    4  A    between atoms: C19_21  and  C20_22 
REMARK    5  A    between atoms: C24_28  and  O5_29 
REMARK    6  A    between atoms: O5_29  and  C25_30 
REMARK    7  A    between atoms: C25_30  and  C26_32 
REMARK    8  A    between atoms: C26_32  and  C27_33 
REMARK    9  A    between atoms: C31_37  and  O7_38 
REMARK   10  A    between atoms: C35_43  and  O9_44 
ROOT
HETATM    1  C5  UNL     1      -9.192  45.688 -28.491  1.00  0.00     0.125 C 
HETATM    2  C6  UNL     1     -10.154  44.522 -28.400  1.00  0.00     0.033 C 
HETATM    3  C7  UNL     1     -10.718  44.384 -26.991  1.00  0.00     0.012 C 
HETATM    4  C8  UNL     1     -11.091  45.723 -26.267  1.00  0.00    -0.036 C 
HETATM    5  C9  UNL     1      -9.990  46.029 -25.209  1.00  0.00     0.016 C 
HETATM    6  C10 UNL     1     -11.099  46.948 -27.235  1.00  0.00    -0.004 C 
HETATM    7  C11 UNL     1     -12.443  47.049 -27.956  1.00  0.00     0.006 C 
HETATM    8  C12 UNL     1     -13.563  47.384 -26.974  1.00  0.00     0.008 C 
HETATM    9  C13 UNL     1     -13.371  46.804 -25.548  1.00  0.00     0.026 C 
HETATM   10  C14 UNL     1     -12.520  45.518 -25.593  1.00  0.00     0.001 C 
HETATM   11  C15 UNL     1     -12.422  44.872 -24.202  1.00  0.00     0.007 C 
HETATM   12  C16 UNL     1     -13.796  44.571 -23.633  1.00  0.00     0.013 C 
HETATM   13  C17 UNL     1     -14.684  45.831 -23.461  1.00  0.00    -0.003 C 
HETATM   14  C18 UNL     1     -14.135  46.704 -22.317  1.00  0.00     0.019 C 
HETATM   15  C19 UNL     1     -16.172  45.303 -23.257  1.00  0.00     0.058 C 
HETATM   16  C24 UNL     1     -16.951  45.840 -24.482  1.00  0.00     0.144 C 
HETATM   17  C30 UNL     1     -15.878  46.006 -25.559  1.00  0.00     0.072 C 
HETATM   18  C31 UNL     1     -14.734  46.663 -24.793  1.00  0.00     0.072 C 
HETATM   19  C32 UNL     1      -9.915  47.009 -28.224  1.00  0.00     0.037 C 
ENDROOT
BRANCH   1  20
HETATM   20  O2  UNL     1      -8.658  45.730 -29.819  1.00  0.00    -0.356 OA
BRANCH  20  21
HETATM   21  C4  UNL     1      -7.758  46.817 -30.032  1.00  0.00     0.263 C 
HETATM   22  C3  UNL     1      -6.547  46.591 -29.132  1.00  0.00     0.095 C 
HETATM   23  C2  UNL     1      -5.474  47.665 -29.335  1.00  0.00     0.156 C 
HETATM   24  C35 UNL     1      -5.843  48.636 -30.469  1.00  0.00     0.175 C 
HETATM   25  C33 UNL     1      -6.380  47.877 -31.696  1.00  0.00     0.151 C 
HETATM   26  O8  UNL     1      -7.344  46.864 -31.392  1.00  0.00    -0.354 OA
HETATM   27  C34 UNL     1      -5.283  47.192 -32.514  1.00  0.00     0.042 C 
BRANCH  23  28
HETATM   28  O1  UNL     1      -5.338  48.435 -28.125  1.00  0.00    -0.388 OA
HETATM   29  C1  UNL     1      -4.013  48.414 -27.608  1.00  0.00     0.202 C 
ENDBRANCH  23  28
BRANCH  24  30
HETATM   30  O9  UNL     1      -4.716  49.448 -30.814  1.00  0.00    -0.390 OA
HETATM   31  H54 UNL     1      -5.053  50.335 -31.030  1.00  0.00     0.210 HD
ENDBRANCH  24  30
ENDBRANCH  20  21
ENDBRANCH   1  20
BRANCH  18  32
HETATM   32  O7  UNL     1     -15.179  47.998 -24.484  1.00  0.00    -0.389 OA
HETATM   33  H46 UNL     1     -15.291  48.495 -25.316  1.00  0.00     0.210 HD
ENDBRANCH  18  32
BRANCH  15  34
HETATM   34  C20 UNL     1     -16.876  45.452 -21.926  1.00  0.00    -0.043 A 
HETATM   35  C21 UNL     1     -17.740  46.402 -21.563  1.00  0.00     0.087 A 
HETATM   36  C22 UNL     1     -18.056  46.191 -20.149  1.00  0.00     0.283 A 
HETATM   37  O3  UNL     1     -18.825  46.876 -19.500  1.00  0.00    -0.260 OA
HETATM   38  O4  UNL     1     -17.342  45.131 -19.685  1.00  0.00    -0.314 OA
HETATM   39  C23 UNL     1     -16.557  44.596 -20.751  1.00  0.00     0.214 A 
ENDBRANCH  15  34
BRANCH  16  40
HETATM   40  O5  UNL     1     -17.935  44.877 -24.896  1.00  0.00    -0.315 OA
BRANCH  40  41
HETATM   41  C25 UNL     1     -18.911  45.355 -25.718  1.00  0.00     0.259 C 
HETATM   42  O6  UNL     1     -19.738  46.204 -25.414  1.00  0.00    -0.265 OA
BRANCH  41  43
HETATM   43  C26 UNL     1     -18.833  44.700 -27.075  1.00  0.00     0.115 C 
BRANCH  43  44
HETATM   44  C27 UNL     1     -19.771  43.495 -27.249  1.00  0.00    -0.013 C 
HETATM   45  C28 UNL     1     -19.752  42.555 -26.040  1.00  0.00     0.010 C 
HETATM   46  C29 UNL     1     -19.481  42.720 -28.538  1.00  0.00     0.010 C 
ENDBRANCH  43  44
ENDBRANCH  41  43
ENDBRANCH  40  41
ENDBRANCH  16  40
TORSDOF 10
ENDMDL
MODEL 9
REMARK minimizedAffinity -9.20842171
REMARK CNNscore 0.367737353
REMARK CNNaffinity 7.16704416
REMARK  10 active torsions:
REMARK  status: ('A' for Active; 'I' for Inactive)
REMARK    1  A    between atoms: O1_2  and  C2_3 
REMARK    2  A    between atoms: C4_5  and  O2_6 
REMARK    3  A    between atoms: O2_6  and  C5_7 
REMARK    4  A    between atoms: C19_21  and  C20_22 
REMARK    5  A    between atoms: C24_28  and  O5_29 
REMARK    6  A    between atoms: O5_29  and  C25_30 
REMARK    7  A    between atoms: C25_30  and  C26_32 
REMARK    8  A    between atoms: C26_32  and  C27_33 
REMARK    9  A    between atoms: C31_37  and  O7_38 
REMARK   10  A    between atoms: C35_43  and  O9_44 
ROOT
HETATM    1  C5  UNL     1      -1.613  51.574 -22.542  1.00  0.00     0.125 C 
HETATM    2  C6  UNL     1      -2.738  51.600 -21.529  1.00  0.00     0.033 C 
HETATM    3  C7  UNL     1      -2.548  50.524 -20.467  1.00  0.00     0.012 C 
HETATM    4  C8  UNL     1      -1.080  50.318 -19.955  1.00  0.00    -0.036 C 
HETATM    5  C9  UNL     1      -0.517  49.016 -20.597  1.00  0.00     0.016 C 
HETATM    6  C10 UNL     1      -0.119  51.463 -20.406  1.00  0.00    -0.004 C 
HETATM    7  C11 UNL     1      -0.211  52.647 -19.445  1.00  0.00     0.006 C 
HETATM    8  C12 UNL     1       0.329  52.272 -18.067  1.00  0.00     0.008 C 
HETATM    9  C13 UNL     1       0.106  50.791 -17.663  1.00  0.00     0.026 C 
HETATM   10  C14 UNL     1      -1.142  50.217 -18.366  1.00  0.00     0.001 C 
HETATM   11  C15 UNL     1      -1.438  48.789 -17.883  1.00  0.00     0.007 C 
HETATM   12  C16 UNL     1      -1.617  48.739 -16.377  1.00  0.00     0.013 C 
HETATM   13  C17 UNL     1      -0.365  49.208 -15.590  1.00  0.00    -0.003 C 
HETATM   14  C18 UNL     1       0.762  48.167 -15.735  1.00  0.00     0.019 C 
HETATM   15  C19 UNL     1      -0.851  49.477 -14.099  1.00  0.00     0.058 C 
HETATM   16  C24 UNL     1      -0.631  50.994 -13.882  1.00  0.00     0.144 C 
HETATM   17  C30 UNL     1      -0.708  51.584 -15.290  1.00  0.00     0.072 C 
HETATM   18  C31 UNL     1       0.128  50.607 -16.110  1.00  0.00     0.072 C 
HETATM   19  C32 UNL     1      -0.277  51.908 -21.876  1.00  0.00     0.037 C 
ENDROOT
BRANCH   1  20
HETATM   20  O2  UNL     1      -1.878  52.568 -23.538  1.00  0.00    -0.356 OA
BRANCH  20  21
HETATM   21  C4  UNL     1      -1.340  52.242 -24.819  1.00  0.00     0.263 C 
HETATM   22  C3  UNL     1      -2.511  52.104 -25.785  1.00  0.00     0.095 C 
HETATM   23  C2  UNL     1      -2.043  51.828 -27.218  1.00  0.00     0.156 C 
HETATM   24  C35 UNL     1      -0.510  51.866 -27.337  1.00  0.00     0.175 C 
HETATM   25  C33 UNL     1       0.074  53.074 -26.579  1.00  0.00     0.151 C 
HETATM   26  O8  UNL     1      -0.464  53.269 -25.268  1.00  0.00    -0.354 OA
HETATM   27  C34 UNL     1      -0.109  54.400 -27.320  1.00  0.00     0.042 C 
BRANCH  23  28
HETATM   28  O1  UNL     1      -2.481  50.514 -27.615  1.00  0.00    -0.388 OA
HETATM   29  C1  UNL     1      -3.433  49.960 -26.715  1.00  0.00     0.202 C 
ENDBRANCH  23  28
BRANCH  24  30
HETATM   30  O9  UNL     1      -0.119  51.878 -28.713  1.00  0.00    -0.390 OA
HETATM   31  H54 UNL     1       0.692  51.344 -28.788  1.00  0.00     0.210 HD
ENDBRANCH  24  30
ENDBRANCH  20  21
ENDBRANCH   1  20
BRANCH  18  32
HETATM   32  O7  UNL     1       1.492  50.799 -15.687  1.00  0.00    -0.389 OA
HETATM   33  H46 UNL     1       1.775  51.699 -15.934  1.00  0.00     0.210 HD
ENDBRANCH  18  32
BRANCH  15  34
HETATM   34  C20 UNL     1      -0.402  48.589 -12.959  1.00  0.00    -0.043 A 
HETATM   35  C21 UNL     1       0.654  48.758 -12.162  1.00  0.00     0.087 A 
HETATM   36  C22 UNL     1       0.742  47.582 -11.294  1.00  0.00     0.283 A 
HETATM   37  O3  UNL     1       1.588  47.414 -10.436  1.00  0.00    -0.260 OA
HETATM   38  O4  UNL     1      -0.253  46.713 -11.618  1.00  0.00    -0.314 OA
HETATM   39  C23 UNL     1      -1.034  47.272 -12.674  1.00  0.00     0.214 A 
ENDBRANCH  15  34
BRANCH  16  40
HETATM   40  O5  UNL     1      -1.678  51.528 -13.054  1.00  0.00    -0.315 OA
BRANCH  40  41
HETATM   41  C25 UNL     1      -2.860  51.767 -13.688  1.00  0.00     0.259 C 
HETATM   42  O6  UNL     1      -3.207  51.267 -14.750  1.00  0.00    -0.265 OA
BRANCH  41  43
HETATM   43  C26 UNL     1      -3.703  52.735 -12.894  1.00  0.00     0.115 C 
BRANCH  43  44
HETATM   44  C27 UNL     1      -3.533  52.620 -11.372  1.00  0.00    -0.013 C 
HETATM   45  C28 UNL     1      -4.412  51.524 -10.763  1.00  0.00     0.010 C 
HETATM   46  C29 UNL     1      -3.770  53.957 -10.662  1.00  0.00     0.010 C 
ENDBRANCH  43  44
ENDBRANCH  41  43
ENDBRANCH  40  41
ENDBRANCH  16  40
TORSDOF 10
ENDMDL
