MODEL 1
REMARK minimizedAffinity -8.79541397
REMARK  5 active torsions:
REMARK  status: ('A' for Active; 'I' for Inactive)
REMARK    1  A    between atoms: C2_2  and  C3_3 
REMARK    2  A    between atoms: C8_8  and  C9_9 
REMARK    3  A    between atoms: C9_9  and  C11_11 
REMARK    4  A    between atoms: C11_11  and  C12_12 
REMARK    5  A    between atoms: C12_12  and  C13_13 
ROOT
HETATM    1  C3  UNL     1       0.014   6.029  12.211  1.00  0.00    -0.032 C 
HETATM    2  C4  UNL     1      -1.517   5.821  11.888  1.00  0.00     0.011 C 
HETATM    3  C5  UNL     1      -2.502   6.823  12.529  1.00  0.00     0.011 C 
HETATM    4  C6  UNL     1      -2.289   6.901  14.047  1.00  0.00    -0.032 C 
HETATM    5  C7  UNL     1      -2.571   5.483  14.636  1.00  0.00     0.016 C 
HETATM    6  C8  UNL     1      -3.115   7.958  14.835  1.00  0.00    -0.002 C 
HETATM    7  C17 UNL     1      -2.296   8.120  16.146  1.00  0.00     0.006 C 
HETATM    8  C18 UNL     1      -0.872   7.564  15.853  1.00  0.00     0.011 C 
HETATM    9  C19 UNL     1      -0.818   7.429  14.313  1.00  0.00    -0.032 C 
HETATM   10  C20 UNL     1      -0.537   8.883  13.806  1.00  0.00     0.016 C 
HETATM   11  C21 UNL     1       0.214   6.402  13.733  1.00  0.00     0.003 C 
HETATM   12  C22 UNL     1       1.679   6.682  14.066  1.00  0.00     0.006 C 
HETATM   13  C23 UNL     1       2.492   7.531  13.102  1.00  0.00     0.006 C 
HETATM   14  C24 UNL     1       1.985   7.776  11.664  1.00  0.00     0.005 C 
HETATM   15  C25 UNL     1       0.599   7.162  11.275  1.00  0.00    -0.000 C 
HETATM   16  C26 UNL     1       0.498   6.894   9.754  1.00  0.00     0.013 C 
HETATM   17  C27 UNL     1       1.124   8.024   8.954  1.00  0.00     0.079 C 
HETATM   18  C28 UNL     1       2.609   8.073   9.195  1.00  0.00     0.135 C 
HETATM   19  O1  UNL     1       3.364   8.433   8.290  1.00  0.00    -0.297 OA
HETATM   20  C29 UNL     1       3.132   7.675  10.585  1.00  0.00     0.017 C 
HETATM   21  C30 UNL     1       4.271   8.667  10.930  1.00  0.00     0.023 C 
HETATM   22  C31 UNL     1       3.740   6.270  10.451  1.00  0.00     0.023 C 
ENDROOT
BRANCH   6  23
HETATM   23  C9  UNL     1      -4.664   7.888  14.940  1.00  0.00    -0.014 C 
HETATM   24  C10 UNL     1      -5.194   9.200  15.551  1.00  0.00     0.010 C 
BRANCH  23  25
HETATM   25  C11 UNL     1      -5.396   6.668  15.546  1.00  0.00     0.008 C 
BRANCH  25  26
HETATM   26  C12 UNL     1      -6.408   5.852  14.734  1.00  0.00     0.028 C 
BRANCH  26  27
HETATM   27  C13 UNL     1      -5.854   5.143  13.533  1.00  0.00    -0.025 C 
HETATM   28  C14 UNL     1      -6.311   4.006  12.972  1.00  0.00    -0.091 C 
HETATM   29  C15 UNL     1      -7.470   3.200  13.487  1.00  0.00     0.042 C 
HETATM   30  C16 UNL     1      -5.650   3.435  11.746  1.00  0.00     0.042 C 
ENDBRANCH  26  27
ENDBRANCH  25  26
ENDBRANCH  23  25
ENDBRANCH   6  23
BRANCH   1  31
HETATM   31  C2  UNL     1       0.764   4.687  11.872  1.00  0.00     0.006 C 
HETATM   32  C1  UNL     1      -0.064   3.405  11.782  1.00  0.00     0.006 C 
ENDBRANCH   1  31
TORSDOF 5
ENDMDL
MODEL 2
REMARK minimizedAffinity -8.38558292
REMARK  5 active torsions:
REMARK  status: ('A' for Active; 'I' for Inactive)
REMARK    1  A    between atoms: C2_2  and  C3_3 
REMARK    2  A    between atoms: C8_8  and  C9_9 
REMARK    3  A    between atoms: C9_9  and  C11_11 
REMARK    4  A    between atoms: C11_11  and  C12_12 
REMARK    5  A    between atoms: C12_12  and  C13_13 
ROOT
HETATM    1  C3  UNL     1       0.093   6.600  12.137  1.00  0.00    -0.032 C 
HETATM    2  C4  UNL     1      -1.484   6.637  12.076  1.00  0.00     0.011 C 
HETATM    3  C5  UNL     1      -2.179   7.794  12.827  1.00  0.00     0.011 C 
HETATM    4  C6  UNL     1      -1.706   7.859  14.286  1.00  0.00    -0.032 C 
HETATM    5  C7  UNL     1      -2.105   6.514  14.971  1.00  0.00     0.016 C 
HETATM    6  C8  UNL     1      -2.213   9.047  15.153  1.00  0.00    -0.002 C 
HETATM    7  C17 UNL     1      -1.172   9.094  16.306  1.00  0.00     0.006 C 
HETATM    8  C18 UNL     1       0.079   8.312  15.809  1.00  0.00     0.011 C 
HETATM    9  C19 UNL     1      -0.147   8.148  14.287  1.00  0.00    -0.032 C 
HETATM   10  C20 UNL     1       0.270   9.529  13.682  1.00  0.00     0.016 C 
HETATM   11  C21 UNL     1       0.600   6.959  13.590  1.00  0.00     0.003 C 
HETATM   12  C22 UNL     1       2.126   7.004  13.669  1.00  0.00     0.006 C 
HETATM   13  C23 UNL     1       2.889   7.696  12.552  1.00  0.00     0.006 C 
HETATM   14  C24 UNL     1       2.194   7.999  11.206  1.00  0.00     0.005 C 
HETATM   15  C25 UNL     1       0.683   7.611  11.073  1.00  0.00    -0.000 C 
HETATM   16  C26 UNL     1       0.290   7.340   9.601  1.00  0.00     0.013 C 
HETATM   17  C27 UNL     1       0.942   8.342   8.665  1.00  0.00     0.079 C 
HETATM   18  C28 UNL     1       2.436   8.155   8.659  1.00  0.00     0.135 C 
HETATM   19  O1  UNL     1       3.076   8.375   7.629  1.00  0.00    -0.297 OA
HETATM   20  C29 UNL     1       3.115   7.699   9.960  1.00  0.00     0.017 C 
HETATM   21  C30 UNL     1       4.437   8.498  10.075  1.00  0.00     0.023 C 
HETATM   22  C31 UNL     1       3.464   6.212   9.787  1.00  0.00     0.023 C 
ENDROOT
BRANCH   6  23
HETATM   23  C9  UNL     1      -3.715   9.229  15.511  1.00  0.00    -0.014 C 
HETATM   24  C10 UNL     1      -3.832   9.978  16.853  1.00  0.00     0.010 C 
BRANCH  23  25
HETATM   25  C11 UNL     1      -4.727   8.061  15.445  1.00  0.00     0.008 C 
BRANCH  25  26
HETATM   26  C12 UNL     1      -5.631   7.848  14.227  1.00  0.00     0.028 C 
BRANCH  26  27
HETATM   27  C13 UNL     1      -5.514   6.509  13.559  1.00  0.00    -0.025 C 
HETATM   28  C14 UNL     1      -6.465   5.560  13.459  1.00  0.00    -0.091 C 
HETATM   29  C15 UNL     1      -7.844   5.660  14.049  1.00  0.00     0.042 C 
HETATM   30  C16 UNL     1      -6.191   4.271  12.731  1.00  0.00     0.042 C 
ENDBRANCH  26  27
ENDBRANCH  25  26
ENDBRANCH  23  25
ENDBRANCH   6  23
BRANCH   1  31
HETATM   31  C2  UNL     1       0.556   5.150  11.737  1.00  0.00     0.006 C 
HETATM   32  C1  UNL     1      -0.418   3.995  11.968  1.00  0.00     0.006 C 
ENDBRANCH   1  31
TORSDOF 5
ENDMDL
MODEL 3
REMARK minimizedAffinity -8.15115833
REMARK  5 active torsions:
REMARK  status: ('A' for Active; 'I' for Inactive)
REMARK    1  A    between atoms: C2_2  and  C3_3 
REMARK    2  A    between atoms: C8_8  and  C9_9 
REMARK    3  A    between atoms: C9_9  and  C11_11 
REMARK    4  A    between atoms: C11_11  and  C12_12 
REMARK    5  A    between atoms: C12_12  and  C13_13 
ROOT
HETATM    1  C3  UNL     1       0.073   6.585  12.021  1.00  0.00    -0.032 C 
HETATM    2  C4  UNL     1      -1.503   6.671  12.074  1.00  0.00     0.011 C 
HETATM    3  C5  UNL     1      -2.107   7.809  12.927  1.00  0.00     0.011 C 
HETATM    4  C6  UNL     1      -1.531   7.787  14.349  1.00  0.00    -0.032 C 
HETATM    5  C7  UNL     1      -1.925   6.421  14.996  1.00  0.00     0.016 C 
HETATM    6  C8  UNL     1      -1.938   8.944  15.306  1.00  0.00    -0.002 C 
HETATM    7  C17 UNL     1      -0.818   8.904  16.383  1.00  0.00     0.006 C 
HETATM    8  C18 UNL     1       0.369   8.112  15.762  1.00  0.00     0.011 C 
HETATM    9  C19 UNL     1       0.032   8.030  14.254  1.00  0.00    -0.032 C 
HETATM   10  C20 UNL     1       0.451   9.427  13.687  1.00  0.00     0.016 C 
HETATM   11  C21 UNL     1       0.691   6.856  13.450  1.00  0.00     0.003 C 
HETATM   12  C22 UNL     1       2.218   6.854  13.422  1.00  0.00     0.006 C 
HETATM   13  C23 UNL     1       2.925   7.579  12.288  1.00  0.00     0.006 C 
HETATM   14  C24 UNL     1       2.148   7.968  11.011  1.00  0.00     0.005 C 
HETATM   15  C25 UNL     1       0.620   7.630  10.967  1.00  0.00    -0.000 C 
HETATM   16  C26 UNL     1       0.116   7.445   9.515  1.00  0.00     0.013 C 
HETATM   17  C27 UNL     1       0.734   8.474   8.584  1.00  0.00     0.079 C 
HETATM   18  C28 UNL     1       2.217   8.244   8.463  1.00  0.00     0.135 C 
HETATM   19  O1  UNL     1       2.791   8.497   7.402  1.00  0.00    -0.297 OA
HETATM   20  C29 UNL     1       2.969   7.704   9.690  1.00  0.00     0.017 C 
HETATM   21  C30 UNL     1       4.321   8.458   9.748  1.00  0.00     0.023 C 
HETATM   22  C31 UNL     1       3.258   6.218   9.422  1.00  0.00     0.023 C 
ENDROOT
BRANCH   6  23
HETATM   23  C9  UNL     1      -3.405   9.152  15.778  1.00  0.00    -0.014 C 
HETATM   24  C10 UNL     1      -4.355   8.998  14.574  1.00  0.00     0.010 C 
BRANCH  23  25
HETATM   25  C11 UNL     1      -3.826  10.353  16.658  1.00  0.00     0.008 C 
BRANCH  25  26
HETATM   26  C12 UNL     1      -3.339  10.501  18.102  1.00  0.00     0.028 C 
BRANCH  26  27
HETATM   27  C13 UNL     1      -2.753  11.838  18.455  1.00  0.00    -0.025 C 
HETATM   28  C14 UNL     1      -1.525  12.086  18.950  1.00  0.00    -0.091 C 
HETATM   29  C15 UNL     1      -0.504  11.036  19.284  1.00  0.00     0.042 C 
HETATM   30  C16 UNL     1      -1.081  13.498  19.230  1.00  0.00     0.042 C 
ENDBRANCH  26  27
ENDBRANCH  25  26
ENDBRANCH  23  25
ENDBRANCH   6  23
BRANCH   1  31
HETATM   31  C2  UNL     1       0.460   5.145  11.520  1.00  0.00     0.006 C 
HETATM   32  C1  UNL     1      -0.315   3.955  12.086  1.00  0.00     0.006 C 
ENDBRANCH   1  31
TORSDOF 5
ENDMDL
MODEL 4
REMARK minimizedAffinity -7.96513176
REMARK  5 active torsions:
REMARK  status: ('A' for Active; 'I' for Inactive)
REMARK    1  A    between atoms: C2_2  and  C3_3 
REMARK    2  A    between atoms: C8_8  and  C9_9 
REMARK    3  A    between atoms: C9_9  and  C11_11 
REMARK    4  A    between atoms: C11_11  and  C12_12 
REMARK    5  A    between atoms: C12_12  and  C13_13 
ROOT
HETATM    1  C3  UNL     1      -1.671   6.297  14.187  1.00  0.00    -0.032 C 
HETATM    2  C4  UNL     1      -2.683   5.093  14.326  1.00  0.00     0.011 C 
HETATM    3  C5  UNL     1      -4.124   5.339  13.827  1.00  0.00     0.011 C 
HETATM    4  C6  UNL     1      -4.715   6.601  14.469  1.00  0.00    -0.032 C 
HETATM    5  C7  UNL     1      -4.758   6.368  16.012  1.00  0.00     0.016 C 
HETATM    6  C8  UNL     1      -6.117   7.066  13.980  1.00  0.00    -0.002 C 
HETATM    7  C17 UNL     1      -6.146   8.560  14.406  1.00  0.00     0.006 C 
HETATM    8  C18 UNL     1      -4.668   8.983  14.649  1.00  0.00     0.011 C 
HETATM    9  C19 UNL     1      -3.831   7.840  14.027  1.00  0.00    -0.032 C 
HETATM   10  C20 UNL     1      -3.840   8.145  12.492  1.00  0.00     0.016 C 
HETATM   11  C21 UNL     1      -2.373   7.659  14.574  1.00  0.00     0.003 C 
HETATM   12  C22 UNL     1      -1.444   8.857  14.382  1.00  0.00     0.006 C 
HETATM   13  C23 UNL     1      -0.601   8.925  13.119  1.00  0.00     0.006 C 
HETATM   14  C24 UNL     1      -0.393   7.663  12.253  1.00  0.00     0.005 C 
HETATM   15  C25 UNL     1      -1.120   6.353  12.706  1.00  0.00    -0.000 C 
HETATM   16  C26 UNL     1      -0.373   5.087  12.220  1.00  0.00     0.013 C 
HETATM   17  C27 UNL     1       0.146   5.265  10.803  1.00  0.00     0.079 C 
HETATM   18  C28 UNL     1       1.212   6.326  10.768  1.00  0.00     0.135 C 
HETATM   19  O1  UNL     1       2.143   6.232   9.965  1.00  0.00    -0.297 OA
HETATM   20  C29 UNL     1       1.092   7.509  11.743  1.00  0.00     0.017 C 
HETATM   21  C30 UNL     1       1.515   8.776  10.958  1.00  0.00     0.023 C 
HETATM   22  C31 UNL     1       2.116   7.272  12.865  1.00  0.00     0.023 C 
ENDROOT
BRANCH   6  23
HETATM   23  C9  UNL     1      -7.397   6.212  14.203  1.00  0.00    -0.014 C 
HETATM   24  C10 UNL     1      -8.329   6.940  15.191  1.00  0.00     0.010 C 
BRANCH  23  25
HETATM   25  C11 UNL     1      -7.335   4.700  14.522  1.00  0.00     0.008 C 
BRANCH  25  26
HETATM   26  C12 UNL     1      -7.456   3.641  13.421  1.00  0.00     0.028 C 
BRANCH  26  27
HETATM   27  C13 UNL     1      -6.536   3.818  12.248  1.00  0.00    -0.025 C 
HETATM   28  C14 UNL     1      -6.014   2.852  11.466  1.00  0.00    -0.091 C 
HETATM   29  C15 UNL     1      -6.237   1.378  11.657  1.00  0.00     0.042 C 
HETATM   30  C16 UNL     1      -5.121   3.202  10.306  1.00  0.00     0.042 C 
ENDBRANCH  26  27
ENDBRANCH  25  26
ENDBRANCH  23  25
ENDBRANCH   6  23
BRANCH   1  31
HETATM   31  C2  UNL     1      -0.454   6.016  15.145  1.00  0.00     0.006 C 
HETATM   32  C1  UNL     1       0.050   7.163  16.021  1.00  0.00     0.006 C 
ENDBRANCH   1  31
TORSDOF 5
ENDMDL
MODEL 5
REMARK minimizedAffinity -7.87365913
REMARK  5 active torsions:
REMARK  status: ('A' for Active; 'I' for Inactive)
REMARK    1  A    between atoms: C2_2  and  C3_3 
REMARK    2  A    between atoms: C8_8  and  C9_9 
REMARK    3  A    between atoms: C9_9  and  C11_11 
REMARK    4  A    between atoms: C11_11  and  C12_12 
REMARK    5  A    between atoms: C12_12  and  C13_13 
ROOT
HETATM    1  C3  UNL     1      -1.821   9.998  15.371  1.00  0.00    -0.032 C 
HETATM    2  C4  UNL     1      -0.370   9.703  15.922  1.00  0.00     0.011 C 
HETATM    3  C5  UNL     1      -0.111  10.043  17.406  1.00  0.00     0.011 C 
HETATM    4  C6  UNL     1      -0.504  11.495  17.709  1.00  0.00    -0.032 C 
HETATM    5  C7  UNL     1       0.391  12.420  16.824  1.00  0.00     0.016 C 
HETATM    6  C8  UNL     1      -0.425  11.967  19.189  1.00  0.00    -0.002 C 
HETATM    7  C17 UNL     1      -1.355  13.212  19.199  1.00  0.00     0.006 C 
HETATM    8  C18 UNL     1      -2.256  13.106  17.934  1.00  0.00     0.011 C 
HETATM    9  C19 UNL     1      -2.059  11.652  17.440  1.00  0.00    -0.032 C 
HETATM   10  C20 UNL     1      -2.980  10.797  18.373  1.00  0.00     0.016 C 
HETATM   11  C21 UNL     1      -2.353  11.379  15.925  1.00  0.00     0.003 C 
HETATM   12  C22 UNL     1      -3.784  11.663  15.471  1.00  0.00     0.006 C 
HETATM   13  C23 UNL     1      -4.800  10.534  15.525  1.00  0.00     0.006 C 
HETATM   14  C24 UNL     1      -4.329   9.070  15.659  1.00  0.00     0.005 C 
HETATM   15  C25 UNL     1      -2.789   8.818  15.785  1.00  0.00    -0.000 C 
HETATM   16  C26 UNL     1      -2.396   7.414  15.267  1.00  0.00     0.013 C 
HETATM   17  C27 UNL     1      -3.413   6.367  15.687  1.00  0.00     0.079 C 
HETATM   18  C28 UNL     1      -4.734   6.623  15.011  1.00  0.00     0.135 C 
HETATM   19  O1  UNL     1      -5.459   5.674  14.706  1.00  0.00    -0.297 OA
HETATM   20  C29 UNL     1      -5.135   8.080  14.731  1.00  0.00     0.017 C 
HETATM   21  C30 UNL     1      -6.651   8.188  15.034  1.00  0.00     0.023 C 
HETATM   22  C31 UNL     1      -4.926   8.324  13.228  1.00  0.00     0.023 C 
ENDROOT
BRANCH   6  23
HETATM   23  C9  UNL     1       0.922  12.049  19.961  1.00  0.00    -0.014 C 
HETATM   24  C10 UNL     1       1.165  13.504  20.408  1.00  0.00     0.010 C 
BRANCH  23  25
HETATM   25  C11 UNL     1       2.225  11.418  19.417  1.00  0.00     0.008 C 
BRANCH  25  26
HETATM   26  C12 UNL     1       3.229  10.723  20.341  1.00  0.00     0.028 C 
BRANCH  26  27
HETATM   27  C13 UNL     1       2.673   9.610  21.182  1.00  0.00    -0.025 C 
HETATM   28  C14 UNL     1       2.973   9.326  22.464  1.00  0.00    -0.091 C 
HETATM   29  C15 UNL     1       3.976  10.074  23.298  1.00  0.00     0.042 C 
HETATM   30  C16 UNL     1       2.304   8.180  23.175  1.00  0.00     0.042 C 
ENDBRANCH  26  27
ENDBRANCH  25  26
ENDBRANCH  23  25
ENDBRANCH   6  23
BRANCH   1  31
HETATM   31  C2  UNL     1      -1.741  10.031  13.800  1.00  0.00     0.006 C 
HETATM   32  C1  UNL     1      -0.576   9.308  13.124  1.00  0.00     0.006 C 
ENDBRANCH   1  31
TORSDOF 5
ENDMDL
MODEL 6
REMARK minimizedAffinity -7.87121391
REMARK  5 active torsions:
REMARK  status: ('A' for Active; 'I' for Inactive)
REMARK    1  A    between atoms: C2_2  and  C3_3 
REMARK    2  A    between atoms: C8_8  and  C9_9 
REMARK    3  A    between atoms: C9_9  and  C11_11 
REMARK    4  A    between atoms: C11_11  and  C12_12 
REMARK    5  A    between atoms: C12_12  and  C13_13 
ROOT
HETATM    1  C3  UNL     1      -2.954  10.065  15.407  1.00  0.00    -0.032 C 
HETATM    2  C4  UNL     1      -4.443   9.575  15.599  1.00  0.00     0.011 C 
HETATM    3  C5  UNL     1      -4.695   8.057  15.471  1.00  0.00     0.011 C 
HETATM    4  C6  UNL     1      -4.130   7.521  14.149  1.00  0.00    -0.032 C 
HETATM    5  C7  UNL     1      -4.880   8.247  12.987  1.00  0.00     0.016 C 
HETATM    6  C8  UNL     1      -4.187   5.984  13.914  1.00  0.00    -0.002 C 
HETATM    7  C17 UNL     1      -3.108   5.768  12.816  1.00  0.00     0.006 C 
HETATM    8  C18 UNL     1      -2.197   7.030  12.832  1.00  0.00     0.011 C 
HETATM    9  C19 UNL     1      -2.562   7.754  14.151  1.00  0.00    -0.032 C 
HETATM   10  C20 UNL     1      -1.779   6.968  15.254  1.00  0.00     0.016 C 
HETATM   11  C21 UNL     1      -2.267   9.292  14.212  1.00  0.00     0.003 C 
HETATM   12  C22 UNL     1      -0.801   9.688  14.044  1.00  0.00     0.006 C 
HETATM   13  C23 UNL     1       0.065   9.814  15.287  1.00  0.00     0.006 C 
HETATM   14  C24 UNL     1      -0.589   9.921  16.682  1.00  0.00     0.005 C 
HETATM   15  C25 UNL     1      -2.152   9.844  16.752  1.00  0.00    -0.000 C 
HETATM   16  C26 UNL     1      -2.705  10.585  17.993  1.00  0.00     0.013 C 
HETATM   17  C27 UNL     1      -1.838  10.336  19.214  1.00  0.00     0.079 C 
HETATM   18  C28 UNL     1      -0.479  10.956  19.025  1.00  0.00     0.135 C 
HETATM   19  O1  UNL     1       0.129  11.408  19.997  1.00  0.00    -0.297 OA
HETATM   20  C29 UNL     1       0.109  10.994  17.605  1.00  0.00     0.017 C 
HETATM   21  C30 UNL     1       1.618  10.671  17.741  1.00  0.00     0.023 C 
HETATM   22  C31 UNL     1      -0.031  12.438  17.098  1.00  0.00     0.023 C 
ENDROOT
BRANCH   6  23
HETATM   23  C9  UNL     1      -5.531   5.214  13.786  1.00  0.00    -0.014 C 
HETATM   24  C10 UNL     1      -5.434   4.208  12.623  1.00  0.00     0.010 C 
BRANCH  23  25
HETATM   25  C11 UNL     1      -6.898   5.939  13.770  1.00  0.00     0.008 C 
BRANCH  25  26
HETATM   26  C12 UNL     1      -7.995   5.563  12.769  1.00  0.00     0.028 C 
BRANCH  26  27
HETATM   27  C13 UNL     1      -9.335   6.196  13.009  1.00  0.00    -0.025 C 
HETATM   28  C14 UNL     1      -9.773   6.776  14.144  1.00  0.00    -0.091 C 
HETATM   29  C15 UNL     1      -8.988   6.864  15.423  1.00  0.00     0.042 C 
HETATM   30  C16 UNL     1     -11.147   7.389  14.213  1.00  0.00     0.042 C 
ENDBRANCH  26  27
ENDBRANCH  25  26
ENDBRANCH  23  25
ENDBRANCH   6  23
BRANCH   1  31
HETATM   31  C2  UNL     1      -2.990  11.610  15.112  1.00  0.00     0.006 C 
HETATM   32  C1  UNL     1      -4.207  12.404  15.588  1.00  0.00     0.006 C 
ENDBRANCH   1  31
TORSDOF 5
ENDMDL
MODEL 7
REMARK minimizedAffinity -7.47458124
REMARK  5 active torsions:
REMARK  status: ('A' for Active; 'I' for Inactive)
REMARK    1  A    between atoms: C2_2  and  C3_3 
REMARK    2  A    between atoms: C8_8  and  C9_9 
REMARK    3  A    between atoms: C9_9  and  C11_11 
REMARK    4  A    between atoms: C11_11  and  C12_12 
REMARK    5  A    between atoms: C12_12  and  C13_13 
ROOT
HETATM    1  C3  UNL     1      -1.065   9.740  15.417  1.00  0.00    -0.032 C 
HETATM    2  C4  UNL     1       0.206   9.368  14.556  1.00  0.00     0.011 C 
HETATM    3  C5  UNL     1      -0.052   8.626  13.226  1.00  0.00     0.011 C 
HETATM    4  C6  UNL     1      -0.915   7.378  13.457  1.00  0.00    -0.032 C 
HETATM    5  C7  UNL     1      -0.123   6.428  14.411  1.00  0.00     0.016 C 
HETATM    6  C8  UNL     1      -1.375   6.581  12.204  1.00  0.00    -0.002 C 
HETATM    7  C17 UNL     1      -2.593   5.778  12.740  1.00  0.00     0.006 C 
HETATM    8  C18 UNL     1      -3.051   6.484  14.049  1.00  0.00     0.011 C 
HETATM    9  C19 UNL     1      -2.317   7.847  14.030  1.00  0.00    -0.032 C 
HETATM   10  C20 UNL     1      -3.166   8.731  13.058  1.00  0.00     0.016 C 
HETATM   11  C21 UNL     1      -2.102   8.548  15.416  1.00  0.00     0.003 C 
HETATM   12  C22 UNL     1      -3.378   8.899  16.180  1.00  0.00     0.006 C 
HETATM   13  C23 UNL     1      -4.000  10.269  15.963  1.00  0.00     0.006 C 
HETATM   14  C24 UNL     1      -3.179  11.400  15.305  1.00  0.00     0.005 C 
HETATM   15  C25 UNL     1      -1.724  11.056  14.840  1.00  0.00    -0.000 C 
HETATM   16  C26 UNL     1      -0.817  12.310  14.825  1.00  0.00     0.013 C 
HETATM   17  C27 UNL     1      -1.561  13.521  14.290  1.00  0.00     0.079 C 
HETATM   18  C28 UNL     1      -2.668  13.911  15.233  1.00  0.00     0.135 C 
HETATM   19  O1  UNL     1      -2.978  15.098  15.355  1.00  0.00    -0.297 OA
HETATM   20  C29 UNL     1      -3.384  12.796  16.012  1.00  0.00     0.017 C 
HETATM   21  C30 UNL     1      -4.889  13.163  16.028  1.00  0.00     0.023 C 
HETATM   22  C31 UNL     1      -2.859  12.847  17.456  1.00  0.00     0.023 C 
ENDROOT
BRANCH   6  23
HETATM   23  C9  UNL     1      -0.368   5.853  11.269  1.00  0.00    -0.014 C 
HETATM   24  C10 UNL     1      -0.684   4.345  11.255  1.00  0.00     0.010 C 
BRANCH  23  25
HETATM   25  C11 UNL     1       1.158   6.092  11.355  1.00  0.00     0.008 C 
BRANCH  25  26
HETATM   26  C12 UNL     1       1.877   7.050  10.400  1.00  0.00     0.028 C 
BRANCH  26  27
HETATM   27  C13 UNL     1       1.623   6.820   8.939  1.00  0.00    -0.025 C 
HETATM   28  C14 UNL     1       2.167   7.484   7.900  1.00  0.00    -0.091 C 
HETATM   29  C15 UNL     1       3.129   8.633   8.024  1.00  0.00     0.042 C 
HETATM   30  C16 UNL     1       1.821   7.111   6.483  1.00  0.00     0.042 C 
ENDBRANCH  26  27
ENDBRANCH  25  26
ENDBRANCH  23  25
ENDBRANCH   6  23
BRANCH   1  31
HETATM   31  C2  UNL     1      -0.580  10.044  16.883  1.00  0.00     0.006 C 
HETATM   32  C1  UNL     1       0.922  10.011  17.165  1.00  0.00     0.006 C 
ENDBRANCH   1  31
TORSDOF 5
ENDMDL
MODEL 8
REMARK minimizedAffinity -7.44113064
REMARK  5 active torsions:
REMARK  status: ('A' for Active; 'I' for Inactive)
REMARK    1  A    between atoms: C2_2  and  C3_3 
REMARK    2  A    between atoms: C8_8  and  C9_9 
REMARK    3  A    between atoms: C9_9  and  C11_11 
REMARK    4  A    between atoms: C11_11  and  C12_12 
REMARK    5  A    between atoms: C12_12  and  C13_13 
ROOT
HETATM    1  C3  UNL     1      -0.718  10.391  15.279  1.00  0.00    -0.032 C 
HETATM    2  C4  UNL     1      -2.180   9.855  15.017  1.00  0.00     0.011 C 
HETATM    3  C5  UNL     1      -2.340   8.327  14.860  1.00  0.00     0.011 C 
HETATM    4  C6  UNL     1      -1.381   7.786  13.790  1.00  0.00    -0.032 C 
HETATM    5  C7  UNL     1      -1.755   8.466  12.435  1.00  0.00     0.016 C 
HETATM    6  C8  UNL     1      -1.322   6.245  13.593  1.00  0.00    -0.002 C 
HETATM    7  C17 UNL     1       0.047   6.045  12.885  1.00  0.00     0.006 C 
HETATM    8  C18 UNL     1       0.876   7.337  13.146  1.00  0.00     0.011 C 
HETATM    9  C19 UNL     1       0.103   8.071  14.268  1.00  0.00    -0.032 C 
HETATM   10  C20 UNL     1       0.529   7.333  15.580  1.00  0.00     0.016 C 
HETATM   11  C21 UNL     1       0.325   9.620  14.375  1.00  0.00     0.003 C 
HETATM   12  C22 UNL     1       1.760  10.061  14.655  1.00  0.00     0.006 C 
HETATM   13  C23 UNL     1       2.197  10.239  16.100  1.00  0.00     0.006 C 
HETATM   14  C24 UNL     1       1.142  10.349  17.222  1.00  0.00     0.005 C 
HETATM   15  C25 UNL     1      -0.363  10.222  16.811  1.00  0.00    -0.000 C 
HETATM   16  C26 UNL     1      -1.292  10.966  17.800  1.00  0.00     0.013 C 
HETATM   17  C27 UNL     1      -0.837  10.768  19.236  1.00  0.00     0.079 C 
HETATM   18  C28 UNL     1       0.497  11.430  19.456  1.00  0.00     0.135 C 
HETATM   19  O1  UNL     1       0.764  11.919  20.555  1.00  0.00    -0.297 OA
HETATM   20  C29 UNL     1       1.493  11.461  18.285  1.00  0.00     0.017 C 
HETATM   21  C30 UNL     1       2.895  11.192  18.888  1.00  0.00     0.023 C 
HETATM   22  C31 UNL     1       1.478  12.891  17.720  1.00  0.00     0.023 C 
ENDROOT
BRANCH   6  23
HETATM   23  C9  UNL     1      -2.541   5.428  13.078  1.00  0.00    -0.014 C 
HETATM   24  C10 UNL     1      -2.176   4.754  11.741  1.00  0.00     0.010 C 
BRANCH  23  25
HETATM   25  C11 UNL     1      -3.968   6.024  13.020  1.00  0.00     0.008 C 
BRANCH  25  26
HETATM   26  C12 UNL     1      -5.210   5.158  13.251  1.00  0.00     0.028 C 
BRANCH  26  27
HETATM   27  C13 UNL     1      -5.258   3.872  12.478  1.00  0.00    -0.025 C 
HETATM   28  C14 UNL     1      -6.308   3.039  12.342  1.00  0.00    -0.091 C 
HETATM   29  C15 UNL     1      -7.650   3.235  12.988  1.00  0.00     0.042 C 
HETATM   30  C16 UNL     1      -6.196   1.792  11.506  1.00  0.00     0.042 C 
ENDBRANCH  26  27
ENDBRANCH  25  26
ENDBRANCH  23  25
ENDBRANCH   6  23
BRANCH   1  31
HETATM   31  C2  UNL     1      -0.702  11.929  14.945  1.00  0.00     0.006 C 
HETATM   32  C1  UNL     1      -2.023  12.594  14.560  1.00  0.00     0.006 C 
ENDBRANCH   1  31
TORSDOF 5
ENDMDL
MODEL 9
REMARK minimizedAffinity -7.43847656
REMARK  5 active torsions:
REMARK  status: ('A' for Active; 'I' for Inactive)
REMARK    1  A    between atoms: C2_2  and  C3_3 
REMARK    2  A    between atoms: C8_8  and  C9_9 
REMARK    3  A    between atoms: C9_9  and  C11_11 
REMARK    4  A    between atoms: C11_11  and  C12_12 
REMARK    5  A    between atoms: C12_12  and  C13_13 
ROOT
HETATM    1  C3  UNL     1      -2.299  10.536  16.493  1.00  0.00    -0.032 C 
HETATM    2  C4  UNL     1      -2.863   9.097  16.815  1.00  0.00     0.011 C 
HETATM    3  C5  UNL     1      -2.161   7.908  16.123  1.00  0.00     0.011 C 
HETATM    4  C6  UNL     1      -2.097   8.121  14.605  1.00  0.00    -0.032 C 
HETATM    5  C7  UNL     1      -3.565   8.204  14.079  1.00  0.00     0.016 C 
HETATM    6  C8  UNL     1      -1.309   7.075  13.766  1.00  0.00    -0.002 C 
HETATM    7  C17 UNL     1      -1.006   7.851  12.453  1.00  0.00     0.006 C 
HETATM    8  C18 UNL     1      -1.183   9.363  12.779  1.00  0.00     0.011 C 
HETATM    9  C19 UNL     1      -1.235   9.422  14.325  1.00  0.00    -0.032 C 
HETATM   10  C20 UNL     1       0.263   9.331  14.768  1.00  0.00     0.016 C 
HETATM   11  C21 UNL     1      -1.953  10.665  14.956  1.00  0.00     0.003 C 
HETATM   12  C22 UNL     1      -1.336  12.022  14.621  1.00  0.00     0.006 C 
HETATM   13  C23 UNL     1      -0.274  12.586  15.550  1.00  0.00     0.006 C 
HETATM   14  C24 UNL     1      -0.100  12.010  16.972  1.00  0.00     0.005 C 
HETATM   15  C25 UNL     1      -1.019  10.810  17.380  1.00  0.00    -0.000 C 
HETATM   16  C26 UNL     1      -1.239  10.752  18.911  1.00  0.00     0.013 C 
HETATM   17  C27 UNL     1       0.042  11.069  19.663  1.00  0.00     0.079 C 
HETATM   18  C28 UNL     1       0.444  12.500  19.429  1.00  0.00     0.135 C 
HETATM   19  O1  UNL     1       1.016  13.129  20.322  1.00  0.00    -0.297 OA
HETATM   20  C29 UNL     1       0.128  13.128  18.062  1.00  0.00     0.017 C 
HETATM   21  C30 UNL     1       1.353  13.996  17.679  1.00  0.00     0.023 C 
HETATM   22  C31 UNL     1      -1.078  14.059  18.263  1.00  0.00     0.023 C 
ENDROOT
BRANCH   6  23
HETATM   23  C9  UNL     1      -1.761   5.592  13.655  1.00  0.00    -0.014 C 
HETATM   24  C10 UNL     1      -1.183   4.978  12.364  1.00  0.00     0.010 C 
BRANCH  23  25
HETATM   25  C11 UNL     1      -3.232   5.160  13.856  1.00  0.00     0.008 C 
BRANCH  25  26
HETATM   26  C12 UNL     1      -4.149   4.850  12.668  1.00  0.00     0.028 C 
BRANCH  26  27
HETATM   27  C13 UNL     1      -5.567   4.502  13.017  1.00  0.00    -0.025 C 
HETATM   28  C14 UNL     1      -6.284   3.452  12.572  1.00  0.00    -0.091 C 
HETATM   29  C15 UNL     1      -5.789   2.429  11.587  1.00  0.00     0.042 C 
HETATM   30  C16 UNL     1      -7.697   3.232  13.041  1.00  0.00     0.042 C 
ENDBRANCH  26  27
ENDBRANCH  25  26
ENDBRANCH  23  25
ENDBRANCH   6  23
BRANCH   1  31
HETATM   31  C2  UNL     1      -3.401  11.586  16.896  1.00  0.00     0.006 C 
HETATM   32  C1  UNL     1      -4.619  11.735  15.984  1.00  0.00     0.006 C 
ENDBRANCH   1  31
TORSDOF 5
ENDMDL
