MODEL 1
REMARK minimizedAffinity -9.34457207
REMARK CNNscore 0.724108636
REMARK CNNaffinity 7.06511545
REMARK  6 active torsions:
REMARK  status: ('A' for Active; 'I' for Inactive)
REMARK    1  A    between atoms: C4_4  and  C5_5 
REMARK    2  A    between atoms: C5_5  and  C6_6 
REMARK    3  A    between atoms: C6_6  and  C7_7 
REMARK    4  A    between atoms: C7_7  and  C9_9 
REMARK    5  A    between atoms: C16_16  and  O1_17 
REMARK    6  A    between atoms: C19_20  and  O2_21 
ROOT
HETATM    1  C9  UNL     1      -2.771   8.473  15.259  1.00  0.00    -0.002 C 
HETATM    2  C10 UNL     1      -1.823   7.735  16.243  1.00  0.00     0.006 C 
HETATM    3  C11 UNL     1      -0.444   7.629  15.555  1.00  0.00     0.011 C 
HETATM    4  C12 UNL     1      -0.793   7.550  14.063  1.00  0.00    -0.032 C 
HETATM    5  C13 UNL     1      -1.281   6.093  13.806  1.00  0.00     0.016 C 
HETATM    6  C14 UNL     1       0.331   7.883  13.044  1.00  0.00     0.006 C 
HETATM    7  C15 UNL     1       1.610   7.053  13.183  1.00  0.00     0.038 C 
HETATM    8  C16 UNL     1       2.660   7.575  12.203  1.00  0.00     0.123 C 
HETATM    9  C17 UNL     1       2.243   7.407  10.728  1.00  0.00     0.026 C 
HETATM   10  C18 UNL     1       3.168   8.261   9.843  1.00  0.00     0.039 C 
HETATM   11  C19 UNL     1       2.882   8.066   8.355  1.00  0.00     0.118 C 
HETATM   12  C20 UNL     1       1.391   7.947   8.035  1.00  0.00     0.032 C 
HETATM   13  C21 UNL     1       0.522   8.503   9.162  1.00  0.00     0.013 C 
HETATM   14  C22 UNL     1       0.762   7.732  10.453  1.00  0.00    -0.025 A 
HETATM   15  C23 UNL     1      -0.204   6.608  10.766  1.00  0.00     0.021 A 
HETATM   16  C24 UNL     1      -0.251   7.862  11.614  1.00  0.00    -0.027 A 
HETATM   17  C25 UNL     1      -1.507   8.735  11.437  1.00  0.00     0.011 C 
HETATM   18  C26 UNL     1      -2.552   8.586  12.568  1.00  0.00     0.011 C 
HETATM   19  C27 UNL     1      -1.904   8.664  13.961  1.00  0.00    -0.032 C 
HETATM   20  C28 UNL     1      -1.350  10.134  14.101  1.00  0.00     0.016 C 
ENDROOT
BRANCH   1  21
HETATM   21  C7  UNL     1      -4.240   7.981  15.120  1.00  0.00    -0.014 C 
HETATM   22  C8  UNL     1      -5.102   8.645  14.047  1.00  0.00     0.010 C 
BRANCH  21  23
HETATM   23  C6  UNL     1      -4.340   6.434  15.003  1.00  0.00     0.008 C 
BRANCH  23  24
HETATM   24  C5  UNL     1      -4.820   5.883  13.658  1.00  0.00     0.028 C 
BRANCH  24  25
HETATM   25  C4  UNL     1      -6.083   5.081  13.825  1.00  0.00    -0.025 C 
HETATM   26  C2  UNL     1      -6.511   4.056  13.063  1.00  0.00    -0.091 C 
HETATM   27  C1  UNL     1      -5.758   3.469  11.901  1.00  0.00     0.042 C 
HETATM   28  C3  UNL     1      -7.832   3.387  13.347  1.00  0.00     0.042 C 
ENDBRANCH  24  25
ENDBRANCH  23  24
ENDBRANCH  21  23
ENDBRANCH   1  21
BRANCH   8  29
HETATM   29  O1  UNL     1       3.886   6.877  12.438  1.00  0.00    -0.395 OA
HETATM   30  H28 UNL     1       3.714   5.925  12.333  1.00  0.00     0.210 HD
ENDBRANCH   8  29
BRANCH  11  31
HETATM   31  O2  UNL     1       3.441   9.177   7.653  1.00  0.00    -0.396 OA
HETATM   32  H33 UNL     1       3.306   9.024   6.703  1.00  0.00     0.210 HD
ENDBRANCH  11  31
TORSDOF 6
ENDMDL
MODEL 2
REMARK minimizedAffinity -8.40305996
REMARK CNNscore 0.545030475
REMARK CNNaffinity 7.00218534
REMARK  6 active torsions:
REMARK  status: ('A' for Active; 'I' for Inactive)
REMARK    1  A    between atoms: C4_4  and  C5_5 
REMARK    2  A    between atoms: C5_5  and  C6_6 
REMARK    3  A    between atoms: C6_6  and  C7_7 
REMARK    4  A    between atoms: C7_7  and  C9_9 
REMARK    5  A    between atoms: C16_16  and  O1_17 
REMARK    6  A    between atoms: C19_20  and  O2_21 
ROOT
HETATM    1  C9  UNL     1      -0.061   8.093  14.299  1.00  0.00    -0.002 C 
HETATM    2  C10 UNL     1      -0.450   8.908  15.563  1.00  0.00     0.006 C 
HETATM    3  C11 UNL     1      -1.810   8.365  16.054  1.00  0.00     0.011 C 
HETATM    4  C12 UNL     1      -2.498   7.900  14.764  1.00  0.00    -0.032 C 
HETATM    5  C13 UNL     1      -3.016   9.189  14.059  1.00  0.00     0.016 C 
HETATM    6  C14 UNL     1      -3.679   6.900  14.900  1.00  0.00     0.006 C 
HETATM    7  C15 UNL     1      -4.827   7.360  15.803  1.00  0.00     0.038 C 
HETATM    8  C16 UNL     1      -5.847   6.230  15.936  1.00  0.00     0.123 C 
HETATM    9  C17 UNL     1      -6.522   5.866  14.599  1.00  0.00     0.026 C 
HETATM   10  C18 UNL     1      -7.248   4.518  14.751  1.00  0.00     0.039 C 
HETATM   11  C19 UNL     1      -8.030   4.140  13.493  1.00  0.00     0.118 C 
HETATM   12  C20 UNL     1      -7.297   4.489  12.196  1.00  0.00     0.032 C 
HETATM   13  C21 UNL     1      -5.801   4.692  12.427  1.00  0.00     0.013 C 
HETATM   14  C22 UNL     1      -5.560   5.843  13.395  1.00  0.00    -0.025 A 
HETATM   15  C23 UNL     1      -5.273   7.199  12.785  1.00  0.00     0.021 A 
HETATM   16  C24 UNL     1      -4.150   6.470  13.494  1.00  0.00    -0.027 A 
HETATM   17  C25 UNL     1      -3.020   5.952  12.587  1.00  0.00     0.011 C 
HETATM   18  C26 UNL     1      -1.737   6.818  12.608  1.00  0.00     0.011 C 
HETATM   19  C27 UNL     1      -1.304   7.166  14.042  1.00  0.00    -0.032 C 
HETATM   20  C28 UNL     1      -0.891   5.801  14.715  1.00  0.00     0.016 C 
ENDROOT
BRANCH   1  21
HETATM   21  C7  UNL     1       0.588   8.836  13.097  1.00  0.00    -0.014 C 
HETATM   22  C8  UNL     1       2.038   9.291  13.256  1.00  0.00     0.010 C 
BRANCH  21  23
HETATM   23  C6  UNL     1       0.414   8.066  11.758  1.00  0.00     0.008 C 
BRANCH  23  24
HETATM   24  C5  UNL     1       1.700   7.674  11.027  1.00  0.00     0.028 C 
BRANCH  24  25
HETATM   25  C4  UNL     1       1.540   7.825   9.537  1.00  0.00    -0.025 C 
HETATM   26  C2  UNL     1       2.114   7.082   8.571  1.00  0.00    -0.091 C 
HETATM   27  C1  UNL     1       3.008   5.895   8.809  1.00  0.00     0.042 C 
HETATM   28  C3  UNL     1       1.877   7.398   7.117  1.00  0.00     0.042 C 
ENDBRANCH  24  25
ENDBRANCH  23  24
ENDBRANCH  21  23
ENDBRANCH   1  21
BRANCH   8  29
HETATM   29  O1  UNL     1      -6.842   6.626  16.885  1.00  0.00    -0.395 OA
HETATM   30  H28 UNL     1      -7.240   7.457  16.572  1.00  0.00     0.210 HD
ENDBRANCH   8  29
BRANCH  11  31
HETATM   31  O2  UNL     1      -8.286   2.737  13.543  1.00  0.00    -0.396 OA
HETATM   32  H33 UNL     1      -8.831   2.508  12.770  1.00  0.00     0.210 HD
ENDBRANCH  11  31
TORSDOF 6
ENDMDL
MODEL 3
REMARK minimizedAffinity -6.9346509
REMARK CNNscore 0.469544977
REMARK CNNaffinity 6.55490112
REMARK  6 active torsions:
REMARK  status: ('A' for Active; 'I' for Inactive)
REMARK    1  A    between atoms: C4_4  and  C5_5 
REMARK    2  A    between atoms: C5_5  and  C6_6 
REMARK    3  A    between atoms: C6_6  and  C7_7 
REMARK    4  A    between atoms: C7_7  and  C9_9 
REMARK    5  A    between atoms: C16_16  and  O1_17 
REMARK    6  A    between atoms: C19_20  and  O2_21 
ROOT
HETATM    1  C9  UNL     1      -9.248   6.467  14.579  1.00  0.00    -0.002 C 
HETATM    2  C10 UNL     1      -8.621   6.574  15.997  1.00  0.00     0.006 C 
HETATM    3  C11 UNL     1      -9.379   7.692  16.746  1.00  0.00     0.011 C 
HETATM    4  C12 UNL     1      -9.792   8.657  15.628  1.00  0.00    -0.032 C 
HETATM    5  C13 UNL     1      -8.514   9.467  15.256  1.00  0.00     0.016 C 
HETATM    6  C14 UNL     1     -10.942   9.657  15.931  1.00  0.00     0.006 C 
HETATM    7  C15 UNL     1     -10.725  10.555  17.152  1.00  0.00     0.038 C 
HETATM    8  C16 UNL     1     -11.982  11.390  17.394  1.00  0.00     0.123 C 
HETATM    9  C17 UNL     1     -12.290  12.365  16.240  1.00  0.00     0.026 C 
HETATM   10  C18 UNL     1     -13.727  12.892  16.396  1.00  0.00     0.039 C 
HETATM   11  C19 UNL     1     -14.070  13.947  15.344  1.00  0.00     0.118 C 
HETATM   12  C20 UNL     1     -13.502  13.629  13.959  1.00  0.00     0.032 C 
HETATM   13  C21 UNL     1     -13.136  12.152  13.821  1.00  0.00     0.013 C 
HETATM   14  C22 UNL     1     -12.069  11.767  14.837  1.00  0.00    -0.025 A 
HETATM   15  C23 UNL     1     -10.632  11.786  14.358  1.00  0.00     0.021 A 
HETATM   16  C24 UNL     1     -11.283  10.450  14.651  1.00  0.00    -0.027 A 
HETATM   17  C25 UNL     1     -11.559   9.564  13.422  1.00  0.00     0.011 C 
HETATM   18  C26 UNL     1     -10.545   8.411  13.225  1.00  0.00     0.011 C 
HETATM   19  C27 UNL     1     -10.293   7.641  14.532  1.00  0.00    -0.032 C 
HETATM   20  C28 UNL     1     -11.657   6.934  14.890  1.00  0.00     0.016 C 
ENDROOT
BRANCH   1  21
HETATM   21  C7  UNL     1      -8.310   6.241  13.359  1.00  0.00    -0.014 C 
HETATM   22  C8  UNL     1      -6.839   6.619  13.527  1.00  0.00     0.010 C 
BRANCH  21  23
HETATM   23  C6  UNL     1      -8.429   4.805  12.776  1.00  0.00     0.008 C 
BRANCH  23  24
HETATM   24  C5  UNL     1      -7.769   3.686  13.585  1.00  0.00     0.028 C 
BRANCH  24  25
HETATM   25  C4  UNL     1      -7.370   2.540  12.693  1.00  0.00    -0.025 C 
HETATM   26  C2  UNL     1      -6.237   2.415  11.975  1.00  0.00    -0.091 C 
HETATM   27  C1  UNL     1      -5.103   3.404  11.970  1.00  0.00     0.042 C 
HETATM   28  C3  UNL     1      -6.014   1.213  11.095  1.00  0.00     0.042 C 
ENDBRANCH  24  25
ENDBRANCH  23  24
ENDBRANCH  21  23
ENDBRANCH   1  21
BRANCH   8  29
HETATM   29  O1  UNL     1     -11.813  12.123  18.611  1.00  0.00    -0.395 OA
HETATM   30  H28 UNL     1     -11.011  12.667  18.523  1.00  0.00     0.210 HD
ENDBRANCH   8  29
BRANCH  11  31
HETATM   31  O2  UNL     1     -15.493  14.046  15.273  1.00  0.00    -0.396 OA
HETATM   32  H33 UNL     1     -15.708  14.755  14.644  1.00  0.00     0.210 HD
ENDBRANCH  11  31
TORSDOF 6
ENDMDL
MODEL 4
REMARK minimizedAffinity -6.95577431
REMARK CNNscore 0.457635403
REMARK CNNaffinity 6.74896383
REMARK  6 active torsions:
REMARK  status: ('A' for Active; 'I' for Inactive)
REMARK    1  A    between atoms: C4_4  and  C5_5 
REMARK    2  A    between atoms: C5_5  and  C6_6 
REMARK    3  A    between atoms: C6_6  and  C7_7 
REMARK    4  A    between atoms: C7_7  and  C9_9 
REMARK    5  A    between atoms: C16_16  and  O1_17 
REMARK    6  A    between atoms: C19_20  and  O2_21 
ROOT
HETATM    1  C9  UNL     1      -0.693   7.868  15.003  1.00  0.00    -0.002 C 
HETATM    2  C10 UNL     1      -1.673   9.073  15.002  1.00  0.00     0.006 C 
HETATM    3  C11 UNL     1      -3.087   8.509  14.740  1.00  0.00     0.011 C 
HETATM    4  C12 UNL     1      -2.826   7.277  13.866  1.00  0.00    -0.032 C 
HETATM    5  C13 UNL     1      -2.532   7.813  12.432  1.00  0.00     0.016 C 
HETATM    6  C14 UNL     1      -3.951   6.209  13.774  1.00  0.00     0.006 C 
HETATM    7  C15 UNL     1      -5.312   6.730  13.305  1.00  0.00     0.038 C 
HETATM    8  C16 UNL     1      -6.339   5.600  13.385  1.00  0.00     0.123 C 
HETATM    9  C17 UNL     1      -6.020   4.428  12.435  1.00  0.00     0.026 C 
HETATM   10  C18 UNL     1      -6.878   3.213  12.829  1.00  0.00     0.039 C 
HETATM   11  C19 UNL     1      -6.693   2.041  11.865  1.00  0.00     0.118 C 
HETATM   12  C20 UNL     1      -5.244   1.857  11.406  1.00  0.00     0.032 C 
HETATM   13  C21 UNL     1      -4.259   2.556  12.342  1.00  0.00     0.013 C 
HETATM   14  C22 UNL     1      -4.526   4.055  12.378  1.00  0.00    -0.025 A 
HETATM   15  C23 UNL     1      -3.690   4.919  11.457  1.00  0.00     0.021 A 
HETATM   16  C24 UNL     1      -3.448   5.004  12.950  1.00  0.00    -0.027 A 
HETATM   17  C25 UNL     1      -2.106   4.429  13.437  1.00  0.00     0.011 C 
HETATM   18  C26 UNL     1      -1.031   5.497  13.754  1.00  0.00     0.011 C 
HETATM   19  C27 UNL     1      -1.594   6.639  14.615  1.00  0.00    -0.032 C 
HETATM   20  C28 UNL     1      -1.957   5.995  16.008  1.00  0.00     0.016 C 
ENDROOT
BRANCH   1  21
HETATM   21  C7  UNL     1       0.696   8.030  14.324  1.00  0.00    -0.014 C 
HETATM   22  C8  UNL     1       1.479   6.753  14.017  1.00  0.00     0.010 C 
BRANCH  21  23
HETATM   23  C6  UNL     1       0.638   8.936  13.062  1.00  0.00     0.008 C 
BRANCH  23  24
HETATM   24  C5  UNL     1       1.438   8.461  11.846  1.00  0.00     0.028 C 
BRANCH  24  25
HETATM   25  C4  UNL     1       0.577   8.440  10.611  1.00  0.00    -0.025 C 
HETATM   26  C2  UNL     1       0.954   8.141   9.353  1.00  0.00    -0.091 C 
HETATM   27  C1  UNL     1       2.336   7.709   8.944  1.00  0.00     0.042 C 
HETATM   28  C3  UNL     1      -0.034   8.210   8.217  1.00  0.00     0.042 C 
ENDBRANCH  24  25
ENDBRANCH  23  24
ENDBRANCH  21  23
ENDBRANCH   1  21
BRANCH   8  29
HETATM   29  O1  UNL     1      -7.628   6.136  13.071  1.00  0.00    -0.395 OA
HETATM   30  H28 UNL     1      -7.578   6.538  12.187  1.00  0.00     0.210 HD
ENDBRANCH   8  29
BRANCH  11  31
HETATM   31  O2  UNL     1      -7.146   0.859  12.523  1.00  0.00    -0.396 OA
HETATM   32  H33 UNL     1      -7.079   0.124  11.890  1.00  0.00     0.210 HD
ENDBRANCH  11  31
TORSDOF 6
ENDMDL
MODEL 5
REMARK minimizedAffinity -8.02421093
REMARK CNNscore 0.419322044
REMARK CNNaffinity 6.6744256
REMARK  6 active torsions:
REMARK  status: ('A' for Active; 'I' for Inactive)
REMARK    1  A    between atoms: C4_4  and  C5_5 
REMARK    2  A    between atoms: C5_5  and  C6_6 
REMARK    3  A    between atoms: C6_6  and  C7_7 
REMARK    4  A    between atoms: C7_7  and  C9_9 
REMARK    5  A    between atoms: C16_16  and  O1_17 
REMARK    6  A    between atoms: C19_20  and  O2_21 
ROOT
HETATM    1  C9  UNL     1      -0.174   9.747  13.920  1.00  0.00    -0.002 C 
HETATM    2  C10 UNL     1       1.217   9.064  13.809  1.00  0.00     0.006 C 
HETATM    3  C11 UNL     1       1.003   7.707  13.102  1.00  0.00     0.011 C 
HETATM    4  C12 UNL     1      -0.414   7.302  13.525  1.00  0.00    -0.032 C 
HETATM    5  C13 UNL     1      -0.298   6.773  14.986  1.00  0.00     0.016 C 
HETATM    6  C14 UNL     1      -1.142   6.230  12.667  1.00  0.00     0.006 C 
HETATM    7  C15 UNL     1      -0.395   4.903  12.504  1.00  0.00     0.038 C 
HETATM    8  C16 UNL     1      -1.170   4.003  11.542  1.00  0.00     0.123 C 
HETATM    9  C17 UNL     1      -2.561   3.607  12.074  1.00  0.00     0.026 C 
HETATM   10  C18 UNL     1      -3.392   3.017  10.921  1.00  0.00     0.039 C 
HETATM   11  C19 UNL     1      -4.752   2.504  11.396  1.00  0.00     0.118 C 
HETATM   12  C20 UNL     1      -5.406   3.404  12.447  1.00  0.00     0.032 C 
HETATM   13  C21 UNL     1      -4.805   4.808  12.444  1.00  0.00     0.013 C 
HETATM   14  C22 UNL     1      -3.318   4.756  12.769  1.00  0.00    -0.025 A 
HETATM   15  C23 UNL     1      -2.926   4.994  14.212  1.00  0.00     0.021 A 
HETATM   16  C24 UNL     1      -2.586   6.052  13.184  1.00  0.00    -0.027 A 
HETATM   17  C25 UNL     1      -3.374   7.369  13.303  1.00  0.00     0.011 C 
HETATM   18  C26 UNL     1      -2.584   8.529  13.958  1.00  0.00     0.011 C 
HETATM   19  C27 UNL     1      -1.175   8.672  13.359  1.00  0.00    -0.032 C 
HETATM   20  C28 UNL     1      -1.383   9.111  11.858  1.00  0.00     0.016 C 
ENDROOT
BRANCH   1  21
HETATM   21  C7  UNL     1      -0.535  10.506  15.228  1.00  0.00    -0.014 C 
HETATM   22  C8  UNL     1       0.516  10.528  16.337  1.00  0.00     0.010 C 
BRANCH  21  23
HETATM   23  C6  UNL     1      -1.055  11.945  14.956  1.00  0.00     0.008 C 
BRANCH  23  24
HETATM   24  C5  UNL     1      -2.565  12.158  15.087  1.00  0.00     0.028 C 
BRANCH  24  25
HETATM   25  C4  UNL     1      -2.945  12.452  16.514  1.00  0.00    -0.025 C 
HETATM   26  C2  UNL     1      -3.392  11.581  17.440  1.00  0.00    -0.091 C 
HETATM   27  C1  UNL     1      -3.550  10.100  17.229  1.00  0.00     0.042 C 
HETATM   28  C3  UNL     1      -3.770  12.054  18.820  1.00  0.00     0.042 C 
ENDBRANCH  24  25
ENDBRANCH  23  24
ENDBRANCH  21  23
ENDBRANCH   1  21
BRANCH   8  29
HETATM   29  O1  UNL     1      -0.395   2.825  11.299  1.00  0.00    -0.395 OA
HETATM   30  H28 UNL     1      -0.222   2.399  12.156  1.00  0.00     0.210 HD
ENDBRANCH   8  29
BRANCH  11  31
HETATM   31  O2  UNL     1      -5.601   2.397  10.253  1.00  0.00    -0.396 OA
HETATM   32  H33 UNL     1      -6.447   2.019  10.548  1.00  0.00     0.210 HD
ENDBRANCH  11  31
TORSDOF 6
ENDMDL
MODEL 6
REMARK minimizedAffinity -8.71707726
REMARK CNNscore 0.39174059
REMARK CNNaffinity 6.73328161
REMARK  6 active torsions:
REMARK  status: ('A' for Active; 'I' for Inactive)
REMARK    1  A    between atoms: C4_4  and  C5_5 
REMARK    2  A    between atoms: C5_5  and  C6_6 
REMARK    3  A    between atoms: C6_6  and  C7_7 
REMARK    4  A    between atoms: C7_7  and  C9_9 
REMARK    5  A    between atoms: C16_16  and  O1_17 
REMARK    6  A    between atoms: C19_20  and  O2_21 
ROOT
HETATM    1  C9  UNL     1       1.803   7.156  11.303  1.00  0.00    -0.002 C 
HETATM    2  C10 UNL     1       2.157   5.646  11.389  1.00  0.00     0.006 C 
HETATM    3  C11 UNL     1       0.828   4.875  11.552  1.00  0.00     0.011 C 
HETATM    4  C12 UNL     1      -0.068   5.861  12.311  1.00  0.00    -0.032 C 
HETATM    5  C13 UNL     1       0.396   5.817  13.798  1.00  0.00     0.016 C 
HETATM    6  C14 UNL     1      -1.602   5.621  12.263  1.00  0.00     0.006 C 
HETATM    7  C15 UNL     1      -2.064   4.239  12.737  1.00  0.00     0.038 C 
HETATM    8  C16 UNL     1      -3.571   4.109  12.517  1.00  0.00     0.123 C 
HETATM    9  C17 UNL     1      -4.392   5.106  13.359  1.00  0.00     0.026 C 
HETATM   10  C18 UNL     1      -5.834   5.151  12.823  1.00  0.00     0.039 C 
HETATM   11  C19 UNL     1      -6.737   6.042  13.674  1.00  0.00     0.118 C 
HETATM   12  C20 UNL     1      -6.046   7.319  14.158  1.00  0.00     0.032 C 
HETATM   13  C21 UNL     1      -4.807   7.644  13.325  1.00  0.00     0.013 C 
HETATM   14  C22 UNL     1      -3.783   6.521  13.426  1.00  0.00    -0.025 A 
HETATM   15  C23 UNL     1      -2.683   6.690  14.452  1.00  0.00     0.021 A 
HETATM   16  C24 UNL     1      -2.326   6.779  12.983  1.00  0.00    -0.027 A 
HETATM   17  C25 UNL     1      -1.917   8.177  12.484  1.00  0.00     0.011 C 
HETATM   18  C26 UNL     1      -0.391   8.371  12.307  1.00  0.00     0.011 C 
HETATM   19  C27 UNL     1       0.249   7.200  11.542  1.00  0.00    -0.032 C 
HETATM   20  C28 UNL     1      -0.346   7.257  10.082  1.00  0.00     0.016 C 
ENDROOT
BRANCH   1  21
HETATM   21  C7  UNL     1       2.710   8.183  12.038  1.00  0.00    -0.014 C 
HETATM   22  C8  UNL     1       3.351   7.736  13.351  1.00  0.00     0.010 C 
BRANCH  21  23
HETATM   23  C6  UNL     1       3.785   8.803  11.103  1.00  0.00     0.008 C 
BRANCH  23  24
HETATM   24  C5  UNL     1       4.196   7.964   9.890  1.00  0.00     0.028 C 
BRANCH  24  25
HETATM   25  C4  UNL     1       3.239   8.165   8.746  1.00  0.00    -0.025 C 
HETATM   26  C2  UNL     1       2.697   7.221   7.953  1.00  0.00    -0.091 C 
HETATM   27  C1  UNL     1       2.915   5.739   8.100  1.00  0.00     0.042 C 
HETATM   28  C3  UNL     1       1.782   7.603   6.818  1.00  0.00     0.042 C 
ENDBRANCH  24  25
ENDBRANCH  23  24
ENDBRANCH  21  23
ENDBRANCH   1  21
BRANCH   8  29
HETATM   29  O1  UNL     1      -3.962   2.771  12.840  1.00  0.00    -0.395 OA
HETATM   30  H28 UNL     1      -3.700   2.597  13.760  1.00  0.00     0.210 HD
ENDBRANCH   8  29
BRANCH  11  31
HETATM   31  O2  UNL     1      -7.882   6.379  12.890  1.00  0.00    -0.396 OA
HETATM   32  H33 UNL     1      -8.481   6.900  13.451  1.00  0.00     0.210 HD
ENDBRANCH  11  31
TORSDOF 6
ENDMDL
MODEL 7
REMARK minimizedAffinity -6.83140039
REMARK CNNscore 0.368084043
REMARK CNNaffinity 5.71307755
REMARK  6 active torsions:
REMARK  status: ('A' for Active; 'I' for Inactive)
REMARK    1  A    between atoms: C4_4  and  C5_5 
REMARK    2  A    between atoms: C5_5  and  C6_6 
REMARK    3  A    between atoms: C6_6  and  C7_7 
REMARK    4  A    between atoms: C7_7  and  C9_9 
REMARK    5  A    between atoms: C16_16  and  O1_17 
REMARK    6  A    between atoms: C19_20  and  O2_21 
ROOT
HETATM    1  C9  UNL     1       2.182  11.059  21.535  1.00  0.00    -0.002 C 
HETATM    2  C10 UNL     1       3.152   9.857  21.371  1.00  0.00     0.006 C 
HETATM    3  C11 UNL     1       4.517  10.292  21.949  1.00  0.00     0.011 C 
HETATM    4  C12 UNL     1       4.552  11.803  21.690  1.00  0.00    -0.032 C 
HETATM    5  C13 UNL     1       4.886  11.979  20.178  1.00  0.00     0.016 C 
HETATM    6  C14 UNL     1       5.553  12.651  22.521  1.00  0.00     0.006 C 
HETATM    7  C15 UNL     1       7.018  12.213  22.430  1.00  0.00     0.038 C 
HETATM    8  C16 UNL     1       7.858  13.056  23.389  1.00  0.00     0.123 C 
HETATM    9  C17 UNL     1       7.873  14.553  23.020  1.00  0.00     0.026 C 
HETATM   10  C18 UNL     1       8.429  15.358  24.208  1.00  0.00     0.039 C 
HETATM   11  C19 UNL     1       8.572  16.844  23.879  1.00  0.00     0.118 C 
HETATM   12  C20 UNL     1       7.418  17.392  23.037  1.00  0.00     0.032 C 
HETATM   13  C21 UNL     1       6.186  16.492  23.107  1.00  0.00     0.013 C 
HETATM   14  C22 UNL     1       6.506  15.103  22.570  1.00  0.00    -0.025 A 
HETATM   15  C23 UNL     1       6.160  14.836  21.120  1.00  0.00     0.021 A 
HETATM   16  C24 UNL     1       5.349  14.147  22.199  1.00  0.00    -0.027 A 
HETATM   17  C25 UNL     1       3.892  14.624  22.338  1.00  0.00     0.011 C 
HETATM   18  C26 UNL     1       2.847  13.672  21.708  1.00  0.00     0.011 C 
HETATM   19  C27 UNL     1       3.088  12.208  22.112  1.00  0.00    -0.032 C 
HETATM   20  C28 UNL     1       2.826  12.137  23.666  1.00  0.00     0.016 C 
ENDROOT
BRANCH   1  21
HETATM   21  C7  UNL     1       1.191  11.386  20.382  1.00  0.00    -0.014 C 
HETATM   22  C8  UNL     1       0.842  12.856  20.155  1.00  0.00     0.010 C 
BRANCH  21  23
HETATM   23  C6  UNL     1       1.602  10.722  19.038  1.00  0.00     0.008 C 
BRANCH  23  24
HETATM   24  C5  UNL     1       0.505  10.595  17.978  1.00  0.00     0.028 C 
BRANCH  24  25
HETATM   25  C4  UNL     1      -0.859  10.751  18.595  1.00  0.00    -0.025 C 
HETATM   26  C2  UNL     1      -2.018  10.210  18.170  1.00  0.00    -0.091 C 
HETATM   27  C1  UNL     1      -2.160   9.281  16.996  1.00  0.00     0.042 C 
HETATM   28  C3  UNL     1      -3.311  10.505  18.887  1.00  0.00     0.042 C 
ENDBRANCH  24  25
ENDBRANCH  23  24
ENDBRANCH  21  23
ENDBRANCH   1  21
BRANCH   8  29
HETATM   29  O1  UNL     1       9.195  12.547  23.388  1.00  0.00    -0.395 OA
HETATM   30  H28 UNL     1       9.525  12.575  22.474  1.00  0.00     0.210 HD
ENDBRANCH   8  29
BRANCH  11  31
HETATM   31  O2  UNL     1       8.654  17.558  25.112  1.00  0.00    -0.396 OA
HETATM   32  H33 UNL     1       8.800  18.496  24.901  1.00  0.00     0.210 HD
ENDBRANCH  11  31
TORSDOF 6
ENDMDL
MODEL 8
REMARK minimizedAffinity -8.46889019
REMARK CNNscore 0.363363713
REMARK CNNaffinity 6.4012084
REMARK  6 active torsions:
REMARK  status: ('A' for Active; 'I' for Inactive)
REMARK    1  A    between atoms: C4_4  and  C5_5 
REMARK    2  A    between atoms: C5_5  and  C6_6 
REMARK    3  A    between atoms: C6_6  and  C7_7 
REMARK    4  A    between atoms: C7_7  and  C9_9 
REMARK    5  A    between atoms: C16_16  and  O1_17 
REMARK    6  A    between atoms: C19_20  and  O2_21 
ROOT
HETATM    1  C9  UNL     1      -2.884   8.040  14.591  1.00  0.00    -0.002 C 
HETATM    2  C10 UNL     1      -2.315   7.524  15.941  1.00  0.00     0.006 C 
HETATM    3  C11 UNL     1      -0.777   7.647  15.864  1.00  0.00     0.011 C 
HETATM    4  C12 UNL     1      -0.476   7.452  14.373  1.00  0.00    -0.032 C 
HETATM    5  C13 UNL     1      -0.588   5.922  14.102  1.00  0.00     0.016 C 
HETATM    6  C14 UNL     1       0.899   7.949  13.847  1.00  0.00     0.006 C 
HETATM    7  C15 UNL     1       2.123   7.372  14.565  1.00  0.00     0.038 C 
HETATM    8  C16 UNL     1       3.386   8.042  14.025  1.00  0.00     0.123 C 
HETATM    9  C17 UNL     1       3.633   7.748  12.532  1.00  0.00     0.026 C 
HETATM   10  C18 UNL     1       4.695   8.725  11.995  1.00  0.00     0.039 C 
HETATM   11  C19 UNL     1       5.070   8.427  10.544  1.00  0.00     0.118 C 
HETATM   12  C20 UNL     1       3.873   8.025   9.679  1.00  0.00     0.032 C 
HETATM   13  C21 UNL     1       2.549   8.453  10.309  1.00  0.00     0.013 C 
HETATM   14  C22 UNL     1       2.359   7.786  11.665  1.00  0.00    -0.025 A 
HETATM   15  C23 UNL     1       1.535   6.516  11.692  1.00  0.00     0.021 A 
HETATM   16  C24 UNL     1       0.957   7.770  12.315  1.00  0.00    -0.027 A 
HETATM   17  C25 UNL     1      -0.237   8.391  11.567  1.00  0.00     0.011 C 
HETATM   18  C26 UNL     1      -1.614   8.094  12.207  1.00  0.00     0.011 C 
HETATM   19  C27 UNL     1      -1.606   8.339  13.725  1.00  0.00    -0.032 C 
HETATM   20  C28 UNL     1      -1.389   9.890  13.913  1.00  0.00     0.016 C 
ENDROOT
BRANCH   1  21
HETATM   21  C7  UNL     1      -4.076   7.282  13.940  1.00  0.00    -0.014 C 
HETATM   22  C8  UNL     1      -5.117   8.120  13.199  1.00  0.00     0.010 C 
BRANCH  21  23
HETATM   23  C6  UNL     1      -3.612   6.097  13.049  1.00  0.00     0.008 C 
BRANCH  23  24
HETATM   24  C5  UNL     1      -3.876   4.691  13.595  1.00  0.00     0.028 C 
BRANCH  24  25
HETATM   25  C4  UNL     1      -4.248   3.744  12.485  1.00  0.00    -0.025 C 
HETATM   26  C2  UNL     1      -5.483   3.331  12.138  1.00  0.00    -0.091 C 
HETATM   27  C1  UNL     1      -6.762   3.794  12.781  1.00  0.00     0.042 C 
HETATM   28  C3  UNL     1      -5.675   2.339  11.020  1.00  0.00     0.042 C 
ENDBRANCH  24  25
ENDBRANCH  23  24
ENDBRANCH  21  23
ENDBRANCH   1  21
BRANCH   8  29
HETATM   29  O1  UNL     1       4.504   7.590  14.795  1.00  0.00    -0.395 OA
HETATM   30  H28 UNL     1       4.537   6.620  14.734  1.00  0.00     0.210 HD
ENDBRANCH   8  29
BRANCH  11  31
HETATM   31  O2  UNL     1       5.687   9.595  10.003  1.00  0.00    -0.396 OA
HETATM   32  H33 UNL     1       5.974   9.386   9.099  1.00  0.00     0.210 HD
ENDBRANCH  11  31
TORSDOF 6
ENDMDL
MODEL 9
REMARK minimizedAffinity -6.99820518
REMARK CNNscore 0.356755793
REMARK CNNaffinity 6.29763222
REMARK  6 active torsions:
REMARK  status: ('A' for Active; 'I' for Inactive)
REMARK    1  A    between atoms: C4_4  and  C5_5 
REMARK    2  A    between atoms: C5_5  and  C6_6 
REMARK    3  A    between atoms: C6_6  and  C7_7 
REMARK    4  A    between atoms: C7_7  and  C9_9 
REMARK    5  A    between atoms: C16_16  and  O1_17 
REMARK    6  A    between atoms: C19_20  and  O2_21 
ROOT
HETATM    1  C9  UNL     1       0.168   6.731  13.187  1.00  0.00    -0.002 C 
HETATM    2  C10 UNL     1       1.398   6.669  14.134  1.00  0.00     0.006 C 
HETATM    3  C11 UNL     1       1.062   7.527  15.373  1.00  0.00     0.011 C 
HETATM    4  C12 UNL     1       0.129   8.610  14.818  1.00  0.00    -0.032 C 
HETATM    5  C13 UNL     1       1.042   9.635  14.080  1.00  0.00     0.016 C 
HETATM    6  C14 UNL     1      -0.763   9.380  15.831  1.00  0.00     0.006 C 
HETATM    7  C15 UNL     1      -0.011  10.070  16.973  1.00  0.00     0.038 C 
HETATM    8  C16 UNL     1      -1.021  10.674  17.948  1.00  0.00     0.123 C 
HETATM    9  C17 UNL     1      -1.879  11.788  17.315  1.00  0.00     0.026 C 
HETATM   10  C18 UNL     1      -3.078  12.083  18.232  1.00  0.00     0.039 C 
HETATM   11  C19 UNL     1      -3.920  13.252  17.720  1.00  0.00     0.118 C 
HETATM   12  C20 UNL     1      -4.082  13.261  16.199  1.00  0.00     0.032 C 
HETATM   13  C21 UNL     1      -3.781  11.894  15.588  1.00  0.00     0.013 C 
HETATM   14  C22 UNL     1      -2.344  11.481  15.878  1.00  0.00    -0.025 A 
HETATM   15  C23 UNL     1      -1.320  11.774  14.802  1.00  0.00     0.021 A 
HETATM   16  C24 UNL     1      -1.705  10.333  15.064  1.00  0.00    -0.027 A 
HETATM   17  C25 UNL     1      -2.512   9.649  13.946  1.00  0.00     0.011 C 
HETATM   18  C26 UNL     1      -1.683   8.694  13.054  1.00  0.00     0.011 C 
HETATM   19  C27 UNL     1      -0.806   7.745  13.889  1.00  0.00    -0.032 C 
HETATM   20  C28 UNL     1      -1.804   6.812  14.676  1.00  0.00     0.016 C 
ENDROOT
BRANCH   1  21
HETATM   21  C7  UNL     1       0.406   6.850  11.654  1.00  0.00    -0.014 C 
HETATM   22  C8  UNL     1       0.382   8.253  11.049  1.00  0.00     0.010 C 
BRANCH  21  23
HETATM   23  C6  UNL     1       1.681   6.091  11.190  1.00  0.00     0.008 C 
BRANCH  23  24
HETATM   24  C5  UNL     1       2.588   6.826  10.200  1.00  0.00     0.028 C 
BRANCH  24  25
HETATM   25  C4  UNL     1       2.854   5.980   8.984  1.00  0.00    -0.025 C 
HETATM   26  C2  UNL     1       2.538   6.259   7.704  1.00  0.00    -0.091 C 
HETATM   27  C1  UNL     1       1.886   7.530   7.233  1.00  0.00     0.042 C 
HETATM   28  C3  UNL     1       2.842   5.274   6.605  1.00  0.00     0.042 C 
ENDBRANCH  24  25
ENDBRANCH  23  24
ENDBRANCH  21  23
ENDBRANCH   1  21
BRANCH   8  29
HETATM   29  O1  UNL     1      -0.308  11.198  19.073  1.00  0.00    -0.395 OA
HETATM   30  H28 UNL     1       0.333  11.850  18.743  1.00  0.00     0.210 HD
ENDBRANCH   8  29
BRANCH  11  31
HETATM   31  O2  UNL     1      -5.202  13.172  18.343  1.00  0.00    -0.396 OA
HETATM   32  H33 UNL     1      -5.717  13.946  18.059  1.00  0.00     0.210 HD
ENDBRANCH  11  31
TORSDOF 6
ENDMDL
