MODEL 1
REMARK minimizedAffinity -9.19236565
REMARK  5 active torsions:
REMARK  status: ('A' for Active; 'I' for Inactive)
REMARK    1  A    between atoms: C2_2  and  C4_4 
REMARK    2  A    between atoms: C7_7  and  C8_8 
REMARK    3  A    between atoms: C8_8  and  O2_10 
REMARK    4  A    between atoms: C11_13  and  C12_14 
REMARK    5  A    between atoms: C12_14  and  O4_16 
ROOT
HETATM    1  C4  UNL     1      -5.374   4.463  13.077  1.00  0.00     0.019 C 
HETATM    2  C5  UNL     1      -6.914   4.532  12.883  1.00  0.00     0.011 C 
HETATM    3  C6  UNL     1      -7.334   5.977  13.201  1.00  0.00     0.021 C 
HETATM    4  C7  UNL     1      -6.210   6.499  14.103  1.00  0.00     0.050 C 
HETATM    5  C9  UNL     1      -6.080   8.024  14.180  1.00  0.00     0.022 C 
HETATM    6  C10 UNL     1      -4.756   8.431  14.868  1.00  0.00     0.023 C 
HETATM    7  C11 UNL     1      -3.465   7.838  14.187  1.00  0.00     0.057 C 
HETATM    8  C13 UNL     1      -3.658   6.272  14.096  1.00  0.00     0.011 C 
HETATM    9  C14 UNL     1      -2.429   5.519  13.577  1.00  0.00     0.007 C 
HETATM   10  C15 UNL     1      -1.137   5.911  14.295  1.00  0.00     0.006 C 
HETATM   11  C16 UNL     1      -0.897   7.436  14.327  1.00  0.00     0.003 C 
HETATM   12  C17 UNL     1       0.568   7.864  14.803  1.00  0.00    -0.035 C 
HETATM   13  C18 UNL     1       0.906   7.317  16.209  1.00  0.00     0.016 C 
HETATM   14  C19 UNL     1       1.610   7.278  13.799  1.00  0.00     0.017 C 
HETATM   15  C20 UNL     1       3.027   7.807  13.974  1.00  0.00     0.080 C 
HETATM   16  C21 UNL     1       3.072   9.315  13.967  1.00  0.00     0.135 C 
HETATM   17  O5  UNL     1       3.941   9.897  13.313  1.00  0.00    -0.297 OA
HETATM   18  C22 UNL     1       2.084  10.065  14.876  1.00  0.00     0.017 C 
HETATM   19  C23 UNL     1       2.627  10.044  16.311  1.00  0.00     0.023 C 
HETATM   20  C24 UNL     1       2.061  11.547  14.420  1.00  0.00     0.023 C 
HETATM   21  C25 UNL     1       0.661   9.432  14.692  1.00  0.00     0.009 C 
HETATM   22  C26 UNL     1      -0.446  10.112  15.521  1.00  0.00     0.007 C 
HETATM   23  C27 UNL     1      -1.834   9.715  15.009  1.00  0.00     0.011 C 
HETATM   24  C28 UNL     1      -2.113   8.186  15.007  1.00  0.00    -0.022 C 
HETATM   25  C29 UNL     1      -2.287   7.768  16.496  1.00  0.00     0.017 C 
HETATM   26  C30 UNL     1      -4.976   5.930  13.360  1.00  0.00     0.018 C 
ENDROOT
BRANCH   4  27
HETATM   27  C8  UNL     1      -6.454   5.939  15.514  1.00  0.00     0.149 C 
HETATM   28  O1  UNL     1      -7.460   5.397  15.937  1.00  0.00    -0.649 OA
BRANCH  27  29
HETATM   29  O2  UNL     1      -5.400   6.112  16.337  1.00  0.00    -0.776 OA
HETATM   30  H11 UNL     1      -5.696   5.728  17.188  1.00  0.00     0.167 HD
ENDBRANCH  27  29
ENDBRANCH   4  27
BRANCH   1  31
HETATM   31  C2  UNL     1      -4.687   3.778  11.907  1.00  0.00    -0.088 C 
HETATM   32  C1  UNL     1      -3.387   4.000  11.647  1.00  0.00     0.014 C 
HETATM   33  C3  UNL     1      -5.482   2.826  11.053  1.00  0.00     0.043 C 
ENDBRANCH   1  31
BRANCH   7  34
HETATM   34  C12 UNL     1      -3.419   8.524  12.794  1.00  0.00     0.149 C 
HETATM   35  O3  UNL     1      -2.431   8.641  12.082  1.00  0.00    -0.649 OA
BRANCH  34  36
HETATM   36  O4  UNL     1      -4.585   9.005  12.340  1.00  0.00    -0.776 OA
HETATM   37  H16 UNL     1      -4.361   9.374  11.459  1.00  0.00     0.167 HD
ENDBRANCH  34  36
ENDBRANCH   7  34
TORSDOF 5
ENDMDL
MODEL 2
REMARK minimizedAffinity -8.97951221
REMARK  5 active torsions:
REMARK  status: ('A' for Active; 'I' for Inactive)
REMARK    1  A    between atoms: C2_2  and  C4_4 
REMARK    2  A    between atoms: C7_7  and  C8_8 
REMARK    3  A    between atoms: C8_8  and  O2_10 
REMARK    4  A    between atoms: C11_13  and  C12_14 
REMARK    5  A    between atoms: C12_14  and  O4_16 
ROOT
HETATM    1  C4  UNL     1      -0.437  10.695  16.061  1.00  0.00     0.019 C 
HETATM    2  C5  UNL     1       1.042  10.997  15.695  1.00  0.00     0.011 C 
HETATM    3  C6  UNL     1       1.430  10.011  14.579  1.00  0.00     0.021 C 
HETATM    4  C7  UNL     1       0.447   8.848  14.755  1.00  0.00     0.050 C 
HETATM    5  C9  UNL     1       0.248   7.960  13.522  1.00  0.00     0.022 C 
HETATM    6  C10 UNL     1      -0.961   7.016  13.710  1.00  0.00     0.023 C 
HETATM    7  C11 UNL     1      -2.314   7.756  14.035  1.00  0.00     0.057 C 
HETATM    8  C13 UNL     1      -2.054   8.685  15.287  1.00  0.00     0.011 C 
HETATM    9  C14 UNL     1      -3.310   9.380  15.822  1.00  0.00     0.007 C 
HETATM   10  C15 UNL     1      -4.483   8.422  16.035  1.00  0.00     0.006 C 
HETATM   11  C16 UNL     1      -4.797   7.559  14.794  1.00  0.00     0.003 C 
HETATM   12  C17 UNL     1      -6.182   6.766  14.874  1.00  0.00    -0.035 C 
HETATM   13  C18 UNL     1      -6.250   5.836  16.107  1.00  0.00     0.016 C 
HETATM   14  C19 UNL     1      -7.345   7.802  14.993  1.00  0.00     0.017 C 
HETATM   15  C20 UNL     1      -8.739   7.213  14.826  1.00  0.00     0.080 C 
HETATM   16  C21 UNL     1      -8.866   6.414  13.552  1.00  0.00     0.135 C 
HETATM   17  O5  UNL     1      -9.863   6.557  12.840  1.00  0.00    -0.297 OA
HETATM   18  C22 UNL     1      -7.782   5.366  13.253  1.00  0.00     0.017 C 
HETATM   19  C23 UNL     1      -8.075   4.109  14.085  1.00  0.00     0.023 C 
HETATM   20  C24 UNL     1      -7.917   4.965  11.762  1.00  0.00     0.023 C 
HETATM   21  C25 UNL     1      -6.378   6.017  13.503  1.00  0.00     0.009 C 
HETATM   22  C26 UNL     1      -5.186   5.086  13.206  1.00  0.00     0.007 C 
HETATM   23  C27 UNL     1      -3.885   5.885  13.090  1.00  0.00     0.011 C 
HETATM   24  C28 UNL     1      -3.527   6.729  14.346  1.00  0.00    -0.022 C 
HETATM   25  C29 UNL     1      -3.083   5.719  15.444  1.00  0.00     0.017 C 
HETATM   26  C30 UNL     1      -0.861   9.634  15.019  1.00  0.00     0.018 C 
ENDROOT
BRANCH   4  27
HETATM   27  C8  UNL     1       0.954   7.988  15.923  1.00  0.00     0.149 C 
HETATM   28  O1  UNL     1       2.015   8.085  16.515  1.00  0.00    -0.649 OA
BRANCH  27  29
HETATM   29  O2  UNL     1       0.085   7.021  16.279  1.00  0.00    -0.776 OA
HETATM   30  H11 UNL     1       0.536   6.551  17.011  1.00  0.00     0.167 HD
ENDBRANCH  27  29
ENDBRANCH   4  27
BRANCH   1  31
HETATM   31  C2  UNL     1      -1.272  11.963  16.129  1.00  0.00    -0.088 C 
HETATM   32  C1  UNL     1      -1.619  12.494  17.315  1.00  0.00     0.014 C 
HETATM   33  C3  UNL     1      -1.686  12.631  14.845  1.00  0.00     0.043 C 
ENDBRANCH   1  31
BRANCH   7  34
HETATM   34  C12 UNL     1      -2.631   8.557  12.742  1.00  0.00     0.149 C 
HETATM   35  O3  UNL     1      -1.834   8.843  11.859  1.00  0.00    -0.649 OA
BRANCH  34  36
HETATM   36  O4  UNL     1      -3.906   8.940  12.589  1.00  0.00    -0.776 OA
HETATM   37  H16 UNL     1      -3.912   9.404  11.725  1.00  0.00     0.167 HD
ENDBRANCH  34  36
ENDBRANCH   7  34
TORSDOF 5
ENDMDL
MODEL 3
REMARK minimizedAffinity -8.30312252
REMARK  5 active torsions:
REMARK  status: ('A' for Active; 'I' for Inactive)
REMARK    1  A    between atoms: C2_2  and  C4_4 
REMARK    2  A    between atoms: C7_7  and  C8_8 
REMARK    3  A    between atoms: C8_8  and  O2_10 
REMARK    4  A    between atoms: C11_13  and  C12_14 
REMARK    5  A    between atoms: C12_14  and  O4_16 
ROOT
HETATM    1  C4  UNL     1      -3.939   4.649  13.115  1.00  0.00     0.019 C 
HETATM    2  C5  UNL     1      -5.486   4.707  12.993  1.00  0.00     0.011 C 
HETATM    3  C6  UNL     1      -5.891   6.173  13.230  1.00  0.00     0.021 C 
HETATM    4  C7  UNL     1      -4.724   6.754  14.036  1.00  0.00     0.050 C 
HETATM    5  C9  UNL     1      -4.592   8.280  14.000  1.00  0.00     0.022 C 
HETATM    6  C10 UNL     1      -3.236   8.731  14.589  1.00  0.00     0.023 C 
HETATM    7  C11 UNL     1      -1.980   8.088  13.888  1.00  0.00     0.057 C 
HETATM    8  C13 UNL     1      -2.176   6.520  13.916  1.00  0.00     0.011 C 
HETATM    9  C14 UNL     1      -0.973   5.730  13.391  1.00  0.00     0.007 C 
HETATM   10  C15 UNL     1       0.353   6.168  14.014  1.00  0.00     0.006 C 
HETATM   11  C16 UNL     1       0.593   7.691  13.927  1.00  0.00     0.003 C 
HETATM   12  C17 UNL     1       2.079   8.148  14.298  1.00  0.00    -0.035 C 
HETATM   13  C18 UNL     1       2.488   7.700  15.719  1.00  0.00     0.016 C 
HETATM   14  C19 UNL     1       3.070   7.491  13.286  1.00  0.00     0.017 C 
HETATM   15  C20 UNL     1       4.494   8.028  13.352  1.00  0.00     0.080 C 
HETATM   16  C21 UNL     1       4.536   9.531  13.237  1.00  0.00     0.135 C 
HETATM   17  O5  UNL     1       5.370  10.063  12.501  1.00  0.00    -0.297 OA
HETATM   18  C22 UNL     1       3.594  10.345  14.140  1.00  0.00     0.017 C 
HETATM   19  C23 UNL     1       4.208  10.424  15.544  1.00  0.00     0.023 C 
HETATM   20  C24 UNL     1       3.547  11.791  13.583  1.00  0.00     0.023 C 
HETATM   21  C25 UNL     1       2.164   9.704  14.072  1.00  0.00     0.009 C 
HETATM   22  C26 UNL     1       1.099  10.443  14.907  1.00  0.00     0.007 C 
HETATM   23  C27 UNL     1      -0.312  10.015  14.493  1.00  0.00     0.011 C 
HETATM   24  C28 UNL     1      -0.589   8.490  14.613  1.00  0.00    -0.022 C 
HETATM   25  C29 UNL     1      -0.687   8.177  16.134  1.00  0.00     0.017 C 
HETATM   26  C30 UNL     1      -3.529   6.131  13.273  1.00  0.00     0.018 C 
ENDROOT
BRANCH   4  27
HETATM   27  C8  UNL     1      -4.896   6.294  15.493  1.00  0.00     0.149 C 
HETATM   28  O1  UNL     1      -5.936   6.160  16.114  1.00  0.00    -0.649 OA
BRANCH  27  29
HETATM   29  O2  UNL     1      -3.722   6.040  16.106  1.00  0.00    -0.776 OA
HETATM   30  H11 UNL     1      -3.979   5.776  17.014  1.00  0.00     0.167 HD
ENDBRANCH  27  29
ENDBRANCH   4  27
BRANCH   1  31
HETATM   31  C2  UNL     1      -3.311   3.882  11.962  1.00  0.00    -0.088 C 
HETATM   32  C1  UNL     1      -3.873   3.894  10.741  1.00  0.00     0.014 C 
HETATM   33  C3  UNL     1      -2.032   3.124  12.204  1.00  0.00     0.043 C 
ENDBRANCH   1  31
BRANCH   7  34
HETATM   34  C12 UNL     1      -2.004   8.676  12.450  1.00  0.00     0.149 C 
HETATM   35  O3  UNL     1      -3.004   8.971  11.810  1.00  0.00    -0.649 OA
BRANCH  34  36
HETATM   36  O4  UNL     1      -0.808   8.893  11.887  1.00  0.00    -0.776 OA
HETATM   37  H16 UNL     1      -1.024   9.274  11.010  1.00  0.00     0.167 HD
ENDBRANCH  34  36
ENDBRANCH   7  34
TORSDOF 5
ENDMDL
MODEL 4
REMARK minimizedAffinity -7.8918047
REMARK  5 active torsions:
REMARK  status: ('A' for Active; 'I' for Inactive)
REMARK    1  A    between atoms: C2_2  and  C4_4 
REMARK    2  A    between atoms: C7_7  and  C8_8 
REMARK    3  A    between atoms: C8_8  and  O2_10 
REMARK    4  A    between atoms: C11_13  and  C12_14 
REMARK    5  A    between atoms: C12_14  and  O4_16 
ROOT
HETATM    1  C4  UNL     1      -2.291   4.774  11.496  1.00  0.00     0.019 C 
HETATM    2  C5  UNL     1      -1.443   3.562  11.023  1.00  0.00     0.011 C 
HETATM    3  C6  UNL     1      -0.078   3.679  11.722  1.00  0.00     0.021 C 
HETATM    4  C7  UNL     1       0.037   5.170  12.061  1.00  0.00     0.050 C 
HETATM    5  C9  UNL     1       1.029   5.518  13.177  1.00  0.00     0.022 C 
HETATM    6  C10 UNL     1       0.853   6.984  13.634  1.00  0.00     0.023 C 
HETATM    7  C11 UNL     1      -0.605   7.342  14.110  1.00  0.00     0.057 C 
HETATM    8  C13 UNL     1      -1.595   6.935  12.947  1.00  0.00     0.011 C 
HETATM    9  C14 UNL     1      -3.051   7.341  13.193  1.00  0.00     0.007 C 
HETATM   10  C15 UNL     1      -3.205   8.804  13.608  1.00  0.00     0.006 C 
HETATM   11  C16 UNL     1      -2.298   9.199  14.794  1.00  0.00     0.003 C 
HETATM   12  C17 UNL     1      -2.638  10.620  15.442  1.00  0.00    -0.035 C 
HETATM   13  C18 UNL     1      -2.561  11.765  14.405  1.00  0.00     0.016 C 
HETATM   14  C19 UNL     1      -4.095  10.579  16.000  1.00  0.00     0.017 C 
HETATM   15  C20 UNL     1      -4.477  11.771  16.868  1.00  0.00     0.080 C 
HETATM   16  C21 UNL     1      -3.486  11.997  17.983  1.00  0.00     0.135 C 
HETATM   17  O5  UNL     1      -3.894  12.232  19.123  1.00  0.00    -0.297 OA
HETATM   18  C22 UNL     1      -1.993  12.032  17.618  1.00  0.00     0.017 C 
HETATM   19  C23 UNL     1      -1.665  13.412  17.030  1.00  0.00     0.023 C 
HETATM   20  C24 UNL     1      -1.186  11.896  18.935  1.00  0.00     0.023 C 
HETATM   21  C25 UNL     1      -1.682  10.817  16.677  1.00  0.00     0.009 C 
HETATM   22  C26 UNL     1      -0.203  10.703  16.257  1.00  0.00     0.007 C 
HETATM   23  C27 UNL     1       0.096   9.315  15.685  1.00  0.00     0.011 C 
HETATM   24  C28 UNL     1      -0.777   8.913  14.463  1.00  0.00    -0.022 C 
HETATM   25  C29 UNL     1      -0.279   9.772  13.264  1.00  0.00     0.017 C 
HETATM   26  C30 UNL     1      -1.400   5.447  12.566  1.00  0.00     0.018 C 
ENDROOT
BRANCH   4  27
HETATM   27  C8  UNL     1       0.444   5.905  10.774  1.00  0.00     0.149 C 
HETATM   28  O1  UNL     1      -0.053   6.913  10.303  1.00  0.00    -0.649 OA
BRANCH  27  29
HETATM   29  O2  UNL     1       1.466   5.308  10.128  1.00  0.00    -0.776 OA
HETATM   30  H11 UNL     1       1.606   5.865   9.335  1.00  0.00     0.167 HD
ENDBRANCH  27  29
ENDBRANCH   4  27
BRANCH   1  31
HETATM   31  C2  UNL     1      -3.686   4.354  11.930  1.00  0.00    -0.088 C 
HETATM   32  C1  UNL     1      -4.077   4.485  13.210  1.00  0.00     0.014 C 
HETATM   33  C3  UNL     1      -4.634   3.806  10.896  1.00  0.00     0.043 C 
ENDBRANCH   1  31
BRANCH   7  34
HETATM   34  C12 UNL     1      -0.805   6.497  15.399  1.00  0.00     0.149 C 
HETATM   35  O3  UNL     1      -1.757   5.769  15.641  1.00  0.00    -0.649 OA
BRANCH  34  36
HETATM   36  O4  UNL     1       0.182   6.568  16.303  1.00  0.00    -0.776 OA
HETATM   37  H16 UNL     1      -0.110   5.965  17.019  1.00  0.00     0.167 HD
ENDBRANCH  34  36
ENDBRANCH   7  34
TORSDOF 5
ENDMDL
MODEL 5
REMARK minimizedAffinity -7.72250652
REMARK  5 active torsions:
REMARK  status: ('A' for Active; 'I' for Inactive)
REMARK    1  A    between atoms: C2_2  and  C4_4 
REMARK    2  A    between atoms: C7_7  and  C8_8 
REMARK    3  A    between atoms: C8_8  and  O2_10 
REMARK    4  A    between atoms: C11_13  and  C12_14 
REMARK    5  A    between atoms: C12_14  and  O4_16 
ROOT
HETATM    1  C4  UNL     1       6.925  10.978  16.967  1.00  0.00     0.019 C 
HETATM    2  C5  UNL     1       8.327  11.490  17.396  1.00  0.00     0.011 C 
HETATM    3  C6  UNL     1       9.257  11.294  16.186  1.00  0.00     0.021 C 
HETATM    4  C7  UNL     1       8.576  10.188  15.372  1.00  0.00     0.050 C 
HETATM    5  C9  UNL     1       8.976  10.115  13.894  1.00  0.00     0.022 C 
HETATM    6  C10 UNL     1       8.031   9.176  13.111  1.00  0.00     0.023 C 
HETATM    7  C11 UNL     1       6.507   9.561  13.214  1.00  0.00     0.057 C 
HETATM    8  C13 UNL     1       6.148   9.660  14.750  1.00  0.00     0.011 C 
HETATM    9  C14 UNL     1       4.660   9.897  15.032  1.00  0.00     0.007 C 
HETATM   10  C15 UNL     1       3.745   8.934  14.276  1.00  0.00     0.006 C 
HETATM   11  C16 UNL     1       4.034   8.882  12.760  1.00  0.00     0.003 C 
HETATM   12  C17 UNL     1       2.922   8.120  11.901  1.00  0.00    -0.035 C 
HETATM   13  C18 UNL     1       2.714   6.665  12.378  1.00  0.00     0.016 C 
HETATM   14  C19 UNL     1       1.564   8.874  12.061  1.00  0.00     0.017 C 
HETATM   15  C20 UNL     1       0.469   8.419  11.107  1.00  0.00     0.080 C 
HETATM   16  C21 UNL     1       0.925   8.445   9.669  1.00  0.00     0.135 C 
HETATM   17  O5  UNL     1       0.184   8.916   8.803  1.00  0.00    -0.297 OA
HETATM   18  C22 UNL     1       2.268   7.777   9.331  1.00  0.00     0.017 C 
HETATM   19  C23 UNL     1       2.051   6.259   9.246  1.00  0.00     0.023 C 
HETATM   20  C24 UNL     1       2.686   8.256   7.918  1.00  0.00     0.023 C 
HETATM   21  C25 UNL     1       3.333   8.240  10.385  1.00  0.00     0.009 C 
HETATM   22  C26 UNL     1       4.746   7.672  10.148  1.00  0.00     0.007 C 
HETATM   23  C27 UNL     1       5.790   8.455  10.951  1.00  0.00     0.011 C 
HETATM   24  C28 UNL     1       5.541   8.485  12.485  1.00  0.00    -0.022 C 
HETATM   25  C29 UNL     1       5.865   7.057  13.012  1.00  0.00     0.017 C 
HETATM   26  C30 UNL     1       7.100  10.647  15.467  1.00  0.00     0.018 C 
ENDROOT
BRANCH   4  27
HETATM   27  C8  UNL     1       8.902   8.848  16.052  1.00  0.00     0.149 C 
HETATM   28  O1  UNL     1       8.170   8.171  16.753  1.00  0.00    -0.649 OA
BRANCH  27  29
HETATM   29  O2  UNL     1      10.164   8.435  15.821  1.00  0.00    -0.776 OA
HETATM   30  H11 UNL     1      10.234   7.593  16.317  1.00  0.00     0.167 HD
ENDBRANCH  27  29
ENDBRANCH   4  27
BRANCH   1  31
HETATM   31  C2  UNL     1       5.828  11.966  17.329  1.00  0.00    -0.088 C 
HETATM   32  C1  UNL     1       5.622  13.067  16.584  1.00  0.00     0.014 C 
HETATM   33  C3  UNL     1       4.958  11.682  18.525  1.00  0.00     0.043 C 
ENDBRANCH   1  31
BRANCH   7  34
HETATM   34  C12 UNL     1       6.408  10.927  12.480  1.00  0.00     0.149 C 
HETATM   35  O3  UNL     1       6.920  11.977  12.843  1.00  0.00    -0.649 OA
BRANCH  34  36
HETATM   36  O4  UNL     1       5.714  10.926  11.334  1.00  0.00    -0.776 OA
HETATM   37  H16 UNL     1       5.780  11.852  11.017  1.00  0.00     0.167 HD
ENDBRANCH  34  36
ENDBRANCH   7  34
TORSDOF 5
ENDMDL
MODEL 6
REMARK minimizedAffinity -7.60773563
REMARK  5 active torsions:
REMARK  status: ('A' for Active; 'I' for Inactive)
REMARK    1  A    between atoms: C2_2  and  C4_4 
REMARK    2  A    between atoms: C7_7  and  C8_8 
REMARK    3  A    between atoms: C8_8  and  O2_10 
REMARK    4  A    between atoms: C11_13  and  C12_14 
REMARK    5  A    between atoms: C12_14  and  O4_16 
ROOT
HETATM    1  C4  UNL     1       2.193   6.583  10.651  1.00  0.00     0.019 C 
HETATM    2  C5  UNL     1       0.658   6.655  10.424  1.00  0.00     0.011 C 
HETATM    3  C6  UNL     1       0.105   7.642  11.467  1.00  0.00     0.021 C 
HETATM    4  C7  UNL     1       1.158   7.633  12.580  1.00  0.00     0.050 C 
HETATM    5  C9  UNL     1       1.150   8.854  13.506  1.00  0.00     0.022 C 
HETATM    6  C10 UNL     1       2.417   8.884  14.391  1.00  0.00     0.023 C 
HETATM    7  C11 UNL     1       3.770   8.857  13.585  1.00  0.00     0.057 C 
HETATM    8  C13 UNL     1       3.719   7.606  12.621  1.00  0.00     0.011 C 
HETATM    9  C14 UNL     1       5.022   7.353  11.855  1.00  0.00     0.007 C 
HETATM   10  C15 UNL     1       6.257   7.350  12.755  1.00  0.00     0.006 C 
HETATM   11  C16 UNL     1       6.360   8.604  13.651  1.00  0.00     0.003 C 
HETATM   12  C17 UNL     1       7.770   8.779  14.383  1.00  0.00    -0.035 C 
HETATM   13  C18 UNL     1       8.125   7.557  15.262  1.00  0.00     0.016 C 
HETATM   14  C19 UNL     1       8.883   8.925  13.297  1.00  0.00     0.017 C 
HETATM   15  C20 UNL     1      10.243   9.350  13.834  1.00  0.00     0.080 C 
HETATM   16  C21 UNL     1      10.153  10.599  14.675  1.00  0.00     0.135 C 
HETATM   17  O5  UNL     1      10.981  11.500  14.519  1.00  0.00    -0.297 OA
HETATM   18  C22 UNL     1       9.082  10.645  15.778  1.00  0.00     0.017 C 
HETATM   19  C23 UNL     1       9.594   9.853  16.989  1.00  0.00     0.023 C 
HETATM   20  C24 UNL     1       8.938  12.121  16.228  1.00  0.00     0.023 C 
HETATM   21  C25 UNL     1       7.726  10.139  15.175  1.00  0.00     0.009 C 
HETATM   22  C26 UNL     1       6.545  10.165  16.165  1.00  0.00     0.007 C 
HETATM   23  C27 UNL     1       5.210  10.042  15.425  1.00  0.00     0.011 C 
HETATM   24  C28 UNL     1       5.068   8.765  14.549  1.00  0.00    -0.022 C 
HETATM   25  C29 UNL     1       4.899   7.572  15.534  1.00  0.00     0.017 C 
HETATM   26  C30 UNL     1       2.453   7.658  11.732  1.00  0.00     0.018 C 
ENDROOT
BRANCH   4  27
HETATM   27  C8  UNL     1       0.934   6.362  13.416  1.00  0.00     0.149 C 
HETATM   28  O1  UNL     1       0.042   5.539  13.297  1.00  0.00    -0.649 OA
BRANCH  27  29
HETATM   29  O2  UNL     1       1.855   6.203  14.387  1.00  0.00    -0.776 OA
HETATM   30  H11 UNL     1       1.586   5.377  14.839  1.00  0.00     0.167 HD
ENDBRANCH  27  29
ENDBRANCH   4  27
BRANCH   1  31
HETATM   31  C2  UNL     1       2.964   6.720   9.348  1.00  0.00    -0.088 C 
HETATM   32  C1  UNL     1       3.267   5.636   8.612  1.00  0.00     0.014 C 
HETATM   33  C3  UNL     1       3.365   8.094   8.880  1.00  0.00     0.043 C 
ENDBRANCH   1  31
BRANCH   7  34
HETATM   34  C12 UNL     1       3.786  10.210  12.821  1.00  0.00     0.149 C 
HETATM   35  O3  UNL     1       4.532  10.507  11.899  1.00  0.00    -0.649 OA
BRANCH  34  36
HETATM   36  O4  UNL     1       2.873  11.111  13.210  1.00  0.00    -0.776 OA
HETATM   37  H16 UNL     1       3.024  11.874  12.611  1.00  0.00     0.167 HD
ENDBRANCH  34  36
ENDBRANCH   7  34
TORSDOF 5
ENDMDL
MODEL 7
REMARK minimizedAffinity -7.49164677
REMARK  5 active torsions:
REMARK  status: ('A' for Active; 'I' for Inactive)
REMARK    1  A    between atoms: C2_2  and  C4_4 
REMARK    2  A    between atoms: C7_7  and  C8_8 
REMARK    3  A    between atoms: C8_8  and  O2_10 
REMARK    4  A    between atoms: C11_13  and  C12_14 
REMARK    5  A    between atoms: C12_14  and  O4_16 
ROOT
HETATM    1  C4  UNL     1       2.081   6.863  12.803  1.00  0.00     0.019 C 
HETATM    2  C5  UNL     1       2.063   5.903  11.582  1.00  0.00     0.011 C 
HETATM    3  C6  UNL     1       0.596   5.788  11.133  1.00  0.00     0.021 C 
HETATM    4  C7  UNL     1      -0.204   6.154  12.388  1.00  0.00     0.050 C 
HETATM    5  C9  UNL     1      -1.647   6.609  12.141  1.00  0.00     0.022 C 
HETATM    6  C10 UNL     1      -2.258   7.226  13.420  1.00  0.00     0.023 C 
HETATM    7  C11 UNL     1      -1.433   8.429  14.016  1.00  0.00     0.057 C 
HETATM    8  C13 UNL     1       0.052   7.927  14.220  1.00  0.00     0.011 C 
HETATM    9  C14 UNL     1       0.964   8.938  14.921  1.00  0.00     0.007 C 
HETATM   10  C15 UNL     1       0.356   9.508  16.203  1.00  0.00     0.006 C 
HETATM   11  C16 UNL     1      -1.068  10.071  16.003  1.00  0.00     0.003 C 
HETATM   12  C17 UNL     1      -1.618  10.931  17.233  1.00  0.00    -0.035 C 
HETATM   13  C18 UNL     1      -1.626  10.122  18.551  1.00  0.00     0.016 C 
HETATM   14  C19 UNL     1      -0.684  12.165  17.437  1.00  0.00     0.017 C 
HETATM   15  C20 UNL     1      -1.217  13.211  18.407  1.00  0.00     0.080 C 
HETATM   16  C21 UNL     1      -2.613  13.654  18.048  1.00  0.00     0.135 C 
HETATM   17  O5  UNL     1      -2.896  14.855  18.067  1.00  0.00    -0.297 OA
HETATM   18  C22 UNL     1      -3.663  12.564  17.777  1.00  0.00     0.017 C 
HETATM   19  C23 UNL     1      -4.167  12.025  19.123  1.00  0.00     0.023 C 
HETATM   20  C24 UNL     1      -4.870  13.241  17.078  1.00  0.00     0.023 C 
HETATM   21  C25 UNL     1      -3.031  11.491  16.824  1.00  0.00     0.009 C 
HETATM   22  C26 UNL     1      -3.988  10.348  16.434  1.00  0.00     0.007 C 
HETATM   23  C27 UNL     1      -3.453   9.577  15.224  1.00  0.00     0.011 C 
HETATM   24  C28 UNL     1      -2.037   8.965  15.419  1.00  0.00    -0.022 C 
HETATM   25  C29 UNL     1      -2.205   7.770  16.402  1.00  0.00     0.017 C 
HETATM   26  C30 UNL     1       0.621   7.363  12.895  1.00  0.00     0.018 C 
ENDROOT
BRANCH   4  27
HETATM   27  C8  UNL     1      -0.212   4.921  13.306  1.00  0.00     0.149 C 
HETATM   28  O1  UNL     1      -0.390   3.757  12.990  1.00  0.00    -0.649 OA
BRANCH  27  29
HETATM   29  O2  UNL     1      -0.008   5.230  14.602  1.00  0.00    -0.776 OA
HETATM   30  H11 UNL     1      -0.051   4.367  15.064  1.00  0.00     0.167 HD
ENDBRANCH  27  29
ENDBRANCH   4  27
BRANCH   1  31
HETATM   31  C2  UNL     1       3.162   7.923  12.672  1.00  0.00    -0.088 C 
HETATM   32  C1  UNL     1       4.137   8.028  13.593  1.00  0.00     0.014 C 
HETATM   33  C3  UNL     1       3.140   8.843  11.480  1.00  0.00     0.043 C 
ENDBRANCH   1  31
BRANCH   7  34
HETATM   34  C12 UNL     1      -1.552   9.543  12.940  1.00  0.00     0.149 C 
HETATM   35  O3  UNL     1      -2.021   9.413  11.818  1.00  0.00    -0.649 OA
BRANCH  34  36
HETATM   36  O4  UNL     1      -1.118  10.757  13.305  1.00  0.00    -0.776 OA
HETATM   37  H16 UNL     1      -1.290  11.317  12.518  1.00  0.00     0.167 HD
ENDBRANCH  34  36
ENDBRANCH   7  34
TORSDOF 5
ENDMDL
MODEL 8
REMARK minimizedAffinity -7.42030382
REMARK  5 active torsions:
REMARK  status: ('A' for Active; 'I' for Inactive)
REMARK    1  A    between atoms: C2_2  and  C4_4 
REMARK    2  A    between atoms: C7_7  and  C8_8 
REMARK    3  A    between atoms: C8_8  and  O2_10 
REMARK    4  A    between atoms: C11_13  and  C12_14 
REMARK    5  A    between atoms: C12_14  and  O4_16 
ROOT
HETATM    1  C4  UNL     1      -0.643  11.176  17.255  1.00  0.00     0.019 C 
HETATM    2  C5  UNL     1      -1.726  11.166  18.369  1.00  0.00     0.011 C 
HETATM    3  C6  UNL     1      -2.572   9.899  18.150  1.00  0.00     0.021 C 
HETATM    4  C7  UNL     1      -2.367   9.570  16.667  1.00  0.00     0.050 C 
HETATM    5  C9  UNL     1      -2.665   8.121  16.265  1.00  0.00     0.022 C 
HETATM    6  C10 UNL     1      -2.153   7.828  14.837  1.00  0.00     0.023 C 
HETATM    7  C11 UNL     1      -0.618   8.115  14.629  1.00  0.00     0.057 C 
HETATM    8  C13 UNL     1      -0.350   9.603  15.088  1.00  0.00     0.011 C 
HETATM    9  C14 UNL     1       1.078  10.092  14.825  1.00  0.00     0.007 C 
HETATM   10  C15 UNL     1       1.551   9.824  13.396  1.00  0.00     0.006 C 
HETATM   11  C16 UNL     1       1.364   8.355  12.958  1.00  0.00     0.003 C 
HETATM   12  C17 UNL     1       2.106   7.972  11.595  1.00  0.00    -0.035 C 
HETATM   13  C18 UNL     1       1.653   8.863  10.416  1.00  0.00     0.016 C 
HETATM   14  C19 UNL     1       3.642   8.180  11.787  1.00  0.00     0.017 C 
HETATM   15  C20 UNL     1       4.504   7.620  10.664  1.00  0.00     0.080 C 
HETATM   16  C21 UNL     1       4.195   6.171  10.384  1.00  0.00     0.135 C 
HETATM   17  O5  UNL     1       5.119   5.370  10.223  1.00  0.00    -0.297 OA
HETATM   18  C22 UNL     1       2.720   5.776  10.200  1.00  0.00     0.017 C 
HETATM   19  C23 UNL     1       2.284   6.156   8.778  1.00  0.00     0.023 C 
HETATM   20  C24 UNL     1       2.633   4.232  10.304  1.00  0.00     0.023 C 
HETATM   21  C25 UNL     1       1.882   6.433  11.352  1.00  0.00     0.009 C 
HETATM   22  C26 UNL     1       0.380   6.091  11.316  1.00  0.00     0.007 C 
HETATM   23  C27 UNL     1      -0.288   6.428  12.652  1.00  0.00     0.011 C 
HETATM   24  C28 UNL     1      -0.149   7.913  13.092  1.00  0.00    -0.022 C 
HETATM   25  C29 UNL     1      -1.076   8.739  12.154  1.00  0.00     0.017 C 
HETATM   26  C30 UNL     1      -0.845   9.820  16.538  1.00  0.00     0.018 C 
ENDROOT
BRANCH   4  27
HETATM   27  C8  UNL     1      -3.268  10.516  15.856  1.00  0.00     0.149 C 
HETATM   28  O1  UNL     1      -4.098  10.217  15.015  1.00  0.00    -0.649 OA
BRANCH  27  29
HETATM   29  O2  UNL     1      -3.058  11.817  16.144  1.00  0.00    -0.776 OA
HETATM   30  H11 UNL     1      -3.678  12.295  15.556  1.00  0.00     0.167 HD
ENDBRANCH  27  29
ENDBRANCH   4  27
BRANCH   1  31
HETATM   31  C2  UNL     1       0.741  11.457  17.815  1.00  0.00    -0.088 C 
HETATM   32  C1  UNL     1       1.527  12.400  17.265  1.00  0.00     0.014 C 
HETATM   33  C3  UNL     1       1.213  10.679  19.015  1.00  0.00     0.043 C 
ENDBRANCH   1  31
BRANCH   7  34
HETATM   34  C12 UNL     1       0.091   7.066  15.530  1.00  0.00     0.149 C 
HETATM   35  O3  UNL     1       1.079   7.265  16.224  1.00  0.00    -0.649 OA
BRANCH  34  36
HETATM   36  O4  UNL     1      -0.461   5.845  15.552  1.00  0.00    -0.776 OA
HETATM   37  H16 UNL     1       0.104   5.342  16.177  1.00  0.00     0.167 HD
ENDBRANCH  34  36
ENDBRANCH   7  34
TORSDOF 5
ENDMDL
MODEL 9
REMARK minimizedAffinity -7.39855099
REMARK  5 active torsions:
REMARK  status: ('A' for Active; 'I' for Inactive)
REMARK    1  A    between atoms: C2_2  and  C4_4 
REMARK    2  A    between atoms: C7_7  and  C8_8 
REMARK    3  A    between atoms: C8_8  and  O2_10 
REMARK    4  A    between atoms: C11_13  and  C12_14 
REMARK    5  A    between atoms: C12_14  and  O4_16 
ROOT
HETATM    1  C4  UNL     1      -3.398   9.784  15.722  1.00  0.00     0.019 C 
HETATM    2  C5  UNL     1      -4.755   9.029  15.740  1.00  0.00     0.011 C 
HETATM    3  C6  UNL     1      -4.492   7.635  15.145  1.00  0.00     0.021 C 
HETATM    4  C7  UNL     1      -3.233   7.829  14.292  1.00  0.00     0.050 C 
HETATM    5  C9  UNL     1      -2.446   6.552  13.977  1.00  0.00     0.022 C 
HETATM    6  C10 UNL     1      -1.063   6.891  13.374  1.00  0.00     0.023 C 
HETATM    7  C11 UNL     1      -0.179   7.833  14.275  1.00  0.00     0.057 C 
HETATM    8  C13 UNL     1      -1.041   9.117  14.603  1.00  0.00     0.011 C 
HETATM    9  C14 UNL     1      -0.278  10.205  15.365  1.00  0.00     0.007 C 
HETATM   10  C15 UNL     1       1.070  10.550  14.731  1.00  0.00     0.006 C 
HETATM   11  C16 UNL     1       1.956   9.311  14.472  1.00  0.00     0.003 C 
HETATM   12  C17 UNL     1       3.470   9.650  14.088  1.00  0.00    -0.035 C 
HETATM   13  C18 UNL     1       3.564  10.551  12.835  1.00  0.00     0.016 C 
HETATM   14  C19 UNL     1       4.127  10.417  15.278  1.00  0.00     0.017 C 
HETATM   15  C20 UNL     1       5.637  10.588  15.167  1.00  0.00     0.080 C 
HETATM   16  C21 UNL     1       6.337   9.274  14.929  1.00  0.00     0.135 C 
HETATM   17  O5  UNL     1       7.359   9.003  15.565  1.00  0.00    -0.297 OA
HETATM   18  C22 UNL     1       5.798   8.366  13.811  1.00  0.00     0.017 C 
HETATM   19  C23 UNL     1       6.308   8.896  12.463  1.00  0.00     0.023 C 
HETATM   20  C24 UNL     1       6.418   6.960  14.010  1.00  0.00     0.023 C 
HETATM   21  C25 UNL     1       4.238   8.283  13.947  1.00  0.00     0.009 C 
HETATM   22  C26 UNL     1       3.560   7.372  12.905  1.00  0.00     0.007 C 
HETATM   23  C27 UNL     1       2.128   7.031  13.329  1.00  0.00     0.011 C 
HETATM   24  C28 UNL     1       1.207   8.262  13.555  1.00  0.00    -0.022 C 
HETATM   25  C29 UNL     1       0.899   8.847  12.145  1.00  0.00     0.017 C 
HETATM   26  C30 UNL     1      -2.391   8.713  15.244  1.00  0.00     0.018 C 
ENDROOT
BRANCH   4  27
HETATM   27  C8  UNL     1      -3.668   8.494  12.975  1.00  0.00     0.149 C 
HETATM   28  O1  UNL     1      -2.959   9.035  12.144  1.00  0.00    -0.649 OA
BRANCH  27  29
HETATM   29  O2  UNL     1      -5.002   8.456  12.783  1.00  0.00    -0.776 OA
HETATM   30  H11 UNL     1      -5.133   8.919  11.930  1.00  0.00     0.167 HD
ENDBRANCH  27  29
ENDBRANCH   4  27
BRANCH   1  31
HETATM   31  C2  UNL     1      -3.107  10.455  17.055  1.00  0.00    -0.088 C 
HETATM   32  C1  UNL     1      -2.633   9.743  18.093  1.00  0.00     0.014 C 
HETATM   33  C3  UNL     1      -3.336  11.937  17.189  1.00  0.00     0.043 C 
ENDBRANCH   1  31
BRANCH   7  34
HETATM   34  C12 UNL     1       0.134   6.976  15.532  1.00  0.00     0.149 C 
HETATM   35  O3  UNL     1       0.721   7.357  16.535  1.00  0.00    -0.649 OA
BRANCH  34  36
HETATM   36  O4  UNL     1      -0.311   5.712  15.503  1.00  0.00    -0.776 OA
HETATM   37  H16 UNL     1      -0.040   5.346  16.372  1.00  0.00     0.167 HD
ENDBRANCH  34  36
ENDBRANCH   7  34
TORSDOF 5
ENDMDL
