MODEL 1
REMARK minimizedAffinity -7.49634361
REMARK  9 active torsions:
REMARK  status: ('A' for Active; 'I' for Inactive)
REMARK    1  A    between atoms: C11_11  and  C12_12 
REMARK    2  A    between atoms: C12_12  and  O1_13 
REMARK    3  A    between atoms: C12_12  and  C13_14 
REMARK    4  A    between atoms: C17_19  and  C18_20 
REMARK    5  A    between atoms: C19_21  and  C20_22 
REMARK    6  A    between atoms: C20_22  and  O4_24 
REMARK    7  A    between atoms: C21_25  and  C22_26 
REMARK    8  A    between atoms: C22_26  and  C23_28 
REMARK    9  A    between atoms: C23_28  and  O6_30 
ROOT
HETATM    1  C1  UNL     1      -2.903   3.948  12.722  1.00  0.00     0.048 C 
HETATM    2  C2  UNL     1      -2.641   5.305  13.304  1.00  0.00    -0.065 C 
HETATM    3  C3  UNL     1      -3.577   6.278  13.346  1.00  0.00    -0.015 C 
HETATM    4  C4  UNL     1      -3.324   7.621  14.007  1.00  0.00     0.014 C 
HETATM    5  C5  UNL     1      -4.627   8.374  14.300  1.00  0.00     0.009 C 
HETATM    6  C6  UNL     1      -4.347   9.552  15.224  1.00  0.00     0.001 C 
HETATM    7  C7  UNL     1      -3.236  10.452  14.693  1.00  0.00     0.005 C 
HETATM    8  C8  UNL     1      -1.943   9.690  14.294  1.00  0.00    -0.013 C 
HETATM    9  C9  UNL     1      -0.928  10.744  13.866  1.00  0.00     0.010 C 
HETATM   10  C10 UNL     1      -2.296   8.570  13.262  1.00  0.00     0.008 C 
HETATM   11  C11 UNL     1      -1.150   7.722  12.608  1.00  0.00     0.059 C 
HETATM   12  C21 UNL     1      -0.606   6.674  13.597  1.00  0.00    -0.002 C 
HETATM   13  C25 UNL     1      -1.297   5.536  13.839  1.00  0.00     0.018 C 
ENDROOT
BRANCH  11  14
HETATM   14  C12 UNL     1      -0.080   8.336  11.643  1.00  0.00     0.166 C 
BRANCH  14  15
HETATM   15  O1  UNL     1       1.050   8.720  12.491  1.00  0.00    -0.391 OA
HETATM   16  H19 UNL     1       1.525   7.907  12.727  1.00  0.00     0.210 HD
ENDBRANCH  14  15
BRANCH  14  17
HETATM   17  C13 UNL     1       0.483   7.442  10.460  1.00  0.00     0.111 C 
HETATM   18  C14 UNL     1       0.300   5.937  10.657  1.00  0.00     0.054 C 
HETATM   19  O2  UNL     1      -0.352   7.730   9.287  1.00  0.00    -0.369 OA
HETATM   20  C15 UNL     1       0.425   8.429   8.307  1.00  0.00     0.197 C 
HETATM   21  C16 UNL     1       1.827   8.337   8.770  1.00  0.00     0.009 C 
HETATM   22  C17 UNL     1       1.883   7.786   9.985  1.00  0.00    -0.023 C 
BRANCH  22  23
HETATM   23  C18 UNL     1       3.089   7.468  10.708  1.00  0.00     0.017 C 
HETATM   24  C19 UNL     1       4.069   6.686  10.233  1.00  0.00     0.082 C 
BRANCH  24  25
HETATM   25  C20 UNL     1       5.281   6.472  11.033  1.00  0.00     0.165 C 
HETATM   26  O3  UNL     1       6.403   6.235  10.628  1.00  0.00    -0.647 OA
BRANCH  25  27
HETATM   27  O4  UNL     1       4.991   6.559  12.340  1.00  0.00    -0.773 OA
HETATM   28  H28 UNL     1       5.853   6.415  12.784  1.00  0.00     0.167 HD
ENDBRANCH  25  27
ENDBRANCH  24  25
ENDBRANCH  22  23
ENDBRANCH  14  17
ENDBRANCH  11  14
BRANCH  12  29
HETATM   29  C22 UNL     1       0.689   6.962  14.295  1.00  0.00     0.184 C 
HETATM   30  O5  UNL     1       1.753   6.562  13.812  1.00  0.00    -0.290 OA
BRANCH  29  31
HETATM   31  C23 UNL     1       0.710   7.771  15.598  1.00  0.00     0.188 C 
HETATM   32  C24 UNL     1       1.721   8.902  15.509  1.00  0.00     0.048 C 
BRANCH  31  33
HETATM   33  O6  UNL     1       1.106   6.927  16.682  1.00  0.00    -0.388 OA
HETATM   34  H33 UNL     1       1.683   6.241  16.288  1.00  0.00     0.210 HD
ENDBRANCH  31  33
ENDBRANCH  29  31
ENDBRANCH  12  29
TORSDOF 9
ENDMDL
MODEL 2
REMARK minimizedAffinity -6.94365454
REMARK  9 active torsions:
REMARK  status: ('A' for Active; 'I' for Inactive)
REMARK    1  A    between atoms: C11_11  and  C12_12 
REMARK    2  A    between atoms: C12_12  and  O1_13 
REMARK    3  A    between atoms: C12_12  and  C13_14 
REMARK    4  A    between atoms: C17_19  and  C18_20 
REMARK    5  A    between atoms: C19_21  and  C20_22 
REMARK    6  A    between atoms: C20_22  and  O4_24 
REMARK    7  A    between atoms: C21_25  and  C22_26 
REMARK    8  A    between atoms: C22_26  and  C23_28 
REMARK    9  A    between atoms: C23_28  and  O6_30 
ROOT
HETATM    1  C1  UNL     1       4.269   3.916   9.801  1.00  0.00     0.048 C 
HETATM    2  C2  UNL     1       3.044   4.782   9.813  1.00  0.00    -0.065 C 
HETATM    3  C3  UNL     1       2.931   5.902   9.065  1.00  0.00    -0.015 C 
HETATM    4  C4  UNL     1       1.658   6.727   9.028  1.00  0.00     0.014 C 
HETATM    5  C5  UNL     1       1.621   7.674   7.822  1.00  0.00     0.009 C 
HETATM    6  C6  UNL     1       0.218   8.246   7.657  1.00  0.00     0.001 C 
HETATM    7  C7  UNL     1      -0.301   8.883   8.942  1.00  0.00     0.005 C 
HETATM    8  C8  UNL     1      -0.175   7.973  10.193  1.00  0.00    -0.013 C 
HETATM    9  C9  UNL     1      -0.807   8.734  11.353  1.00  0.00     0.010 C 
HETATM   10  C10 UNL     1       1.311   7.517  10.357  1.00  0.00     0.008 C 
HETATM   11  C11 UNL     1       1.736   6.677  11.613  1.00  0.00     0.059 C 
HETATM   12  C21 UNL     1       1.274   5.214  11.480  1.00  0.00    -0.002 C 
HETATM   13  C25 UNL     1       1.951   4.351  10.687  1.00  0.00     0.018 C 
ENDROOT
BRANCH  11  14
HETATM   14  C12 UNL     1       1.703   7.249  13.071  1.00  0.00     0.166 C 
BRANCH  14  15
HETATM   15  O1  UNL     1       2.032   6.125  13.949  1.00  0.00    -0.391 OA
HETATM   16  H19 UNL     1       2.989   5.974  13.880  1.00  0.00     0.210 HD
ENDBRANCH  14  15
BRANCH  14  17
HETATM   17  C13 UNL     1       2.669   8.452  13.439  1.00  0.00     0.111 C 
HETATM   18  C14 UNL     1       2.807   9.515  12.349  1.00  0.00     0.054 C 
HETATM   19  O2  UNL     1       2.024   9.183  14.538  1.00  0.00    -0.369 OA
HETATM   20  C15 UNL     1       2.785   9.011  15.740  1.00  0.00     0.197 C 
HETATM   21  C16 UNL     1       4.059   8.387  15.318  1.00  0.00     0.009 C 
HETATM   22  C17 UNL     1       4.014   8.060  14.024  1.00  0.00    -0.023 C 
BRANCH  22  23
HETATM   23  C18 UNL     1       5.104   7.509  13.258  1.00  0.00     0.017 C 
HETATM   24  C19 UNL     1       5.063   7.295  11.935  1.00  0.00     0.082 C 
BRANCH  24  25
HETATM   25  C20 UNL     1       6.251   6.780  11.245  1.00  0.00     0.165 C 
HETATM   26  O3  UNL     1       6.934   7.354  10.418  1.00  0.00    -0.647 OA
BRANCH  25  27
HETATM   27  O4  UNL     1       6.507   5.524  11.643  1.00  0.00    -0.773 OA
HETATM   28  H28 UNL     1       7.312   5.276  11.142  1.00  0.00     0.167 HD
ENDBRANCH  25  27
ENDBRANCH  24  25
ENDBRANCH  22  23
ENDBRANCH  14  17
ENDBRANCH  11  14
BRANCH  12  29
HETATM   29  C22 UNL     1       0.050   4.785  12.232  1.00  0.00     0.184 C 
HETATM   30  O5  UNL     1       0.151   4.366  13.389  1.00  0.00    -0.290 OA
BRANCH  29  31
HETATM   31  C23 UNL     1      -1.336   4.881  11.583  1.00  0.00     0.188 C 
HETATM   32  C24 UNL     1      -2.427   4.789  12.638  1.00  0.00     0.048 C 
BRANCH  31  33
HETATM   33  O6  UNL     1      -1.522   3.788  10.680  1.00  0.00    -0.388 OA
HETATM   34  H33 UNL     1      -0.975   3.056  11.033  1.00  0.00     0.210 HD
ENDBRANCH  31  33
ENDBRANCH  29  31
ENDBRANCH  12  29
TORSDOF 9
ENDMDL
MODEL 3
REMARK minimizedAffinity -6.91634798
REMARK  9 active torsions:
REMARK  status: ('A' for Active; 'I' for Inactive)
REMARK    1  A    between atoms: C11_11  and  C12_12 
REMARK    2  A    between atoms: C12_12  and  O1_13 
REMARK    3  A    between atoms: C12_12  and  C13_14 
REMARK    4  A    between atoms: C17_19  and  C18_20 
REMARK    5  A    between atoms: C19_21  and  C20_22 
REMARK    6  A    between atoms: C20_22  and  O4_24 
REMARK    7  A    between atoms: C21_25  and  C22_26 
REMARK    8  A    between atoms: C22_26  and  C23_28 
REMARK    9  A    between atoms: C23_28  and  O6_30 
ROOT
HETATM    1  C1  UNL     1       2.119  14.695  21.495  1.00  0.00     0.048 C 
HETATM    2  C2  UNL     1       3.430  14.300  22.106  1.00  0.00    -0.065 C 
HETATM    3  C3  UNL     1       4.471  15.153  22.224  1.00  0.00    -0.015 C 
HETATM    4  C4  UNL     1       5.766  14.763  22.913  1.00  0.00     0.014 C 
HETATM    5  C5  UNL     1       6.608  15.988  23.292  1.00  0.00     0.009 C 
HETATM    6  C6  UNL     1       7.728  15.572  24.238  1.00  0.00     0.001 C 
HETATM    7  C7  UNL     1       8.556  14.418  23.681  1.00  0.00     0.005 C 
HETATM    8  C8  UNL     1       7.710  13.211  23.196  1.00  0.00    -0.013 C 
HETATM    9  C9  UNL     1       8.696  12.136  22.752  1.00  0.00     0.010 C 
HETATM   10  C10 UNL     1       6.658  13.699  22.149  1.00  0.00     0.008 C 
HETATM   11  C11 UNL     1       5.746  12.655  21.413  1.00  0.00     0.059 C 
HETATM   12  C21 UNL     1       4.625  12.151  22.341  1.00  0.00    -0.002 C 
HETATM   13  C25 UNL     1       3.537  12.919  22.581  1.00  0.00     0.018 C 
ENDROOT
BRANCH  11  14
HETATM   14  C12 UNL     1       6.308  11.585  20.416  1.00  0.00     0.166 C 
BRANCH  14  15
HETATM   15  O1  UNL     1       5.160  10.772  20.013  1.00  0.00    -0.391 OA
HETATM   16  H19 UNL     1       4.643  11.295  19.378  1.00  0.00     0.210 HD
ENDBRANCH  14  15
BRANCH  14  17
HETATM   17  C13 UNL     1       7.039  12.081  19.099  1.00  0.00     0.111 C 
HETATM   18  C14 UNL     1       7.049  11.066  17.955  1.00  0.00     0.054 C 
HETATM   19  O2  UNL     1       6.229  13.183  18.562  1.00  0.00    -0.369 OA
HETATM   20  C15 UNL     1       6.951  14.414  18.689  1.00  0.00     0.197 C 
HETATM   21  C16 UNL     1       8.330  14.031  19.065  1.00  0.00     0.009 C 
HETATM   22  C17 UNL     1       8.402  12.719  19.304  1.00  0.00    -0.023 C 
BRANCH  22  23
HETATM   23  C18 UNL     1       9.604  11.986  19.614  1.00  0.00     0.017 C 
HETATM   24  C19 UNL     1      10.822  12.541  19.708  1.00  0.00     0.082 C 
BRANCH  24  25
HETATM   25  C20 UNL     1      11.972  11.710  20.084  1.00  0.00     0.165 C 
HETATM   26  O3  UNL     1      12.978  12.061  20.670  1.00  0.00    -0.647 OA
BRANCH  25  27
HETATM   27  O4  UNL     1      11.782  10.447  19.673  1.00  0.00    -0.773 OA
HETATM   28  H28 UNL     1      12.586   9.976  19.976  1.00  0.00     0.167 HD
ENDBRANCH  25  27
ENDBRANCH  24  25
ENDBRANCH  22  23
ENDBRANCH  14  17
ENDBRANCH  11  14
BRANCH  12  29
HETATM   29  C22 UNL     1       4.787  10.806  22.983  1.00  0.00     0.184 C 
HETATM   30  O5  UNL     1       5.816  10.541  23.612  1.00  0.00    -0.290 OA
BRANCH  29  31
HETATM   31  C23 UNL     1       3.673   9.756  22.883  1.00  0.00     0.188 C 
HETATM   32  C24 UNL     1       2.524  10.276  22.034  1.00  0.00     0.048 C 
BRANCH  31  33
HETATM   33  O6  UNL     1       3.153   9.480  24.186  1.00  0.00    -0.388 OA
HETATM   34  H33 UNL     1       3.280  10.303  24.702  1.00  0.00     0.210 HD
ENDBRANCH  31  33
ENDBRANCH  29  31
ENDBRANCH  12  29
TORSDOF 9
ENDMDL
MODEL 4
REMARK minimizedAffinity -6.785851
REMARK  9 active torsions:
REMARK  status: ('A' for Active; 'I' for Inactive)
REMARK    1  A    between atoms: C11_11  and  C12_12 
REMARK    2  A    between atoms: C12_12  and  O1_13 
REMARK    3  A    between atoms: C12_12  and  C13_14 
REMARK    4  A    between atoms: C17_19  and  C18_20 
REMARK    5  A    between atoms: C19_21  and  C20_22 
REMARK    6  A    between atoms: C20_22  and  O4_24 
REMARK    7  A    between atoms: C21_25  and  C22_26 
REMARK    8  A    between atoms: C22_26  and  C23_28 
REMARK    9  A    between atoms: C23_28  and  O6_30 
ROOT
HETATM    1  C1  UNL     1      11.697  -6.533   9.513  1.00  0.00     0.048 C 
HETATM    2  C2  UNL     1      12.397  -5.774   8.426  1.00  0.00    -0.065 C 
HETATM    3  C3  UNL     1      11.959  -5.754   7.147  1.00  0.00    -0.015 C 
HETATM    4  C4  UNL     1      12.633  -4.920   6.072  1.00  0.00     0.014 C 
HETATM    5  C5  UNL     1      11.733  -4.728   4.845  1.00  0.00     0.009 C 
HETATM    6  C6  UNL     1      12.317  -3.650   3.940  1.00  0.00     0.001 C 
HETATM    7  C7  UNL     1      13.775  -3.921   3.584  1.00  0.00     0.005 C 
HETATM    8  C8  UNL     1      14.678  -4.220   4.811  1.00  0.00    -0.013 C 
HETATM    9  C9  UNL     1      16.098  -4.386   4.278  1.00  0.00     0.010 C 
HETATM   10  C10 UNL     1      14.073  -5.408   5.626  1.00  0.00     0.008 C 
HETATM   11  C11 UNL     1      14.854  -5.988   6.857  1.00  0.00     0.059 C 
HETATM   12  C21 UNL     1      14.734  -5.055   8.077  1.00  0.00    -0.002 C 
HETATM   13  C25 UNL     1      13.601  -5.038   8.816  1.00  0.00     0.018 C 
ENDROOT
BRANCH  11  14
HETATM   14  C12 UNL     1      16.231  -6.724   6.723  1.00  0.00     0.166 C 
BRANCH  14  15
HETATM   15  O1  UNL     1      17.039  -6.270   7.856  1.00  0.00    -0.391 OA
HETATM   16  H19 UNL     1      16.713  -6.729   8.647  1.00  0.00     0.210 HD
ENDBRANCH  14  15
BRANCH  14  17
HETATM   17  C13 UNL     1      16.251  -8.309   6.716  1.00  0.00     0.111 C 
HETATM   18  C14 UNL     1      14.929  -8.964   7.117  1.00  0.00     0.054 C 
HETATM   19  O2  UNL     1      16.415  -8.718   5.314  1.00  0.00    -0.369 OA
HETATM   20  C15 UNL     1      17.706  -9.313   5.137  1.00  0.00     0.197 C 
HETATM   21  C16 UNL     1      18.241  -9.517   6.501  1.00  0.00     0.009 C 
HETATM   22  C17 UNL     1      17.438  -8.955   7.408  1.00  0.00    -0.023 C 
BRANCH  22  23
HETATM   23  C18 UNL     1      17.605  -9.027   8.838  1.00  0.00     0.017 C 
HETATM   24  C19 UNL     1      18.751  -8.753   9.478  1.00  0.00     0.082 C 
BRANCH  24  25
HETATM   25  C20 UNL     1      18.796  -8.805  10.944  1.00  0.00     0.165 C 
HETATM   26  O3  UNL     1      19.218  -9.708  11.640  1.00  0.00    -0.647 OA
BRANCH  25  27
HETATM   27  O4  UNL     1      18.277  -7.680  11.461  1.00  0.00    -0.773 OA
HETATM   28  H28 UNL     1      18.360  -7.804  12.429  1.00  0.00     0.167 HD
ENDBRANCH  25  27
ENDBRANCH  24  25
ENDBRANCH  22  23
ENDBRANCH  14  17
ENDBRANCH  11  14
BRANCH  12  29
HETATM   29  C22 UNL     1      15.891  -4.159   8.402  1.00  0.00     0.184 C 
HETATM   30  O5  UNL     1      16.417  -3.482   7.513  1.00  0.00    -0.290 OA
BRANCH  29  31
HETATM   31  C23 UNL     1      16.419  -4.059   9.838  1.00  0.00     0.188 C 
HETATM   32  C24 UNL     1      17.807  -3.438   9.854  1.00  0.00     0.048 C 
BRANCH  31  33
HETATM   33  O6  UNL     1      16.529  -5.367  10.404  1.00  0.00    -0.388 OA
HETATM   34  H33 UNL     1      16.695  -5.970   9.649  1.00  0.00     0.210 HD
ENDBRANCH  31  33
ENDBRANCH  29  31
ENDBRANCH  12  29
TORSDOF 9
ENDMDL
MODEL 5
REMARK minimizedAffinity -6.71204472
REMARK  9 active torsions:
REMARK  status: ('A' for Active; 'I' for Inactive)
REMARK    1  A    between atoms: C11_11  and  C12_12 
REMARK    2  A    between atoms: C12_12  and  O1_13 
REMARK    3  A    between atoms: C12_12  and  C13_14 
REMARK    4  A    between atoms: C17_19  and  C18_20 
REMARK    5  A    between atoms: C19_21  and  C20_22 
REMARK    6  A    between atoms: C20_22  and  O4_24 
REMARK    7  A    between atoms: C21_25  and  C22_26 
REMARK    8  A    between atoms: C22_26  and  C23_28 
REMARK    9  A    between atoms: C23_28  and  O6_30 
ROOT
HETATM    1  C1  UNL     1       7.585  13.522  23.240  1.00  0.00     0.048 C 
HETATM    2  C2  UNL     1       6.287  12.903  22.815  1.00  0.00    -0.065 C 
HETATM    3  C3  UNL     1       5.989  11.603  23.032  1.00  0.00    -0.015 C 
HETATM    4  C4  UNL     1       4.641  11.008  22.667  1.00  0.00     0.014 C 
HETATM    5  C5  UNL     1       4.391   9.671  23.376  1.00  0.00     0.009 C 
HETATM    6  C6  UNL     1       2.929   9.271  23.223  1.00  0.00     0.001 C 
HETATM    7  C7  UNL     1       2.477   9.276  21.767  1.00  0.00     0.005 C 
HETATM    8  C8  UNL     1       2.816  10.585  21.006  1.00  0.00    -0.013 C 
HETATM    9  C9  UNL     1       2.228  10.443  19.606  1.00  0.00     0.010 C 
HETATM   10  C10 UNL     1       4.349  10.869  21.115  1.00  0.00     0.008 C 
HETATM   11  C11 UNL     1       4.978  12.077  20.335  1.00  0.00     0.059 C 
HETATM   12  C21 UNL     1       4.655  13.412  21.032  1.00  0.00    -0.002 C 
HETATM   13  C25 UNL     1       5.334  13.787  22.141  1.00  0.00     0.018 C 
ENDROOT
BRANCH  11  14
HETATM   14  C12 UNL     1       5.032  12.146  18.771  1.00  0.00     0.166 C 
BRANCH  14  15
HETATM   15  O1  UNL     1       3.928  13.020  18.371  1.00  0.00    -0.391 OA
HETATM   16  H19 UNL     1       4.200  13.934  18.560  1.00  0.00     0.210 HD
ENDBRANCH  14  15
BRANCH  14  17
HETATM   17  C13 UNL     1       6.353  12.681  18.076  1.00  0.00     0.111 C 
HETATM   18  C14 UNL     1       6.219  12.955  16.578  1.00  0.00     0.054 C 
HETATM   19  O2  UNL     1       6.608  14.014  18.639  1.00  0.00    -0.369 OA
HETATM   20  C15 UNL     1       7.786  13.973  19.452  1.00  0.00     0.197 C 
HETATM   21  C16 UNL     1       8.417  12.663  19.175  1.00  0.00     0.009 C 
HETATM   22  C17 UNL     1       7.623  11.917  18.403  1.00  0.00    -0.023 C 
BRANCH  22  23
HETATM   23  C18 UNL     1       7.950  10.618  17.868  1.00  0.00     0.017 C 
HETATM   24  C19 UNL     1       9.044  10.357  17.138  1.00  0.00     0.082 C 
BRANCH  24  25
HETATM   25  C20 UNL     1       9.309   8.985  16.690  1.00  0.00     0.165 C 
HETATM   26  O3  UNL     1       8.911   7.952  17.193  1.00  0.00    -0.647 OA
BRANCH  25  27
HETATM   27  O4  UNL     1      10.098   8.999  15.604  1.00  0.00    -0.773 OA
HETATM   28  H28 UNL     1      10.206   8.052  15.378  1.00  0.00     0.167 HD
ENDBRANCH  25  27
ENDBRANCH  24  25
ENDBRANCH  22  23
ENDBRANCH  14  17
ENDBRANCH  11  14
BRANCH  12  29
HETATM   29  C22 UNL     1       3.560  14.263  20.463  1.00  0.00     0.184 C 
HETATM   30  O5  UNL     1       3.838  15.232  19.750  1.00  0.00    -0.290 OA
BRANCH  29  31
HETATM   31  C23 UNL     1       2.089  13.929  20.741  1.00  0.00     0.188 C 
HETATM   32  C24 UNL     1       1.187  14.597  19.716  1.00  0.00     0.048 C 
BRANCH  31  33
HETATM   33  O6  UNL     1       1.717  14.427  22.028  1.00  0.00    -0.388 OA
HETATM   34  H33 UNL     1       2.288  15.207  22.187  1.00  0.00     0.210 HD
ENDBRANCH  31  33
ENDBRANCH  29  31
ENDBRANCH  12  29
TORSDOF 9
ENDMDL
MODEL 6
REMARK minimizedAffinity -6.6495018
REMARK  9 active torsions:
REMARK  status: ('A' for Active; 'I' for Inactive)
REMARK    1  A    between atoms: C11_11  and  C12_12 
REMARK    2  A    between atoms: C12_12  and  O1_13 
REMARK    3  A    between atoms: C12_12  and  C13_14 
REMARK    4  A    between atoms: C17_19  and  C18_20 
REMARK    5  A    between atoms: C19_21  and  C20_22 
REMARK    6  A    between atoms: C20_22  and  O4_24 
REMARK    7  A    between atoms: C21_25  and  C22_26 
REMARK    8  A    between atoms: C22_26  and  C23_28 
REMARK    9  A    between atoms: C23_28  and  O6_30 
ROOT
HETATM    1  C1  UNL     1     -16.399   6.738  28.189  1.00  0.00     0.048 C 
HETATM    2  C2  UNL     1     -15.649   5.447  28.047  1.00  0.00    -0.065 C 
HETATM    3  C3  UNL     1     -14.396   5.270  28.522  1.00  0.00    -0.015 C 
HETATM    4  C4  UNL     1     -13.678   3.936  28.440  1.00  0.00     0.014 C 
HETATM    5  C5  UNL     1     -12.481   3.866  29.396  1.00  0.00     0.009 C 
HETATM    6  C6  UNL     1     -11.987   2.429  29.502  1.00  0.00     0.001 C 
HETATM    7  C7  UNL     1     -11.706   1.812  28.137  1.00  0.00     0.005 C 
HETATM    8  C8  UNL     1     -12.871   1.966  27.123  1.00  0.00    -0.013 C 
HETATM    9  C9  UNL     1     -12.448   1.230  25.855  1.00  0.00     0.010 C 
HETATM   10  C10 UNL     1     -13.246   3.476  26.986  1.00  0.00     0.008 C 
HETATM   11  C11 UNL     1     -14.323   3.922  25.934  1.00  0.00     0.059 C 
HETATM   12  C21 UNL     1     -15.744   3.587  26.425  1.00  0.00    -0.002 C 
HETATM   13  C25 UNL     1     -16.347   4.361  27.356  1.00  0.00     0.018 C 
ENDROOT
BRANCH  11  14
HETATM   14  C12 UNL     1     -14.110   3.788  24.388  1.00  0.00     0.166 C 
BRANCH  14  15
HETATM   15  O1  UNL     1     -14.848   2.590  23.985  1.00  0.00    -0.391 OA
HETATM   16  H19 UNL     1     -15.791   2.820  23.977  1.00  0.00     0.210 HD
ENDBRANCH  14  15
BRANCH  14  17
HETATM   17  C13 UNL     1     -14.570   4.981  23.450  1.00  0.00     0.111 C 
HETATM   18  C14 UNL     1     -14.214   4.805  21.974  1.00  0.00     0.054 C 
HETATM   19  O2  UNL     1     -16.039   4.964  23.444  1.00  0.00    -0.369 OA
HETATM   20  C15 UNL     1     -16.534   6.122  24.126  1.00  0.00     0.197 C 
HETATM   21  C16 UNL     1     -15.361   7.001  24.322  1.00  0.00     0.009 C 
HETATM   22  C17 UNL     1     -14.241   6.376  23.950  1.00  0.00    -0.023 C 
BRANCH  22  23
HETATM   23  C18 UNL     1     -12.921   6.957  23.928  1.00  0.00     0.017 C 
HETATM   24  C19 UNL     1     -12.624   8.171  24.416  1.00  0.00     0.082 C 
BRANCH  24  25
HETATM   25  C20 UNL     1     -11.235   8.644  24.391  1.00  0.00     0.165 C 
HETATM   26  O3  UNL     1     -10.427   8.521  23.490  1.00  0.00    -0.647 OA
BRANCH  25  27
HETATM   27  O4  UNL     1     -10.935   9.253  25.549  1.00  0.00    -0.773 OA
HETATM   28  H28 UNL     1     -10.005   9.538  25.432  1.00  0.00     0.167 HD
ENDBRANCH  25  27
ENDBRANCH  24  25
ENDBRANCH  22  23
ENDBRANCH  14  17
ENDBRANCH  11  14
BRANCH  12  29
HETATM   29  C22 UNL     1     -16.422   2.375  25.860  1.00  0.00     0.184 C 
HETATM   30  O5  UNL     1     -17.029   2.450  24.787  1.00  0.00    -0.290 OA
BRANCH  29  31
HETATM   31  C23 UNL     1     -16.352   1.030  26.594  1.00  0.00     0.188 C 
HETATM   32  C24 UNL     1     -15.941   1.234  28.044  1.00  0.00     0.048 C 
BRANCH  31  33
HETATM   33  O6  UNL     1     -15.364   0.198  25.982  1.00  0.00    -0.388 OA
HETATM   34  H33 UNL     1     -14.701   0.809  25.600  1.00  0.00     0.210 HD
ENDBRANCH  31  33
ENDBRANCH  29  31
ENDBRANCH  12  29
TORSDOF 9
ENDMDL
MODEL 7
REMARK minimizedAffinity -6.56350994
REMARK  9 active torsions:
REMARK  status: ('A' for Active; 'I' for Inactive)
REMARK    1  A    between atoms: C11_11  and  C12_12 
REMARK    2  A    between atoms: C12_12  and  O1_13 
REMARK    3  A    between atoms: C12_12  and  C13_14 
REMARK    4  A    between atoms: C17_19  and  C18_20 
REMARK    5  A    between atoms: C19_21  and  C20_22 
REMARK    6  A    between atoms: C20_22  and  O4_24 
REMARK    7  A    between atoms: C21_25  and  C22_26 
REMARK    8  A    between atoms: C22_26  and  C23_28 
REMARK    9  A    between atoms: C23_28  and  O6_30 
ROOT
HETATM    1  C1  UNL     1       7.252  13.275  23.157  1.00  0.00     0.048 C 
HETATM    2  C2  UNL     1       5.911  12.668  22.868  1.00  0.00    -0.065 C 
HETATM    3  C3  UNL     1       5.675  11.340  22.948  1.00  0.00    -0.015 C 
HETATM    4  C4  UNL     1       4.295  10.747  22.728  1.00  0.00     0.014 C 
HETATM    5  C5  UNL     1       4.189   9.318  23.276  1.00  0.00     0.009 C 
HETATM    6  C6  UNL     1       2.729   8.886  23.310  1.00  0.00     0.001 C 
HETATM    7  C7  UNL     1       2.040   9.068  21.962  1.00  0.00     0.005 C 
HETATM    8  C8  UNL     1       2.226  10.480  21.344  1.00  0.00    -0.013 C 
HETATM    9  C9  UNL     1       1.414  10.504  20.053  1.00  0.00     0.010 C 
HETATM   10  C10 UNL     1       3.751  10.807  21.241  1.00  0.00     0.008 C 
HETATM   11  C11 UNL     1       4.221  12.132  20.544  1.00  0.00     0.059 C 
HETATM   12  C21 UNL     1       3.997  13.347  21.463  1.00  0.00    -0.002 C 
HETATM   13  C25 UNL     1       4.845  13.597  22.487  1.00  0.00     0.018 C 
ENDROOT
BRANCH  11  14
HETATM   14  C12 UNL     1       4.011  12.412  19.017  1.00  0.00     0.166 C 
BRANCH  14  15
HETATM   15  O1  UNL     1       4.786  11.389  18.313  1.00  0.00    -0.391 OA
HETATM   16  H19 UNL     1       4.289  10.557  18.371  1.00  0.00     0.210 HD
ENDBRANCH  14  15
BRANCH  14  17
HETATM   17  C13 UNL     1       2.537  12.391  18.434  1.00  0.00     0.111 C 
HETATM   18  C14 UNL     1       1.443  12.153  19.475  1.00  0.00     0.054 C 
HETATM   19  O2  UNL     1       2.257  13.753  17.960  1.00  0.00    -0.369 OA
HETATM   20  C15 UNL     1       2.164  13.753  16.530  1.00  0.00     0.197 C 
HETATM   21  C16 UNL     1       2.121  12.328  16.134  1.00  0.00     0.009 C 
HETATM   22  C17 UNL     1       2.333  11.542  17.192  1.00  0.00    -0.023 C 
BRANCH  22  23
HETATM   23  C18 UNL     1       2.280  10.101  17.192  1.00  0.00     0.017 C 
HETATM   24  C19 UNL     1       2.268   9.347  16.083  1.00  0.00     0.082 C 
BRANCH  24  25
HETATM   25  C20 UNL     1       2.269   7.884  16.198  1.00  0.00     0.165 C 
HETATM   26  O3  UNL     1       3.218   7.133  16.084  1.00  0.00    -0.647 OA
BRANCH  25  27
HETATM   27  O4  UNL     1       1.027   7.441  16.448  1.00  0.00    -0.773 OA
HETATM   28  H28 UNL     1       1.132   6.469  16.517  1.00  0.00     0.167 HD
ENDBRANCH  25  27
ENDBRANCH  24  25
ENDBRANCH  22  23
ENDBRANCH  14  17
ENDBRANCH  11  14
BRANCH  12  29
HETATM   29  C22 UNL     1       2.808  14.224  21.203  1.00  0.00     0.184 C 
HETATM   30  O5  UNL     1       1.685  13.867  21.574  1.00  0.00    -0.290 OA
BRANCH  29  31
HETATM   31  C23 UNL     1       2.976  15.574  20.496  1.00  0.00     0.188 C 
HETATM   32  C24 UNL     1       3.034  16.705  21.511  1.00  0.00     0.048 C 
BRANCH  31  33
HETATM   33  O6  UNL     1       1.850  15.817  19.649  1.00  0.00    -0.388 OA
HETATM   34  H33 UNL     1       1.099  15.345  20.064  1.00  0.00     0.210 HD
ENDBRANCH  31  33
ENDBRANCH  29  31
ENDBRANCH  12  29
TORSDOF 9
ENDMDL
MODEL 8
REMARK minimizedAffinity -6.33109665
REMARK  9 active torsions:
REMARK  status: ('A' for Active; 'I' for Inactive)
REMARK    1  A    between atoms: C11_11  and  C12_12 
REMARK    2  A    between atoms: C12_12  and  O1_13 
REMARK    3  A    between atoms: C12_12  and  C13_14 
REMARK    4  A    between atoms: C17_19  and  C18_20 
REMARK    5  A    between atoms: C19_21  and  C20_22 
REMARK    6  A    between atoms: C20_22  and  O4_24 
REMARK    7  A    between atoms: C21_25  and  C22_26 
REMARK    8  A    between atoms: C22_26  and  C23_28 
REMARK    9  A    between atoms: C23_28  and  O6_30 
ROOT
HETATM    1  C1  UNL     1       4.716  10.571  22.259  1.00  0.00     0.048 C 
HETATM    2  C2  UNL     1       5.276  11.936  21.989  1.00  0.00    -0.065 C 
HETATM    3  C3  UNL     1       4.818  12.733  20.999  1.00  0.00    -0.015 C 
HETATM    4  C4  UNL     1       5.341  14.142  20.785  1.00  0.00     0.014 C 
HETATM    5  C5  UNL     1       4.402  14.977  19.905  1.00  0.00     0.009 C 
HETATM    6  C6  UNL     1       4.802  16.445  19.971  1.00  0.00     0.001 C 
HETATM    7  C7  UNL     1       6.278  16.657  19.649  1.00  0.00     0.005 C 
HETATM    8  C8  UNL     1       7.237  15.743  20.458  1.00  0.00    -0.013 C 
HETATM    9  C9  UNL     1       8.656  16.144  20.068  1.00  0.00     0.010 C 
HETATM   10  C10 UNL     1       6.830  14.249  20.253  1.00  0.00     0.008 C 
HETATM   11  C11 UNL     1       7.711  13.107  20.872  1.00  0.00     0.059 C 
HETATM   12  C21 UNL     1       7.474  12.990  22.390  1.00  0.00    -0.002 C 
HETATM   13  C25 UNL     1       6.364  12.378  22.864  1.00  0.00     0.018 C 
ENDROOT
BRANCH  11  14
HETATM   14  C12 UNL     1       9.179  12.817  20.409  1.00  0.00     0.166 C 
BRANCH  14  15
HETATM   15  O1  UNL     1       9.518  11.502  20.955  1.00  0.00    -0.391 OA
HETATM   16  H19 UNL     1       9.066  10.837  20.409  1.00  0.00     0.210 HD
ENDBRANCH  14  15
BRANCH  14  17
HETATM   17  C13 UNL     1       9.498  12.796  18.856  1.00  0.00     0.111 C 
HETATM   18  C14 UNL     1       8.398  13.382  17.972  1.00  0.00     0.054 C 
HETATM   19  O2  UNL     1      10.622  13.720  18.649  1.00  0.00    -0.369 OA
HETATM   20  C15 UNL     1      11.789  12.978  18.275  1.00  0.00     0.197 C 
HETATM   21  C16 UNL     1      11.314  11.607  17.987  1.00  0.00     0.009 C 
HETATM   22  C17 UNL     1      10.025  11.481  18.311  1.00  0.00    -0.023 C 
BRANCH  22  23
HETATM   23  C18 UNL     1       9.214  10.309  18.091  1.00  0.00     0.017 C 
HETATM   24  C19 UNL     1       9.087   9.691  16.908  1.00  0.00     0.082 C 
BRANCH  24  25
HETATM   25  C20 UNL     1       8.278   8.471  16.807  1.00  0.00     0.165 C 
HETATM   26  O3  UNL     1       7.081   8.391  16.608  1.00  0.00    -0.647 OA
BRANCH  25  27
HETATM   27  O4  UNL     1       9.052   7.389  16.983  1.00  0.00    -0.773 OA
HETATM   28  H28 UNL     1       8.432   6.636  16.888  1.00  0.00     0.167 HD
ENDBRANCH  25  27
ENDBRANCH  24  25
ENDBRANCH  22  23
ENDBRANCH  14  17
ENDBRANCH  11  14
BRANCH  12  29
HETATM   29  C22 UNL     1       8.490  13.589  23.315  1.00  0.00     0.184 C 
HETATM   30  O5  UNL     1       9.511  12.957  23.602  1.00  0.00    -0.290 OA
BRANCH  29  31
HETATM   31  C23 UNL     1       8.283  14.993  23.895  1.00  0.00     0.188 C 
HETATM   32  C24 UNL     1       6.881  15.496  23.589  1.00  0.00     0.048 C 
BRANCH  31  33
HETATM   33  O6  UNL     1       9.206  15.904  23.293  1.00  0.00    -0.388 OA
HETATM   34  H33 UNL     1       9.385  15.548  22.398  1.00  0.00     0.210 HD
ENDBRANCH  31  33
ENDBRANCH  29  31
ENDBRANCH  12  29
TORSDOF 9
ENDMDL
MODEL 9
REMARK minimizedAffinity -6.27894545
REMARK  9 active torsions:
REMARK  status: ('A' for Active; 'I' for Inactive)
REMARK    1  A    between atoms: C11_11  and  C12_12 
REMARK    2  A    between atoms: C12_12  and  O1_13 
REMARK    3  A    between atoms: C12_12  and  C13_14 
REMARK    4  A    between atoms: C17_19  and  C18_20 
REMARK    5  A    between atoms: C19_21  and  C20_22 
REMARK    6  A    between atoms: C20_22  and  O4_24 
REMARK    7  A    between atoms: C21_25  and  C22_26 
REMARK    8  A    between atoms: C22_26  and  C23_28 
REMARK    9  A    between atoms: C23_28  and  O6_30 
ROOT
HETATM    1  C1  UNL     1     -11.402   0.591  24.665  1.00  0.00     0.048 C 
HETATM    2  C2  UNL     1     -11.995   1.656  25.539  1.00  0.00    -0.065 C 
HETATM    3  C3  UNL     1     -11.981   1.588  26.888  1.00  0.00    -0.015 C 
HETATM    4  C4  UNL     1     -12.516   2.709  27.762  1.00  0.00     0.014 C 
HETATM    5  C5  UNL     1     -12.018   2.598  29.209  1.00  0.00     0.009 C 
HETATM    6  C6  UNL     1     -12.322   3.888  29.960  1.00  0.00     0.001 C 
HETATM    7  C7  UNL     1     -13.791   4.285  29.856  1.00  0.00     0.005 C 
HETATM    8  C8  UNL     1     -14.338   4.301  28.403  1.00  0.00    -0.013 C 
HETATM    9  C9  UNL     1     -15.780   4.790  28.484  1.00  0.00     0.010 C 
HETATM   10  C10 UNL     1     -14.088   2.910  27.737  1.00  0.00     0.008 C 
HETATM   11  C11 UNL     1     -14.648   2.619  26.300  1.00  0.00     0.059 C 
HETATM   12  C21 UNL     1     -13.795   3.318  25.224  1.00  0.00    -0.002 C 
HETATM   13  C25 UNL     1     -12.602   2.798  24.853  1.00  0.00     0.018 C 
ENDROOT
BRANCH  11  14
HETATM   14  C12 UNL     1     -16.180   2.546  25.982  1.00  0.00     0.166 C 
BRANCH  14  15
HETATM   15  O1  UNL     1     -16.278   2.189  24.566  1.00  0.00    -0.391 OA
HETATM   16  H19 UNL     1     -16.074   1.242  24.491  1.00  0.00     0.210 HD
ENDBRANCH  14  15
BRANCH  14  17
HETATM   17  C13 UNL     1     -17.081   1.531  26.802  1.00  0.00     0.111 C 
HETATM   18  C14 UNL     1     -16.399   0.206  27.143  1.00  0.00     0.054 C 
HETATM   19  O2  UNL     1     -17.302   2.142  28.120  1.00  0.00    -0.369 OA
HETATM   20  C15 UNL     1     -18.680   2.513  28.250  1.00  0.00     0.197 C 
HETATM   21  C16 UNL     1     -19.372   1.883  27.105  1.00  0.00     0.009 C 
HETATM   22  C17 UNL     1     -18.489   1.325  26.273  1.00  0.00    -0.023 C 
BRANCH  22  23
HETATM   23  C18 UNL     1     -18.811   0.555  25.098  1.00  0.00     0.017 C 
HETATM   24  C19 UNL     1     -20.033   0.492  24.549  1.00  0.00     0.082 C 
BRANCH  24  25
HETATM   25  C20 UNL     1     -20.239  -0.280  23.319  1.00  0.00     0.165 C 
HETATM   26  O3  UNL     1     -21.064  -0.079  22.448  1.00  0.00    -0.647 OA
BRANCH  25  27
HETATM   27  O4  UNL     1     -19.370  -1.302  23.265  1.00  0.00    -0.773 OA
HETATM   28  H28 UNL     1     -19.577  -1.744  22.415  1.00  0.00     0.167 HD
ENDBRANCH  25  27
ENDBRANCH  24  25
ENDBRANCH  22  23
ENDBRANCH  14  17
ENDBRANCH  11  14
BRANCH  12  29
HETATM   29  C22 UNL     1     -14.313   4.590  24.623  1.00  0.00     0.184 C 
HETATM   30  O5  UNL     1     -14.613   5.540  25.353  1.00  0.00    -0.290 OA
BRANCH  29  31
HETATM   31  C23 UNL     1     -14.455   4.732  23.103  1.00  0.00     0.188 C 
HETATM   32  C24 UNL     1     -14.173   3.406  22.414  1.00  0.00     0.048 C 
BRANCH  31  33
HETATM   33  O6  UNL     1     -13.501   5.679  22.616  1.00  0.00    -0.388 OA
HETATM   34  H33 UNL     1     -12.744   5.636  23.236  1.00  0.00     0.210 HD
ENDBRANCH  31  33
ENDBRANCH  29  31
ENDBRANCH  12  29
TORSDOF 9
ENDMDL
