MODEL 1
REMARK minimizedAffinity -8.50848579
REMARK CNNscore 0.858462393
REMARK CNNaffinity 7.81716681
REMARK  11 active torsions:
REMARK  status: ('A' for Active; 'I' for Inactive)
REMARK    1  A    between atoms: C2_2  and  O2_4 
REMARK    2  A    between atoms: O2_4  and  C3_5 
REMARK    3  A    between atoms: C4_6  and  O3_7 
REMARK    4  A    between atoms: O3_7  and  C5_8 
REMARK    5  A    between atoms: C15_18  and  C16_19 
REMARK    6  A    between atoms: C20_23  and  C21_24 
REMARK    7  A    between atoms: C21_24  and  O4_27 
REMARK    8  A    between atoms: C24_29  and  O6_30 
REMARK    9  A    between atoms: C30_36  and  O7_37 
REMARK   10  A    between atoms: C36_44  and  O9_45 
REMARK   11  A    between atoms: C37_46  and  O10_47 
ROOT
HETATM    1  C5  UNL     1      -4.828  45.107 -17.344  1.00  0.00     0.133 C 
HETATM    2  C6  UNL     1      -3.505  44.958 -18.104  1.00  0.00     0.034 C 
HETATM    3  C7  UNL     1      -3.087  46.230 -18.811  1.00  0.00     0.013 C 
HETATM    4  C8  UNL     1      -4.159  46.738 -19.735  1.00  0.00    -0.025 A 
HETATM    5  C9  UNL     1      -4.168  46.409 -21.200  1.00  0.00     0.021 A 
HETATM    6  C10 UNL     1      -3.748  47.808 -20.762  1.00  0.00    -0.027 A 
HETATM    7  C11 UNL     1      -2.295  48.138 -21.074  1.00  0.00     0.011 C 
HETATM    8  C12 UNL     1      -2.113  48.922 -22.398  1.00  0.00     0.011 C 
HETATM    9  C13 UNL     1      -3.386  49.646 -22.892  1.00  0.00    -0.028 C 
HETATM   10  C14 UNL     1      -4.242  48.645 -23.723  1.00  0.00     0.016 C 
HETATM   11  C15 UNL     1      -3.183  50.942 -23.754  1.00  0.00     0.057 C 
HETATM   12  C24 UNL     1      -4.525  51.715 -23.533  1.00  0.00     0.126 C 
HETATM   13  C25 UNL     1      -5.224  51.064 -22.309  1.00  0.00     0.042 C 
HETATM   14  C26 UNL     1      -4.140  50.206 -21.626  1.00  0.00    -0.029 C 
HETATM   15  C27 UNL     1      -3.282  51.184 -20.762  1.00  0.00     0.016 C 
HETATM   16  C28 UNL     1      -4.705  49.024 -20.751  1.00  0.00     0.006 C 
HETATM   17  C29 UNL     1      -4.971  49.404 -19.267  1.00  0.00     0.038 C 
HETATM   18  C30 UNL     1      -5.633  48.293 -18.420  1.00  0.00     0.124 C 
HETATM   19  C31 UNL     1      -5.544  46.905 -19.088  1.00  0.00     0.034 C 
HETATM   20  C32 UNL     1      -5.973  45.646 -18.263  1.00  0.00    -0.015 C 
HETATM   21  C33 UNL     1      -7.215  45.950 -17.389  1.00  0.00     0.018 C 
HETATM   22  C34 UNL     1      -6.402  44.533 -19.265  1.00  0.00     0.018 C 
ENDROOT
BRANCH   1  23
HETATM   23  O3  UNL     1      -5.276  43.853 -16.796  1.00  0.00    -0.352 OA
BRANCH  23  24
HETATM   24  C4  UNL     1      -4.353  42.761 -16.829  1.00  0.00     0.292 C 
HETATM   25  C3  UNL     1      -4.162  42.296 -15.364  1.00  0.00     0.218 C 
HETATM   26  C37 UNL     1      -3.446  40.935 -15.278  1.00  0.00     0.183 C 
HETATM   27  C36 UNL     1      -3.950  39.937 -16.325  1.00  0.00     0.173 C 
HETATM   28  C35 UNL     1      -4.024  40.587 -17.693  1.00  0.00     0.205 C 
HETATM   29  O8  UNL     1      -4.881  41.719 -17.641  1.00  0.00    -0.356 OA
BRANCH  25  30
HETATM   30  O2  UNL     1      -3.363  43.333 -14.713  1.00  0.00    -0.309 OA
BRANCH  30  31
HETATM   31  C2  UNL     1      -2.093  43.508 -15.138  1.00  0.00     0.255 C 
HETATM   32  C1  UNL     1      -1.465  44.675 -14.449  1.00  0.00     0.126 C 
HETATM   33  O1  UNL     1      -1.532  42.814 -15.976  1.00  0.00    -0.266 OA
ENDBRANCH  30  31
ENDBRANCH  25  30
BRANCH  26  34
HETATM   34  O10 UNL     1      -3.624  40.283 -14.001  1.00  0.00    -0.390 OA
HETATM   35  H60 UNL     1      -3.753  40.970 -13.312  1.00  0.00     0.210 HD
ENDBRANCH  26  34
BRANCH  27  36
HETATM   36  O9  UNL     1      -3.075  38.809 -16.363  1.00  0.00    -0.391 OA
HETATM   37  H58 UNL     1      -3.163  38.385 -15.482  1.00  0.00     0.210 HD
ENDBRANCH  27  36
ENDBRANCH  23  24
ENDBRANCH   1  23
BRANCH  18  38
HETATM   38  O7  UNL     1      -5.056  48.288 -17.116  1.00  0.00    -0.395 OA
HETATM   39  H47 UNL     1      -5.169  49.187 -16.760  1.00  0.00     0.210 HD
ENDBRANCH  18  38
BRANCH  11  40
HETATM   40  C16 UNL     1      -2.592  50.898 -25.199  1.00  0.00     0.065 C 
HETATM   41  C17 UNL     1      -3.040  49.601 -25.906  1.00  0.00     0.046 C 
HETATM   42  C18 UNL     1      -2.809  52.090 -26.123  1.00  0.00     0.041 C 
HETATM   43  C19 UNL     1      -1.631  52.046 -27.069  1.00  0.00     0.038 C 
HETATM   44  C20 UNL     1      -0.549  51.293 -26.307  1.00  0.00     0.156 C 
HETATM   45  O5  UNL     1      -1.144  50.813 -25.077  1.00  0.00    -0.372 OA
BRANCH  44  46
HETATM   46  C21 UNL     1       0.754  52.065 -26.002  1.00  0.00     0.076 C 
HETATM   47  C22 UNL     1       0.855  52.431 -24.519  1.00  0.00     0.048 C 
HETATM   48  C23 UNL     1       2.014  51.334 -26.458  1.00  0.00     0.048 C 
BRANCH  46  49
HETATM   49  O4  UNL     1       0.710  53.302 -26.731  1.00  0.00    -0.388 OA
HETATM   50  H35 UNL     1       0.396  53.062 -27.624  1.00  0.00     0.210 HD
ENDBRANCH  46  49
ENDBRANCH  44  46
ENDBRANCH  11  40
BRANCH  12  51
HETATM   51  O6  UNL     1      -5.415  51.657 -24.631  1.00  0.00    -0.395 OA
HETATM   52  H37 UNL     1      -6.188  52.200 -24.412  1.00  0.00     0.210 HD
ENDBRANCH  12  51
TORSDOF 11
ENDMDL
MODEL 2
REMARK minimizedAffinity -8.54032707
REMARK CNNscore 0.648178101
REMARK CNNaffinity 7.52028036
REMARK  11 active torsions:
REMARK  status: ('A' for Active; 'I' for Inactive)
REMARK    1  A    between atoms: C2_2  and  O2_4 
REMARK    2  A    between atoms: O2_4  and  C3_5 
REMARK    3  A    between atoms: C4_6  and  O3_7 
REMARK    4  A    between atoms: O3_7  and  C5_8 
REMARK    5  A    between atoms: C15_18  and  C16_19 
REMARK    6  A    between atoms: C20_23  and  C21_24 
REMARK    7  A    between atoms: C21_24  and  O4_27 
REMARK    8  A    between atoms: C24_29  and  O6_30 
REMARK    9  A    between atoms: C30_36  and  O7_37 
REMARK   10  A    between atoms: C36_44  and  O9_45 
REMARK   11  A    between atoms: C37_46  and  O10_47 
ROOT
HETATM    1  C5  UNL     1      -4.481  50.870 -24.209  1.00  0.00     0.133 C 
HETATM    2  C6  UNL     1      -3.766  49.522 -24.357  1.00  0.00     0.034 C 
HETATM    3  C7  UNL     1      -4.317  48.459 -23.430  1.00  0.00     0.013 C 
HETATM    4  C8  UNL     1      -4.294  48.901 -21.993  1.00  0.00    -0.025 A 
HETATM    5  C9  UNL     1      -3.166  48.544 -21.069  1.00  0.00     0.021 A 
HETATM    6  C10 UNL     1      -4.495  47.812 -20.923  1.00  0.00    -0.027 A 
HETATM    7  C11 UNL     1      -4.413  46.324 -21.234  1.00  0.00     0.011 C 
HETATM    8  C12 UNL     1      -4.235  45.441 -19.974  1.00  0.00     0.011 C 
HETATM    9  C13 UNL     1      -4.662  46.121 -18.653  1.00  0.00    -0.028 C 
HETATM   10  C14 UNL     1      -3.465  46.956 -18.109  1.00  0.00     0.016 C 
HETATM   11  C15 UNL     1      -5.164  45.185 -17.497  1.00  0.00     0.057 C 
HETATM   12  C24 UNL     1      -6.060  46.143 -16.645  1.00  0.00     0.126 C 
HETATM   13  C25 UNL     1      -6.343  47.394 -17.520  1.00  0.00     0.042 C 
HETATM   14  C26 UNL     1      -5.942  46.991 -18.953  1.00  0.00    -0.029 C 
HETATM   15  C27 UNL     1      -7.139  46.173 -19.533  1.00  0.00     0.016 C 
HETATM   16  C28 UNL     1      -5.578  48.203 -19.890  1.00  0.00     0.006 C 
HETATM   17  C29 UNL     1      -6.790  48.788 -20.671  1.00  0.00     0.038 C 
HETATM   18  C30 UNL     1      -6.476  50.050 -21.507  1.00  0.00     0.124 C 
HETATM   19  C31 UNL     1      -4.963  50.259 -21.723  1.00  0.00     0.034 C 
HETATM   20  C32 UNL     1      -4.494  51.365 -22.725  1.00  0.00    -0.015 C 
HETATM   21  C33 UNL     1      -5.391  52.624 -22.626  1.00  0.00     0.018 C 
HETATM   22  C34 UNL     1      -3.060  51.815 -22.315  1.00  0.00     0.018 C 
ENDROOT
BRANCH   1  23
HETATM   23  O3  UNL     1      -3.854  51.900 -24.996  1.00  0.00    -0.352 OA
BRANCH  23  24
HETATM   24  C4  UNL     1      -2.442  51.793 -25.203  1.00  0.00     0.292 C 
HETATM   25  C3  UNL     1      -2.236  51.469 -26.704  1.00  0.00     0.218 C 
HETATM   26  C37 UNL     1      -0.767  51.638 -27.134  1.00  0.00     0.183 C 
HETATM   27  C36 UNL     1      -0.117  52.890 -26.538  1.00  0.00     0.173 C 
HETATM   28  C35 UNL     1      -0.411  52.991 -25.053  1.00  0.00     0.205 C 
HETATM   29  O8  UNL     1      -1.816  53.019 -24.843  1.00  0.00    -0.356 OA
BRANCH  25  30
HETATM   30  O2  UNL     1      -2.663  50.083 -26.880  1.00  0.00    -0.309 OA
BRANCH  30  31
HETATM   31  C2  UNL     1      -3.399  49.785 -27.972  1.00  0.00     0.255 C 
HETATM   32  C1  UNL     1      -4.032  48.440 -27.829  1.00  0.00     0.126 C 
HETATM   33  O1  UNL     1      -3.528  50.511 -28.950  1.00  0.00    -0.266 OA
ENDBRANCH  30  31
ENDBRANCH  25  30
BRANCH  26  34
HETATM   34  O10 UNL     1      -0.609  51.762 -28.565  1.00  0.00    -0.390 OA
HETATM   35  H60 UNL     1      -1.342  51.281 -29.006  1.00  0.00     0.210 HD
ENDBRANCH  26  34
BRANCH  27  36
HETATM   36  O9  UNL     1       1.293  52.841 -26.757  1.00  0.00    -0.391 OA
HETATM   37  H58 UNL     1       1.404  52.885 -27.731  1.00  0.00     0.210 HD
ENDBRANCH  27  36
ENDBRANCH  23  24
ENDBRANCH   1  23
BRANCH  18  38
HETATM   38  O7  UNL     1      -7.181  49.981 -22.745  1.00  0.00    -0.395 OA
HETATM   39  H47 UNL     1      -8.122  49.868 -22.523  1.00  0.00     0.210 HD
ENDBRANCH  18  38
BRANCH  11  40
HETATM   40  C16 UNL     1      -4.208  44.209 -16.740  1.00  0.00     0.065 C 
HETATM   41  C17 UNL     1      -2.974  44.982 -16.227  1.00  0.00     0.046 C 
HETATM   42  C18 UNL     1      -4.772  43.340 -15.623  1.00  0.00     0.041 C 
HETATM   43  C19 UNL     1      -3.866  42.131 -15.598  1.00  0.00     0.038 C 
HETATM   44  C20 UNL     1      -3.276  42.060 -17.000  1.00  0.00     0.156 C 
HETATM   45  O5  UNL     1      -3.708  43.246 -17.710  1.00  0.00    -0.372 OA
BRANCH  44  46
HETATM   46  C21 UNL     1      -3.600  40.796 -17.829  1.00  0.00     0.076 C 
HETATM   47  C22 UNL     1      -4.160  39.676 -16.948  1.00  0.00     0.048 C 
HETATM   48  C23 UNL     1      -4.534  41.066 -19.006  1.00  0.00     0.048 C 
BRANCH  46  49
HETATM   49  O4  UNL     1      -2.370  40.309 -18.385  1.00  0.00    -0.388 OA
HETATM   50  H35 UNL     1      -1.911  41.101 -18.725  1.00  0.00     0.210 HD
ENDBRANCH  46  49
ENDBRANCH  44  46
ENDBRANCH  11  40
BRANCH  12  51
HETATM   51  O6  UNL     1      -5.463  46.575 -15.437  1.00  0.00    -0.395 OA
HETATM   52  H37 UNL     1      -6.112  47.122 -14.967  1.00  0.00     0.210 HD
ENDBRANCH  12  51
TORSDOF 11
ENDMDL
MODEL 3
REMARK minimizedAffinity -8.94513607
REMARK CNNscore 0.623832047
REMARK CNNaffinity 6.99849081
REMARK  11 active torsions:
REMARK  status: ('A' for Active; 'I' for Inactive)
REMARK    1  A    between atoms: C2_2  and  O2_4 
REMARK    2  A    between atoms: O2_4  and  C3_5 
REMARK    3  A    between atoms: C4_6  and  O3_7 
REMARK    4  A    between atoms: O3_7  and  C5_8 
REMARK    5  A    between atoms: C15_18  and  C16_19 
REMARK    6  A    between atoms: C20_23  and  C21_24 
REMARK    7  A    between atoms: C21_24  and  O4_27 
REMARK    8  A    between atoms: C24_29  and  O6_30 
REMARK    9  A    between atoms: C30_36  and  O7_37 
REMARK   10  A    between atoms: C36_44  and  O9_45 
REMARK   11  A    between atoms: C37_46  and  O10_47 
ROOT
HETATM    1  C5  UNL     1      -2.307  50.171 -21.948  1.00  0.00     0.133 C 
HETATM    2  C6  UNL     1      -3.630  50.602 -22.592  1.00  0.00     0.034 C 
HETATM    3  C7  UNL     1      -4.830  50.331 -21.709  1.00  0.00     0.013 C 
HETATM    4  C8  UNL     1      -4.904  48.888 -21.291  1.00  0.00    -0.025 A 
HETATM    5  C9  UNL     1      -5.738  47.886 -22.036  1.00  0.00     0.021 A 
HETATM    6  C10 UNL     1      -6.236  48.402 -20.691  1.00  0.00    -0.027 A 
HETATM    7  C11 UNL     1      -7.525  49.206 -20.780  1.00  0.00     0.011 C 
HETATM    8  C12 UNL     1      -8.795  48.369 -20.488  1.00  0.00     0.011 C 
HETATM    9  C13 UNL     1      -8.533  47.067 -19.698  1.00  0.00    -0.028 C 
HETATM   10  C14 UNL     1      -8.147  45.939 -20.701  1.00  0.00     0.016 C 
HETATM   11  C15 UNL     1      -9.699  46.532 -18.794  1.00  0.00     0.057 C 
HETATM   12  C24 UNL     1      -8.942  45.673 -17.728  1.00  0.00     0.126 C 
HETATM   13  C25 UNL     1      -7.442  46.062 -17.819  1.00  0.00     0.042 C 
HETATM   14  C26 UNL     1      -7.405  47.368 -18.637  1.00  0.00    -0.029 C 
HETATM   15  C27 UNL     1      -7.763  48.521 -17.646  1.00  0.00     0.016 C 
HETATM   16  C28 UNL     1      -6.032  47.645 -19.356  1.00  0.00     0.006 C 
HETATM   17  C29 UNL     1      -5.021  48.459 -18.499  1.00  0.00     0.038 C 
HETATM   18  C30 UNL     1      -3.626  48.643 -19.141  1.00  0.00     0.124 C 
HETATM   19  C31 UNL     1      -3.621  48.332 -20.652  1.00  0.00     0.034 C 
HETATM   20  C32 UNL     1      -2.342  48.677 -21.485  1.00  0.00    -0.015 C 
HETATM   21  C33 UNL     1      -1.054  48.373 -20.680  1.00  0.00     0.018 C 
HETATM   22  C34 UNL     1      -2.310  47.745 -22.733  1.00  0.00     0.018 C 
ENDROOT
BRANCH   1  23
HETATM   23  O3  UNL     1      -1.199  50.309 -22.856  1.00  0.00    -0.352 OA
BRANCH  23  24
HETATM   24  C4  UNL     1      -1.208  51.444 -23.727  1.00  0.00     0.292 C 
HETATM   25  C3  UNL     1      -0.064  52.376 -23.255  1.00  0.00     0.218 C 
HETATM   26  C37 UNL     1       0.247  53.477 -24.287  1.00  0.00     0.183 C 
HETATM   27  C36 UNL     1       0.247  52.953 -25.726  1.00  0.00     0.173 C 
HETATM   28  C35 UNL     1      -0.978  52.098 -25.986  1.00  0.00     0.205 C 
HETATM   29  O8  UNL     1      -1.009  51.013 -25.069  1.00  0.00    -0.356 OA
BRANCH  25  30
HETATM   30  O2  UNL     1      -0.519  52.969 -22.000  1.00  0.00    -0.309 OA
BRANCH  30  31
HETATM   31  C2  UNL     1       0.261  52.806 -20.909  1.00  0.00     0.255 C 
HETATM   32  C1  UNL     1       1.061  54.040 -20.646  1.00  0.00     0.126 C 
HETATM   33  O1  UNL     1       0.313  51.789 -20.229  1.00  0.00    -0.266 OA
ENDBRANCH  30  31
ENDBRANCH  25  30
BRANCH  26  34
HETATM   34  O10 UNL     1       1.544  54.082 -24.092  1.00  0.00    -0.390 OA
HETATM   35  H60 UNL     1       1.778  54.029 -23.141  1.00  0.00     0.210 HD
ENDBRANCH  26  34
BRANCH  27  36
HETATM   36  O9  UNL     1       0.277  54.057 -26.631  1.00  0.00    -0.391 OA
HETATM   37  H58 UNL     1       1.140  54.496 -26.475  1.00  0.00     0.210 HD
ENDBRANCH  27  36
ENDBRANCH  23  24
ENDBRANCH   1  23
BRANCH  18  38
HETATM   38  O7  UNL     1      -3.154  49.962 -18.873  1.00  0.00    -0.395 OA
HETATM   39  H47 UNL     1      -3.171  50.071 -17.905  1.00  0.00     0.210 HD
ENDBRANCH  18  38
BRANCH  11  40
HETATM   40  C16 UNL     1     -11.022  45.956 -19.393  1.00  0.00     0.065 C 
HETATM   41  C17 UNL     1     -10.720  45.235 -20.725  1.00  0.00     0.046 C 
HETATM   42  C18 UNL     1     -11.908  45.075 -18.521  1.00  0.00     0.041 C 
HETATM   43  C19 UNL     1     -13.295  45.266 -19.087  1.00  0.00     0.038 C 
HETATM   44  C20 UNL     1     -13.250  46.623 -19.777  1.00  0.00     0.156 C 
HETATM   45  O5  UNL     1     -11.878  47.084 -19.729  1.00  0.00    -0.372 OA
BRANCH  44  46
HETATM   46  C21 UNL     1     -14.197  47.715 -19.229  1.00  0.00     0.076 C 
HETATM   47  C22 UNL     1     -13.938  49.069 -19.896  1.00  0.00     0.048 C 
HETATM   48  C23 UNL     1     -15.674  47.344 -19.333  1.00  0.00     0.048 C 
BRANCH  46  49
HETATM   49  O4  UNL     1     -13.912  47.881 -17.832  1.00  0.00    -0.388 OA
HETATM   50  H35 UNL     1     -13.835  46.974 -17.477  1.00  0.00     0.210 HD
ENDBRANCH  46  49
ENDBRANCH  44  46
ENDBRANCH  11  40
BRANCH  12  51
HETATM   51  O6  UNL     1      -9.048  44.276 -17.927  1.00  0.00    -0.395 OA
HETATM   52  H37 UNL     1      -8.586  43.839 -17.194  1.00  0.00     0.210 HD
ENDBRANCH  12  51
TORSDOF 11
ENDMDL
MODEL 4
REMARK minimizedAffinity -9.22913933
REMARK CNNscore 0.612982512
REMARK CNNaffinity 6.39963102
REMARK  11 active torsions:
REMARK  status: ('A' for Active; 'I' for Inactive)
REMARK    1  A    between atoms: C2_2  and  O2_4 
REMARK    2  A    between atoms: O2_4  and  C3_5 
REMARK    3  A    between atoms: C4_6  and  O3_7 
REMARK    4  A    between atoms: O3_7  and  C5_8 
REMARK    5  A    between atoms: C15_18  and  C16_19 
REMARK    6  A    between atoms: C20_23  and  C21_24 
REMARK    7  A    between atoms: C21_24  and  O4_27 
REMARK    8  A    between atoms: C24_29  and  O6_30 
REMARK    9  A    between atoms: C30_36  and  O7_37 
REMARK   10  A    between atoms: C36_44  and  O9_45 
REMARK   11  A    between atoms: C37_46  and  O10_47 
ROOT
HETATM    1  C5  UNL     1     -15.627  45.214 -23.399  1.00  0.00     0.133 C 
HETATM    2  C6  UNL     1     -15.597  44.367 -24.677  1.00  0.00     0.034 C 
HETATM    3  C7  UNL     1     -14.241  44.369 -25.351  1.00  0.00     0.013 C 
HETATM    4  C8  UNL     1     -13.763  45.764 -25.645  1.00  0.00    -0.025 A 
HETATM    5  C9  UNL     1     -13.976  46.413 -26.982  1.00  0.00     0.021 A 
HETATM    6  C10 UNL     1     -12.583  45.907 -26.624  1.00  0.00    -0.027 A 
HETATM    7  C11 UNL     1     -12.099  44.766 -27.507  1.00  0.00     0.011 C 
HETATM    8  C12 UNL     1     -11.202  45.232 -28.680  1.00  0.00     0.011 C 
HETATM    9  C13 UNL     1     -10.560  46.624 -28.478  1.00  0.00    -0.028 C 
HETATM   10  C14 UNL     1     -11.567  47.714 -28.951  1.00  0.00     0.016 C 
HETATM   11  C15 UNL     1      -9.188  46.889 -29.193  1.00  0.00     0.057 C 
HETATM   12  C24 UNL     1      -8.559  48.024 -28.319  1.00  0.00     0.126 C 
HETATM   13  C25 UNL     1      -9.363  48.069 -26.992  1.00  0.00     0.042 C 
HETATM   14  C26 UNL     1     -10.170  46.756 -26.956  1.00  0.00    -0.029 C 
HETATM   15  C27 UNL     1      -9.189  45.648 -26.458  1.00  0.00     0.016 C 
HETATM   16  C28 UNL     1     -11.463  46.813 -26.058  1.00  0.00     0.006 C 
HETATM   17  C29 UNL     1     -11.225  46.404 -24.577  1.00  0.00     0.038 C 
HETATM   18  C30 UNL     1     -12.454  46.563 -23.653  1.00  0.00     0.124 C 
HETATM   19  C31 UNL     1     -13.772  46.719 -24.439  1.00  0.00     0.034 C 
HETATM   20  C32 UNL     1     -15.125  46.674 -23.654  1.00  0.00    -0.015 C 
HETATM   21  C33 UNL     1     -15.004  47.405 -22.294  1.00  0.00     0.018 C 
HETATM   22  C34 UNL     1     -16.192  47.454 -24.479  1.00  0.00     0.018 C 
ENDROOT
BRANCH   1  23
HETATM   23  O3  UNL     1     -16.955  45.311 -22.851  1.00  0.00    -0.352 OA
BRANCH  23  24
HETATM   24  C4  UNL     1     -17.167  44.746 -21.554  1.00  0.00     0.292 C 
HETATM   25  C3  UNL     1     -18.684  44.866 -21.260  1.00  0.00     0.218 C 
HETATM   26  C37 UNL     1     -19.105  44.019 -20.044  1.00  0.00     0.183 C 
HETATM   27  C36 UNL     1     -18.442  42.639 -20.028  1.00  0.00     0.173 C 
HETATM   28  C35 UNL     1     -16.954  42.756 -20.298  1.00  0.00     0.205 C 
HETATM   29  O8  UNL     1     -16.742  43.388 -21.553  1.00  0.00    -0.356 OA
BRANCH  25  30
HETATM   30  O2  UNL     1     -18.935  46.282 -21.006  1.00  0.00    -0.309 OA
BRANCH  30  31
HETATM   31  C2  UNL     1     -19.010  46.687 -19.720  1.00  0.00     0.255 C 
HETATM   32  C1  UNL     1     -17.712  47.278 -19.278  1.00  0.00     0.126 C 
HETATM   33  O1  UNL     1     -20.001  46.581 -19.008  1.00  0.00    -0.266 OA
ENDBRANCH  30  31
ENDBRANCH  25  30
BRANCH  26  34
HETATM   34  O10 UNL     1     -20.527  43.768 -19.997  1.00  0.00    -0.390 OA
HETATM   35  H60 UNL     1     -20.993  44.511 -20.438  1.00  0.00     0.210 HD
ENDBRANCH  26  34
BRANCH  27  36
HETATM   36  O9  UNL     1     -18.663  42.023 -18.759  1.00  0.00    -0.391 OA
HETATM   37  H58 UNL     1     -19.633  41.886 -18.705  1.00  0.00     0.210 HD
ENDBRANCH  27  36
ENDBRANCH  23  24
ENDBRANCH   1  23
BRANCH  18  38
HETATM   38  O7  UNL     1     -12.508  45.464 -22.746  1.00  0.00    -0.395 OA
HETATM   39  H47 UNL     1     -11.653  45.447 -22.280  1.00  0.00     0.210 HD
ENDBRANCH  18  38
BRANCH  11  40
HETATM   40  C16 UNL     1      -9.066  47.007 -30.745  1.00  0.00     0.065 C 
HETATM   41  C17 UNL     1     -10.225  46.240 -31.419  1.00  0.00     0.046 C 
HETATM   42  C18 UNL     1      -8.929  48.388 -31.374  1.00  0.00     0.041 C 
HETATM   43  C19 UNL     1      -8.183  48.137 -32.664  1.00  0.00     0.038 C 
HETATM   44  C20 UNL     1      -7.423  46.840 -32.427  1.00  0.00     0.156 C 
HETATM   45  O5  UNL     1      -7.844  46.323 -31.142  1.00  0.00    -0.372 OA
BRANCH  44  46
HETATM   46  C21 UNL     1      -5.881  46.915 -32.491  1.00  0.00     0.076 C 
HETATM   47  C22 UNL     1      -5.341  48.076 -31.651  1.00  0.00     0.048 C 
HETATM   48  C23 UNL     1      -5.193  45.610 -32.100  1.00  0.00     0.048 C 
BRANCH  46  49
HETATM   49  O4  UNL     1      -5.511  47.182 -33.852  1.00  0.00    -0.388 OA
HETATM   50  H35 UNL     1      -6.067  46.586 -34.390  1.00  0.00     0.210 HD
ENDBRANCH  46  49
ENDBRANCH  44  46
ENDBRANCH  11  40
BRANCH  12  51
HETATM   51  O6  UNL     1      -8.612  49.308 -28.911  1.00  0.00    -0.395 OA
HETATM   52  H37 UNL     1      -8.160  49.926 -28.315  1.00  0.00     0.210 HD
ENDBRANCH  12  51
TORSDOF 11
ENDMDL
MODEL 5
REMARK minimizedAffinity -9.24916077
REMARK CNNscore 0.598626494
REMARK CNNaffinity 7.3466363
REMARK  11 active torsions:
REMARK  status: ('A' for Active; 'I' for Inactive)
REMARK    1  A    between atoms: C2_2  and  O2_4 
REMARK    2  A    between atoms: O2_4  and  C3_5 
REMARK    3  A    between atoms: C4_6  and  O3_7 
REMARK    4  A    between atoms: O3_7  and  C5_8 
REMARK    5  A    between atoms: C15_18  and  C16_19 
REMARK    6  A    between atoms: C20_23  and  C21_24 
REMARK    7  A    between atoms: C21_24  and  O4_27 
REMARK    8  A    between atoms: C24_29  and  O6_30 
REMARK    9  A    between atoms: C30_36  and  O7_37 
REMARK   10  A    between atoms: C36_44  and  O9_45 
REMARK   11  A    between atoms: C37_46  and  O10_47 
ROOT
HETATM    1  C5  UNL     1      -2.749  50.294 -23.562  1.00  0.00     0.133 C 
HETATM    2  C6  UNL     1      -2.536  48.823 -23.182  1.00  0.00     0.034 C 
HETATM    3  C7  UNL     1      -3.809  48.147 -22.720  1.00  0.00     0.013 C 
HETATM    4  C8  UNL     1      -4.456  48.886 -21.582  1.00  0.00    -0.025 A 
HETATM    5  C9  UNL     1      -4.217  48.507 -20.149  1.00  0.00     0.021 A 
HETATM    6  C10 UNL     1      -5.548  48.139 -20.793  1.00  0.00    -0.027 A 
HETATM    7  C11 UNL     1      -5.776  46.639 -20.917  1.00  0.00     0.011 C 
HETATM    8  C12 UNL     1      -6.618  46.047 -19.759  1.00  0.00     0.011 C 
HETATM    9  C13 UNL     1      -7.472  47.085 -18.996  1.00  0.00    -0.028 C 
HETATM   10  C14 UNL     1      -6.596  47.737 -17.886  1.00  0.00     0.016 C 
HETATM   11  C15 UNL     1      -8.796  46.570 -18.328  1.00  0.00     0.057 C 
HETATM   12  C24 UNL     1      -9.662  47.869 -18.234  1.00  0.00     0.126 C 
HETATM   13  C25 UNL     1      -9.000  48.920 -19.165  1.00  0.00     0.042 C 
HETATM   14  C26 UNL     1      -8.017  48.125 -20.048  1.00  0.00    -0.029 C 
HETATM   15  C27 UNL     1      -8.869  47.482 -21.188  1.00  0.00     0.016 C 
HETATM   16  C28 UNL     1      -6.836  48.983 -20.639  1.00  0.00     0.006 C 
HETATM   17  C29 UNL     1      -7.149  49.628 -22.019  1.00  0.00     0.038 C 
HETATM   18  C30 UNL     1      -6.047  50.567 -22.562  1.00  0.00     0.124 C 
HETATM   19  C31 UNL     1      -4.698  50.383 -21.836  1.00  0.00     0.034 C 
HETATM   20  C32 UNL     1      -3.433  51.102 -22.411  1.00  0.00    -0.015 C 
HETATM   21  C33 UNL     1      -3.785  52.517 -22.933  1.00  0.00     0.018 C 
HETATM   22  C34 UNL     1      -2.419  51.305 -21.245  1.00  0.00     0.018 C 
ENDROOT
BRANCH   1  23
HETATM   23  O3  UNL     1      -1.506  50.954 -23.865  1.00  0.00    -0.352 OA
BRANCH  23  24
HETATM   24  C4  UNL     1      -1.068  50.926 -25.227  1.00  0.00     0.292 C 
HETATM   25  C3  UNL     1      -2.079  51.777 -26.036  1.00  0.00     0.218 C 
HETATM   26  C37 UNL     1      -1.562  52.095 -27.452  1.00  0.00     0.183 C 
HETATM   27  C36 UNL     1      -0.078  52.471 -27.468  1.00  0.00     0.173 C 
HETATM   28  C35 UNL     1       0.733  51.486 -26.649  1.00  0.00     0.205 C 
HETATM   29  O8  UNL     1       0.248  51.457 -25.314  1.00  0.00    -0.356 OA
BRANCH  25  30
HETATM   30  O2  UNL     1      -3.306  50.988 -26.107  1.00  0.00    -0.309 OA
BRANCH  30  31
HETATM   31  C2  UNL     1      -3.416  50.083 -27.104  1.00  0.00     0.255 C 
HETATM   32  C1  UNL     1      -3.605  48.709 -26.549  1.00  0.00     0.126 C 
HETATM   33  O1  UNL     1      -3.363  50.346 -28.299  1.00  0.00    -0.266 OA
ENDBRANCH  30  31
ENDBRANCH  25  30
BRANCH  26  34
HETATM   34  O10 UNL     1      -2.252  53.205 -28.068  1.00  0.00    -0.390 OA
HETATM   35  H60 UNL     1      -3.163  53.251 -27.706  1.00  0.00     0.210 HD
ENDBRANCH  26  34
BRANCH  27  36
HETATM   36  O9  UNL     1       0.390  52.491 -28.817  1.00  0.00    -0.391 OA
HETATM   37  H58 UNL     1      -0.105  53.220 -29.251  1.00  0.00     0.210 HD
ENDBRANCH  27  36
ENDBRANCH  23  24
ENDBRANCH   1  23
BRANCH  18  38
HETATM   38  O7  UNL     1      -5.918  50.377 -23.969  1.00  0.00    -0.395 OA
HETATM   39  H47 UNL     1      -6.801  50.528 -24.352  1.00  0.00     0.210 HD
ENDBRANCH  18  38
BRANCH  11  40
HETATM   40  C16 UNL     1      -8.788  45.604 -17.100  1.00  0.00     0.065 C 
HETATM   41  C17 UNL     1      -8.075  46.280 -15.909  1.00  0.00     0.046 C 
HETATM   42  C18 UNL     1     -10.104  44.993 -16.632  1.00  0.00     0.041 C 
HETATM   43  C19 UNL     1      -9.697  43.695 -15.973  1.00  0.00     0.038 C 
HETATM   44  C20 UNL     1      -8.361  43.338 -16.611  1.00  0.00     0.156 C 
HETATM   45  O5  UNL     1      -7.977  44.450 -17.456  1.00  0.00    -0.372 OA
BRANCH  44  46
HETATM   46  C21 UNL     1      -8.302  42.017 -17.410  1.00  0.00     0.076 C 
HETATM   47  C22 UNL     1      -6.997  41.261 -17.148  1.00  0.00     0.048 C 
HETATM   48  C23 UNL     1      -9.503  41.107 -17.166  1.00  0.00     0.048 C 
BRANCH  46  49
HETATM   49  O4  UNL     1      -8.314  42.349 -18.806  1.00  0.00    -0.388 OA
HETATM   50  H35 UNL     1      -9.005  43.032 -18.901  1.00  0.00     0.210 HD
ENDBRANCH  46  49
ENDBRANCH  44  46
ENDBRANCH  11  40
BRANCH  12  51
HETATM   51  O6  UNL     1      -9.742  48.420 -16.934  1.00  0.00    -0.395 OA
HETATM   52  H37 UNL     1     -10.333  49.189 -16.976  1.00  0.00     0.210 HD
ENDBRANCH  12  51
TORSDOF 11
ENDMDL
MODEL 6
REMARK minimizedAffinity -9.487854
REMARK CNNscore 0.595547676
REMARK CNNaffinity 7.44859838
REMARK  11 active torsions:
REMARK  status: ('A' for Active; 'I' for Inactive)
REMARK    1  A    between atoms: C2_2  and  O2_4 
REMARK    2  A    between atoms: O2_4  and  C3_5 
REMARK    3  A    between atoms: C4_6  and  O3_7 
REMARK    4  A    between atoms: O3_7  and  C5_8 
REMARK    5  A    between atoms: C15_18  and  C16_19 
REMARK    6  A    between atoms: C20_23  and  C21_24 
REMARK    7  A    between atoms: C21_24  and  O4_27 
REMARK    8  A    between atoms: C24_29  and  O6_30 
REMARK    9  A    between atoms: C30_36  and  O7_37 
REMARK   10  A    between atoms: C36_44  and  O9_45 
REMARK   11  A    between atoms: C37_46  and  O10_47 
ROOT
HETATM    1  C5  UNL     1      -1.885  49.631 -21.655  1.00  0.00     0.133 C 
HETATM    2  C6  UNL     1      -0.649  48.984 -21.020  1.00  0.00     0.034 C 
HETATM    3  C7  UNL     1      -0.785  48.801 -19.523  1.00  0.00     0.013 C 
HETATM    4  C8  UNL     1      -1.107  50.094 -18.826  1.00  0.00    -0.025 A 
HETATM    5  C9  UNL     1      -0.040  50.955 -18.214  1.00  0.00     0.021 A 
HETATM    6  C10 UNL     1      -0.932  50.127 -17.297  1.00  0.00    -0.027 A 
HETATM    7  C11 UNL     1      -0.186  49.046 -16.528  1.00  0.00     0.011 C 
HETATM    8  C12 UNL     1       0.219  49.478 -15.096  1.00  0.00     0.011 C 
HETATM    9  C13 UNL     1      -0.596  50.664 -14.533  1.00  0.00    -0.028 C 
HETATM   10  C14 UNL     1       0.060  51.995 -15.007  1.00  0.00     0.016 C 
HETATM   11  C15 UNL     1      -0.767  50.738 -12.974  1.00  0.00     0.057 C 
HETATM   12  C24 UNL     1      -2.073  51.584 -12.811  1.00  0.00     0.126 C 
HETATM   13  C25 UNL     1      -2.771  51.607 -14.198  1.00  0.00     0.042 C 
HETATM   14  C26 UNL     1      -2.086  50.497 -15.020  1.00  0.00    -0.029 C 
HETATM   15  C27 UNL     1      -2.746  49.151 -14.582  1.00  0.00     0.016 C 
HETATM   16  C28 UNL     1      -2.182  50.693 -16.580  1.00  0.00     0.006 C 
HETATM   17  C29 UNL     1      -3.436  50.039 -17.226  1.00  0.00     0.038 C 
HETATM   18  C30 UNL     1      -3.609  50.317 -18.737  1.00  0.00     0.124 C 
HETATM   19  C31 UNL     1      -2.319  50.851 -19.394  1.00  0.00     0.034 C 
HETATM   20  C32 UNL     1      -2.267  50.976 -20.953  1.00  0.00    -0.015 C 
HETATM   21  C33 UNL     1      -3.623  51.467 -21.518  1.00  0.00     0.018 C 
HETATM   22  C34 UNL     1      -1.218  52.068 -21.318  1.00  0.00     0.018 C 
ENDROOT
BRANCH   1  23
HETATM   23  O3  UNL     1      -1.682  49.922 -23.050  1.00  0.00    -0.352 OA
BRANCH  23  24
HETATM   24  C4  UNL     1      -2.838  49.912 -23.893  1.00  0.00     0.292 C 
HETATM   25  C3  UNL     1      -2.323  49.944 -25.354  1.00  0.00     0.218 C 
HETATM   26  C37 UNL     1      -3.438  49.619 -26.366  1.00  0.00     0.183 C 
HETATM   27  C36 UNL     1      -4.334  48.465 -25.908  1.00  0.00     0.173 C 
HETATM   28  C35 UNL     1      -4.755  48.654 -24.463  1.00  0.00     0.205 C 
HETATM   29  O8  UNL     1      -3.603  48.741 -23.636  1.00  0.00    -0.356 OA
BRANCH  25  30
HETATM   30  O2  UNL     1      -1.813  51.295 -25.573  1.00  0.00    -0.309 OA
BRANCH  30  31
HETATM   31  C2  UNL     1      -2.649  52.201 -26.125  1.00  0.00     0.255 C 
HETATM   32  C1  UNL     1      -2.144  52.636 -27.462  1.00  0.00     0.126 C 
HETATM   33  O1  UNL     1      -3.676  52.617 -25.604  1.00  0.00    -0.266 OA
ENDBRANCH  30  31
ENDBRANCH  25  30
BRANCH  26  34
HETATM   34  O10 UNL     1      -2.929  49.227 -27.660  1.00  0.00    -0.390 OA
HETATM   35  H60 UNL     1      -2.058  49.658 -27.800  1.00  0.00     0.210 HD
ENDBRANCH  26  34
BRANCH  27  36
HETATM   36  O9  UNL     1      -5.485  48.397 -26.750  1.00  0.00    -0.391 OA
HETATM   37  H58 UNL     1      -5.140  48.169 -27.640  1.00  0.00     0.210 HD
ENDBRANCH  27  36
ENDBRANCH  23  24
ENDBRANCH   1  23
BRANCH  18  38
HETATM   38  O7  UNL     1      -4.079  49.136 -19.383  1.00  0.00    -0.395 OA
HETATM   39  H47 UNL     1      -4.898  48.877 -18.924  1.00  0.00     0.210 HD
ENDBRANCH  18  38
BRANCH  11  40
HETATM   40  C16 UNL     1       0.429  51.046 -12.018  1.00  0.00     0.065 C 
HETATM   41  C17 UNL     1       0.670  52.570 -11.958  1.00  0.00     0.046 C 
HETATM   42  C18 UNL     1       0.415  50.471 -10.607  1.00  0.00     0.041 C 
HETATM   43  C19 UNL     1       1.875  50.356 -10.237  1.00  0.00     0.038 C 
HETATM   44  C20 UNL     1       2.606  50.262 -11.569  1.00  0.00     0.156 C 
HETATM   45  O5  UNL     1       1.626  50.470 -12.614  1.00  0.00    -0.372 OA
BRANCH  44  46
HETATM   46  C21 UNL     1       3.402  48.964 -11.837  1.00  0.00     0.076 C 
HETATM   47  C22 UNL     1       3.238  47.959 -10.694  1.00  0.00     0.048 C 
HETATM   48  C23 UNL     1       3.062  48.310 -13.174  1.00  0.00     0.048 C 
BRANCH  46  49
HETATM   49  O4  UNL     1       4.795  49.307 -11.889  1.00  0.00    -0.388 OA
HETATM   50  H35 UNL     1       4.839  50.116 -12.435  1.00  0.00     0.210 HD
ENDBRANCH  46  49
ENDBRANCH  44  46
ENDBRANCH  11  40
BRANCH  12  51
HETATM   51  O6  UNL     1      -1.851  52.921 -12.407  1.00  0.00    -0.395 OA
HETATM   52  H37 UNL     1      -2.718  53.342 -12.293  1.00  0.00     0.210 HD
ENDBRANCH  12  51
TORSDOF 11
ENDMDL
MODEL 7
REMARK minimizedAffinity -8.92808723
REMARK CNNscore 0.593589485
REMARK CNNaffinity 7.20667315
REMARK  11 active torsions:
REMARK  status: ('A' for Active; 'I' for Inactive)
REMARK    1  A    between atoms: C2_2  and  O2_4 
REMARK    2  A    between atoms: O2_4  and  C3_5 
REMARK    3  A    between atoms: C4_6  and  O3_7 
REMARK    4  A    between atoms: O3_7  and  C5_8 
REMARK    5  A    between atoms: C15_18  and  C16_19 
REMARK    6  A    between atoms: C20_23  and  C21_24 
REMARK    7  A    between atoms: C21_24  and  O4_27 
REMARK    8  A    between atoms: C24_29  and  O6_30 
REMARK    9  A    between atoms: C30_36  and  O7_37 
REMARK   10  A    between atoms: C36_44  and  O9_45 
REMARK   11  A    between atoms: C37_46  and  O10_47 
ROOT
HETATM    1  C5  UNL     1      -5.261  45.096 -17.689  1.00  0.00     0.133 C 
HETATM    2  C6  UNL     1      -4.146  44.703 -18.665  1.00  0.00     0.034 C 
HETATM    3  C7  UNL     1      -3.543  45.895 -19.379  1.00  0.00     0.013 C 
HETATM    4  C8  UNL     1      -4.587  46.711 -20.089  1.00  0.00    -0.025 A 
HETATM    5  C9  UNL     1      -4.899  46.513 -21.544  1.00  0.00     0.021 A 
HETATM    6  C10 UNL     1      -4.089  47.735 -21.126  1.00  0.00    -0.027 A 
HETATM    7  C11 UNL     1      -2.665  47.740 -21.662  1.00  0.00     0.011 C 
HETATM    8  C12 UNL     1      -2.500  48.563 -22.964  1.00  0.00     0.011 C 
HETATM    9  C13 UNL     1      -3.619  49.602 -23.208  1.00  0.00    -0.028 C 
HETATM   10  C14 UNL     1      -4.809  48.899 -23.925  1.00  0.00     0.016 C 
HETATM   11  C15 UNL     1      -3.239  50.879 -24.037  1.00  0.00     0.057 C 
HETATM   12  C24 UNL     1      -4.303  51.925 -23.564  1.00  0.00     0.126 C 
HETATM   13  C25 UNL     1      -4.944  51.359 -22.268  1.00  0.00     0.042 C 
HETATM   14  C26 UNL     1      -4.012  50.220 -21.811  1.00  0.00    -0.029 C 
HETATM   15  C27 UNL     1      -2.820  50.897 -21.063  1.00  0.00     0.016 C 
HETATM   16  C28 UNL     1      -4.707  49.136 -20.905  1.00  0.00     0.006 C 
HETATM   17  C29 UNL     1      -4.644  49.448 -19.382  1.00  0.00     0.038 C 
HETATM   18  C30 UNL     1      -5.420  48.457 -18.483  1.00  0.00     0.124 C 
HETATM   19  C31 UNL     1      -5.775  47.146 -19.214  1.00  0.00     0.034 C 
HETATM   20  C32 UNL     1      -6.367  45.960 -18.381  1.00  0.00    -0.015 C 
HETATM   21  C33 UNL     1      -7.350  46.474 -17.300  1.00  0.00     0.018 C 
HETATM   22  C34 UNL     1      -7.202  45.062 -19.342  1.00  0.00     0.018 C 
ENDROOT
BRANCH   1  23
HETATM   23  O3  UNL     1      -5.913  43.942 -17.126  1.00  0.00    -0.352 OA
BRANCH  23  24
HETATM   24  C4  UNL     1      -5.095  42.801 -16.852  1.00  0.00     0.292 C 
HETATM   25  C3  UNL     1      -4.692  42.204 -18.224  1.00  0.00     0.218 C 
HETATM   26  C37 UNL     1      -3.560  41.167 -18.092  1.00  0.00     0.183 C 
HETATM   27  C36 UNL     1      -2.469  41.606 -17.112  1.00  0.00     0.173 C 
HETATM   28  C35 UNL     1      -3.081  42.119 -15.822  1.00  0.00     0.205 C 
HETATM   29  O8  UNL     1      -3.954  43.204 -16.104  1.00  0.00    -0.356 OA
BRANCH  25  30
HETATM   30  O2  UNL     1      -5.897  41.577 -18.761  1.00  0.00    -0.309 OA
BRANCH  30  31
HETATM   31  C2  UNL     1      -5.772  40.359 -19.332  1.00  0.00     0.255 C 
HETATM   32  C1  UNL     1      -6.245  39.291 -18.401  1.00  0.00     0.126 C 
HETATM   33  O1  UNL     1      -5.327  40.153 -20.454  1.00  0.00    -0.266 OA
ENDBRANCH  30  31
ENDBRANCH  25  30
BRANCH  26  34
HETATM   34  O10 UNL     1      -2.881  40.911 -19.341  1.00  0.00    -0.390 OA
HETATM   35  H60 UNL     1      -3.510  41.065 -20.079  1.00  0.00     0.210 HD
ENDBRANCH  26  34
BRANCH  27  36
HETATM   36  O9  UNL     1      -1.605  40.502 -16.841  1.00  0.00    -0.391 OA
HETATM   37  H58 UNL     1      -1.170  40.299 -17.696  1.00  0.00     0.210 HD
ENDBRANCH  27  36
ENDBRANCH  23  24
ENDBRANCH   1  23
BRANCH  18  38
HETATM   38  O7  UNL     1      -4.670  48.213 -17.296  1.00  0.00    -0.395 OA
HETATM   39  H47 UNL     1      -4.505  49.082 -16.888  1.00  0.00     0.210 HD
ENDBRANCH  18  38
BRANCH  11  40
HETATM   40  C16 UNL     1      -2.904  50.814 -25.561  1.00  0.00     0.065 C 
HETATM   41  C17 UNL     1      -3.569  49.571 -26.189  1.00  0.00     0.046 C 
HETATM   42  C18 UNL     1      -3.174  52.037 -26.431  1.00  0.00     0.041 C 
HETATM   43  C19 UNL     1      -2.179  51.916 -27.562  1.00  0.00     0.038 C 
HETATM   44  C20 UNL     1      -1.050  51.064 -26.996  1.00  0.00     0.156 C 
HETATM   45  O5  UNL     1      -1.468  50.611 -25.685  1.00  0.00    -0.372 OA
BRANCH  44  46
HETATM   46  C21 UNL     1       0.345  51.724 -26.911  1.00  0.00     0.076 C 
HETATM   47  C22 UNL     1       1.287  50.929 -26.003  1.00  0.00     0.048 C 
HETATM   48  C23 UNL     1       0.989  51.957 -28.275  1.00  0.00     0.048 C 
BRANCH  46  49
HETATM   49  O4  UNL     1       0.182  53.016 -26.307  1.00  0.00    -0.388 OA
HETATM   50  H35 UNL     1      -0.599  53.407 -26.746  1.00  0.00     0.210 HD
ENDBRANCH  46  49
ENDBRANCH  44  46
ENDBRANCH  11  40
BRANCH  12  51
HETATM   51  O6  UNL     1      -5.336  52.165 -24.499  1.00  0.00    -0.395 OA
HETATM   52  H37 UNL     1      -5.911  52.855 -24.132  1.00  0.00     0.210 HD
ENDBRANCH  12  51
TORSDOF 11
ENDMDL
MODEL 8
REMARK minimizedAffinity -10.0146465
REMARK CNNscore 0.568352103
REMARK CNNaffinity 7.34179068
REMARK  11 active torsions:
REMARK  status: ('A' for Active; 'I' for Inactive)
REMARK    1  A    between atoms: C2_2  and  O2_4 
REMARK    2  A    between atoms: O2_4  and  C3_5 
REMARK    3  A    between atoms: C4_6  and  O3_7 
REMARK    4  A    between atoms: O3_7  and  C5_8 
REMARK    5  A    between atoms: C15_18  and  C16_19 
REMARK    6  A    between atoms: C20_23  and  C21_24 
REMARK    7  A    between atoms: C21_24  and  O4_27 
REMARK    8  A    between atoms: C24_29  and  O6_30 
REMARK    9  A    between atoms: C30_36  and  O7_37 
REMARK   10  A    between atoms: C36_44  and  O9_45 
REMARK   11  A    between atoms: C37_46  and  O10_47 
ROOT
HETATM    1  C5  UNL     1      -1.873  49.760 -21.710  1.00  0.00     0.133 C 
HETATM    2  C6  UNL     1      -0.692  48.975 -21.127  1.00  0.00     0.034 C 
HETATM    3  C7  UNL     1      -0.789  48.797 -19.626  1.00  0.00     0.013 C 
HETATM    4  C8  UNL     1      -0.938  50.112 -18.913  1.00  0.00    -0.025 A 
HETATM    5  C9  UNL     1       0.241  50.846 -18.341  1.00  0.00     0.021 A 
HETATM    6  C10 UNL     1      -0.702  50.114 -17.392  1.00  0.00    -0.027 A 
HETATM    7  C11 UNL     1      -0.051  48.952 -16.656  1.00  0.00     0.011 C 
HETATM    8  C12 UNL     1       0.455  49.325 -15.240  1.00  0.00     0.011 C 
HETATM    9  C13 UNL     1      -0.201  50.590 -14.641  1.00  0.00    -0.028 C 
HETATM   10  C14 UNL     1       0.579  51.843 -15.137  1.00  0.00     0.016 C 
HETATM   11  C15 UNL     1      -0.302  50.670 -13.077  1.00  0.00     0.057 C 
HETATM   12  C24 UNL     1      -1.499  51.654 -12.860  1.00  0.00     0.126 C 
HETATM   13  C25 UNL     1      -2.243  51.764 -14.218  1.00  0.00     0.042 C 
HETATM   14  C26 UNL     1      -1.718  50.592 -15.070  1.00  0.00    -0.029 C 
HETATM   15  C27 UNL     1      -2.506  49.324 -14.610  1.00  0.00     0.016 C 
HETATM   16  C28 UNL     1      -1.852  50.809 -16.624  1.00  0.00     0.006 C 
HETATM   17  C29 UNL     1      -3.195  50.302 -17.222  1.00  0.00     0.038 C 
HETATM   18  C30 UNL     1      -3.395  50.609 -18.724  1.00  0.00     0.124 C 
HETATM   19  C31 UNL     1      -2.081  51.003 -19.430  1.00  0.00     0.034 C 
HETATM   20  C32 UNL     1      -2.076  51.133 -20.990  1.00  0.00    -0.015 C 
HETATM   21  C33 UNL     1      -3.390  51.775 -21.499  1.00  0.00     0.018 C 
HETATM   22  C34 UNL     1      -0.927  52.105 -21.392  1.00  0.00     0.018 C 
ENDROOT
BRANCH   1  23
HETATM   23  O3  UNL     1      -1.693  50.036 -23.112  1.00  0.00    -0.352 OA
BRANCH  23  24
HETATM   24  C4  UNL     1      -2.846  49.923 -23.951  1.00  0.00     0.292 C 
HETATM   25  C3  UNL     1      -2.393  50.309 -25.382  1.00  0.00     0.218 C 
HETATM   26  C37 UNL     1      -3.444  49.930 -26.442  1.00  0.00     0.183 C 
HETATM   27  C36 UNL     1      -4.062  48.551 -26.194  1.00  0.00     0.173 C 
HETATM   28  C35 UNL     1      -4.470  48.400 -24.741  1.00  0.00     0.205 C 
HETATM   29  O8  UNL     1      -3.338  48.589 -23.903  1.00  0.00    -0.356 OA
BRANCH  25  30
HETATM   30  O2  UNL     1      -2.187  51.755 -25.363  1.00  0.00    -0.309 OA
BRANCH  30  31
HETATM   31  C2  UNL     1      -1.041  52.235 -25.895  1.00  0.00     0.255 C 
HETATM   32  C1  UNL     1      -0.032  51.143 -26.040  1.00  0.00     0.126 C 
HETATM   33  O1  UNL     1      -0.849  53.402 -26.211  1.00  0.00    -0.266 OA
ENDBRANCH  30  31
ENDBRANCH  25  30
BRANCH  26  34
HETATM   34  O10 UNL     1      -2.903  49.880 -27.780  1.00  0.00    -0.390 OA
HETATM   35  H60 UNL     1      -2.147  50.503 -27.839  1.00  0.00     0.210 HD
ENDBRANCH  26  34
BRANCH  27  36
HETATM   36  O9  UNL     1      -5.197  48.381 -27.044  1.00  0.00    -0.391 OA
HETATM   37  H58 UNL     1      -4.839  48.386 -27.957  1.00  0.00     0.210 HD
ENDBRANCH  27  36
ENDBRANCH  23  24
ENDBRANCH   1  23
BRANCH  18  38
HETATM   38  O7  UNL     1      -4.018  49.492 -19.355  1.00  0.00    -0.395 OA
HETATM   39  H47 UNL     1      -4.842  49.322 -18.865  1.00  0.00     0.210 HD
ENDBRANCH  18  38
BRANCH  11  40
HETATM   40  C16 UNL     1       0.957  50.837 -12.168  1.00  0.00     0.065 C 
HETATM   41  C17 UNL     1       1.316  49.481 -11.522  1.00  0.00     0.046 C 
HETATM   42  C18 UNL     1       2.211  51.477 -12.751  1.00  0.00     0.041 C 
HETATM   43  C19 UNL     1       2.908  52.086 -11.556  1.00  0.00     0.038 C 
HETATM   44  C20 UNL     1       1.801  52.313 -10.535  1.00  0.00     0.156 C 
HETATM   45  O5  UNL     1       0.593  51.723 -11.072  1.00  0.00    -0.372 OA
BRANCH  44  46
HETATM   46  C21 UNL     1       1.536  53.775 -10.110  1.00  0.00     0.076 C 
HETATM   47  C22 UNL     1       0.419  53.862  -9.067  1.00  0.00     0.048 C 
HETATM   48  C23 UNL     1       2.785  54.499  -9.615  1.00  0.00     0.048 C 
BRANCH  46  49
HETATM   49  O4  UNL     1       1.077  54.491 -11.267  1.00  0.00    -0.388 OA
HETATM   50  H35 UNL     1       1.672  54.216 -11.991  1.00  0.00     0.210 HD
ENDBRANCH  46  49
ENDBRANCH  44  46
ENDBRANCH  11  40
BRANCH  12  51
HETATM   51  O6  UNL     1      -1.115  52.955 -12.460  1.00  0.00    -0.395 OA
HETATM   52  H37 UNL     1      -1.925  53.468 -12.310  1.00  0.00     0.210 HD
ENDBRANCH  12  51
TORSDOF 11
ENDMDL
MODEL 9
REMARK minimizedAffinity -9.80109692
REMARK CNNscore 0.542374134
REMARK CNNaffinity 7.29832268
REMARK  11 active torsions:
REMARK  status: ('A' for Active; 'I' for Inactive)
REMARK    1  A    between atoms: C2_2  and  O2_4 
REMARK    2  A    between atoms: O2_4  and  C3_5 
REMARK    3  A    between atoms: C4_6  and  O3_7 
REMARK    4  A    between atoms: O3_7  and  C5_8 
REMARK    5  A    between atoms: C15_18  and  C16_19 
REMARK    6  A    between atoms: C20_23  and  C21_24 
REMARK    7  A    between atoms: C21_24  and  O4_27 
REMARK    8  A    between atoms: C24_29  and  O6_30 
REMARK    9  A    between atoms: C30_36  and  O7_37 
REMARK   10  A    between atoms: C36_44  and  O9_45 
REMARK   11  A    between atoms: C37_46  and  O10_47 
ROOT
HETATM    1  C5  UNL     1      -1.780  51.458 -19.960  1.00  0.00     0.133 C 
HETATM    2  C6  UNL     1      -2.600  50.791 -18.850  1.00  0.00     0.034 C 
HETATM    3  C7  UNL     1      -1.993  50.980 -17.476  1.00  0.00     0.013 C 
HETATM    4  C8  UNL     1      -0.567  50.504 -17.422  1.00  0.00    -0.025 A 
HETATM    5  C9  UNL     1      -0.206  49.126 -16.946  1.00  0.00     0.021 A 
HETATM    6  C10 UNL     1       0.055  50.314 -16.026  1.00  0.00    -0.027 A 
HETATM    7  C11 UNL     1      -0.773  50.294 -14.749  1.00  0.00     0.011 C 
HETATM    8  C12 UNL     1      -0.020  49.691 -13.537  1.00  0.00     0.011 C 
HETATM    9  C13 UNL     1       1.519  49.685 -13.680  1.00  0.00    -0.028 C 
HETATM   10  C14 UNL     1       1.946  48.401 -14.452  1.00  0.00     0.016 C 
HETATM   11  C15 UNL     1       2.360  49.757 -12.358  1.00  0.00     0.057 C 
HETATM   12  C24 UNL     1       3.721  50.355 -12.847  1.00  0.00     0.126 C 
HETATM   13  C25 UNL     1       3.471  50.942 -14.262  1.00  0.00     0.042 C 
HETATM   14  C26 UNL     1       1.938  51.018 -14.411  1.00  0.00    -0.029 C 
HETATM   15  C27 UNL     1       1.485  52.314 -13.667  1.00  0.00     0.016 C 
HETATM   16  C28 UNL     1       1.430  51.014 -15.902  1.00  0.00     0.006 C 
HETATM   17  C29 UNL     1       1.300  52.430 -16.532  1.00  0.00     0.038 C 
HETATM   18  C30 UNL     1       0.914  52.442 -18.029  1.00  0.00     0.124 C 
HETATM   19  C31 UNL     1       0.352  51.088 -18.508  1.00  0.00     0.034 C 
HETATM   20  C32 UNL     1      -0.284  51.002 -19.936  1.00  0.00    -0.015 C 
HETATM   21  C33 UNL     1       0.515  51.854 -20.953  1.00  0.00     0.018 C 
HETATM   22  C34 UNL     1      -0.183  49.526 -20.424  1.00  0.00     0.018 C 
ENDROOT
BRANCH   1  23
HETATM   23  O3  UNL     1      -2.298  51.151 -21.268  1.00  0.00    -0.352 OA
BRANCH  23  24
HETATM   24  C4  UNL     1      -3.694  51.375 -21.485  1.00  0.00     0.292 C 
HETATM   25  C3  UNL     1      -3.915  51.348 -23.018  1.00  0.00     0.218 C 
HETATM   26  C37 UNL     1      -5.408  51.260 -23.385  1.00  0.00     0.183 C 
HETATM   27  C36 UNL     1      -6.177  50.278 -22.496  1.00  0.00     0.173 C 
HETATM   28  C35 UNL     1      -5.843  50.505 -21.034  1.00  0.00     0.205 C 
HETATM   29  O8  UNL     1      -4.445  50.358 -20.833  1.00  0.00    -0.356 OA
BRANCH  25  30
HETATM   30  O2  UNL     1      -3.337  52.588 -23.531  1.00  0.00    -0.309 OA
BRANCH  30  31
HETATM   31  C2  UNL     1      -2.298  52.490 -24.389  1.00  0.00     0.255 C 
HETATM   32  C1  UNL     1      -2.056  51.064 -24.762  1.00  0.00     0.126 C 
HETATM   33  O1  UNL     1      -1.639  53.436 -24.803  1.00  0.00    -0.266 OA
ENDBRANCH  30  31
ENDBRANCH  25  30
BRANCH  26  34
HETATM   34  O10 UNL     1      -5.631  50.813 -24.741  1.00  0.00    -0.390 OA
HETATM   35  H60 UNL     1      -4.863  51.080 -25.291  1.00  0.00     0.210 HD
ENDBRANCH  26  34
BRANCH  27  36
HETATM   36  O9  UNL     1      -7.579  50.443 -22.711  1.00  0.00    -0.391 OA
HETATM   37  H58 UNL     1      -7.729  50.178 -23.644  1.00  0.00     0.210 HD
ENDBRANCH  27  36
ENDBRANCH  23  24
ENDBRANCH   1  23
BRANCH  18  38
HETATM   38  O7  UNL     1      -0.002  53.508 -18.270  1.00  0.00    -0.395 OA
HETATM   39  H47 UNL     1       0.432  54.322 -17.959  1.00  0.00     0.210 HD
ENDBRANCH  18  38
BRANCH  11  40
HETATM   40  C16 UNL     1       2.405  48.579 -11.333  1.00  0.00     0.065 C 
HETATM   41  C17 UNL     1       3.067  49.054 -10.021  1.00  0.00     0.046 C 
HETATM   42  C18 UNL     1       1.119  47.825 -11.016  1.00  0.00     0.041 C 
HETATM   43  C19 UNL     1       1.586  46.448 -10.604  1.00  0.00     0.038 C 
HETATM   44  C20 UNL     1       2.947  46.286 -11.267  1.00  0.00     0.156 C 
HETATM   45  O5  UNL     1       3.281  47.554 -11.881  1.00  0.00    -0.372 OA
BRANCH  44  46
HETATM   46  C21 UNL     1       3.087  45.143 -12.298  1.00  0.00     0.076 C 
HETATM   47  C22 UNL     1       2.014  44.069 -12.094  1.00  0.00     0.048 C 
HETATM   48  C23 UNL     1       3.087  45.628 -13.745  1.00  0.00     0.048 C 
BRANCH  46  49
HETATM   49  O4  UNL     1       4.355  44.507 -12.077  1.00  0.00    -0.388 OA
HETATM   50  H35 UNL     1       4.992  45.239 -11.960  1.00  0.00     0.210 HD
ENDBRANCH  46  49
ENDBRANCH  44  46
ENDBRANCH  11  40
BRANCH  12  51
HETATM   51  O6  UNL     1       4.769  49.410 -12.941  1.00  0.00    -0.395 OA
HETATM   52  H37 UNL     1       5.572  49.886 -13.207  1.00  0.00     0.210 HD
ENDBRANCH  12  51
TORSDOF 11
ENDMDL
