MODEL 1
REMARK minimizedAffinity -9.90746498
REMARK  6 active torsions:
REMARK  status: ('A' for Active; 'I' for Inactive)
REMARK    1  A    between atoms: C2_2  and  C30_32 
REMARK    2  A    between atoms: C3_3  and  C4_4 
REMARK    3  A    between atoms: C4_4  and  C5_6 
REMARK    4  A    between atoms: C5_6  and  C6_7 
REMARK    5  A    between atoms: C6_7  and  C8_9 
REMARK    6  A    between atoms: C30_32  and  O4_34 
ROOT
HETATM    1  C8  UNL     1      -2.655  50.943 -24.729  1.00  0.00    -0.001 C 
HETATM    2  C9  UNL     1      -3.036  51.679 -26.010  1.00  0.00     0.007 C 
HETATM    3  C10 UNL     1      -3.547  50.603 -26.971  1.00  0.00     0.015 C 
HETATM    4  C11 UNL     1      -3.656  49.257 -26.184  1.00  0.00    -0.013 C 
HETATM    5  C12 UNL     1      -2.430  48.369 -26.533  1.00  0.00     0.021 C 
HETATM    6  C13 UNL     1      -4.921  48.488 -26.618  1.00  0.00    -0.070 C 
HETATM    7  C14 UNL     1      -5.161  48.238 -27.919  1.00  0.00    -0.022 C 
HETATM    8  C15 UNL     1      -6.261  47.374 -28.439  1.00  0.00     0.034 C 
HETATM    9  C16 UNL     1      -6.926  46.469 -27.373  1.00  0.00     0.013 C 
HETATM   10  C17 UNL     1      -8.189  45.710 -27.934  1.00  0.00     0.018 C 
HETATM   11  C18 UNL     1      -8.206  45.561 -29.471  1.00  0.00     0.023 C 
HETATM   12  C19 UNL     1      -8.247  44.274 -27.365  1.00  0.00     0.023 C 
HETATM   13  C20 UNL     1      -9.469  46.464 -27.556  1.00  0.00     0.135 C 
HETATM   14  O2  UNL     1     -10.562  45.901 -27.483  1.00  0.00    -0.297 OA
HETATM   15  C21 UNL     1      -9.365  47.961 -27.377  1.00  0.00     0.080 C 
HETATM   16  C22 UNL     1      -8.277  48.384 -26.391  1.00  0.00     0.017 C 
HETATM   17  C23 UNL     1      -7.204  47.303 -26.069  1.00  0.00    -0.031 C 
HETATM   18  C24 UNL     1      -7.745  46.413 -24.918  1.00  0.00     0.016 C 
HETATM   19  C25 UNL     1      -5.838  47.935 -25.543  1.00  0.00     0.024 C 
HETATM   20  C26 UNL     1      -6.057  48.920 -24.369  1.00  0.00     0.010 C 
HETATM   21  C27 UNL     1      -5.081  50.093 -24.284  1.00  0.00     0.011 C 
HETATM   22  C28 UNL     1      -3.640  49.726 -24.674  1.00  0.00    -0.029 C 
HETATM   23  C29 UNL     1      -3.095  48.680 -23.678  1.00  0.00     0.016 C 
ENDROOT
BRANCH   1  24
HETATM   24  C6  UNL     1      -2.359  51.814 -23.473  1.00  0.00    -0.007 C 
HETATM   25  C7  UNL     1      -2.681  51.011 -22.197  1.00  0.00     0.011 C 
BRANCH  24  26
HETATM   26  C5  UNL     1      -1.014  52.542 -23.310  1.00  0.00     0.087 C 
BRANCH  26  27
HETATM   27  C4  UNL     1      -0.335  53.077 -24.557  1.00  0.00     0.150 C 
HETATM   28  O1  UNL     1      -0.777  54.053 -25.157  1.00  0.00    -0.293 OA
BRANCH  27  29
HETATM   29  C3  UNL     1       0.926  52.407 -24.989  1.00  0.00     0.063 C 
HETATM   30  C2  UNL     1       1.216  52.064 -26.259  1.00  0.00     0.015 C 
HETATM   31  C1  UNL     1       0.311  52.235 -27.447  1.00  0.00     0.055 C 
BRANCH  30  32
HETATM   32  C30 UNL     1       2.528  51.443 -26.562  1.00  0.00     0.171 C 
HETATM   33  O3  UNL     1       2.998  50.467 -26.006  1.00  0.00    -0.646 OA
BRANCH  32  34
HETATM   34  O4  UNL     1       3.211  52.061 -27.542  1.00  0.00    -0.773 OA
HETATM   35  H44 UNL     1       4.031  51.529 -27.612  1.00  0.00     0.167 HD
ENDBRANCH  32  34
ENDBRANCH  30  32
ENDBRANCH  27  29
ENDBRANCH  26  27
ENDBRANCH  24  26
ENDBRANCH   1  24
TORSDOF 6
ENDMDL
MODEL 2
REMARK minimizedAffinity -9.75892067
REMARK  6 active torsions:
REMARK  status: ('A' for Active; 'I' for Inactive)
REMARK    1  A    between atoms: C2_2  and  C30_32 
REMARK    2  A    between atoms: C3_3  and  C4_4 
REMARK    3  A    between atoms: C4_4  and  C5_6 
REMARK    4  A    between atoms: C5_6  and  C6_7 
REMARK    5  A    between atoms: C6_7  and  C8_9 
REMARK    6  A    between atoms: C30_32  and  O4_34 
ROOT
HETATM    1  C8  UNL     1      -0.501  50.679 -18.842  1.00  0.00    -0.001 C 
HETATM    2  C9  UNL     1      -0.461  49.244 -19.360  1.00  0.00     0.007 C 
HETATM    3  C10 UNL     1      -1.195  49.266 -20.702  1.00  0.00     0.015 C 
HETATM    4  C11 UNL     1      -1.494  50.754 -21.071  1.00  0.00    -0.013 C 
HETATM    5  C12 UNL     1      -2.981  51.065 -20.748  1.00  0.00     0.021 C 
HETATM    6  C13 UNL     1      -1.295  50.977 -22.585  1.00  0.00    -0.070 C 
HETATM    7  C14 UNL     1      -1.912  50.186 -23.483  1.00  0.00    -0.022 C 
HETATM    8  C15 UNL     1      -1.919  50.405 -24.959  1.00  0.00     0.034 C 
HETATM    9  C16 UNL     1      -1.463  51.818 -25.402  1.00  0.00     0.013 C 
HETATM   10  C17 UNL     1      -1.322  51.939 -26.968  1.00  0.00     0.018 C 
HETATM   11  C18 UNL     1      -2.147  50.901 -27.759  1.00  0.00     0.023 C 
HETATM   12  C19 UNL     1      -1.813  53.326 -27.443  1.00  0.00     0.023 C 
HETATM   13  C20 UNL     1       0.140  51.741 -27.383  1.00  0.00     0.135 C 
HETATM   14  O2  UNL     1       0.588  52.197 -28.436  1.00  0.00    -0.297 OA
HETATM   15  C21 UNL     1       1.000  50.866 -26.500  1.00  0.00     0.080 C 
HETATM   16  C22 UNL     1       0.995  51.289 -25.031  1.00  0.00     0.017 C 
HETATM   17  C23 UNL     1      -0.171  52.230 -24.606  1.00  0.00    -0.031 C 
HETATM   18  C24 UNL     1       0.254  53.691 -24.910  1.00  0.00     0.016 C 
HETATM   19  C25 UNL     1      -0.469  52.165 -23.042  1.00  0.00     0.024 C 
HETATM   20  C26 UNL     1       0.806  52.378 -22.188  1.00  0.00     0.010 C 
HETATM   21  C27 UNL     1       0.856  51.633 -20.855  1.00  0.00     0.011 C 
HETATM   22  C28 UNL     1      -0.502  51.559 -20.138  1.00  0.00    -0.029 C 
HETATM   23  C29 UNL     1      -0.966  52.987 -19.780  1.00  0.00     0.016 C 
ENDROOT
BRANCH   1  24
HETATM   24  C6  UNL     1       0.405  51.019 -17.623  1.00  0.00    -0.007 C 
HETATM   25  C7  UNL     1       1.008  52.426 -17.801  1.00  0.00     0.011 C 
BRANCH  24  26
HETATM   26  C5  UNL     1      -0.101  50.842 -16.182  1.00  0.00     0.087 C 
BRANCH  26  27
HETATM   27  C4  UNL     1       0.691  51.489 -15.061  1.00  0.00     0.150 C 
HETATM   28  O1  UNL     1       0.478  52.648 -14.715  1.00  0.00    -0.293 OA
BRANCH  27  29
HETATM   29  C3  UNL     1       1.694  50.640 -14.355  1.00  0.00     0.063 C 
HETATM   30  C2  UNL     1       3.028  50.821 -14.413  1.00  0.00     0.015 C 
HETATM   31  C1  UNL     1       3.742  51.856 -15.235  1.00  0.00     0.055 C 
BRANCH  30  32
HETATM   32  C30 UNL     1       3.916  49.933 -13.626  1.00  0.00     0.171 C 
HETATM   33  O3  UNL     1       5.032  49.573 -13.952  1.00  0.00    -0.646 OA
BRANCH  32  34
HETATM   34  O4  UNL     1       3.383  49.520 -12.463  1.00  0.00    -0.773 OA
HETATM   35  H44 UNL     1       4.090  48.959 -12.080  1.00  0.00     0.167 HD
ENDBRANCH  32  34
ENDBRANCH  30  32
ENDBRANCH  27  29
ENDBRANCH  26  27
ENDBRANCH  24  26
ENDBRANCH   1  24
TORSDOF 6
ENDMDL
MODEL 3
REMARK minimizedAffinity -9.66096401
REMARK  6 active torsions:
REMARK  status: ('A' for Active; 'I' for Inactive)
REMARK    1  A    between atoms: C2_2  and  C30_32 
REMARK    2  A    between atoms: C3_3  and  C4_4 
REMARK    3  A    between atoms: C4_4  and  C5_6 
REMARK    4  A    between atoms: C5_6  and  C6_7 
REMARK    5  A    between atoms: C6_7  and  C8_9 
REMARK    6  A    between atoms: C30_32  and  O4_34 
ROOT
HETATM    1  C8  UNL     1      -2.987  50.928 -24.087  1.00  0.00    -0.001 C 
HETATM    2  C9  UNL     1      -3.190  51.742 -25.362  1.00  0.00     0.007 C 
HETATM    3  C10 UNL     1      -3.513  50.724 -26.458  1.00  0.00     0.015 C 
HETATM    4  C11 UNL     1      -3.697  49.325 -25.786  1.00  0.00    -0.013 C 
HETATM    5  C12 UNL     1      -2.405  48.491 -25.997  1.00  0.00     0.021 C 
HETATM    6  C13 UNL     1      -4.855  48.560 -26.460  1.00  0.00    -0.070 C 
HETATM    7  C14 UNL     1      -4.884  48.395 -27.796  1.00  0.00    -0.022 C 
HETATM    8  C15 UNL     1      -5.862  47.546 -28.536  1.00  0.00     0.034 C 
HETATM    9  C16 UNL     1      -6.654  46.554 -27.647  1.00  0.00     0.013 C 
HETATM   10  C17 UNL     1      -7.790  45.808 -28.445  1.00  0.00     0.018 C 
HETATM   11  C18 UNL     1      -7.565  45.765 -29.973  1.00  0.00     0.023 C 
HETATM   12  C19 UNL     1      -7.888  44.335 -27.986  1.00  0.00     0.023 C 
HETATM   13  C20 UNL     1      -9.137  46.507 -28.223  1.00  0.00     0.135 C 
HETATM   14  O2  UNL     1     -10.209  45.916 -28.358  1.00  0.00    -0.297 OA
HETATM   15  C21 UNL     1      -9.110  47.990 -27.934  1.00  0.00     0.080 C 
HETATM   16  C22 UNL     1      -8.201  48.367 -26.765  1.00  0.00     0.017 C 
HETATM   17  C23 UNL     1      -7.155  47.290 -26.351  1.00  0.00    -0.031 C 
HETATM   18  C24 UNL     1      -7.838  46.312 -25.358  1.00  0.00     0.016 C 
HETATM   19  C25 UNL     1      -5.908  47.914 -25.579  1.00  0.00     0.024 C 
HETATM   20  C26 UNL     1      -6.336  48.811 -24.392  1.00  0.00     0.010 C 
HETATM   21  C27 UNL     1      -5.424  49.997 -24.081  1.00  0.00     0.011 C 
HETATM   22  C28 UNL     1      -3.929  49.689 -24.264  1.00  0.00    -0.029 C 
HETATM   23  C29 UNL     1      -3.510  48.589 -23.266  1.00  0.00     0.016 C 
ENDROOT
BRANCH   1  24
HETATM   24  C6  UNL     1      -2.916  51.717 -22.746  1.00  0.00    -0.007 C 
HETATM   25  C7  UNL     1      -4.234  52.483 -22.525  1.00  0.00     0.011 C 
BRANCH  24  26
HETATM   26  C5  UNL     1      -2.482  51.028 -21.442  1.00  0.00     0.087 C 
BRANCH  26  27
HETATM   27  C4  UNL     1      -0.998  50.820 -21.201  1.00  0.00     0.150 C 
HETATM   28  O1  UNL     1      -0.470  49.725 -21.377  1.00  0.00    -0.293 OA
BRANCH  27  29
HETATM   29  C3  UNL     1      -0.197  52.013 -20.804  1.00  0.00     0.063 C 
HETATM   30  C2  UNL     1       0.491  52.795 -21.659  1.00  0.00     0.015 C 
HETATM   31  C1  UNL     1       0.624  52.577 -23.140  1.00  0.00     0.055 C 
BRANCH  30  32
HETATM   32  C30 UNL     1       1.212  53.981 -21.139  1.00  0.00     0.171 C 
HETATM   33  O3  UNL     1       1.759  54.833 -21.815  1.00  0.00    -0.646 OA
BRANCH  32  34
HETATM   34  O4  UNL     1       1.231  54.064 -19.797  1.00  0.00    -0.773 OA
HETATM   35  H44 UNL     1       1.732  54.890 -19.631  1.00  0.00     0.167 HD
ENDBRANCH  32  34
ENDBRANCH  30  32
ENDBRANCH  27  29
ENDBRANCH  26  27
ENDBRANCH  24  26
ENDBRANCH   1  24
TORSDOF 6
ENDMDL
MODEL 4
REMARK minimizedAffinity -9.62814522
REMARK  6 active torsions:
REMARK  status: ('A' for Active; 'I' for Inactive)
REMARK    1  A    between atoms: C2_2  and  C30_32 
REMARK    2  A    between atoms: C3_3  and  C4_4 
REMARK    3  A    between atoms: C4_4  and  C5_6 
REMARK    4  A    between atoms: C5_6  and  C6_7 
REMARK    5  A    between atoms: C6_7  and  C8_9 
REMARK    6  A    between atoms: C30_32  and  O4_34 
ROOT
HETATM    1  C8  UNL     1      -3.140  51.023 -25.127  1.00  0.00    -0.001 C 
HETATM    2  C9  UNL     1      -2.853  52.435 -24.625  1.00  0.00     0.007 C 
HETATM    3  C10 UNL     1      -3.310  52.457 -23.164  1.00  0.00     0.015 C 
HETATM    4  C11 UNL     1      -3.681  50.999 -22.746  1.00  0.00    -0.013 C 
HETATM    5  C12 UNL     1      -5.226  50.844 -22.772  1.00  0.00     0.021 C 
HETATM    6  C13 UNL     1      -3.214  50.724 -21.301  1.00  0.00    -0.070 C 
HETATM    7  C14 UNL     1      -3.561  51.553 -20.298  1.00  0.00    -0.022 C 
HETATM    8  C15 UNL     1      -3.302  51.305 -18.850  1.00  0.00     0.034 C 
HETATM    9  C16 UNL     1      -2.914  49.845 -18.508  1.00  0.00     0.013 C 
HETATM   10  C17 UNL     1      -2.484  49.676 -17.000  1.00  0.00     0.018 C 
HETATM   11  C18 UNL     1      -3.029  50.774 -16.061  1.00  0.00     0.023 C 
HETATM   12  C19 UNL     1      -3.011  48.335 -16.440  1.00  0.00     0.023 C 
HETATM   13  C20 UNL     1      -0.957  49.719 -16.880  1.00  0.00     0.135 C 
HETATM   14  O2  UNL     1      -0.361  49.199 -15.936  1.00  0.00    -0.297 OA
HETATM   15  C21 UNL     1      -0.201  50.523 -17.912  1.00  0.00     0.080 C 
HETATM   16  C22 UNL     1      -0.535  50.134 -19.352  1.00  0.00     0.017 C 
HETATM   17  C23 UNL     1      -1.851  49.323 -19.542  1.00  0.00    -0.031 C 
HETATM   18  C24 UNL     1      -1.526  47.821 -19.330  1.00  0.00     0.016 C 
HETATM   19  C25 UNL     1      -2.440  49.451 -21.018  1.00  0.00     0.024 C 
HETATM   20  C26 UNL     1      -1.385  49.131 -22.105  1.00  0.00     0.010 C 
HETATM   21  C27 UNL     1      -1.520  49.896 -23.421  1.00  0.00     0.011 C 
HETATM   22  C28 UNL     1      -2.977  50.120 -23.857  1.00  0.00    -0.029 C 
HETATM   23  C29 UNL     1      -3.644  48.753 -24.119  1.00  0.00     0.016 C 
ENDROOT
BRANCH   1  24
HETATM   24  C6  UNL     1      -2.527  50.621 -26.501  1.00  0.00    -0.007 C 
HETATM   25  C7  UNL     1      -3.183  49.319 -27.000  1.00  0.00     0.011 C 
BRANCH  24  26
HETATM   26  C5  UNL     1      -2.426  51.635 -27.653  1.00  0.00     0.087 C 
BRANCH  26  27
HETATM   27  C4  UNL     1      -1.292  52.643 -27.621  1.00  0.00     0.150 C 
HETATM   28  O1  UNL     1      -1.510  53.846 -27.508  1.00  0.00    -0.293 OA
BRANCH  27  29
HETATM   29  C3  UNL     1       0.099  52.108 -27.672  1.00  0.00     0.063 C 
HETATM   30  C2  UNL     1       0.929  52.029 -26.614  1.00  0.00     0.015 C 
HETATM   31  C1  UNL     1       0.633  52.514 -25.223  1.00  0.00     0.055 C 
BRANCH  30  32
HETATM   32  C30 UNL     1       2.275  51.432 -26.790  1.00  0.00     0.171 C 
HETATM   33  O3  UNL     1       2.846  50.717 -25.987  1.00  0.00    -0.646 OA
BRANCH  32  34
HETATM   34  O4  UNL     1       2.865  51.749 -27.955  1.00  0.00    -0.773 OA
HETATM   35  H44 UNL     1       3.723  51.278 -27.907  1.00  0.00     0.167 HD
ENDBRANCH  32  34
ENDBRANCH  30  32
ENDBRANCH  27  29
ENDBRANCH  26  27
ENDBRANCH  24  26
ENDBRANCH   1  24
TORSDOF 6
ENDMDL
MODEL 5
REMARK minimizedAffinity -9.60759258
REMARK  6 active torsions:
REMARK  status: ('A' for Active; 'I' for Inactive)
REMARK    1  A    between atoms: C2_2  and  C30_32 
REMARK    2  A    between atoms: C3_3  and  C4_4 
REMARK    3  A    between atoms: C4_4  and  C5_6 
REMARK    4  A    between atoms: C5_6  and  C6_7 
REMARK    5  A    between atoms: C6_7  and  C8_9 
REMARK    6  A    between atoms: C30_32  and  O4_34 
ROOT
HETATM    1  C8  UNL     1      -0.407  51.909 -21.798  1.00  0.00    -0.001 C 
HETATM    2  C9  UNL     1       1.109  51.936 -21.621  1.00  0.00     0.007 C 
HETATM    3  C10 UNL     1       1.350  52.339 -20.164  1.00  0.00     0.015 C 
HETATM    4  C11 UNL     1      -0.027  52.354 -19.427  1.00  0.00    -0.013 C 
HETATM    5  C12 UNL     1      -0.513  53.824 -19.297  1.00  0.00     0.021 C 
HETATM    6  C13 UNL     1       0.128  51.791 -17.999  1.00  0.00    -0.070 C 
HETATM    7  C14 UNL     1       1.061  52.285 -17.163  1.00  0.00    -0.022 C 
HETATM    8  C15 UNL     1       1.196  51.930 -15.720  1.00  0.00     0.034 C 
HETATM    9  C16 UNL     1      -0.036  51.210 -15.118  1.00  0.00     0.013 C 
HETATM   10  C17 UNL     1       0.225  50.704 -13.647  1.00  0.00     0.018 C 
HETATM   11  C18 UNL     1       1.357  51.455 -12.913  1.00  0.00     0.023 C 
HETATM   12  C19 UNL     1      -1.043  50.894 -12.783  1.00  0.00     0.023 C 
HETATM   13  C20 UNL     1       0.621  49.223 -13.661  1.00  0.00     0.135 C 
HETATM   14  O2  UNL     1       0.460  48.495 -12.681  1.00  0.00    -0.297 OA
HETATM   15  C21 UNL     1       1.324  48.704 -14.894  1.00  0.00     0.080 C 
HETATM   16  C22 UNL     1       0.568  48.987 -16.191  1.00  0.00     0.017 C 
HETATM   17  C23 UNL     1      -0.529  50.089 -16.104  1.00  0.00    -0.031 C 
HETATM   18  C24 UNL     1      -1.843  49.424 -15.615  1.00  0.00     0.016 C 
HETATM   19  C25 UNL     1      -0.856  50.739 -17.523  1.00  0.00     0.024 C 
HETATM   20  C26 UNL     1      -1.171  49.674 -18.602  1.00  0.00     0.010 C 
HETATM   21  C27 UNL     1      -0.758  50.022 -20.032  1.00  0.00     0.011 C 
HETATM   22  C28 UNL     1      -0.954  51.505 -20.387  1.00  0.00    -0.029 C 
HETATM   23  C29 UNL     1      -2.456  51.852 -20.308  1.00  0.00     0.016 C 
ENDROOT
BRANCH   1  24
HETATM   24  C6  UNL     1      -0.957  51.266 -23.104  1.00  0.00    -0.007 C 
HETATM   25  C7  UNL     1      -1.775  50.007 -22.758  1.00  0.00     0.011 C 
BRANCH  24  26
HETATM   26  C5  UNL     1      -1.705  52.108 -24.150  1.00  0.00     0.087 C 
BRANCH  26  27
HETATM   27  C4  UNL     1      -1.051  52.314 -25.504  1.00  0.00     0.150 C 
HETATM   28  O1  UNL     1      -1.651  52.859 -26.427  1.00  0.00    -0.293 OA
BRANCH  27  29
HETATM   29  C3  UNL     1       0.369  51.883 -25.649  1.00  0.00     0.063 C 
HETATM   30  C2  UNL     1       1.076  51.942 -26.795  1.00  0.00     0.015 C 
HETATM   31  C1  UNL     1       0.553  52.390 -28.131  1.00  0.00     0.055 C 
BRANCH  30  32
HETATM   32  C30 UNL     1       2.498  51.524 -26.793  1.00  0.00     0.171 C 
HETATM   33  O3  UNL     1       3.002  50.721 -26.030  1.00  0.00    -0.646 OA
BRANCH  32  34
HETATM   34  O4  UNL     1       3.244  52.123 -27.737  1.00  0.00    -0.773 OA
HETATM   35  H44 UNL     1       4.134  51.736 -27.598  1.00  0.00     0.167 HD
ENDBRANCH  32  34
ENDBRANCH  30  32
ENDBRANCH  27  29
ENDBRANCH  26  27
ENDBRANCH  24  26
ENDBRANCH   1  24
TORSDOF 6
ENDMDL
MODEL 6
REMARK minimizedAffinity -9.36639881
REMARK  6 active torsions:
REMARK  status: ('A' for Active; 'I' for Inactive)
REMARK    1  A    between atoms: C2_2  and  C30_32 
REMARK    2  A    between atoms: C3_3  and  C4_4 
REMARK    3  A    between atoms: C4_4  and  C5_6 
REMARK    4  A    between atoms: C5_6  and  C6_7 
REMARK    5  A    between atoms: C6_7  and  C8_9 
REMARK    6  A    between atoms: C30_32  and  O4_34 
ROOT
HETATM    1  C8  UNL     1      -2.057  51.364 -23.519  1.00  0.00    -0.001 C 
HETATM    2  C9  UNL     1      -3.210  52.036 -24.258  1.00  0.00     0.007 C 
HETATM    3  C10 UNL     1      -4.146  50.903 -24.686  1.00  0.00     0.015 C 
HETATM    4  C11 UNL     1      -3.646  49.580 -24.023  1.00  0.00    -0.013 C 
HETATM    5  C12 UNL     1      -2.867  48.749 -25.080  1.00  0.00     0.021 C 
HETATM    6  C13 UNL     1      -4.847  48.729 -23.561  1.00  0.00    -0.070 C 
HETATM    7  C14 UNL     1      -5.842  48.424 -24.415  1.00  0.00    -0.022 C 
HETATM    8  C15 UNL     1      -6.965  47.485 -24.126  1.00  0.00     0.034 C 
HETATM    9  C16 UNL     1      -6.743  46.579 -22.889  1.00  0.00     0.013 C 
HETATM   10  C17 UNL     1      -8.024  45.734 -22.527  1.00  0.00     0.018 C 
HETATM   11  C18 UNL     1      -9.003  45.535 -23.705  1.00  0.00     0.023 C 
HETATM   12  C19 UNL     1      -7.617  44.316 -22.066  1.00  0.00     0.023 C 
HETATM   13  C20 UNL     1      -8.817  46.429 -21.415  1.00  0.00     0.135 C 
HETATM   14  O2  UNL     1      -9.577  45.809 -20.669  1.00  0.00    -0.297 OA
HETATM   15  C21 UNL     1      -8.718  47.935 -21.328  1.00  0.00     0.080 C 
HETATM   16  C22 UNL     1      -7.280  48.448 -21.253  1.00  0.00     0.017 C 
HETATM   17  C23 UNL     1      -6.182  47.438 -21.698  1.00  0.00    -0.031 C 
HETATM   18  C24 UNL     1      -5.812  46.558 -20.474  1.00  0.00     0.016 C 
HETATM   19  C25 UNL     1      -4.836  48.161 -22.154  1.00  0.00     0.024 C 
HETATM   20  C26 UNL     1      -4.321  49.170 -21.099  1.00  0.00     0.010 C 
HETATM   21  C27 UNL     1      -3.589  50.397 -21.642  1.00  0.00     0.011 C 
HETATM   22  C28 UNL     1      -2.703  50.097 -22.862  1.00  0.00    -0.029 C 
HETATM   23  C29 UNL     1      -1.586  49.115 -22.451  1.00  0.00     0.016 C 
ENDROOT
BRANCH   1  24
HETATM   24  C6  UNL     1      -1.086  52.289 -22.729  1.00  0.00    -0.007 C 
HETATM   25  C7  UNL     1      -1.111  51.913 -21.234  1.00  0.00     0.011 C 
BRANCH  24  26
HETATM   26  C5  UNL     1       0.365  52.501 -23.194  1.00  0.00     0.087 C 
BRANCH  26  27
HETATM   27  C4  UNL     1       0.660  53.683 -24.099  1.00  0.00     0.150 C 
HETATM   28  O1  UNL     1       1.476  54.543 -23.780  1.00  0.00    -0.293 OA
BRANCH  27  29
HETATM   29  C3  UNL     1      -0.035  53.724 -25.418  1.00  0.00     0.063 C 
HETATM   30  C2  UNL     1       0.275  52.945 -26.473  1.00  0.00     0.015 C 
HETATM   31  C1  UNL     1       1.399  51.949 -26.533  1.00  0.00     0.055 C 
BRANCH  30  32
HETATM   32  C30 UNL     1      -0.526  53.052 -27.716  1.00  0.00     0.171 C 
HETATM   33  O3  UNL     1      -1.273  53.970 -28.002  1.00  0.00    -0.646 OA
BRANCH  32  34
HETATM   34  O4  UNL     1      -0.373  52.014 -28.556  1.00  0.00    -0.773 OA
HETATM   35  H44 UNL     1      -0.957  52.247 -29.307  1.00  0.00     0.167 HD
ENDBRANCH  32  34
ENDBRANCH  30  32
ENDBRANCH  27  29
ENDBRANCH  26  27
ENDBRANCH  24  26
ENDBRANCH   1  24
TORSDOF 6
ENDMDL
MODEL 7
REMARK minimizedAffinity -9.26321602
REMARK  6 active torsions:
REMARK  status: ('A' for Active; 'I' for Inactive)
REMARK    1  A    between atoms: C2_2  and  C30_32 
REMARK    2  A    between atoms: C3_3  and  C4_4 
REMARK    3  A    between atoms: C4_4  and  C5_6 
REMARK    4  A    between atoms: C5_6  and  C6_7 
REMARK    5  A    between atoms: C6_7  and  C8_9 
REMARK    6  A    between atoms: C30_32  and  O4_34 
ROOT
HETATM    1  C8  UNL     1      -1.813  50.779 -22.733  1.00  0.00    -0.001 C 
HETATM    2  C9  UNL     1      -2.099  49.887 -23.937  1.00  0.00     0.007 C 
HETATM    3  C10 UNL     1      -2.749  48.622 -23.371  1.00  0.00     0.015 C 
HETATM    4  C11 UNL     1      -3.029  48.854 -21.852  1.00  0.00    -0.013 C 
HETATM    5  C12 UNL     1      -1.931  48.137 -21.021  1.00  0.00     0.021 C 
HETATM    6  C13 UNL     1      -4.385  48.232 -21.459  1.00  0.00    -0.070 C 
HETATM    7  C14 UNL     1      -4.660  46.946 -21.749  1.00  0.00    -0.022 C 
HETATM    8  C15 UNL     1      -5.865  46.199 -21.282  1.00  0.00     0.034 C 
HETATM    9  C16 UNL     1      -6.638  46.884 -20.128  1.00  0.00     0.013 C 
HETATM   10  C17 UNL     1      -7.991  46.146 -19.792  1.00  0.00     0.018 C 
HETATM   11  C18 UNL     1      -8.032  44.668 -20.236  1.00  0.00     0.023 C 
HETATM   12  C19 UNL     1      -8.233  46.141 -18.266  1.00  0.00     0.023 C 
HETATM   13  C20 UNL     1      -9.161  46.844 -20.496  1.00  0.00     0.135 C 
HETATM   14  O2  UNL     1     -10.318  46.758 -20.082  1.00  0.00    -0.297 OA
HETATM   15  C21 UNL     1      -8.863  47.563 -21.792  1.00  0.00     0.080 C 
HETATM   16  C22 UNL     1      -7.725  48.578 -21.679  1.00  0.00     0.017 C 
HETATM   17  C23 UNL     1      -6.801  48.417 -20.436  1.00  0.00    -0.031 C 
HETATM   18  C24 UNL     1      -7.450  49.179 -19.250  1.00  0.00     0.016 C 
HETATM   19  C25 UNL     1      -5.363  49.068 -20.656  1.00  0.00     0.024 C 
HETATM   20  C26 UNL     1      -5.448  50.535 -21.145  1.00  0.00     0.010 C 
HETATM   21  C27 UNL     1      -4.327  51.001 -22.074  1.00  0.00     0.011 C 
HETATM   22  C28 UNL     1      -2.947  50.428 -21.712  1.00  0.00    -0.029 C 
HETATM   23  C29 UNL     1      -2.540  50.931 -20.310  1.00  0.00     0.016 C 
ENDROOT
BRANCH   1  24
HETATM   24  C6  UNL     1      -1.402  52.252 -23.024  1.00  0.00    -0.007 C 
HETATM   25  C7  UNL     1      -0.009  52.530 -22.427  1.00  0.00     0.011 C 
BRANCH  24  26
HETATM   26  C5  UNL     1      -1.491  52.836 -24.444  1.00  0.00     0.087 C 
BRANCH  26  27
HETATM   27  C4  UNL     1      -0.258  53.508 -25.020  1.00  0.00     0.150 C 
HETATM   28  O1  UNL     1      -0.231  54.718 -25.233  1.00  0.00    -0.293 OA
BRANCH  27  29
HETATM   29  C3  UNL     1       0.940  52.652 -25.258  1.00  0.00     0.063 C 
HETATM   30  C2  UNL     1       1.274  52.115 -26.447  1.00  0.00     0.015 C 
HETATM   31  C1  UNL     1       0.483  52.228 -27.719  1.00  0.00     0.055 C 
BRANCH  30  32
HETATM   32  C30 UNL     1       2.520  51.317 -26.559  1.00  0.00     0.171 C 
HETATM   33  O3  UNL     1       2.844  50.400 -25.827  1.00  0.00    -0.646 OA
BRANCH  32  34
HETATM   34  O4  UNL     1       3.318  51.692 -27.573  1.00  0.00    -0.773 OA
HETATM   35  H44 UNL     1       4.074  51.072 -27.503  1.00  0.00     0.167 HD
ENDBRANCH  32  34
ENDBRANCH  30  32
ENDBRANCH  27  29
ENDBRANCH  26  27
ENDBRANCH  24  26
ENDBRANCH   1  24
TORSDOF 6
ENDMDL
MODEL 8
REMARK minimizedAffinity -9.23276711
REMARK  6 active torsions:
REMARK  status: ('A' for Active; 'I' for Inactive)
REMARK    1  A    between atoms: C2_2  and  C30_32 
REMARK    2  A    between atoms: C3_3  and  C4_4 
REMARK    3  A    between atoms: C4_4  and  C5_6 
REMARK    4  A    between atoms: C5_6  and  C6_7 
REMARK    5  A    between atoms: C6_7  and  C8_9 
REMARK    6  A    between atoms: C30_32  and  O4_34 
ROOT
HETATM    1  C8  UNL     1      -0.789  50.985 -20.394  1.00  0.00    -0.001 C 
HETATM    2  C9  UNL     1      -0.177  49.780 -21.103  1.00  0.00     0.007 C 
HETATM    3  C10 UNL     1      -1.236  48.678 -21.039  1.00  0.00     0.015 C 
HETATM    4  C11 UNL     1      -2.552  49.297 -20.467  1.00  0.00    -0.013 C 
HETATM    5  C12 UNL     1      -2.682  48.908 -18.969  1.00  0.00     0.021 C 
HETATM    6  C13 UNL     1      -3.777  48.717 -21.203  1.00  0.00    -0.070 C 
HETATM    7  C14 UNL     1      -3.948  47.385 -21.310  1.00  0.00    -0.022 C 
HETATM    8  C15 UNL     1      -5.164  46.716 -21.856  1.00  0.00     0.034 C 
HETATM    9  C16 UNL     1      -6.403  47.637 -21.980  1.00  0.00     0.013 C 
HETATM   10  C17 UNL     1      -7.603  46.931 -22.721  1.00  0.00     0.018 C 
HETATM   11  C18 UNL     1      -7.548  45.388 -22.685  1.00  0.00     0.023 C 
HETATM   12  C19 UNL     1      -8.945  47.326 -22.063  1.00  0.00     0.023 C 
HETATM   13  C20 UNL     1      -7.618  47.331 -24.201  1.00  0.00     0.135 C 
HETATM   14  O2  UNL     1      -8.645  47.285 -24.880  1.00  0.00    -0.297 OA
HETATM   15  C21 UNL     1      -6.294  47.687 -24.837  1.00  0.00     0.080 C 
HETATM   16  C22 UNL     1      -5.524  48.767 -24.079  1.00  0.00     0.017 C 
HETATM   17  C23 UNL     1      -5.979  49.013 -22.610  1.00  0.00    -0.031 C 
HETATM   18  C24 UNL     1      -7.155  50.026 -22.633  1.00  0.00     0.016 C 
HETATM   19  C25 UNL     1      -4.835  49.674 -21.719  1.00  0.00     0.024 C 
HETATM   20  C26 UNL     1      -4.235  50.942 -22.373  1.00  0.00     0.010 C 
HETATM   21  C27 UNL     1      -2.756  51.210 -22.091  1.00  0.00     0.011 C 
HETATM   22  C28 UNL     1      -2.326  50.851 -20.659  1.00  0.00    -0.029 C 
HETATM   23  C29 UNL     1      -3.092  51.743 -19.660  1.00  0.00     0.016 C 
ENDROOT
BRANCH   1  24
HETATM   24  C6  UNL     1      -0.048  52.346 -20.541  1.00  0.00    -0.007 C 
HETATM   25  C7  UNL     1       0.395  52.849 -19.154  1.00  0.00     0.011 C 
BRANCH  24  26
HETATM   26  C5  UNL     1       1.096  52.522 -21.554  1.00  0.00     0.087 C 
BRANCH  26  27
HETATM   27  C4  UNL     1       1.402  53.923 -22.051  1.00  0.00     0.150 C 
HETATM   28  O1  UNL     1       2.040  54.718 -21.366  1.00  0.00    -0.293 OA
BRANCH  27  29
HETATM   29  C3  UNL     1       0.950  54.274 -23.428  1.00  0.00     0.063 C 
HETATM   30  C2  UNL     1       0.477  53.391 -24.328  1.00  0.00     0.015 C 
HETATM   31  C1  UNL     1       0.375  51.904 -24.135  1.00  0.00     0.055 C 
BRANCH  30  32
HETATM   32  C30 UNL     1       0.016  53.877 -25.651  1.00  0.00     0.171 C 
HETATM   33  O3  UNL     1       0.164  55.006 -26.083  1.00  0.00    -0.646 OA
BRANCH  32  34
HETATM   34  O4  UNL     1      -0.615  52.946 -26.386  1.00  0.00    -0.773 OA
HETATM   35  H44 UNL     1      -0.841  53.426 -27.210  1.00  0.00     0.167 HD
ENDBRANCH  32  34
ENDBRANCH  30  32
ENDBRANCH  27  29
ENDBRANCH  26  27
ENDBRANCH  24  26
ENDBRANCH   1  24
TORSDOF 6
ENDMDL
MODEL 9
REMARK minimizedAffinity -9.19146824
REMARK  6 active torsions:
REMARK  status: ('A' for Active; 'I' for Inactive)
REMARK    1  A    between atoms: C2_2  and  C30_32 
REMARK    2  A    between atoms: C3_3  and  C4_4 
REMARK    3  A    between atoms: C4_4  and  C5_6 
REMARK    4  A    between atoms: C5_6  and  C6_7 
REMARK    5  A    between atoms: C6_7  and  C8_9 
REMARK    6  A    between atoms: C30_32  and  O4_34 
ROOT
HETATM    1  C8  UNL     1      -2.393  51.002 -24.800  1.00  0.00    -0.001 C 
HETATM    2  C9  UNL     1      -2.618  52.204 -23.888  1.00  0.00     0.007 C 
HETATM    3  C10 UNL     1      -3.856  51.867 -23.054  1.00  0.00     0.015 C 
HETATM    4  C11 UNL     1      -4.244  50.380 -23.334  1.00  0.00    -0.013 C 
HETATM    5  C12 UNL     1      -5.439  50.349 -24.325  1.00  0.00     0.021 C 
HETATM    6  C13 UNL     1      -4.708  49.696 -22.031  1.00  0.00    -0.070 C 
HETATM    7  C14 UNL     1      -5.672  50.249 -21.270  1.00  0.00    -0.022 C 
HETATM    8  C15 UNL     1      -6.306  49.604 -20.084  1.00  0.00     0.034 C 
HETATM    9  C16 UNL     1      -6.045  48.082 -19.964  1.00  0.00     0.013 C 
HETATM   10  C17 UNL     1      -6.587  47.485 -18.609  1.00  0.00     0.018 C 
HETATM   11  C18 UNL     1      -7.700  48.328 -17.947  1.00  0.00     0.023 C 
HETATM   12  C19 UNL     1      -7.196  46.084 -18.846  1.00  0.00     0.023 C 
HETATM   13  C20 UNL     1      -5.450  47.385 -17.585  1.00  0.00     0.135 C 
HETATM   14  O2  UNL     1      -5.486  46.590 -16.645  1.00  0.00    -0.297 OA
HETATM   15  C21 UNL     1      -4.319  48.380 -17.704  1.00  0.00     0.080 C 
HETATM   16  C22 UNL     1      -3.682  48.416 -19.093  1.00  0.00     0.017 C 
HETATM   17  C23 UNL     1      -4.526  47.782 -20.237  1.00  0.00    -0.031 C 
HETATM   18  C24 UNL     1      -4.234  46.258 -20.264  1.00  0.00     0.016 C 
HETATM   19  C25 UNL     1      -4.126  48.341 -21.675  1.00  0.00     0.024 C 
HETATM   20  C26 UNL     1      -2.603  48.249 -21.941  1.00  0.00     0.010 C 
HETATM   21  C27 UNL     1      -2.006  49.347 -22.821  1.00  0.00     0.011 C 
HETATM   22  C28 UNL     1      -2.926  49.783 -23.973  1.00  0.00    -0.029 C 
HETATM   23  C29 UNL     1      -3.153  48.588 -24.923  1.00  0.00     0.016 C 
ENDROOT
BRANCH   1  24
HETATM   24  C6  UNL     1      -1.042  50.940 -25.571  1.00  0.00    -0.007 C 
HETATM   25  C7  UNL     1      -1.278  51.271 -27.058  1.00  0.00     0.011 C 
BRANCH  24  26
HETATM   26  C5  UNL     1       0.201  51.685 -25.057  1.00  0.00     0.087 C 
BRANCH  26  27
HETATM   27  C4  UNL     1       0.190  53.202 -25.091  1.00  0.00     0.150 C 
HETATM   28  O1  UNL     1      -0.303  53.816 -26.033  1.00  0.00    -0.293 OA
BRANCH  27  29
HETATM   29  C3  UNL     1       0.748  53.916 -23.906  1.00  0.00     0.063 C 
HETATM   30  C2  UNL     1       0.825  53.398 -22.665  1.00  0.00     0.015 C 
HETATM   31  C1  UNL     1       0.317  52.050 -22.239  1.00  0.00     0.055 C 
BRANCH  30  32
HETATM   32  C30 UNL     1       1.446  54.198 -21.582  1.00  0.00     0.171 C 
HETATM   33  O3  UNL     1       1.227  54.073 -20.391  1.00  0.00    -0.646 OA
BRANCH  32  34
HETATM   34  O4  UNL     1       2.313  55.128 -22.018  1.00  0.00    -0.773 OA
HETATM   35  H44 UNL     1       2.623  55.550 -21.190  1.00  0.00     0.167 HD
ENDBRANCH  32  34
ENDBRANCH  30  32
ENDBRANCH  27  29
ENDBRANCH  26  27
ENDBRANCH  24  26
ENDBRANCH   1  24
TORSDOF 6
ENDMDL
