MODEL 1
REMARK minimizedAffinity -9.93159008
REMARK  9 active torsions:
REMARK  status: ('A' for Active; 'I' for Inactive)
REMARK    1  A    between atoms: C2_2  and  C3_3 
REMARK    2  A    between atoms: C2_2  and  C9_12 
REMARK    3  A    between atoms: C3_3  and  C4_4 
REMARK    4  A    between atoms: C4_4  and  C5_5 
REMARK    5  A    between atoms: C5_5  and  O1_6 
REMARK    6  A    between atoms: C5_5  and  C6_7 
REMARK    7  A    between atoms: C6_7  and  O2_9 
REMARK    8  A    between atoms: C6_7  and  C8_10 
REMARK    9  A    between atoms: C8_10  and  O3_11 
ROOT
HETATM    1  C9  UNL     1      -0.804  50.164 -21.574  1.00  0.00    -0.002 C 
HETATM    2  C10 UNL     1      -0.937  49.702 -20.097  1.00  0.00     0.007 C 
HETATM    3  C11 UNL     1      -2.271  48.939 -19.982  1.00  0.00     0.015 C 
HETATM    4  C12 UNL     1      -2.674  48.613 -21.433  1.00  0.00    -0.005 C 
HETATM    5  C13 UNL     1      -1.871  47.341 -21.850  1.00  0.00     0.021 C 
HETATM    6  C14 UNL     1      -4.116  48.278 -21.790  1.00  0.00    -0.000 C 
HETATM    7  C15 UNL     1      -4.612  48.550 -23.027  1.00  0.00    -0.060 C 
HETATM    8  C16 UNL     1      -3.753  49.267 -24.075  1.00  0.00     0.036 C 
HETATM    9  C17 UNL     1      -2.342  49.729 -23.658  1.00  0.00     0.015 C 
HETATM   10  C18 UNL     1      -2.239  49.957 -22.146  1.00  0.00    -0.028 C 
HETATM   11  C19 UNL     1      -3.148  51.164 -21.773  1.00  0.00     0.016 C 
HETATM   12  C20 UNL     1      -6.071  48.212 -23.438  1.00  0.00    -0.014 C 
HETATM   13  C21 UNL     1      -6.894  49.487 -23.142  1.00  0.00     0.020 C 
HETATM   14  C22 UNL     1      -6.180  47.868 -24.947  1.00  0.00     0.021 C 
HETATM   15  C23 UNL     1      -7.560  47.380 -25.363  1.00  0.00     0.080 C 
HETATM   16  C24 UNL     1      -7.935  46.154 -24.571  1.00  0.00     0.135 C 
HETATM   17  O4  UNL     1      -8.335  45.146 -25.152  1.00  0.00    -0.297 OA
HETATM   18  C25 UNL     1      -7.866  46.255 -23.039  1.00  0.00     0.018 C 
HETATM   19  C26 UNL     1      -7.899  44.813 -22.469  1.00  0.00     0.023 C 
HETATM   20  C27 UNL     1      -9.136  46.961 -22.543  1.00  0.00     0.023 C 
HETATM   21  C28 UNL     1      -6.515  46.942 -22.631  1.00  0.00     0.020 C 
HETATM   22  C29 UNL     1      -6.389  47.210 -21.129  1.00  0.00     0.090 C 
HETATM   23  C30 UNL     1      -4.974  47.598 -20.763  1.00  0.00     0.157 C 
HETATM   24  O5  UNL     1      -4.558  47.373 -19.629  1.00  0.00    -0.293 OA
ENDROOT
BRANCH   1  25
HETATM   25  C2  UNL     1       0.006  51.486 -21.749  1.00  0.00    -0.014 C 
HETATM   26  C1  UNL     1       0.399  52.225 -20.466  1.00  0.00     0.010 C 
BRANCH  25  27
HETATM   27  C3  UNL     1      -0.677  52.437 -22.760  1.00  0.00     0.007 C 
BRANCH  27  28
HETATM   28  C4  UNL     1      -0.478  52.059 -24.240  1.00  0.00     0.035 C 
BRANCH  28  29
HETATM   29  C5  UNL     1       0.915  52.392 -24.795  1.00  0.00     0.154 C 
BRANCH  29  30
HETATM   30  O1  UNL     1       1.066  53.820 -24.839  1.00  0.00    -0.392 OA
HETATM   31  H10 UNL     1       1.886  53.962 -25.358  1.00  0.00     0.210 HD
ENDBRANCH  29  30
BRANCH  29  32
HETATM   32  C6  UNL     1       1.205  51.822 -26.208  1.00  0.00     0.101 C 
HETATM   33  C7  UNL     1       0.074  50.932 -26.740  1.00  0.00     0.051 C 
BRANCH  32  34
HETATM   34  O2  UNL     1       1.276  52.961 -27.101  1.00  0.00    -0.385 OA
HETATM   35  H14 UNL     1       1.829  52.664 -27.855  1.00  0.00     0.210 HD
ENDBRANCH  32  34
BRANCH  32  36
HETATM   36  C8  UNL     1       2.564  51.095 -26.263  1.00  0.00     0.204 C 
BRANCH  36  37
HETATM   37  O3  UNL     1       3.310  51.549 -27.397  1.00  0.00    -0.398 OA
HETATM   38  H17 UNL     1       3.013  51.034 -28.169  1.00  0.00     0.209 HD
ENDBRANCH  36  37
ENDBRANCH  32  36
ENDBRANCH  29  32
ENDBRANCH  28  29
ENDBRANCH  27  28
ENDBRANCH  25  27
ENDBRANCH   1  25
TORSDOF 9
ENDMDL
MODEL 2
REMARK minimizedAffinity -9.863801
REMARK  9 active torsions:
REMARK  status: ('A' for Active; 'I' for Inactive)
REMARK    1  A    between atoms: C2_2  and  C3_3 
REMARK    2  A    between atoms: C2_2  and  C9_12 
REMARK    3  A    between atoms: C3_3  and  C4_4 
REMARK    4  A    between atoms: C4_4  and  C5_5 
REMARK    5  A    between atoms: C5_5  and  O1_6 
REMARK    6  A    between atoms: C5_5  and  C6_7 
REMARK    7  A    between atoms: C6_7  and  O2_9 
REMARK    8  A    between atoms: C6_7  and  C8_10 
REMARK    9  A    between atoms: C8_10  and  O3_11 
ROOT
HETATM    1  C9  UNL     1      -0.638  50.534 -21.723  1.00  0.00    -0.002 C 
HETATM    2  C10 UNL     1      -0.821  50.136 -20.232  1.00  0.00     0.007 C 
HETATM    3  C11 UNL     1      -2.156  49.374 -20.130  1.00  0.00     0.015 C 
HETATM    4  C12 UNL     1      -2.508  48.983 -21.579  1.00  0.00    -0.005 C 
HETATM    5  C13 UNL     1      -1.687  47.698 -21.913  1.00  0.00     0.021 C 
HETATM    6  C14 UNL     1      -3.936  48.627 -21.971  1.00  0.00    -0.000 C 
HETATM    7  C15 UNL     1      -4.389  48.843 -23.235  1.00  0.00    -0.060 C 
HETATM    8  C16 UNL     1      -3.496  49.517 -24.283  1.00  0.00     0.036 C 
HETATM    9  C17 UNL     1      -2.101  50.003 -23.838  1.00  0.00     0.015 C 
HETATM   10  C18 UNL     1      -2.051  50.297 -22.334  1.00  0.00    -0.028 C 
HETATM   11  C19 UNL     1      -2.976  51.515 -22.046  1.00  0.00     0.016 C 
HETATM   12  C20 UNL     1      -5.832  48.481 -23.681  1.00  0.00    -0.014 C 
HETATM   13  C21 UNL     1      -6.668  49.765 -23.469  1.00  0.00     0.020 C 
HETATM   14  C22 UNL     1      -5.888  48.071 -25.177  1.00  0.00     0.021 C 
HETATM   15  C23 UNL     1      -7.251  47.561 -25.618  1.00  0.00     0.080 C 
HETATM   16  C24 UNL     1      -7.650  46.368 -24.787  1.00  0.00     0.135 C 
HETATM   17  O4  UNL     1      -8.027  45.334 -25.337  1.00  0.00    -0.297 OA
HETATM   18  C25 UNL     1      -7.635  46.536 -23.260  1.00  0.00     0.018 C 
HETATM   19  C26 UNL     1      -7.684  45.120 -22.629  1.00  0.00     0.023 C 
HETATM   20  C27 UNL     1      -8.923  47.257 -22.839  1.00  0.00     0.023 C 
HETATM   21  C28 UNL     1      -6.301  47.245 -22.835  1.00  0.00     0.020 C 
HETATM   22  C29 UNL     1      -6.227  47.580 -21.343  1.00  0.00     0.090 C 
HETATM   23  C30 UNL     1      -4.827  47.989 -20.946  1.00  0.00     0.157 C 
HETATM   24  O5  UNL     1      -4.450  47.815 -19.789  1.00  0.00    -0.293 OA
ENDROOT
BRANCH   1  25
HETATM   25  C2  UNL     1       0.174  51.851 -21.927  1.00  0.00    -0.014 C 
HETATM   26  C1  UNL     1       0.258  52.799 -20.727  1.00  0.00     0.010 C 
BRANCH  25  27
HETATM   27  C3  UNL     1      -0.275  52.598 -23.205  1.00  0.00     0.007 C 
BRANCH  27  28
HETATM   28  C4  UNL     1       0.594  52.334 -24.449  1.00  0.00     0.035 C 
BRANCH  28  29
HETATM   29  C5  UNL     1       0.359  53.317 -25.605  1.00  0.00     0.154 C 
BRANCH  29  30
HETATM   30  O1  UNL     1      -0.176  54.538 -25.071  1.00  0.00    -0.392 OA
HETATM   31  H10 UNL     1      -0.465  55.043 -25.860  1.00  0.00     0.210 HD
ENDBRANCH  29  30
BRANCH  29  32
HETATM   32  C6  UNL     1      -0.598  52.801 -26.712  1.00  0.00     0.101 C 
HETATM   33  C7  UNL     1      -0.396  51.315 -27.036  1.00  0.00     0.051 C 
BRANCH  32  34
HETATM   34  O2  UNL     1      -1.940  52.920 -26.179  1.00  0.00    -0.385 OA
HETATM   35  H14 UNL     1      -2.525  52.984 -26.963  1.00  0.00     0.210 HD
ENDBRANCH  32  34
BRANCH  32  36
HETATM   36  C8  UNL     1      -0.519  53.669 -27.984  1.00  0.00     0.204 C 
BRANCH  36  37
HETATM   37  O3  UNL     1      -1.837  54.048 -28.394  1.00  0.00    -0.398 OA
HETATM   38  H17 UNL     1      -2.201  53.318 -28.925  1.00  0.00     0.209 HD
ENDBRANCH  36  37
ENDBRANCH  32  36
ENDBRANCH  29  32
ENDBRANCH  28  29
ENDBRANCH  27  28
ENDBRANCH  25  27
ENDBRANCH   1  25
TORSDOF 9
ENDMDL
MODEL 3
REMARK minimizedAffinity -9.66806221
REMARK  9 active torsions:
REMARK  status: ('A' for Active; 'I' for Inactive)
REMARK    1  A    between atoms: C2_2  and  C3_3 
REMARK    2  A    between atoms: C2_2  and  C9_12 
REMARK    3  A    between atoms: C3_3  and  C4_4 
REMARK    4  A    between atoms: C4_4  and  C5_5 
REMARK    5  A    between atoms: C5_5  and  O1_6 
REMARK    6  A    between atoms: C5_5  and  C6_7 
REMARK    7  A    between atoms: C6_7  and  O2_9 
REMARK    8  A    between atoms: C6_7  and  C8_10 
REMARK    9  A    between atoms: C8_10  and  O3_11 
ROOT
HETATM    1  C9  UNL     1      -1.674  50.579 -22.826  1.00  0.00    -0.002 C 
HETATM    2  C10 UNL     1      -1.216  52.045 -23.060  1.00  0.00     0.007 C 
HETATM    3  C11 UNL     1      -0.598  52.540 -21.738  1.00  0.00     0.015 C 
HETATM    4  C12 UNL     1      -0.328  51.264 -20.917  1.00  0.00    -0.005 C 
HETATM    5  C13 UNL     1       1.018  50.668 -21.438  1.00  0.00     0.021 C 
HETATM    6  C14 UNL     1      -0.151  51.327 -19.406  1.00  0.00    -0.000 C 
HETATM    7  C15 UNL     1      -0.484  50.270 -18.618  1.00  0.00    -0.060 C 
HETATM    8  C16 UNL     1      -1.115  49.010 -19.223  1.00  0.00     0.036 C 
HETATM    9  C17 UNL     1      -1.422  49.011 -20.735  1.00  0.00     0.015 C 
HETATM   10  C18 UNL     1      -1.625  50.430 -21.276  1.00  0.00    -0.028 C 
HETATM   11  C19 UNL     1      -2.918  51.015 -20.636  1.00  0.00     0.016 C 
HETATM   12  C20 UNL     1      -0.305  50.284 -17.075  1.00  0.00    -0.014 C 
HETATM   13  C21 UNL     1      -1.658  50.769 -16.504  1.00  0.00     0.020 C 
HETATM   14  C22 UNL     1       0.012  48.872 -16.518  1.00  0.00     0.021 C 
HETATM   15  C23 UNL     1       0.348  48.863 -15.034  1.00  0.00     0.080 C 
HETATM   16  C24 UNL     1       1.534  49.754 -14.768  1.00  0.00     0.135 C 
HETATM   17  O4  UNL     1       2.490  49.328 -14.120  1.00  0.00    -0.297 OA
HETATM   18  C25 UNL     1       1.454  51.205 -15.268  1.00  0.00     0.018 C 
HETATM   19  C26 UNL     1       2.889  51.792 -15.245  1.00  0.00     0.023 C 
HETATM   20  C27 UNL     1       0.622  52.017 -14.265  1.00  0.00     0.023 C 
HETATM   21  C28 UNL     1       0.917  51.210 -16.743  1.00  0.00     0.020 C 
HETATM   22  C29 UNL     1       0.676  52.612 -17.307  1.00  0.00     0.090 C 
HETATM   23  C30 UNL     1       0.443  52.564 -18.800  1.00  0.00     0.157 C 
HETATM   24  O5  UNL     1       0.721  53.544 -19.488  1.00  0.00    -0.293 OA
ENDROOT
BRANCH   1  25
HETATM   25  C2  UNL     1      -2.905  50.160 -23.689  1.00  0.00    -0.014 C 
HETATM   26  C1  UNL     1      -3.063  48.664 -23.978  1.00  0.00     0.010 C 
BRANCH  25  27
HETATM   27  C3  UNL     1      -2.996  50.997 -24.986  1.00  0.00     0.007 C 
BRANCH  27  28
HETATM   28  C4  UNL     1      -1.747  50.936 -25.886  1.00  0.00     0.035 C 
BRANCH  28  29
HETATM   29  C5  UNL     1      -1.753  51.944 -27.044  1.00  0.00     0.154 C 
BRANCH  29  30
HETATM   30  O1  UNL     1      -2.279  51.301 -28.215  1.00  0.00    -0.392 OA
HETATM   31  H10 UNL     1      -2.092  51.930 -28.944  1.00  0.00     0.210 HD
ENDBRANCH  29  30
BRANCH  29  32
HETATM   32  C6  UNL     1      -0.364  52.542 -27.391  1.00  0.00     0.101 C 
HETATM   33  C7  UNL     1       0.674  51.473 -27.759  1.00  0.00     0.051 C 
BRANCH  32  34
HETATM   34  O2  UNL     1      -0.552  53.348 -28.581  1.00  0.00    -0.385 OA
HETATM   35  H14 UNL     1       0.173  54.008 -28.563  1.00  0.00     0.210 HD
ENDBRANCH  32  34
BRANCH  32  36
HETATM   36  C8  UNL     1       0.156  53.468 -26.274  1.00  0.00     0.204 C 
BRANCH  36  37
HETATM   37  O3  UNL     1       0.095  54.831 -26.707  1.00  0.00    -0.398 OA
HETATM   38  H17 UNL     1       0.903  55.012 -27.220  1.00  0.00     0.209 HD
ENDBRANCH  36  37
ENDBRANCH  32  36
ENDBRANCH  29  32
ENDBRANCH  28  29
ENDBRANCH  27  28
ENDBRANCH  25  27
ENDBRANCH   1  25
TORSDOF 9
ENDMDL
MODEL 4
REMARK minimizedAffinity -9.39447021
REMARK  9 active torsions:
REMARK  status: ('A' for Active; 'I' for Inactive)
REMARK    1  A    between atoms: C2_2  and  C3_3 
REMARK    2  A    between atoms: C2_2  and  C9_12 
REMARK    3  A    between atoms: C3_3  and  C4_4 
REMARK    4  A    between atoms: C4_4  and  C5_5 
REMARK    5  A    between atoms: C5_5  and  O1_6 
REMARK    6  A    between atoms: C5_5  and  C6_7 
REMARK    7  A    between atoms: C6_7  and  O2_9 
REMARK    8  A    between atoms: C6_7  and  C8_10 
REMARK    9  A    between atoms: C8_10  and  O3_11 
ROOT
HETATM    1  C9  UNL     1      -1.447  49.307 -18.131  1.00  0.00    -0.002 C 
HETATM    2  C10 UNL     1      -2.705  48.407 -18.276  1.00  0.00     0.007 C 
HETATM    3  C11 UNL     1      -3.159  48.501 -19.746  1.00  0.00     0.015 C 
HETATM    4  C12 UNL     1      -1.953  49.093 -20.502  1.00  0.00    -0.005 C 
HETATM    5  C13 UNL     1      -0.970  47.913 -20.779  1.00  0.00     0.021 C 
HETATM    6  C14 UNL     1      -2.130  49.759 -21.860  1.00  0.00    -0.000 C 
HETATM    7  C15 UNL     1      -1.291  50.749 -22.268  1.00  0.00    -0.060 C 
HETATM    8  C16 UNL     1      -0.186  51.270 -21.342  1.00  0.00     0.036 C 
HETATM    9  C17 UNL     1      -0.105  50.688 -19.916  1.00  0.00     0.015 C 
HETATM   10  C18 UNL     1      -1.460  50.155 -19.438  1.00  0.00    -0.028 C 
HETATM   11  C19 UNL     1      -2.432  51.362 -19.289  1.00  0.00     0.016 C 
HETATM   12  C20 UNL     1      -1.425  51.445 -23.650  1.00  0.00    -0.014 C 
HETATM   13  C21 UNL     1      -2.310  52.689 -23.406  1.00  0.00     0.020 C 
HETATM   14  C22 UNL     1      -0.048  51.894 -24.206  1.00  0.00     0.021 C 
HETATM   15  C23 UNL     1      -0.112  52.440 -25.624  1.00  0.00     0.080 C 
HETATM   16  C24 UNL     1      -0.680  51.399 -26.554  1.00  0.00     0.135 C 
HETATM   17  O4  UNL     1      -0.088  51.117 -27.596  1.00  0.00    -0.297 OA
HETATM   18  C25 UNL     1      -2.037  50.783 -26.180  1.00  0.00     0.018 C 
HETATM   19  C26 UNL     1      -2.222  49.497 -27.027  1.00  0.00     0.023 C 
HETATM   20  C27 UNL     1      -3.144  51.759 -26.601  1.00  0.00     0.023 C 
HETATM   21  C28 UNL     1      -2.024  50.401 -24.657  1.00  0.00     0.020 C 
HETATM   22  C29 UNL     1      -3.370  49.890 -24.137  1.00  0.00     0.090 C 
HETATM   23  C30 UNL     1      -3.224  49.274 -22.765  1.00  0.00     0.157 C 
HETATM   24  O5  UNL     1      -4.015  48.405 -22.404  1.00  0.00    -0.293 OA
ENDROOT
BRANCH   1  25
HETATM   25  C2  UNL     1      -1.278  49.926 -16.709  1.00  0.00    -0.014 C 
HETATM   26  C1  UNL     1      -2.499  50.639 -16.121  1.00  0.00     0.010 C 
BRANCH  25  27
HETATM   27  C3  UNL     1      -0.014  50.814 -16.627  1.00  0.00     0.007 C 
BRANCH  27  28
HETATM   28  C4  UNL     1       1.021  50.372 -15.574  1.00  0.00     0.035 C 
BRANCH  28  29
HETATM   29  C5  UNL     1       1.386  51.459 -14.553  1.00  0.00     0.154 C 
BRANCH  29  30
HETATM   30  O1  UNL     1       0.953  52.732 -15.057  1.00  0.00    -0.392 OA
HETATM   31  H10 UNL     1       1.367  53.387 -14.456  1.00  0.00     0.210 HD
ENDBRANCH  29  30
BRANCH  29  32
HETATM   32  C6  UNL     1       2.898  51.551 -14.215  1.00  0.00     0.101 C 
HETATM   33  C7  UNL     1       3.744  52.069 -15.386  1.00  0.00     0.051 C 
BRANCH  32  34
HETATM   34  O2  UNL     1       3.021  52.537 -13.161  1.00  0.00    -0.385 OA
HETATM   35  H14 UNL     1       3.853  52.313 -12.692  1.00  0.00     0.210 HD
ENDBRANCH  32  34
BRANCH  32  36
HETATM   36  C8  UNL     1       3.444  50.215 -13.675  1.00  0.00     0.204 C 
BRANCH  36  37
HETATM   37  O3  UNL     1       4.803  50.043 -14.091  1.00  0.00    -0.398 OA
HETATM   38  H17 UNL     1       4.789  49.665 -14.988  1.00  0.00     0.209 HD
ENDBRANCH  36  37
ENDBRANCH  32  36
ENDBRANCH  29  32
ENDBRANCH  28  29
ENDBRANCH  27  28
ENDBRANCH  25  27
ENDBRANCH   1  25
TORSDOF 9
ENDMDL
MODEL 5
REMARK minimizedAffinity -9.1721983
REMARK  9 active torsions:
REMARK  status: ('A' for Active; 'I' for Inactive)
REMARK    1  A    between atoms: C2_2  and  C3_3 
REMARK    2  A    between atoms: C2_2  and  C9_12 
REMARK    3  A    between atoms: C3_3  and  C4_4 
REMARK    4  A    between atoms: C4_4  and  C5_5 
REMARK    5  A    between atoms: C5_5  and  O1_6 
REMARK    6  A    between atoms: C5_5  and  C6_7 
REMARK    7  A    between atoms: C6_7  and  O2_9 
REMARK    8  A    between atoms: C6_7  and  C8_10 
REMARK    9  A    between atoms: C8_10  and  O3_11 
ROOT
HETATM    1  C9  UNL     1      -3.884  50.276 -24.495  1.00  0.00    -0.002 C 
HETATM    2  C10 UNL     1      -5.387  50.127 -24.131  1.00  0.00     0.007 C 
HETATM    3  C11 UNL     1      -5.467  49.979 -22.598  1.00  0.00     0.015 C 
HETATM    4  C12 UNL     1      -4.098  50.457 -22.077  1.00  0.00    -0.005 C 
HETATM    5  C13 UNL     1      -4.151  52.016 -22.028  1.00  0.00     0.021 C 
HETATM    6  C14 UNL     1      -3.603  50.056 -20.693  1.00  0.00    -0.000 C 
HETATM    7  C15 UNL     1      -2.273  49.946 -20.431  1.00  0.00    -0.060 C 
HETATM    8  C16 UNL     1      -1.236  50.155 -21.540  1.00  0.00     0.036 C 
HETATM    9  C17 UNL     1      -1.751  50.421 -22.970  1.00  0.00     0.015 C 
HETATM   10  C18 UNL     1      -3.153  49.842 -23.188  1.00  0.00    -0.028 C 
HETATM   11  C19 UNL     1      -3.057  48.290 -23.113  1.00  0.00     0.016 C 
HETATM   12  C20 UNL     1      -1.724  49.555 -19.032  1.00  0.00    -0.014 C 
HETATM   13  C21 UNL     1      -1.551  48.019 -19.066  1.00  0.00     0.020 C 
HETATM   14  C22 UNL     1      -0.352  50.221 -18.743  1.00  0.00     0.021 C 
HETATM   15  C23 UNL     1       0.150  49.992 -17.326  1.00  0.00     0.080 C 
HETATM   16  C24 UNL     1      -0.850  50.522 -16.331  1.00  0.00     0.135 C 
HETATM   17  O4  UNL     1      -0.482  51.277 -15.432  1.00  0.00    -0.297 OA
HETATM   18  C25 UNL     1      -2.297  50.019 -16.449  1.00  0.00     0.018 C 
HETATM   19  C26 UNL     1      -3.197  50.969 -15.616  1.00  0.00     0.023 C 
HETATM   20  C27 UNL     1      -2.384  48.633 -15.795  1.00  0.00     0.023 C 
HETATM   21  C28 UNL     1      -2.739  50.078 -17.954  1.00  0.00     0.020 C 
HETATM   22  C29 UNL     1      -4.125  49.483 -18.215  1.00  0.00     0.090 C 
HETATM   23  C30 UNL     1      -4.610  49.825 -19.605  1.00  0.00     0.157 C 
HETATM   24  O5  UNL     1      -5.818  49.885 -19.828  1.00  0.00    -0.293 OA
ENDROOT
BRANCH   1  25
HETATM   25  C2  UNL     1      -3.521  49.718 -25.906  1.00  0.00    -0.014 C 
HETATM   26  C1  UNL     1      -4.141  48.373 -26.293  1.00  0.00     0.010 C 
BRANCH  25  27
HETATM   27  C3  UNL     1      -1.991  49.720 -26.136  1.00  0.00     0.007 C 
BRANCH  27  28
HETATM   28  C4  UNL     1      -1.321  51.103 -26.027  1.00  0.00     0.035 C 
BRANCH  28  29
HETATM   29  C5  UNL     1      -1.452  51.970 -27.288  1.00  0.00     0.154 C 
BRANCH  29  30
HETATM   30  O1  UNL     1      -1.787  51.123 -28.398  1.00  0.00    -0.392 OA
HETATM   31  H10 UNL     1      -1.681  51.698 -29.185  1.00  0.00     0.210 HD
ENDBRANCH  29  30
BRANCH  29  32
HETATM   32  C6  UNL     1      -0.181  52.782 -27.653  1.00  0.00     0.101 C 
HETATM   33  C7  UNL     1       1.054  51.897 -27.871  1.00  0.00     0.051 C 
BRANCH  32  34
HETATM   34  O2  UNL     1      -0.454  53.416 -28.926  1.00  0.00    -0.385 OA
HETATM   35  H14 UNL     1       0.134  54.200 -28.956  1.00  0.00     0.210 HD
ENDBRANCH  32  34
BRANCH  32  36
HETATM   36  C8  UNL     1       0.101  53.895 -26.624  1.00  0.00     0.204 C 
BRANCH  36  37
HETATM   37  O3  UNL     1      -0.266  55.165 -27.172  1.00  0.00    -0.398 OA
HETATM   38  H17 UNL     1       0.485  55.481 -27.706  1.00  0.00     0.209 HD
ENDBRANCH  36  37
ENDBRANCH  32  36
ENDBRANCH  29  32
ENDBRANCH  28  29
ENDBRANCH  27  28
ENDBRANCH  25  27
ENDBRANCH   1  25
TORSDOF 9
ENDMDL
MODEL 6
REMARK minimizedAffinity -9.13750172
REMARK  9 active torsions:
REMARK  status: ('A' for Active; 'I' for Inactive)
REMARK    1  A    between atoms: C2_2  and  C3_3 
REMARK    2  A    between atoms: C2_2  and  C9_12 
REMARK    3  A    between atoms: C3_3  and  C4_4 
REMARK    4  A    between atoms: C4_4  and  C5_5 
REMARK    5  A    between atoms: C5_5  and  O1_6 
REMARK    6  A    between atoms: C5_5  and  C6_7 
REMARK    7  A    between atoms: C6_7  and  O2_9 
REMARK    8  A    between atoms: C6_7  and  C8_10 
REMARK    9  A    between atoms: C8_10  and  O3_11 
ROOT
HETATM    1  C9  UNL     1      -5.928  49.150 -21.787  1.00  0.00    -0.002 C 
HETATM    2  C10 UNL     1      -5.043  48.973 -20.522  1.00  0.00     0.007 C 
HETATM    3  C11 UNL     1      -3.664  49.579 -20.848  1.00  0.00     0.015 C 
HETATM    4  C12 UNL     1      -3.893  50.449 -22.100  1.00  0.00    -0.005 C 
HETATM    5  C13 UNL     1      -4.482  51.807 -21.605  1.00  0.00     0.021 C 
HETATM    6  C14 UNL     1      -2.731  50.850 -22.999  1.00  0.00    -0.000 C 
HETATM    7  C15 UNL     1      -2.921  51.083 -24.325  1.00  0.00    -0.060 C 
HETATM    8  C16 UNL     1      -4.298  50.879 -24.967  1.00  0.00     0.036 C 
HETATM    9  C17 UNL     1      -5.436  50.336 -24.078  1.00  0.00     0.015 C 
HETATM   10  C18 UNL     1      -4.898  49.521 -22.896  1.00  0.00    -0.028 C 
HETATM   11  C19 UNL     1      -4.223  48.236 -23.458  1.00  0.00     0.016 C 
HETATM   12  C20 UNL     1      -1.769  51.509 -25.275  1.00  0.00    -0.014 C 
HETATM   13  C21 UNL     1      -1.218  50.195 -25.878  1.00  0.00     0.020 C 
HETATM   14  C22 UNL     1      -2.273  52.428 -26.419  1.00  0.00     0.021 C 
HETATM   15  C23 UNL     1      -1.157  52.995 -27.282  1.00  0.00     0.080 C 
HETATM   16  C24 UNL     1      -0.195  53.785 -26.432  1.00  0.00     0.135 C 
HETATM   17  O4  UNL     1       0.121  54.927 -26.761  1.00  0.00    -0.297 OA
HETATM   18  C25 UNL     1       0.410  53.077 -25.209  1.00  0.00     0.018 C 
HETATM   19  C26 UNL     1       1.026  54.165 -24.291  1.00  0.00     0.023 C 
HETATM   20  C27 UNL     1       1.567  52.189 -25.688  1.00  0.00     0.023 C 
HETATM   21  C28 UNL     1      -0.730  52.330 -24.432  1.00  0.00     0.020 C 
HETATM   22  C29 UNL     1      -0.227  51.483 -23.260  1.00  0.00     0.090 C 
HETATM   23  C30 UNL     1      -1.373  51.029 -22.386  1.00  0.00     0.157 C 
HETATM   24  O5  UNL     1      -1.171  50.792 -21.197  1.00  0.00    -0.293 OA
ENDROOT
BRANCH   1  25
HETATM   25  C2  UNL     1      -7.009  48.039 -21.959  1.00  0.00    -0.014 C 
HETATM   26  C1  UNL     1      -6.776  46.730 -21.199  1.00  0.00     0.010 C 
BRANCH  25  27
HETATM   27  C3  UNL     1      -7.316  47.776 -23.452  1.00  0.00     0.007 C 
BRANCH  27  28
HETATM   28  C4  UNL     1      -8.501  48.579 -24.021  1.00  0.00     0.035 C 
BRANCH  28  29
HETATM   29  C5  UNL     1      -9.370  47.801 -25.019  1.00  0.00     0.154 C 
BRANCH  29  30
HETATM   30  O1  UNL     1      -8.685  46.593 -25.385  1.00  0.00    -0.392 OA
HETATM   31  H10 UNL     1      -9.199  46.241 -26.143  1.00  0.00     0.210 HD
ENDBRANCH  29  30
BRANCH  29  32
HETATM   32  C6  UNL     1      -9.726  48.578 -26.314  1.00  0.00     0.101 C 
HETATM   33  C7  UNL     1     -11.184  48.382 -26.751  1.00  0.00     0.051 C 
BRANCH  32  34
HETATM   34  O2  UNL     1      -9.585  49.985 -25.998  1.00  0.00    -0.385 OA
HETATM   35  H14 UNL     1      -9.415  50.427 -26.856  1.00  0.00     0.210 HD
ENDBRANCH  32  34
BRANCH  32  36
HETATM   36  C8  UNL     1      -8.748  48.254 -27.462  1.00  0.00     0.204 C 
BRANCH  36  37
HETATM   37  O3  UNL     1      -8.744  49.325 -28.411  1.00  0.00    -0.398 OA
HETATM   38  H17 UNL     1      -9.491  49.181 -29.019  1.00  0.00     0.209 HD
ENDBRANCH  36  37
ENDBRANCH  32  36
ENDBRANCH  29  32
ENDBRANCH  28  29
ENDBRANCH  27  28
ENDBRANCH  25  27
ENDBRANCH   1  25
TORSDOF 9
ENDMDL
MODEL 7
REMARK minimizedAffinity -8.80077362
REMARK  9 active torsions:
REMARK  status: ('A' for Active; 'I' for Inactive)
REMARK    1  A    between atoms: C2_2  and  C3_3 
REMARK    2  A    between atoms: C2_2  and  C9_12 
REMARK    3  A    between atoms: C3_3  and  C4_4 
REMARK    4  A    between atoms: C4_4  and  C5_5 
REMARK    5  A    between atoms: C5_5  and  O1_6 
REMARK    6  A    between atoms: C5_5  and  C6_7 
REMARK    7  A    between atoms: C6_7  and  O2_9 
REMARK    8  A    between atoms: C6_7  and  C8_10 
REMARK    9  A    between atoms: C8_10  and  O3_11 
ROOT
HETATM    1  C9  UNL     1      -1.983  51.082 -23.454  1.00  0.00    -0.002 C 
HETATM    2  C10 UNL     1      -2.089  50.262 -24.769  1.00  0.00     0.007 C 
HETATM    3  C11 UNL     1      -3.301  49.322 -24.618  1.00  0.00     0.015 C 
HETATM    4  C12 UNL     1      -4.106  49.892 -23.434  1.00  0.00    -0.005 C 
HETATM    5  C13 UNL     1      -4.965  51.068 -23.997  1.00  0.00     0.021 C 
HETATM    6  C14 UNL     1      -5.106  49.027 -22.678  1.00  0.00    -0.000 C 
HETATM    7  C15 UNL     1      -5.380  49.260 -21.366  1.00  0.00    -0.060 C 
HETATM    8  C16 UNL     1      -4.637  50.355 -20.593  1.00  0.00     0.036 C 
HETATM    9  C17 UNL     1      -3.526  51.131 -21.329  1.00  0.00     0.015 C 
HETATM   10  C18 UNL     1      -2.920  50.313 -22.475  1.00  0.00    -0.028 C 
HETATM   11  C19 UNL     1      -2.174  49.093 -21.860  1.00  0.00     0.016 C 
HETATM   12  C20 UNL     1      -6.403  48.414 -20.560  1.00  0.00    -0.014 C 
HETATM   13  C21 UNL     1      -5.579  47.289 -19.892  1.00  0.00     0.020 C 
HETATM   14  C22 UNL     1      -7.111  49.254 -19.465  1.00  0.00     0.021 C 
HETATM   15  C23 UNL     1      -8.231  48.508 -18.754  1.00  0.00     0.080 C 
HETATM   16  C24 UNL     1      -9.269  48.063 -19.751  1.00  0.00     0.135 C 
HETATM   17  O4  UNL     1     -10.458  48.312 -19.554  1.00  0.00    -0.297 OA
HETATM   18  C25 UNL     1      -8.785  47.236 -20.953  1.00  0.00     0.018 C 
HETATM   19  C26 UNL     1      -9.916  47.238 -22.014  1.00  0.00     0.023 C 
HETATM   20  C27 UNL     1      -8.601  45.781 -20.497  1.00  0.00     0.023 C 
HETATM   21  C28 UNL     1      -7.506  47.915 -21.559  1.00  0.00     0.020 C 
HETATM   22  C29 UNL     1      -6.858  47.111 -22.690  1.00  0.00     0.090 C 
HETATM   23  C30 UNL     1      -5.822  47.936 -23.418  1.00  0.00     0.157 C 
HETATM   24  O5  UNL     1      -5.566  47.686 -24.594  1.00  0.00    -0.293 OA
ENDROOT
BRANCH   1  25
HETATM   25  C2  UNL     1      -0.526  51.505 -23.091  1.00  0.00    -0.014 C 
HETATM   26  C1  UNL     1      -0.129  51.405 -21.615  1.00  0.00     0.010 C 
BRANCH  25  27
HETATM   27  C3  UNL     1      -0.180  52.896 -23.674  1.00  0.00     0.007 C 
BRANCH  27  28
HETATM   28  C4  UNL     1      -0.559  53.089 -25.155  1.00  0.00     0.035 C 
BRANCH  28  29
HETATM   29  C5  UNL     1       0.284  52.261 -26.136  1.00  0.00     0.154 C 
BRANCH  29  30
HETATM   30  O1  UNL     1       1.670  52.584 -25.943  1.00  0.00    -0.392 OA
HETATM   31  H10 UNL     1       2.126  52.166 -26.703  1.00  0.00     0.210 HD
ENDBRANCH  29  30
BRANCH  29  32
HETATM   32  C6  UNL     1      -0.067  52.472 -27.633  1.00  0.00     0.101 C 
HETATM   33  C7  UNL     1       1.021  51.957 -28.583  1.00  0.00     0.051 C 
BRANCH  32  34
HETATM   34  O2  UNL     1      -1.244  51.667 -27.893  1.00  0.00    -0.385 OA
HETATM   35  H14 UNL     1      -1.681  52.088 -28.663  1.00  0.00     0.210 HD
ENDBRANCH  32  34
BRANCH  32  36
HETATM   36  C8  UNL     1      -0.427  53.941 -27.933  1.00  0.00     0.204 C 
BRANCH  36  37
HETATM   37  O3  UNL     1      -1.798  54.031 -28.335  1.00  0.00    -0.398 OA
HETATM   38  H17 UNL     1      -1.837  53.836 -29.289  1.00  0.00     0.209 HD
ENDBRANCH  36  37
ENDBRANCH  32  36
ENDBRANCH  29  32
ENDBRANCH  28  29
ENDBRANCH  27  28
ENDBRANCH  25  27
ENDBRANCH   1  25
TORSDOF 9
ENDMDL
MODEL 8
REMARK minimizedAffinity -8.73581219
REMARK  9 active torsions:
REMARK  status: ('A' for Active; 'I' for Inactive)
REMARK    1  A    between atoms: C2_2  and  C3_3 
REMARK    2  A    between atoms: C2_2  and  C9_12 
REMARK    3  A    between atoms: C3_3  and  C4_4 
REMARK    4  A    between atoms: C4_4  and  C5_5 
REMARK    5  A    between atoms: C5_5  and  O1_6 
REMARK    6  A    between atoms: C5_5  and  C6_7 
REMARK    7  A    between atoms: C6_7  and  O2_9 
REMARK    8  A    between atoms: C6_7  and  C8_10 
REMARK    9  A    between atoms: C8_10  and  O3_11 
ROOT
HETATM    1  C9  UNL     1      -0.446  51.664 -16.796  1.00  0.00    -0.002 C 
HETATM    2  C10 UNL     1       1.066  51.969 -16.980  1.00  0.00     0.007 C 
HETATM    3  C11 UNL     1       1.326  52.065 -18.496  1.00  0.00     0.015 C 
HETATM    4  C12 UNL     1      -0.068  52.233 -19.133  1.00  0.00    -0.005 C 
HETATM    5  C13 UNL     1      -0.445  53.742 -19.002  1.00  0.00     0.021 C 
HETATM    6  C14 UNL     1      -0.301  51.914 -20.603  1.00  0.00    -0.000 C 
HETATM    7  C15 UNL     1      -1.518  51.496 -21.044  1.00  0.00    -0.060 C 
HETATM    8  C16 UNL     1      -2.670  51.266 -20.060  1.00  0.00     0.036 C 
HETATM    9  C17 UNL     1      -2.384  51.455 -18.556  1.00  0.00     0.015 C 
HETATM   10  C18 UNL     1      -0.903  51.242 -18.225  1.00  0.00    -0.028 C 
HETATM   11  C19 UNL     1      -0.557  49.746 -18.482  1.00  0.00     0.016 C 
HETATM   12  C20 UNL     1      -1.804  51.175 -22.536  1.00  0.00    -0.014 C 
HETATM   13  C21 UNL     1      -1.546  49.659 -22.694  1.00  0.00     0.020 C 
HETATM   14  C22 UNL     1      -3.274  51.490 -22.923  1.00  0.00     0.021 C 
HETATM   15  C23 UNL     1      -3.559  51.338 -24.409  1.00  0.00     0.080 C 
HETATM   16  C24 UNL     1      -2.657  52.247 -25.204  1.00  0.00     0.135 C 
HETATM   17  O4  UNL     1      -3.135  52.998 -26.054  1.00  0.00    -0.297 OA
HETATM   18  C25 UNL     1      -1.145  52.132 -24.957  1.00  0.00     0.018 C 
HETATM   19  C26 UNL     1      -0.471  53.393 -25.559  1.00  0.00     0.023 C 
HETATM   20  C27 UNL     1      -0.616  50.924 -25.744  1.00  0.00     0.023 C 
HETATM   21  C28 UNL     1      -0.879  52.093 -23.411  1.00  0.00     0.020 C 
HETATM   22  C29 UNL     1       0.588  51.854 -23.042  1.00  0.00     0.090 C 
HETATM   23  C30 UNL     1       0.828  52.113 -21.573  1.00  0.00     0.157 C 
HETATM   24  O5  UNL     1       1.945  52.457 -21.192  1.00  0.00    -0.293 OA
ENDROOT
BRANCH   1  25
HETATM   25  C2  UNL     1      -0.770  50.838 -15.513  1.00  0.00    -0.014 C 
HETATM   26  C1  UNL     1      -0.126  49.452 -15.408  1.00  0.00     0.010 C 
BRANCH  25  27
HETATM   27  C3  UNL     1      -2.294  50.771 -15.255  1.00  0.00     0.007 C 
BRANCH  27  28
HETATM   28  C4  UNL     1      -2.691  50.355 -13.825  1.00  0.00     0.035 C 
BRANCH  28  29
HETATM   29  C5  UNL     1      -3.235  51.503 -12.962  1.00  0.00     0.154 C 
BRANCH  29  30
HETATM   30  O1  UNL     1      -3.328  52.686 -13.770  1.00  0.00    -0.392 OA
HETATM   31  H10 UNL     1      -3.506  53.406 -13.129  1.00  0.00     0.210 HD
ENDBRANCH  29  30
BRANCH  29  32
HETATM   32  C6  UNL     1      -2.385  51.829 -11.705  1.00  0.00     0.101 C 
HETATM   33  C7  UNL     1      -1.347  50.745 -11.384  1.00  0.00     0.051 C 
BRANCH  32  34
HETATM   34  O2  UNL     1      -1.633  53.027 -12.021  1.00  0.00    -0.385 OA
HETATM   35  H14 UNL     1      -1.430  53.441 -11.156  1.00  0.00     0.210 HD
ENDBRANCH  32  34
BRANCH  32  36
HETATM   36  C8  UNL     1      -3.270  52.139 -10.482  1.00  0.00     0.204 C 
BRANCH  36  37
HETATM   37  O3  UNL     1      -4.554  52.600 -10.916  1.00  0.00    -0.398 OA
HETATM   38  H17 UNL     1      -4.478  53.555 -11.093  1.00  0.00     0.209 HD
ENDBRANCH  36  37
ENDBRANCH  32  36
ENDBRANCH  29  32
ENDBRANCH  28  29
ENDBRANCH  27  28
ENDBRANCH  25  27
ENDBRANCH   1  25
TORSDOF 9
ENDMDL
MODEL 9
REMARK minimizedAffinity -8.72567368
REMARK  9 active torsions:
REMARK  status: ('A' for Active; 'I' for Inactive)
REMARK    1  A    between atoms: C2_2  and  C3_3 
REMARK    2  A    between atoms: C2_2  and  C9_12 
REMARK    3  A    between atoms: C3_3  and  C4_4 
REMARK    4  A    between atoms: C4_4  and  C5_5 
REMARK    5  A    between atoms: C5_5  and  O1_6 
REMARK    6  A    between atoms: C5_5  and  C6_7 
REMARK    7  A    between atoms: C6_7  and  O2_9 
REMARK    8  A    between atoms: C6_7  and  C8_10 
REMARK    9  A    between atoms: C8_10  and  O3_11 
ROOT
HETATM    1  C9  UNL     1      -1.376  50.677 -23.168  1.00  0.00    -0.002 C 
HETATM    2  C10 UNL     1      -0.918  52.149 -23.359  1.00  0.00     0.007 C 
HETATM    3  C11 UNL     1      -0.387  52.636 -21.997  1.00  0.00     0.015 C 
HETATM    4  C12 UNL     1      -0.157  51.354 -21.173  1.00  0.00    -0.005 C 
HETATM    5  C13 UNL     1       1.224  50.775 -21.614  1.00  0.00     0.021 C 
HETATM    6  C14 UNL     1      -0.074  51.404 -19.653  1.00  0.00    -0.000 C 
HETATM    7  C15 UNL     1      -0.446  50.336 -18.897  1.00  0.00    -0.060 C 
HETATM    8  C16 UNL     1      -1.027  49.077 -19.552  1.00  0.00     0.036 C 
HETATM    9  C17 UNL     1      -1.240  49.091 -21.079  1.00  0.00     0.015 C 
HETATM   10  C18 UNL     1      -1.422  50.514 -21.618  1.00  0.00    -0.028 C 
HETATM   11  C19 UNL     1      -2.757  51.081 -21.054  1.00  0.00     0.016 C 
HETATM   12  C20 UNL     1      -0.363  50.337 -17.346  1.00  0.00    -0.014 C 
HETATM   13  C21 UNL     1      -1.753  50.805 -16.855  1.00  0.00     0.020 C 
HETATM   14  C22 UNL     1      -0.068  48.922 -16.783  1.00  0.00     0.021 C 
HETATM   15  C23 UNL     1       0.175  48.902 -15.282  1.00  0.00     0.080 C 
HETATM   16  C24 UNL     1       1.335  49.799 -14.934  1.00  0.00     0.135 C 
HETATM   17  O4  UNL     1       2.252  49.375 -14.232  1.00  0.00    -0.297 OA
HETATM   18  C25 UNL     1       1.273  51.254 -15.425  1.00  0.00     0.018 C 
HETATM   19  C26 UNL     1       2.699  51.853 -15.307  1.00  0.00     0.023 C 
HETATM   20  C27 UNL     1       0.374  52.050 -14.468  1.00  0.00     0.023 C 
HETATM   21  C28 UNL     1       0.829  51.269 -16.930  1.00  0.00     0.020 C 
HETATM   22  C29 UNL     1       0.611  52.675 -17.495  1.00  0.00     0.090 C 
HETATM   23  C30 UNL     1       0.471  52.640 -19.000  1.00  0.00     0.157 C 
HETATM   24  O5  UNL     1       0.781  53.629 -19.661  1.00  0.00    -0.293 OA
ENDROOT
BRANCH   1  25
HETATM   25  C2  UNL     1      -2.548  50.256 -24.108  1.00  0.00    -0.014 C 
HETATM   26  C1  UNL     1      -3.656  51.290 -24.331  1.00  0.00     0.010 C 
BRANCH  25  27
HETATM   27  C3  UNL     1      -3.132  48.882 -23.702  1.00  0.00     0.007 C 
BRANCH  27  28
HETATM   28  C4  UNL     1      -4.655  48.745 -23.891  1.00  0.00     0.035 C 
BRANCH  28  29
HETATM   29  C5  UNL     1      -5.477  49.039 -22.627  1.00  0.00     0.154 C 
BRANCH  29  30
HETATM   30  O1  UNL     1      -5.319  47.947 -21.708  1.00  0.00    -0.392 OA
HETATM   31  H10 UNL     1      -5.996  48.110 -21.017  1.00  0.00     0.210 HD
ENDBRANCH  29  30
BRANCH  29  32
HETATM   32  C6  UNL     1      -6.993  49.260 -22.876  1.00  0.00     0.101 C 
HETATM   33  C7  UNL     1      -7.878  48.594 -21.814  1.00  0.00     0.051 C 
BRANCH  32  34
HETATM   34  O2  UNL     1      -7.222  50.686 -22.757  1.00  0.00    -0.385 OA
HETATM   35  H14 UNL     1      -8.031  50.863 -23.283  1.00  0.00     0.210 HD
ENDBRANCH  32  34
BRANCH  32  36
HETATM   36  C8  UNL     1      -7.406  48.835 -24.299  1.00  0.00     0.204 C 
BRANCH  36  37
HETATM   37  O3  UNL     1      -8.386  49.744 -24.811  1.00  0.00    -0.398 OA
HETATM   38  H17 UNL     1      -9.255  49.454 -24.481  1.00  0.00     0.209 HD
ENDBRANCH  36  37
ENDBRANCH  32  36
ENDBRANCH  29  32
ENDBRANCH  28  29
ENDBRANCH  27  28
ENDBRANCH  25  27
ENDBRANCH   1  25
TORSDOF 9
ENDMDL
