MODEL 1
REMARK minimizedAffinity -9.07597923
REMARK CNNscore 0.603653491
REMARK CNNaffinity 6.99629927
REMARK  13 active torsions:
REMARK  status: ('A' for Active; 'I' for Inactive)
REMARK    1  A    between atoms: O1_2  and  C2_3 
REMARK    2  A    between atoms: C2_3  and  C3_4 
REMARK    3  A    between atoms: C3_4  and  C4_5 
REMARK    4  A    between atoms: C4_5  and  O2_6 
REMARK    5  A    between atoms: O2_6  and  C5_7 
REMARK    6  A    between atoms: C18_21  and  C19_22 
REMARK    7  A    between atoms: C25_28  and  C26_29 
REMARK    8  A    between atoms: C26_29  and  O4_31 
REMARK    9  A    between atoms: C26_29  and  C28_32 
REMARK   10  A    between atoms: C28_32  and  O5_33 
REMARK   11  A    between atoms: C28_32  and  C29_34 
REMARK   12  A    between atoms: C34_41  and  O7_42 
REMARK   13  A    between atoms: C39_47  and  O8_48 
ROOT
HETATM    1  C5  UNL     1     -11.025  46.044 -24.231  1.00  0.00     0.122 C 
HETATM    2  C6  UNL     1     -10.821  46.622 -22.824  1.00  0.00     0.033 C 
HETATM    3  C7  UNL     1      -9.755  45.883 -22.018  1.00  0.00     0.013 C 
HETATM    4  C8  UNL     1      -8.369  45.690 -22.736  1.00  0.00    -0.026 C 
HETATM    5  C9  UNL     1      -8.051  44.173 -22.657  1.00  0.00     0.016 C 
HETATM    6  C10 UNL     1      -8.462  46.116 -24.227  1.00  0.00     0.071 C 
HETATM    7  C11 UNL     1      -9.727  45.538 -24.882  1.00  0.00     0.045 C 
HETATM    8  C12 UNL     1      -8.445  47.628 -24.436  1.00  0.00     0.154 C 
HETATM    9  O3  UNL     1      -8.943  48.169 -25.423  1.00  0.00    -0.293 OA
HETATM   10  C13 UNL     1      -7.769  48.490 -23.447  1.00  0.00     0.057 C 
HETATM   11  C14 UNL     1      -7.189  47.975 -22.356  1.00  0.00    -0.037 C 
HETATM   12  C15 UNL     1      -7.254  46.498 -21.969  1.00  0.00     0.026 C 
HETATM   13  C16 UNL     1      -5.814  45.919 -22.000  1.00  0.00     0.011 C 
HETATM   14  C17 UNL     1      -4.781  46.774 -21.207  1.00  0.00     0.014 C 
HETATM   15  C18 UNL     1      -4.758  48.270 -21.659  1.00  0.00     0.005 C 
HETATM   16  C25 UNL     1      -4.095  49.252 -20.622  1.00  0.00     0.034 C 
HETATM   17  C37 UNL     1      -4.809  50.613 -20.880  1.00  0.00     0.012 C 
HETATM   18  C38 UNL     1      -6.196  50.298 -21.470  1.00  0.00     0.044 C 
HETATM   19  C39 UNL     1      -6.270  48.769 -21.463  1.00  0.00     0.090 C 
ENDROOT
BRANCH  16  20
HETATM   20  C26 UNL     1      -2.588  49.382 -20.193  1.00  0.00     0.087 C 
HETATM   21  C27 UNL     1      -1.711  48.345 -20.910  1.00  0.00     0.049 C 
BRANCH  20  22
HETATM   22  O4  UNL     1      -2.596  48.982 -18.792  1.00  0.00    -0.387 OA
HETATM   23  H42 UNL     1      -2.830  48.037 -18.751  1.00  0.00     0.210 HD
ENDBRANCH  20  22
BRANCH  20  24
HETATM   24  C28 UNL     1      -1.967  50.819 -20.212  1.00  0.00     0.181 C 
BRANCH  24  25
HETATM   25  O5  UNL     1      -2.822  51.751 -20.873  1.00  0.00    -0.390 OA
HETATM   26  H44 UNL     1      -2.641  51.629 -21.826  1.00  0.00     0.210 HD
ENDBRANCH  24  25
BRANCH  24  27
HETATM   27  C29 UNL     1      -0.572  50.933 -20.883  1.00  0.00     0.158 C 
HETATM   28  O6  UNL     1      -0.764  51.282 -22.301  1.00  0.00    -0.373 OA
HETATM   29  C30 UNL     1       0.320  52.160 -22.630  1.00  0.00     0.185 C 
HETATM   30  C31 UNL     1       0.404  53.057 -21.417  1.00  0.00     0.027 C 
HETATM   31  C34 UNL     1       0.127  53.012 -23.890  1.00  0.00     0.383 C 
HETATM   32  C32 UNL     1       1.588  53.998 -21.563  1.00  0.00     0.038 C 
HETATM   33  C35 UNL     1       0.398  52.018 -20.312  1.00  0.00     0.020 C 
HETATM   34  C33 UNL     1       1.454  54.788 -22.880  1.00  0.00     0.273 C 
HETATM   35  N1  UNL     1       1.262  53.915 -24.042  1.00  0.00     0.114 N 
HETATM   36  H52 UNL     1       1.119  54.460 -24.890  1.00  0.00     0.319 HD
HETATM   37  C36 UNL     1       0.089  52.593 -18.939  1.00  0.00     0.013 C 
BRANCH  31  38
HETATM   38  O7  UNL     1       0.055  52.183 -25.035  1.00  0.00    -0.366 OA
HETATM   39  H54 UNL     1      -0.566  51.469 -24.798  1.00  0.00     0.212 HD
ENDBRANCH  31  38
ENDBRANCH  24  27
ENDBRANCH  20  24
ENDBRANCH  16  20
BRANCH  15  40
HETATM   40  C19 UNL     1      -4.260  48.332 -23.195  1.00  0.00    -0.002 C 
HETATM   41  C20 UNL     1      -2.874  49.014 -23.399  1.00  0.00     0.005 C 
HETATM   42  C21 UNL     1      -2.575  49.453 -24.837  1.00  0.00     0.000 C 
HETATM   43  C22 UNL     1      -3.202  48.509 -25.847  1.00  0.00     0.000 C 
HETATM   44  C23 UNL     1      -4.719  48.461 -25.699  1.00  0.00     0.000 C 
HETATM   45  C24 UNL     1      -5.225  48.810 -24.291  1.00  0.00     0.005 C 
ENDBRANCH  15  40
BRANCH  19  46
HETATM   46  O8  UNL     1      -6.728  48.479 -20.119  1.00  0.00    -0.384 OA
HETATM   47  H63 UNL     1      -7.665  48.734 -20.072  1.00  0.00     0.211 HD
ENDBRANCH  19  46
BRANCH   1  48
HETATM   48  O2  UNL     1     -11.926  44.932 -24.170  1.00  0.00    -0.386 OA
BRANCH  48  49
HETATM   49  C4  UNL     1     -12.805  44.843 -25.299  1.00  0.00     0.170 C 
BRANCH  49  50
HETATM   50  C3  UNL     1     -13.941  45.855 -25.158  1.00  0.00     0.052 C 
BRANCH  50  51
HETATM   51  C2  UNL     1     -14.219  46.586 -26.465  1.00  0.00     0.169 C 
BRANCH  51  52
HETATM   52  O1  UNL     1     -15.103  45.856 -27.315  1.00  0.00    -0.396 OA
HETATM   53  C1  UNL     1     -14.569  45.633 -28.616  1.00  0.00     0.201 C 
ENDBRANCH  51  52
ENDBRANCH  50  51
ENDBRANCH  49  50
ENDBRANCH  48  49
ENDBRANCH   1  48
TORSDOF 13
ENDMDL
MODEL 2
REMARK minimizedAffinity -9.2148037
REMARK CNNscore 0.517564178
REMARK CNNaffinity 7.36093521
REMARK  13 active torsions:
REMARK  status: ('A' for Active; 'I' for Inactive)
REMARK    1  A    between atoms: O1_2  and  C2_3 
REMARK    2  A    between atoms: C2_3  and  C3_4 
REMARK    3  A    between atoms: C3_4  and  C4_5 
REMARK    4  A    between atoms: C4_5  and  O2_6 
REMARK    5  A    between atoms: O2_6  and  C5_7 
REMARK    6  A    between atoms: C18_21  and  C19_22 
REMARK    7  A    between atoms: C25_28  and  C26_29 
REMARK    8  A    between atoms: C26_29  and  O4_31 
REMARK    9  A    between atoms: C26_29  and  C28_32 
REMARK   10  A    between atoms: C28_32  and  O5_33 
REMARK   11  A    between atoms: C28_32  and  C29_34 
REMARK   12  A    between atoms: C34_41  and  O7_42 
REMARK   13  A    between atoms: C39_47  and  O8_48 
ROOT
HETATM    1  C5  UNL     1      -1.404  52.214 -23.591  1.00  0.00     0.122 C 
HETATM    2  C6  UNL     1      -2.880  52.626 -23.677  1.00  0.00     0.033 C 
HETATM    3  C7  UNL     1      -3.712  51.699 -24.560  1.00  0.00     0.013 C 
HETATM    4  C8  UNL     1      -3.591  50.164 -24.244  1.00  0.00    -0.026 C 
HETATM    5  C9  UNL     1      -3.229  49.475 -25.588  1.00  0.00     0.016 C 
HETATM    6  C10 UNL     1      -2.454  49.905 -23.217  1.00  0.00     0.071 C 
HETATM    7  C11 UNL     1      -1.188  50.692 -23.594  1.00  0.00     0.045 C 
HETATM    8  C12 UNL     1      -2.837  50.247 -21.779  1.00  0.00     0.154 C 
HETATM    9  O3  UNL     1      -2.006  50.546 -20.922  1.00  0.00    -0.293 OA
HETATM   10  C13 UNL     1      -4.253  50.180 -21.370  1.00  0.00     0.057 C 
HETATM   11  C14 UNL     1      -5.214  49.846 -22.240  1.00  0.00    -0.037 C 
HETATM   12  C15 UNL     1      -4.975  49.612 -23.731  1.00  0.00     0.026 C 
HETATM   13  C16 UNL     1      -5.311  48.132 -24.055  1.00  0.00     0.011 C 
HETATM   14  C17 UNL     1      -6.702  47.677 -23.522  1.00  0.00     0.014 C 
HETATM   15  C18 UNL     1      -6.877  47.934 -21.990  1.00  0.00     0.005 C 
HETATM   16  C25 UNL     1      -8.373  47.926 -21.496  1.00  0.00     0.034 C 
HETATM   17  C37 UNL     1      -8.368  48.876 -20.261  1.00  0.00     0.012 C 
HETATM   18  C38 UNL     1      -7.203  49.866 -20.449  1.00  0.00     0.044 C 
HETATM   19  C39 UNL     1      -6.622  49.508 -21.818  1.00  0.00     0.090 C 
ENDROOT
BRANCH  16  20
HETATM   20  C26 UNL     1      -9.381  46.725 -21.388  1.00  0.00     0.087 C 
HETATM   21  C27 UNL     1     -10.636  47.116 -20.594  1.00  0.00     0.049 C 
BRANCH  20  22
HETATM   22  O4  UNL     1      -8.676  45.762 -20.552  1.00  0.00    -0.387 OA
HETATM   23  H42 UNL     1      -8.587  46.147 -19.661  1.00  0.00     0.210 HD
ENDBRANCH  20  22
BRANCH  20  24
HETATM   24  C28 UNL     1      -9.715  45.959 -22.713  1.00  0.00     0.181 C 
BRANCH  24  25
HETATM   25  O5  UNL     1      -8.532  45.625 -23.438  1.00  0.00    -0.390 OA
HETATM   26  H44 UNL     1      -8.300  46.437 -23.931  1.00  0.00     0.210 HD
ENDBRANCH  24  25
BRANCH  24  27
HETATM   27  C29 UNL     1     -10.650  46.710 -23.697  1.00  0.00     0.158 C 
HETATM   28  O6  UNL     1      -9.892  47.813 -24.311  1.00  0.00    -0.373 OA
HETATM   29  C30 UNL     1     -10.362  47.897 -25.663  1.00  0.00     0.185 C 
HETATM   30  C31 UNL     1     -10.461  46.447 -26.073  1.00  0.00     0.027 C 
HETATM   31  C34 UNL     1      -9.450  48.649 -26.639  1.00  0.00     0.383 C 
HETATM   32  C32 UNL     1     -11.049  46.352 -27.470  1.00  0.00     0.038 C 
HETATM   33  C35 UNL     1     -11.228  45.884 -24.892  1.00  0.00     0.020 C 
HETATM   34  C33 UNL     1     -10.194  47.190 -28.443  1.00  0.00     0.273 C 
HETATM   35  N1  UNL     1     -10.010  48.570 -27.983  1.00  0.00     0.114 N 
HETATM   36  H52 UNL     1      -9.397  49.086 -28.611  1.00  0.00     0.319 HD
HETATM   37  C36 UNL     1     -11.170  44.367 -24.797  1.00  0.00     0.013 C 
BRANCH  31  38
HETATM   38  O7  UNL     1      -9.357  50.012 -26.270  1.00  0.00    -0.366 OA
HETATM   39  H54 UNL     1      -9.187  50.009 -25.309  1.00  0.00     0.212 HD
ENDBRANCH  31  38
ENDBRANCH  24  27
ENDBRANCH  20  24
ENDBRANCH  16  20
BRANCH  15  40
HETATM   40  C19 UNL     1      -5.806  47.024 -21.194  1.00  0.00    -0.002 C 
HETATM   41  C20 UNL     1      -5.770  45.530 -21.638  1.00  0.00     0.005 C 
HETATM   42  C21 UNL     1      -5.089  44.578 -20.647  1.00  0.00     0.000 C 
HETATM   43  C22 UNL     1      -3.950  45.263 -19.913  1.00  0.00     0.000 C 
HETATM   44  C23 UNL     1      -4.444  46.463 -19.113  1.00  0.00     0.000 C 
HETATM   45  C24 UNL     1      -5.732  47.098 -19.661  1.00  0.00     0.005 C 
ENDBRANCH  15  40
BRANCH  19  46
HETATM   46  O8  UNL     1      -7.464  50.259 -22.728  1.00  0.00    -0.384 OA
HETATM   47  H63 UNL     1      -7.223  51.196 -22.636  1.00  0.00     0.211 HD
ENDBRANCH  19  46
BRANCH   1  48
HETATM   48  O2  UNL     1      -0.689  52.741 -24.716  1.00  0.00    -0.386 OA
BRANCH  48  49
HETATM   49  C4  UNL     1       0.343  53.669 -24.357  1.00  0.00     0.170 C 
BRANCH  49  50
HETATM   50  C3  UNL     1       0.780  53.432 -22.913  1.00  0.00     0.052 C 
BRANCH  50  51
HETATM   51  C2  UNL     1       1.574  54.608 -22.357  1.00  0.00     0.169 C 
BRANCH  51  52
HETATM   52  O1  UNL     1       1.718  54.539 -20.939  1.00  0.00    -0.396 OA
HETATM   53  C1  UNL     1       1.037  53.431 -20.361  1.00  0.00     0.201 C 
ENDBRANCH  51  52
ENDBRANCH  50  51
ENDBRANCH  49  50
ENDBRANCH  48  49
ENDBRANCH   1  48
TORSDOF 13
ENDMDL
MODEL 3
REMARK minimizedAffinity -7.88805866
REMARK CNNscore 0.516333699
REMARK CNNaffinity 7.17349768
REMARK  13 active torsions:
REMARK  status: ('A' for Active; 'I' for Inactive)
REMARK    1  A    between atoms: O1_2  and  C2_3 
REMARK    2  A    between atoms: C2_3  and  C3_4 
REMARK    3  A    between atoms: C3_4  and  C4_5 
REMARK    4  A    between atoms: C4_5  and  O2_6 
REMARK    5  A    between atoms: O2_6  and  C5_7 
REMARK    6  A    between atoms: C18_21  and  C19_22 
REMARK    7  A    between atoms: C25_28  and  C26_29 
REMARK    8  A    between atoms: C26_29  and  O4_31 
REMARK    9  A    between atoms: C26_29  and  C28_32 
REMARK   10  A    between atoms: C28_32  and  O5_33 
REMARK   11  A    between atoms: C28_32  and  C29_34 
REMARK   12  A    between atoms: C34_41  and  O7_42 
REMARK   13  A    between atoms: C39_47  and  O8_48 
ROOT
HETATM    1  C5  UNL     1      -8.703  44.279 -19.376  1.00  0.00     0.122 C 
HETATM    2  C6  UNL     1      -8.019  45.202 -18.359  1.00  0.00     0.033 C 
HETATM    3  C7  UNL     1      -6.497  45.064 -18.349  1.00  0.00     0.013 C 
HETATM    4  C8  UNL     1      -5.793  45.178 -19.749  1.00  0.00    -0.026 C 
HETATM    5  C9  UNL     1      -4.904  43.912 -19.888  1.00  0.00     0.016 C 
HETATM    6  C10 UNL     1      -6.846  45.190 -20.892  1.00  0.00     0.071 C 
HETATM    7  C11 UNL     1      -7.900  44.092 -20.674  1.00  0.00     0.045 C 
HETATM    8  C12 UNL     1      -7.557  46.530 -21.057  1.00  0.00     0.154 C 
HETATM    9  O3  UNL     1      -8.679  46.632 -21.552  1.00  0.00    -0.293 OA
HETATM   10  C13 UNL     1      -6.868  47.771 -20.654  1.00  0.00     0.057 C 
HETATM   11  C14 UNL     1      -5.639  47.745 -20.124  1.00  0.00    -0.037 C 
HETATM   12  C15 UNL     1      -4.880  46.462 -19.786  1.00  0.00     0.026 C 
HETATM   13  C16 UNL     1      -3.606  46.400 -20.671  1.00  0.00     0.011 C 
HETATM   14  C17 UNL     1      -2.759  47.706 -20.636  1.00  0.00     0.014 C 
HETATM   15  C18 UNL     1      -3.592  48.978 -21.002  1.00  0.00     0.005 C 
HETATM   16  C25 UNL     1      -2.934  50.336 -20.551  1.00  0.00     0.034 C 
HETATM   17  C37 UNL     1      -4.149  51.286 -20.323  1.00  0.00     0.012 C 
HETATM   18  C38 UNL     1      -5.363  50.403 -19.979  1.00  0.00     0.044 C 
HETATM   19  C39 UNL     1      -4.797  48.982 -19.943  1.00  0.00     0.090 C 
ENDROOT
BRANCH  16  20
HETATM   20  C26 UNL     1      -1.645  51.051 -21.098  1.00  0.00     0.087 C 
HETATM   21  C27 UNL     1      -0.474  50.067 -21.232  1.00  0.00     0.049 C 
BRANCH  20  22
HETATM   22  O4  UNL     1      -1.272  51.956 -20.019  1.00  0.00    -0.387 OA
HETATM   23  H42 UNL     1      -1.002  51.415 -19.254  1.00  0.00     0.210 HD
ENDBRANCH  20  22
BRANCH  20  24
HETATM   24  C28 UNL     1      -1.822  51.960 -22.361  1.00  0.00     0.181 C 
BRANCH  24  25
HETATM   25  O5  UNL     1      -3.200  52.166 -22.670  1.00  0.00    -0.390 OA
HETATM   26  H44 UNL     1      -3.468  51.370 -23.170  1.00  0.00     0.210 HD
ENDBRANCH  24  25
BRANCH  24  27
HETATM   27  C29 UNL     1      -1.141  51.440 -23.655  1.00  0.00     0.158 C 
HETATM   28  O6  UNL     1      -2.131  51.469 -24.745  1.00  0.00    -0.373 OA
HETATM   29  C30 UNL     1      -1.397  51.832 -25.921  1.00  0.00     0.185 C 
HETATM   30  C31 UNL     1      -0.481  52.924 -25.420  1.00  0.00     0.027 C 
HETATM   31  C34 UNL     1      -2.234  52.359 -27.093  1.00  0.00     0.383 C 
HETATM   32  C32 UNL     1       0.452  53.358 -26.537  1.00  0.00     0.038 C 
HETATM   33  C35 UNL     1       0.085  52.253 -24.182  1.00  0.00     0.020 C 
HETATM   34  C33 UNL     1      -0.382  53.795 -27.759  1.00  0.00     0.273 C 
HETATM   35  N1  UNL     1      -1.348  52.773 -28.174  1.00  0.00     0.114 N 
HETATM   36  H52 UNL     1      -1.925  53.105 -28.944  1.00  0.00     0.319 HD
HETATM   37  C36 UNL     1       0.760  53.220 -23.222  1.00  0.00     0.013 C 
BRANCH  31  38
HETATM   38  O7  UNL     1      -3.091  51.342 -27.577  1.00  0.00    -0.366 OA
HETATM   39  H54 UNL     1      -3.505  50.953 -26.784  1.00  0.00     0.212 HD
ENDBRANCH  31  38
ENDBRANCH  24  27
ENDBRANCH  20  24
ENDBRANCH  16  20
BRANCH  15  40
HETATM   40  C19 UNL     1      -4.088  48.841 -22.533  1.00  0.00    -0.002 C 
HETATM   41  C20 UNL     1      -5.518  48.243 -22.698  1.00  0.00     0.005 C 
HETATM   42  C21 UNL     1      -5.842  47.723 -24.104  1.00  0.00     0.000 C 
HETATM   43  C22 UNL     1      -5.149  48.547 -25.174  1.00  0.00     0.000 C 
HETATM   44  C23 UNL     1      -3.633  48.502 -25.018  1.00  0.00     0.000 C 
HETATM   45  C24 UNL     1      -3.155  48.221 -23.584  1.00  0.00     0.005 C 
ENDBRANCH  15  40
BRANCH  19  46
HETATM   46  O8  UNL     1      -4.283  48.878 -18.591  1.00  0.00    -0.384 OA
HETATM   47  H63 UNL     1      -5.049  48.814 -17.996  1.00  0.00     0.211 HD
ENDBRANCH  19  46
BRANCH   1  48
HETATM   48  O2  UNL     1      -8.883  42.978 -18.803  1.00  0.00    -0.386 OA
BRANCH  48  49
HETATM   49  C4  UNL     1     -10.241  42.693 -18.443  1.00  0.00     0.170 C 
BRANCH  49  50
HETATM   50  C3  UNL     1     -10.392  42.696 -16.924  1.00  0.00     0.052 C 
BRANCH  50  51
HETATM   51  C2  UNL     1     -11.031  43.982 -16.416  1.00  0.00     0.169 C 
BRANCH  51  52
HETATM   52  O1  UNL     1     -12.444  43.858 -16.258  1.00  0.00    -0.396 OA
HETATM   53  C1  UNL     1     -12.891  44.199 -14.949  1.00  0.00     0.201 C 
ENDBRANCH  51  52
ENDBRANCH  50  51
ENDBRANCH  49  50
ENDBRANCH  48  49
ENDBRANCH   1  48
TORSDOF 13
ENDMDL
MODEL 4
REMARK minimizedAffinity -8.08300495
REMARK CNNscore 0.473632038
REMARK CNNaffinity 6.63946772
REMARK  13 active torsions:
REMARK  status: ('A' for Active; 'I' for Inactive)
REMARK    1  A    between atoms: O1_2  and  C2_3 
REMARK    2  A    between atoms: C2_3  and  C3_4 
REMARK    3  A    between atoms: C3_4  and  C4_5 
REMARK    4  A    between atoms: C4_5  and  O2_6 
REMARK    5  A    between atoms: O2_6  and  C5_7 
REMARK    6  A    between atoms: C18_21  and  C19_22 
REMARK    7  A    between atoms: C25_28  and  C26_29 
REMARK    8  A    between atoms: C26_29  and  O4_31 
REMARK    9  A    between atoms: C26_29  and  C28_32 
REMARK   10  A    between atoms: C28_32  and  O5_33 
REMARK   11  A    between atoms: C28_32  and  C29_34 
REMARK   12  A    between atoms: C34_41  and  O7_42 
REMARK   13  A    between atoms: C39_47  and  O8_48 
ROOT
HETATM    1  C5  UNL     1     -17.758  46.040 -24.313  1.00  0.00     0.122 C 
HETATM    2  C6  UNL     1     -16.939  47.324 -24.503  1.00  0.00     0.033 C 
HETATM    3  C7  UNL     1     -15.577  47.276 -23.813  1.00  0.00     0.013 C 
HETATM    4  C8  UNL     1     -14.696  46.014 -24.131  1.00  0.00    -0.026 C 
HETATM    5  C9  UNL     1     -14.292  45.413 -22.757  1.00  0.00     0.016 C 
HETATM    6  C10 UNL     1     -15.515  44.961 -24.928  1.00  0.00     0.071 C 
HETATM    7  C11 UNL     1     -16.904  44.762 -24.299  1.00  0.00     0.045 C 
HETATM    8  C12 UNL     1     -15.687  45.306 -26.405  1.00  0.00     0.154 C 
HETATM    9  O3  UNL     1     -16.626  44.889 -27.081  1.00  0.00    -0.293 OA
HETATM   10  C13 UNL     1     -14.670  46.137 -27.078  1.00  0.00     0.057 C 
HETATM   11  C14 UNL     1     -13.610  46.615 -26.415  1.00  0.00    -0.037 C 
HETATM   12  C15 UNL     1     -13.397  46.451 -24.910  1.00  0.00     0.026 C 
HETATM   13  C16 UNL     1     -12.117  45.601 -24.686  1.00  0.00     0.011 C 
HETATM   14  C17 UNL     1     -10.882  46.112 -25.484  1.00  0.00     0.014 C 
HETATM   15  C18 UNL     1     -11.163  46.247 -27.017  1.00  0.00     0.005 C 
HETATM   16  C25 UNL     1     -10.141  47.165 -27.787  1.00  0.00     0.034 C 
HETATM   17  C37 UNL     1     -10.969  47.732 -28.979  1.00  0.00     0.012 C 
HETATM   18  C38 UNL     1     -12.448  47.731 -28.553  1.00  0.00     0.044 C 
HETATM   19  C39 UNL     1     -12.422  47.237 -27.105  1.00  0.00     0.090 C 
ENDROOT
BRANCH  16  20
HETATM   20  C26 UNL     1      -8.623  46.915 -28.110  1.00  0.00     0.087 C 
HETATM   21  C27 UNL     1      -7.968  46.011 -27.057  1.00  0.00     0.049 C 
BRANCH  20  22
HETATM   22  O4  UNL     1      -8.016  48.228 -27.929  1.00  0.00    -0.387 OA
HETATM   23  H42 UNL     1      -8.077  48.458 -26.984  1.00  0.00     0.210 HD
ENDBRANCH  20  22
BRANCH  20  24
HETATM   24  C28 UNL     1      -8.272  46.493 -29.577  1.00  0.00     0.181 C 
BRANCH  24  25
HETATM   25  O5  UNL     1      -7.089  45.697 -29.625  1.00  0.00    -0.390 OA
HETATM   26  H44 UNL     1      -6.352  46.339 -29.602  1.00  0.00     0.210 HD
ENDBRANCH  24  25
BRANCH  24  27
HETATM   27  C29 UNL     1      -8.069  47.664 -30.575  1.00  0.00     0.158 C 
HETATM   28  O6  UNL     1      -6.665  47.661 -31.017  1.00  0.00    -0.373 OA
HETATM   29  C30 UNL     1      -6.694  48.058 -32.394  1.00  0.00     0.185 C 
HETATM   30  C31 UNL     1      -7.879  47.294 -32.937  1.00  0.00     0.027 C 
HETATM   31  C34 UNL     1      -5.443  47.718 -33.212  1.00  0.00     0.383 C 
HETATM   32  C32 UNL     1      -8.116  47.684 -34.386  1.00  0.00     0.038 C 
HETATM   33  C35 UNL     1      -8.921  47.629 -31.886  1.00  0.00     0.020 C 
HETATM   34  C33 UNL     1      -6.827  47.441 -35.198  1.00  0.00     0.273 C 
HETATM   35  N1  UNL     1      -5.657  48.095 -34.604  1.00  0.00     0.114 N 
HETATM   36  H52 UNL     1      -4.810  47.873 -35.124  1.00  0.00     0.319 HD
HETATM   37  C36 UNL     1     -10.134  46.713 -31.918  1.00  0.00     0.013 C 
BRANCH  31  38
HETATM   38  O7  UNL     1      -4.327  48.435 -32.718  1.00  0.00    -0.366 OA
HETATM   39  H54 UNL     1      -4.354  48.320 -31.750  1.00  0.00     0.212 HD
ENDBRANCH  31  38
ENDBRANCH  24  27
ENDBRANCH  20  24
ENDBRANCH  16  20
BRANCH  15  40
HETATM   40  C19 UNL     1     -11.466  44.776 -27.611  1.00  0.00    -0.002 C 
HETATM   41  C20 UNL     1     -10.746  43.614 -26.861  1.00  0.00     0.005 C 
HETATM   42  C21 UNL     1     -10.677  42.291 -27.633  1.00  0.00     0.000 C 
HETATM   43  C22 UNL     1     -11.904  42.093 -28.506  1.00  0.00     0.000 C 
HETATM   44  C23 UNL     1     -12.040  43.208 -29.538  1.00  0.00     0.000 C 
HETATM   45  C24 UNL     1     -11.377  44.532 -29.125  1.00  0.00     0.005 C 
ENDBRANCH  15  40
BRANCH  19  46
HETATM   46  O8  UNL     1     -12.164  48.452 -26.358  1.00  0.00    -0.384 OA
HETATM   47  H63 UNL     1     -12.976  48.984 -26.383  1.00  0.00     0.211 HD
ENDBRANCH  19  46
BRANCH   1  48
HETATM   48  O2  UNL     1     -18.455  46.093 -23.062  1.00  0.00    -0.386 OA
BRANCH  48  49
HETATM   49  C4  UNL     1     -18.436  44.853 -22.342  1.00  0.00     0.170 C 
BRANCH  49  50
HETATM   50  C3  UNL     1     -19.007  45.053 -20.940  1.00  0.00     0.052 C 
BRANCH  50  51
HETATM   51  C2  UNL     1     -18.706  46.444 -20.395  1.00  0.00     0.169 C 
BRANCH  51  52
HETATM   52  O1  UNL     1     -17.979  46.398 -19.168  1.00  0.00    -0.396 OA
HETATM   53  C1  UNL     1     -16.785  47.173 -19.197  1.00  0.00     0.201 C 
ENDBRANCH  51  52
ENDBRANCH  50  51
ENDBRANCH  49  50
ENDBRANCH  48  49
ENDBRANCH   1  48
TORSDOF 13
ENDMDL
MODEL 5
REMARK minimizedAffinity -8.15535927
REMARK CNNscore 0.439188898
REMARK CNNaffinity 6.22428703
REMARK  13 active torsions:
REMARK  status: ('A' for Active; 'I' for Inactive)
REMARK    1  A    between atoms: O1_2  and  C2_3 
REMARK    2  A    between atoms: C2_3  and  C3_4 
REMARK    3  A    between atoms: C3_4  and  C4_5 
REMARK    4  A    between atoms: C4_5  and  O2_6 
REMARK    5  A    between atoms: O2_6  and  C5_7 
REMARK    6  A    between atoms: C18_21  and  C19_22 
REMARK    7  A    between atoms: C25_28  and  C26_29 
REMARK    8  A    between atoms: C26_29  and  O4_31 
REMARK    9  A    between atoms: C26_29  and  C28_32 
REMARK   10  A    between atoms: C28_32  and  O5_33 
REMARK   11  A    between atoms: C28_32  and  C29_34 
REMARK   12  A    between atoms: C34_41  and  O7_42 
REMARK   13  A    between atoms: C39_47  and  O8_48 
ROOT
HETATM    1  C5  UNL     1     -16.840  45.471 -23.619  1.00  0.00     0.122 C 
HETATM    2  C6  UNL     1     -16.528  46.831 -24.258  1.00  0.00     0.033 C 
HETATM    3  C7  UNL     1     -15.135  47.353 -23.913  1.00  0.00     0.013 C 
HETATM    4  C8  UNL     1     -13.950  46.349 -24.158  1.00  0.00    -0.026 C 
HETATM    5  C9  UNL     1     -13.161  46.280 -22.823  1.00  0.00     0.016 C 
HETATM    6  C10 UNL     1     -14.494  44.935 -24.504  1.00  0.00     0.071 C 
HETATM    7  C11 UNL     1     -15.623  44.535 -23.541  1.00  0.00     0.045 C 
HETATM    8  C12 UNL     1     -15.001  44.806 -25.938  1.00  0.00     0.154 C 
HETATM    9  O3  UNL     1     -15.845  43.977 -26.274  1.00  0.00    -0.293 OA
HETATM   10  C13 UNL     1     -14.433  45.673 -26.989  1.00  0.00     0.057 C 
HETATM   11  C14 UNL     1     -13.498  46.588 -26.706  1.00  0.00    -0.037 C 
HETATM   12  C15 UNL     1     -13.007  46.903 -25.294  1.00  0.00     0.026 C 
HETATM   13  C16 UNL     1     -11.502  46.537 -25.204  1.00  0.00     0.011 C 
HETATM   14  C17 UNL     1     -10.645  47.137 -26.358  1.00  0.00     0.014 C 
HETATM   15  C18 UNL     1     -11.193  46.768 -27.775  1.00  0.00     0.005 C 
HETATM   16  C25 UNL     1     -10.664  47.691 -28.937  1.00  0.00     0.034 C 
HETATM   17  C37 UNL     1     -11.809  47.661 -29.993  1.00  0.00     0.012 C 
HETATM   18  C38 UNL     1     -13.120  47.362 -29.241  1.00  0.00     0.044 C 
HETATM   19  C39 UNL     1     -12.705  47.305 -27.769  1.00  0.00     0.090 C 
ENDROOT
BRANCH  16  20
HETATM   20  C26 UNL     1      -9.220  47.796 -29.548  1.00  0.00     0.087 C 
HETATM   21  C27 UNL     1      -8.854  49.252 -29.872  1.00  0.00     0.049 C 
BRANCH  20  22
HETATM   22  O4  UNL     1      -9.345  47.129 -30.837  1.00  0.00    -0.387 OA
HETATM   23  H42 UNL     1      -9.936  47.666 -31.395  1.00  0.00     0.210 HD
ENDBRANCH  20  22
BRANCH  20  24
HETATM   24  C28 UNL     1      -8.076  47.036 -28.795  1.00  0.00     0.181 C 
BRANCH  24  25
HETATM   25  O5  UNL     1      -7.399  47.886 -27.871  1.00  0.00    -0.390 OA
HETATM   26  H44 UNL     1      -6.753  48.383 -28.411  1.00  0.00     0.210 HD
ENDBRANCH  24  25
BRANCH  24  27
HETATM   27  C29 UNL     1      -6.989  46.402 -29.704  1.00  0.00     0.158 C 
HETATM   28  O6  UNL     1      -7.551  46.234 -31.055  1.00  0.00    -0.373 OA
HETATM   29  C30 UNL     1      -6.467  46.493 -31.957  1.00  0.00     0.185 C 
HETATM   30  C31 UNL     1      -5.793  47.693 -31.333  1.00  0.00     0.027 C 
HETATM   31  C34 UNL     1      -6.867  46.818 -33.401  1.00  0.00     0.383 C 
HETATM   32  C32 UNL     1      -4.543  48.042 -32.124  1.00  0.00     0.038 C 
HETATM   33  C35 UNL     1      -5.669  47.217 -29.898  1.00  0.00     0.020 C 
HETATM   34  C33 UNL     1      -4.921  48.271 -33.602  1.00  0.00     0.273 C 
HETATM   35  N1  UNL     1      -5.673  47.148 -34.170  1.00  0.00     0.114 N 
HETATM   36  H52 UNL     1      -5.960  47.346 -35.127  1.00  0.00     0.319 HD
HETATM   37  C36 UNL     1      -5.375  48.336 -28.910  1.00  0.00     0.013 C 
BRANCH  31  38
HETATM   38  O7  UNL     1      -7.492  45.698 -33.999  1.00  0.00    -0.366 OA
HETATM   39  H54 UNL     1      -8.144  45.386 -33.344  1.00  0.00     0.212 HD
ENDBRANCH  31  38
ENDBRANCH  24  27
ENDBRANCH  20  24
ENDBRANCH  16  20
BRANCH  15  40
HETATM   40  C19 UNL     1     -11.086  45.167 -27.963  1.00  0.00    -0.002 C 
HETATM   41  C20 UNL     1     -12.121  44.562 -28.959  1.00  0.00     0.005 C 
HETATM   42  C21 UNL     1     -12.319  43.046 -28.844  1.00  0.00     0.000 C 
HETATM   43  C22 UNL     1     -11.032  42.347 -28.444  1.00  0.00     0.000 C 
HETATM   44  C23 UNL     1     -10.528  42.837 -27.091  1.00  0.00     0.000 C 
HETATM   45  C24 UNL     1     -10.983  44.260 -26.728  1.00  0.00     0.005 C 
ENDBRANCH  15  40
BRANCH  19  46
HETATM   46  O8  UNL     1     -12.744  48.699 -27.373  1.00  0.00    -0.384 OA
HETATM   47  H63 UNL     1     -13.679  48.957 -27.317  1.00  0.00     0.211 HD
ENDBRANCH  19  46
BRANCH   1  48
HETATM   48  O2  UNL     1     -17.309  45.664 -22.278  1.00  0.00    -0.386 OA
BRANCH  48  49
HETATM   49  C4  UNL     1     -18.510  46.442 -22.197  1.00  0.00     0.170 C 
BRANCH  49  50
HETATM   50  C3  UNL     1     -18.832  46.755 -20.738  1.00  0.00     0.052 C 
BRANCH  50  51
HETATM   51  C2  UNL     1     -17.640  46.503 -19.823  1.00  0.00     0.169 C 
BRANCH  51  52
HETATM   52  O1  UNL     1     -17.805  45.327 -19.032  1.00  0.00    -0.396 OA
HETATM   53  C1  UNL     1     -19.167  44.931 -18.899  1.00  0.00     0.201 C 
ENDBRANCH  51  52
ENDBRANCH  50  51
ENDBRANCH  49  50
ENDBRANCH  48  49
ENDBRANCH   1  48
TORSDOF 13
ENDMDL
MODEL 6
REMARK minimizedAffinity -8.32971668
REMARK CNNscore 0.428274751
REMARK CNNaffinity 7.09121466
REMARK  13 active torsions:
REMARK  status: ('A' for Active; 'I' for Inactive)
REMARK    1  A    between atoms: O1_2  and  C2_3 
REMARK    2  A    between atoms: C2_3  and  C3_4 
REMARK    3  A    between atoms: C3_4  and  C4_5 
REMARK    4  A    between atoms: C4_5  and  O2_6 
REMARK    5  A    between atoms: O2_6  and  C5_7 
REMARK    6  A    between atoms: C18_21  and  C19_22 
REMARK    7  A    between atoms: C25_28  and  C26_29 
REMARK    8  A    between atoms: C26_29  and  O4_31 
REMARK    9  A    between atoms: C26_29  and  C28_32 
REMARK   10  A    between atoms: C28_32  and  O5_33 
REMARK   11  A    between atoms: C28_32  and  C29_34 
REMARK   12  A    between atoms: C34_41  and  O7_42 
REMARK   13  A    between atoms: C39_47  and  O8_48 
ROOT
HETATM    1  C5  UNL     1      -9.434  44.520 -20.736  1.00  0.00     0.122 C 
HETATM    2  C6  UNL     1      -8.871  45.379 -19.595  1.00  0.00     0.033 C 
HETATM    3  C7  UNL     1      -7.376  45.165 -19.363  1.00  0.00     0.013 C 
HETATM    4  C8  UNL     1      -6.465  45.283 -20.639  1.00  0.00    -0.026 C 
HETATM    5  C9  UNL     1      -5.623  43.979 -20.688  1.00  0.00     0.016 C 
HETATM    6  C10 UNL     1      -7.332  45.380 -21.924  1.00  0.00     0.071 C 
HETATM    7  C11 UNL     1      -8.455  44.330 -21.905  1.00  0.00     0.045 C 
HETATM    8  C12 UNL     1      -7.949  46.759 -22.146  1.00  0.00     0.154 C 
HETATM    9  O3  UNL     1      -8.978  46.930 -22.798  1.00  0.00    -0.293 OA
HETATM   10  C13 UNL     1      -7.274  47.952 -21.600  1.00  0.00     0.057 C 
HETATM   11  C14 UNL     1      -6.141  47.849 -20.894  1.00  0.00    -0.037 C 
HETATM   12  C15 UNL     1      -5.500  46.521 -20.493  1.00  0.00     0.026 C 
HETATM   13  C16 UNL     1      -4.111  46.421 -21.179  1.00  0.00     0.011 C 
HETATM   14  C17 UNL     1      -3.221  47.682 -20.972  1.00  0.00     0.014 C 
HETATM   15  C18 UNL     1      -3.932  49.004 -21.412  1.00  0.00     0.005 C 
HETATM   16  C25 UNL     1      -3.290  50.315 -20.820  1.00  0.00     0.034 C 
HETATM   17  C37 UNL     1      -4.481  51.316 -20.743  1.00  0.00     0.012 C 
HETATM   18  C38 UNL     1      -5.771  50.486 -20.615  1.00  0.00     0.044 C 
HETATM   19  C39 UNL     1      -5.281  49.038 -20.546  1.00  0.00     0.090 C 
ENDROOT
BRANCH  16  20
HETATM   20  C26 UNL     1      -1.902  50.979 -21.143  1.00  0.00     0.087 C 
HETATM   21  C27 UNL     1      -0.779  49.934 -21.194  1.00  0.00     0.049 C 
BRANCH  20  22
HETATM   22  O4  UNL     1      -1.628  51.789 -19.963  1.00  0.00    -0.387 OA
HETATM   23  H42 UNL     1      -1.493  51.184 -19.210  1.00  0.00     0.210 HD
ENDBRANCH  20  22
BRANCH  20  24
HETATM   24  C28 UNL     1      -1.859  51.976 -22.350  1.00  0.00     0.181 C 
BRANCH  24  25
HETATM   25  O5  UNL     1      -3.168  52.407 -22.722  1.00  0.00    -0.390 OA
HETATM   26  H44 UNL     1      -3.518  51.692 -23.288  1.00  0.00     0.210 HD
ENDBRANCH  24  25
BRANCH  24  27
HETATM   27  C29 UNL     1      -1.180  51.435 -23.636  1.00  0.00     0.158 C 
HETATM   28  O6  UNL     1      -2.165  51.467 -24.731  1.00  0.00    -0.373 OA
HETATM   29  C30 UNL     1      -1.420  51.809 -25.907  1.00  0.00     0.185 C 
HETATM   30  C31 UNL     1      -0.490  52.892 -25.412  1.00  0.00     0.027 C 
HETATM   31  C34 UNL     1      -2.244  52.336 -27.088  1.00  0.00     0.383 C 
HETATM   32  C32 UNL     1       0.454  53.302 -26.529  1.00  0.00     0.038 C 
HETATM   33  C35 UNL     1       0.061  52.225 -24.166  1.00  0.00     0.020 C 
HETATM   34  C33 UNL     1      -0.369  53.739 -27.758  1.00  0.00     0.273 C 
HETATM   35  N1  UNL     1      -1.347  52.727 -28.168  1.00  0.00     0.114 N 
HETATM   36  H52 UNL     1      -1.916  53.061 -28.944  1.00  0.00     0.319 HD
HETATM   37  C36 UNL     1       0.745  53.192 -23.211  1.00  0.00     0.013 C 
BRANCH  31  38
HETATM   38  O7  UNL     1      -3.113  51.327 -27.566  1.00  0.00    -0.366 OA
HETATM   39  H54 UNL     1      -3.537  50.952 -26.772  1.00  0.00     0.212 HD
ENDBRANCH  31  38
ENDBRANCH  24  27
ENDBRANCH  20  24
ENDBRANCH  16  20
BRANCH  15  40
HETATM   40  C19 UNL     1      -4.198  48.935 -23.004  1.00  0.00    -0.002 C 
HETATM   41  C20 UNL     1      -5.661  48.574 -23.401  1.00  0.00     0.005 C 
HETATM   42  C21 UNL     1      -5.840  48.102 -24.848  1.00  0.00     0.000 C 
HETATM   43  C22 UNL     1      -4.864  48.794 -25.783  1.00  0.00     0.000 C 
HETATM   44  C23 UNL     1      -3.419  48.505 -25.393  1.00  0.00     0.000 C 
HETATM   45  C24 UNL     1      -3.223  48.164 -23.907  1.00  0.00     0.005 C 
ENDBRANCH  15  40
BRANCH  19  46
HETATM   46  O8  UNL     1      -4.982  48.869 -19.137  1.00  0.00    -0.384 OA
HETATM   47  H63 UNL     1      -5.831  48.827 -18.666  1.00  0.00     0.211 HD
ENDBRANCH  19  46
BRANCH   1  48
HETATM   48  O2  UNL     1      -9.757  43.214 -20.242  1.00  0.00    -0.386 OA
BRANCH  48  49
HETATM   49  C4  UNL     1      -8.962  42.170 -20.819  1.00  0.00     0.170 C 
BRANCH  49  50
HETATM   50  C3  UNL     1      -9.836  40.956 -21.129  1.00  0.00     0.052 C 
BRANCH  50  51
HETATM   51  C2  UNL     1      -9.104  39.929 -21.983  1.00  0.00     0.169 C 
BRANCH  51  52
HETATM   52  O1  UNL     1      -7.777  40.343 -22.307  1.00  0.00    -0.396 OA
HETATM   53  C1  UNL     1      -6.795  39.360 -21.997  1.00  0.00     0.201 C 
ENDBRANCH  51  52
ENDBRANCH  50  51
ENDBRANCH  49  50
ENDBRANCH  48  49
ENDBRANCH   1  48
TORSDOF 13
ENDMDL
MODEL 7
REMARK minimizedAffinity -8.41703796
REMARK CNNscore 0.416673154
REMARK CNNaffinity 6.88458443
REMARK  13 active torsions:
REMARK  status: ('A' for Active; 'I' for Inactive)
REMARK    1  A    between atoms: O1_2  and  C2_3 
REMARK    2  A    between atoms: C2_3  and  C3_4 
REMARK    3  A    between atoms: C3_4  and  C4_5 
REMARK    4  A    between atoms: C4_5  and  O2_6 
REMARK    5  A    between atoms: O2_6  and  C5_7 
REMARK    6  A    between atoms: C18_21  and  C19_22 
REMARK    7  A    between atoms: C25_28  and  C26_29 
REMARK    8  A    between atoms: C26_29  and  O4_31 
REMARK    9  A    between atoms: C26_29  and  C28_32 
REMARK   10  A    between atoms: C28_32  and  O5_33 
REMARK   11  A    between atoms: C28_32  and  C29_34 
REMARK   12  A    between atoms: C34_41  and  O7_42 
REMARK   13  A    between atoms: C39_47  and  O8_48 
ROOT
HETATM    1  C5  UNL     1     -10.455  45.694 -18.735  1.00  0.00     0.122 C 
HETATM    2  C6  UNL     1     -10.682  46.447 -20.052  1.00  0.00     0.033 C 
HETATM    3  C7  UNL     1     -10.264  47.915 -19.987  1.00  0.00     0.013 C 
HETATM    4  C8  UNL     1      -8.814  48.187 -19.444  1.00  0.00    -0.026 C 
HETATM    5  C9  UNL     1      -8.972  49.220 -18.295  1.00  0.00     0.016 C 
HETATM    6  C10 UNL     1      -8.188  46.883 -18.877  1.00  0.00     0.071 C 
HETATM    7  C11 UNL     1      -9.193  46.141 -17.980  1.00  0.00     0.045 C 
HETATM    8  C12 UNL     1      -7.686  45.924 -19.953  1.00  0.00     0.154 C 
HETATM    9  O3  UNL     1      -7.585  44.712 -19.770  1.00  0.00    -0.293 OA
HETATM   10  C13 UNL     1      -7.256  46.461 -21.259  1.00  0.00     0.057 C 
HETATM   11  C14 UNL     1      -7.319  47.771 -21.528  1.00  0.00    -0.037 C 
HETATM   12  C15 UNL     1      -7.925  48.811 -20.586  1.00  0.00     0.026 C 
HETATM   13  C16 UNL     1      -6.803  49.792 -20.153  1.00  0.00     0.011 C 
HETATM   14  C17 UNL     1      -5.984  50.368 -21.346  1.00  0.00     0.014 C 
HETATM   15  C18 UNL     1      -5.383  49.253 -22.263  1.00  0.00     0.005 C 
HETATM   16  C25 UNL     1      -4.952  49.751 -23.694  1.00  0.00     0.034 C 
HETATM   17  C37 UNL     1      -5.112  48.491 -24.596  1.00  0.00     0.012 C 
HETATM   18  C38 UNL     1      -6.179  47.592 -23.944  1.00  0.00     0.044 C 
HETATM   19  C39 UNL     1      -6.655  48.394 -22.730  1.00  0.00     0.090 C 
ENDROOT
BRANCH  16  20
HETATM   20  C26 UNL     1      -3.765  50.697 -24.105  1.00  0.00     0.087 C 
HETATM   21  C27 UNL     1      -4.222  51.766 -25.108  1.00  0.00     0.049 C 
BRANCH  20  22
HETATM   22  O4  UNL     1      -2.871  49.820 -24.850  1.00  0.00    -0.387 OA
HETATM   23  H42 UNL     1      -3.328  49.554 -25.669  1.00  0.00     0.210 HD
ENDBRANCH  20  22
BRANCH  20  24
HETATM   24  C28 UNL     1      -2.896  51.287 -22.943  1.00  0.00     0.181 C 
BRANCH  24  25
HETATM   25  O5  UNL     1      -3.267  52.631 -22.640  1.00  0.00    -0.390 OA
HETATM   26  H44 UNL     1      -2.803  53.178 -23.304  1.00  0.00     0.210 HD
ENDBRANCH  24  25
BRANCH  24  27
HETATM   27  C29 UNL     1      -1.364  51.288 -23.193  1.00  0.00     0.158 C 
HETATM   28  O6  UNL     1      -1.041  52.404 -24.098  1.00  0.00    -0.373 OA
HETATM   29  C30 UNL     1       0.229  52.902 -23.654  1.00  0.00     0.185 C 
HETATM   30  C31 UNL     1       0.087  52.887 -22.151  1.00  0.00     0.027 C 
HETATM   31  C34 UNL     1       0.590  54.316 -24.125  1.00  0.00     0.383 C 
HETATM   32  C32 UNL     1       1.403  53.299 -21.512  1.00  0.00     0.038 C 
HETATM   33  C35 UNL     1      -0.445  51.482 -21.943  1.00  0.00     0.020 C 
HETATM   34  C33 UNL     1       1.826  54.678 -22.057  1.00  0.00     0.273 C 
HETATM   35  N1  UNL     1       1.855  54.718 -23.522  1.00  0.00     0.114 N 
HETATM   36  H52 UNL     1       2.082  55.652 -23.859  1.00  0.00     0.319 HD
HETATM   37  C36 UNL     1      -1.061  51.261 -20.570  1.00  0.00     0.013 C 
BRANCH  31  38
HETATM   38  O7  UNL     1       0.734  54.340 -25.533  1.00  0.00    -0.366 OA
HETATM   39  H54 UNL     1      -0.045  53.867 -25.881  1.00  0.00     0.212 HD
ENDBRANCH  31  38
ENDBRANCH  24  27
ENDBRANCH  20  24
ENDBRANCH  16  20
BRANCH  15  40
HETATM   40  C19 UNL     1      -4.319  48.399 -21.399  1.00  0.00    -0.002 C 
HETATM   41  C20 UNL     1      -3.991  49.002 -19.999  1.00  0.00     0.005 C 
HETATM   42  C21 UNL     1      -2.711  48.464 -19.348  1.00  0.00     0.000 C 
HETATM   43  C22 UNL     1      -2.472  47.009 -19.712  1.00  0.00     0.000 C 
HETATM   44  C23 UNL     1      -2.319  46.829 -21.219  1.00  0.00     0.000 C 
HETATM   45  C24 UNL     1      -3.020  47.910 -22.056  1.00  0.00     0.005 C 
ENDBRANCH  15  40
BRANCH  19  46
HETATM   46  O8  UNL     1      -7.670  49.259 -23.298  1.00  0.00    -0.384 OA
HETATM   47  H63 UNL     1      -8.442  48.705 -23.499  1.00  0.00     0.211 HD
ENDBRANCH  19  46
BRANCH   1  48
HETATM   48  O2  UNL     1     -11.567  45.910 -17.857  1.00  0.00    -0.386 OA
BRANCH  48  49
HETATM   49  C4  UNL     1     -12.560  44.878 -17.925  1.00  0.00     0.170 C 
BRANCH  49  50
HETATM   50  C3  UNL     1     -13.947  45.470 -17.682  1.00  0.00     0.052 C 
BRANCH  50  51
HETATM   51  C2  UNL     1     -14.011  46.256 -16.378  1.00  0.00     0.169 C 
BRANCH  51  52
HETATM   52  O1  UNL     1     -14.339  45.427 -15.264  1.00  0.00    -0.396 OA
HETATM   53  C1  UNL     1     -13.197  45.022 -14.515  1.00  0.00     0.201 C 
ENDBRANCH  51  52
ENDBRANCH  50  51
ENDBRANCH  49  50
ENDBRANCH  48  49
ENDBRANCH   1  48
TORSDOF 13
ENDMDL
MODEL 8
REMARK minimizedAffinity -8.82313633
REMARK CNNscore 0.390977144
REMARK CNNaffinity 7.09721613
REMARK  13 active torsions:
REMARK  status: ('A' for Active; 'I' for Inactive)
REMARK    1  A    between atoms: O1_2  and  C2_3 
REMARK    2  A    between atoms: C2_3  and  C3_4 
REMARK    3  A    between atoms: C3_4  and  C4_5 
REMARK    4  A    between atoms: C4_5  and  O2_6 
REMARK    5  A    between atoms: O2_6  and  C5_7 
REMARK    6  A    between atoms: C18_21  and  C19_22 
REMARK    7  A    between atoms: C25_28  and  C26_29 
REMARK    8  A    between atoms: C26_29  and  O4_31 
REMARK    9  A    between atoms: C26_29  and  C28_32 
REMARK   10  A    between atoms: C28_32  and  O5_33 
REMARK   11  A    between atoms: C28_32  and  C29_34 
REMARK   12  A    between atoms: C34_41  and  O7_42 
REMARK   13  A    between atoms: C39_47  and  O8_48 
ROOT
HETATM    1  C5  UNL     1      -1.901  51.779 -25.740  1.00  0.00     0.122 C 
HETATM    2  C6  UNL     1      -1.240  51.441 -24.397  1.00  0.00     0.033 C 
HETATM    3  C7  UNL     1      -2.060  51.895 -23.191  1.00  0.00     0.013 C 
HETATM    4  C8  UNL     1      -3.568  51.450 -23.186  1.00  0.00    -0.026 C 
HETATM    5  C9  UNL     1      -4.398  52.745 -22.973  1.00  0.00     0.016 C 
HETATM    6  C10 UNL     1      -3.956  50.813 -24.549  1.00  0.00     0.071 C 
HETATM    7  C11 UNL     1      -3.434  51.666 -25.717  1.00  0.00     0.045 C 
HETATM    8  C12 UNL     1      -3.456  49.381 -24.722  1.00  0.00     0.154 C 
HETATM    9  O3  UNL     1      -3.254  48.875 -25.825  1.00  0.00    -0.293 OA
HETATM   10  C13 UNL     1      -3.243  48.538 -23.529  1.00  0.00     0.057 C 
HETATM   11  C14 UNL     1      -3.457  49.011 -22.295  1.00  0.00    -0.037 C 
HETATM   12  C15 UNL     1      -3.829  50.461 -21.986  1.00  0.00     0.026 C 
HETATM   13  C16 UNL     1      -5.244  50.479 -21.349  1.00  0.00     0.011 C 
HETATM   14  C17 UNL     1      -5.407  49.481 -20.164  1.00  0.00     0.014 C 
HETATM   15  C18 UNL     1      -5.022  48.016 -20.550  1.00  0.00     0.005 C 
HETATM   16  C25 UNL     1      -4.730  47.076 -19.320  1.00  0.00     0.034 C 
HETATM   17  C37 UNL     1      -3.717  46.030 -19.876  1.00  0.00     0.012 C 
HETATM   18  C38 UNL     1      -2.965  46.697 -21.043  1.00  0.00     0.044 C 
HETATM   19  C39 UNL     1      -3.510  48.126 -21.076  1.00  0.00     0.090 C 
ENDROOT
BRANCH  16  20
HETATM   20  C26 UNL     1      -5.723  46.508 -18.242  1.00  0.00     0.087 C 
HETATM   21  C27 UNL     1      -5.032  46.331 -16.882  1.00  0.00     0.049 C 
BRANCH  20  22
HETATM   22  O4  UNL     1      -6.004  45.158 -18.714  1.00  0.00    -0.387 OA
HETATM   23  H42 UNL     1      -5.180  44.641 -18.651  1.00  0.00     0.210 HD
ENDBRANCH  20  22
BRANCH  20  24
HETATM   24  C28 UNL     1      -7.119  47.207 -18.127  1.00  0.00     0.181 C 
BRANCH  24  25
HETATM   25  O5  UNL     1      -7.311  47.789 -16.838  1.00  0.00    -0.390 OA
HETATM   26  H44 UNL     1      -7.602  47.051 -16.268  1.00  0.00     0.210 HD
ENDBRANCH  24  25
BRANCH  24  27
HETATM   27  C29 UNL     1      -8.345  46.294 -18.396  1.00  0.00     0.158 C 
HETATM   28  O6  UNL     1      -8.944  45.925 -17.102  1.00  0.00    -0.373 OA
HETATM   29  C30 UNL     1     -10.358  45.883 -17.331  1.00  0.00     0.185 C 
HETATM   30  C31 UNL     1     -10.593  47.102 -18.193  1.00  0.00     0.027 C 
HETATM   31  C34 UNL     1     -11.239  45.959 -16.078  1.00  0.00     0.383 C 
HETATM   32  C32 UNL     1     -12.052  47.151 -18.616  1.00  0.00     0.038 C 
HETATM   33  C35 UNL     1      -9.511  46.907 -19.237  1.00  0.00     0.020 C 
HETATM   34  C33 UNL     1     -12.949  47.125 -17.362  1.00  0.00     0.273 C 
HETATM   35  N1  UNL     1     -12.641  46.001 -16.474  1.00  0.00     0.114 N 
HETATM   36  H52 UNL     1     -13.206  46.037 -15.628  1.00  0.00     0.319 HD
HETATM   37  C36 UNL     1      -9.217  48.159 -20.049  1.00  0.00     0.013 C 
BRANCH  31  38
HETATM   38  O7  UNL     1     -11.033  44.818 -15.267  1.00  0.00    -0.366 OA
HETATM   39  H54 UNL     1     -10.065  44.713 -15.208  1.00  0.00     0.212 HD
ENDBRANCH  31  38
ENDBRANCH  24  27
ENDBRANCH  20  24
ENDBRANCH  16  20
BRANCH  15  40
HETATM   40  C19 UNL     1      -6.053  47.497 -21.680  1.00  0.00    -0.002 C 
HETATM   41  C20 UNL     1      -6.507  46.016 -21.510  1.00  0.00     0.005 C 
HETATM   42  C21 UNL     1      -7.133  45.385 -22.760  1.00  0.00     0.000 C 
HETATM   43  C22 UNL     1      -7.903  46.410 -23.574  1.00  0.00     0.000 C 
HETATM   44  C23 UNL     1      -6.995  47.539 -24.048  1.00  0.00     0.000 C 
HETATM   45  C24 UNL     1      -5.760  47.770 -23.163  1.00  0.00     0.005 C 
ENDBRANCH  15  40
BRANCH  19  46
HETATM   46  O8  UNL     1      -2.683  48.805 -20.098  1.00  0.00    -0.384 OA
HETATM   47  H63 UNL     1      -1.800  48.909 -20.490  1.00  0.00     0.211 HD
ENDBRANCH  19  46
BRANCH   1  48
HETATM   48  O2  UNL     1      -1.586  53.128 -26.107  1.00  0.00    -0.386 OA
BRANCH  48  49
HETATM   49  C4  UNL     1      -0.277  53.277 -26.674  1.00  0.00     0.170 C 
BRANCH  49  50
HETATM   50  C3  UNL     1      -0.158  52.437 -27.944  1.00  0.00     0.052 C 
BRANCH  50  51
HETATM   51  C2  UNL     1       1.236  51.843 -28.106  1.00  0.00     0.169 C 
BRANCH  51  52
HETATM   52  O1  UNL     1       2.117  52.240 -27.056  1.00  0.00    -0.396 OA
HETATM   53  C1  UNL     1       2.548  51.149 -26.247  1.00  0.00     0.201 C 
ENDBRANCH  51  52
ENDBRANCH  50  51
ENDBRANCH  49  50
ENDBRANCH  48  49
ENDBRANCH   1  48
TORSDOF 13
ENDMDL
MODEL 9
REMARK minimizedAffinity -8.79269505
REMARK CNNscore 0.347480774
REMARK CNNaffinity 6.72010803
REMARK  13 active torsions:
REMARK  status: ('A' for Active; 'I' for Inactive)
REMARK    1  A    between atoms: O1_2  and  C2_3 
REMARK    2  A    between atoms: C2_3  and  C3_4 
REMARK    3  A    between atoms: C3_4  and  C4_5 
REMARK    4  A    between atoms: C4_5  and  O2_6 
REMARK    5  A    between atoms: O2_6  and  C5_7 
REMARK    6  A    between atoms: C18_21  and  C19_22 
REMARK    7  A    between atoms: C25_28  and  C26_29 
REMARK    8  A    between atoms: C26_29  and  O4_31 
REMARK    9  A    between atoms: C26_29  and  C28_32 
REMARK   10  A    between atoms: C28_32  and  O5_33 
REMARK   11  A    between atoms: C28_32  and  C29_34 
REMARK   12  A    between atoms: C34_41  and  O7_42 
REMARK   13  A    between atoms: C39_47  and  O8_48 
ROOT
HETATM    1  C5  UNL     1     -10.766  45.020 -19.209  1.00  0.00     0.122 C 
HETATM    2  C6  UNL     1     -10.957  45.933 -20.428  1.00  0.00     0.033 C 
HETATM    3  C7  UNL     1     -10.645  47.399 -20.135  1.00  0.00     0.013 C 
HETATM    4  C8  UNL     1      -9.256  47.679 -19.456  1.00  0.00    -0.026 C 
HETATM    5  C9  UNL     1      -9.557  48.531 -18.194  1.00  0.00     0.016 C 
HETATM    6  C10 UNL     1      -8.581  46.348 -19.024  1.00  0.00     0.071 C 
HETATM    7  C11 UNL     1      -9.588  45.432 -18.311  1.00  0.00     0.045 C 
HETATM    8  C12 UNL     1      -7.945  45.578 -20.179  1.00  0.00     0.154 C 
HETATM    9  O3  UNL     1      -7.775  44.359 -20.152  1.00  0.00    -0.293 OA
HETATM   10  C13 UNL     1      -7.469  46.313 -21.366  1.00  0.00     0.057 C 
HETATM   11  C14 UNL     1      -7.603  47.642 -21.461  1.00  0.00    -0.037 C 
HETATM   12  C15 UNL     1      -8.338  48.505 -20.436  1.00  0.00     0.026 C 
HETATM   13  C16 UNL     1      -7.316  49.481 -19.794  1.00  0.00     0.011 C 
HETATM   14  C17 UNL     1      -6.462  50.263 -20.836  1.00  0.00     0.014 C 
HETATM   15  C18 UNL     1      -5.729  49.322 -21.847  1.00  0.00     0.005 C 
HETATM   16  C25 UNL     1      -5.240  50.038 -23.163  1.00  0.00     0.034 C 
HETATM   17  C37 UNL     1      -5.256  48.907 -24.235  1.00  0.00     0.012 C 
HETATM   18  C38 UNL     1      -6.299  47.866 -23.789  1.00  0.00     0.044 C 
HETATM   19  C39 UNL     1      -6.906  48.463 -22.517  1.00  0.00     0.090 C 
ENDROOT
BRANCH  16  20
HETATM   20  C26 UNL     1      -4.096  51.099 -23.355  1.00  0.00     0.087 C 
HETATM   21  C27 UNL     1      -4.462  52.441 -22.704  1.00  0.00     0.049 C 
BRANCH  20  22
HETATM   22  O4  UNL     1      -4.100  51.348 -24.791  1.00  0.00    -0.387 OA
HETATM   23  H42 UNL     1      -4.942  51.784 -25.016  1.00  0.00     0.210 HD
ENDBRANCH  20  22
BRANCH  20  24
HETATM   24  C28 UNL     1      -2.639  50.637 -23.017  1.00  0.00     0.181 C 
BRANCH  24  25
HETATM   25  O5  UNL     1      -2.011  51.519 -22.087  1.00  0.00    -0.390 OA
HETATM   26  H44 UNL     1      -1.681  52.263 -22.628  1.00  0.00     0.210 HD
ENDBRANCH  24  25
BRANCH  24  27
HETATM   27  C29 UNL     1      -1.683  50.509 -24.233  1.00  0.00     0.158 C 
HETATM   28  O6  UNL     1      -2.435  50.842 -25.454  1.00  0.00    -0.373 OA
HETATM   29  C30 UNL     1      -1.506  51.528 -26.303  1.00  0.00     0.185 C 
HETATM   30  C31 UNL     1      -0.779  52.435 -25.339  1.00  0.00     0.027 C 
HETATM   31  C34 UNL     1      -2.125  52.362 -27.431  1.00  0.00     0.383 C 
HETATM   32  C32 UNL     1       0.329  53.173 -26.072  1.00  0.00     0.038 C 
HETATM   33  C35 UNL     1      -0.429  51.444 -24.246  1.00  0.00     0.020 C 
HETATM   34  C33 UNL     1      -0.271  53.935 -27.271  1.00  0.00     0.273 C 
HETATM   35  N1  UNL     1      -1.068  53.070 -28.144  1.00  0.00     0.114 N 
HETATM   36  H52 UNL     1      -1.500  53.605 -28.896  1.00  0.00     0.319 HD
HETATM   37  C36 UNL     1      -0.021  52.101 -22.936  1.00  0.00     0.013 C 
BRANCH  31  38
HETATM   38  O7  UNL     1      -2.801  51.521 -28.346  1.00  0.00    -0.366 OA
HETATM   39  H54 UNL     1      -3.341  50.922 -27.796  1.00  0.00     0.212 HD
ENDBRANCH  31  38
ENDBRANCH  24  27
ENDBRANCH  20  24
ENDBRANCH  16  20
BRANCH  15  40
HETATM   40  C19 UNL     1      -4.668  48.421 -21.029  1.00  0.00    -0.002 C 
HETATM   41  C20 UNL     1      -3.858  49.197 -19.948  1.00  0.00     0.005 C 
HETATM   42  C21 UNL     1      -2.587  48.491 -19.461  1.00  0.00     0.000 C 
HETATM   43  C22 UNL     1      -2.757  46.982 -19.458  1.00  0.00     0.000 C 
HETATM   44  C23 UNL     1      -3.057  46.453 -20.857  1.00  0.00     0.000 C 
HETATM   45  C24 UNL     1      -3.723  47.477 -21.788  1.00  0.00     0.005 C 
ENDBRANCH  15  40
BRANCH  19  46
HETATM   46  O8  UNL     1      -7.938  49.338 -23.037  1.00  0.00    -0.384 OA
HETATM   47  H63 UNL     1      -8.657  48.772 -23.367  1.00  0.00     0.211 HD
ENDBRANCH  19  46
BRANCH   1  48
HETATM   48  O2  UNL     1     -11.945  45.047 -18.395  1.00  0.00    -0.386 OA
BRANCH  48  49
HETATM   49  C4  UNL     1     -11.687  45.371 -17.023  1.00  0.00     0.170 C 
BRANCH  49  50
HETATM   50  C3  UNL     1     -12.838  46.198 -16.455  1.00  0.00     0.052 C 
BRANCH  50  51
HETATM   51  C2  UNL     1     -13.207  47.362 -17.366  1.00  0.00     0.169 C 
BRANCH  51  52
HETATM   52  O1  UNL     1     -14.572  47.753 -17.217  1.00  0.00    -0.396 OA
HETATM   53  C1  UNL     1     -14.982  48.724 -18.175  1.00  0.00     0.201 C 
ENDBRANCH  51  52
ENDBRANCH  50  51
ENDBRANCH  49  50
ENDBRANCH  48  49
ENDBRANCH   1  48
TORSDOF 13
ENDMDL
