MODEL 1
REMARK minimizedAffinity -9.11280441
REMARK CNNscore 0.575583458
REMARK CNNaffinity 7.64554787
REMARK  14 active torsions:
REMARK  status: ('A' for Active; 'I' for Inactive)
REMARK    1  A    between atoms: C2_2  and  O2_4 
REMARK    2  A    between atoms: O2_4  and  C3_5 
REMARK    3  A    between atoms: C3_5  and  C4_6 
REMARK    4  A    between atoms: C4_6  and  C5_8 
REMARK    5  A    between atoms: C5_8  and  O4_9 
REMARK    6  A    between atoms: O4_9  and  C6_10 
REMARK    7  A    between atoms: C6_10  and  C7_12 
REMARK    8  A    between atoms: C7_12  and  C8_13 
REMARK    9  A    between atoms: C8_13  and  C9_14 
REMARK       I    between atoms: C9_14  and  N1_16 
REMARK   10  A    between atoms: N1_16  and  C10_17 
REMARK   11  A    between atoms: C10_17  and  C11_18 
REMARK   12  A    between atoms: C10_17  and  C18_25 
REMARK   13  A    between atoms: C11_18  and  C12_19 
REMARK   14  A    between atoms: C18_25  and  O8_27 
ROOT
HETATM    1  C3  UNL     1      -1.961   6.286  13.253  1.00  0.00     0.140 C 
HETATM    2  C19 UNL     1      -2.031   4.912  12.507  1.00  0.00     0.048 C 
HETATM    3  C20 UNL     1      -3.504   4.453  12.531  1.00  0.00     0.009 C 
HETATM    4  C21 UNL     1      -4.261   5.613  13.169  1.00  0.00     0.002 C 
HETATM    5  C22 UNL     1      -5.643   5.352  13.788  1.00  0.00    -0.004 C 
HETATM    6  C23 UNL     1      -6.641   4.660  12.837  1.00  0.00     0.010 C 
HETATM    7  C24 UNL     1      -7.846   5.515  12.455  1.00  0.00     0.035 C 
HETATM    8  C25 UNL     1      -8.524   6.201  13.623  1.00  0.00    -0.068 C 
HETATM    9  C26 UNL     1      -9.815   6.564  13.508  1.00  0.00     0.053 C 
HETATM   10  C27 UNL     1     -10.497   7.373  14.545  1.00  0.00     0.149 C 
HETATM   11  O9  UNL     1     -11.704   7.581  14.443  1.00  0.00    -0.293 OA
HETATM   12  C28 UNL     1      -9.689   7.904  15.705  1.00  0.00     0.084 C 
HETATM   13  C29 UNL     1      -8.189   7.905  15.420  1.00  0.00     0.022 C 
HETATM   14  C30 UNL     1      -7.668   6.563  14.840  1.00  0.00    -0.016 C 
HETATM   15  C31 UNL     1      -7.807   5.461  15.917  1.00  0.00     0.020 C 
HETATM   16  C32 UNL     1      -6.189   6.705  14.347  1.00  0.00     0.002 C 
HETATM   17  C33 UNL     1      -5.197   7.317  15.364  1.00  0.00     0.007 C 
HETATM   18  C34 UNL     1      -3.796   7.501  14.746  1.00  0.00     0.013 C 
HETATM   19  C35 UNL     1      -3.228   6.184  14.187  1.00  0.00    -0.001 C 
HETATM   20  C36 UNL     1      -2.978   5.208  15.381  1.00  0.00     0.019 C 
ENDROOT
BRANCH   1  21
HETATM   21  O2  UNL     1      -2.183   7.266  12.203  1.00  0.00    -0.301 OA
BRANCH  21  22
HETATM   22  C2  UNL     1      -1.614   8.495  12.283  1.00  0.00     0.256 C 
HETATM   23  C1  UNL     1      -0.649   8.681  11.155  1.00  0.00     0.126 C 
HETATM   24  O1  UNL     1      -1.840   9.337  13.137  1.00  0.00    -0.266 OA
ENDBRANCH  21  22
ENDBRANCH   1  21
BRANCH   1  25
HETATM   25  C4  UNL     1      -0.582   6.414  13.964  1.00  0.00     0.186 C 
HETATM   26  O3  UNL     1      -0.405   7.143  14.945  1.00  0.00    -0.292 OA
BRANCH  25  27
HETATM   27  C5  UNL     1       0.568   5.541  13.466  1.00  0.00     0.260 C 
BRANCH  27  28
HETATM   28  O4  UNL     1       1.344   6.160  12.446  1.00  0.00    -0.314 OA
BRANCH  28  29
HETATM   29  C6  UNL     1       1.442   5.436  11.296  1.00  0.00     0.259 C 
HETATM   30  O5  UNL     1       0.967   4.322  11.122  1.00  0.00    -0.265 OA
BRANCH  29  31
HETATM   31  C7  UNL     1       2.258   6.204  10.285  1.00  0.00     0.120 C 
BRANCH  31  32
HETATM   32  C8  UNL     1       3.596   5.522  10.031  1.00  0.00     0.112 C 
BRANCH  32  33
HETATM   33  C9  UNL     1       4.733   6.244  10.724  1.00  0.00     0.218 C 
HETATM   34  O6  UNL     1       5.912   6.094  10.418  1.00  0.00    -0.274 OA
HETATM   35  N1  UNL     1       4.310   7.121  11.688  1.00  0.00    -0.346 N 
HETATM   36  H10 UNL     1       3.342   7.116  11.995  1.00  0.00     0.163 HD
BRANCH  35  37
HETATM   37  C10 UNL     1       5.240   7.884  12.523  1.00  0.00     0.186 C 
BRANCH  37  38
HETATM   38  C11 UNL     1       6.504   7.091  12.895  1.00  0.00     0.074 C 
BRANCH  38  39
HETATM   39  C12 UNL     1       7.340   7.723  13.989  1.00  0.00    -0.056 A 
HETATM   40  C13 UNL     1       8.727   7.854  13.837  1.00  0.00     0.007 A 
HETATM   41  C14 UNL     1       9.495   8.458  14.833  1.00  0.00     0.001 A 
HETATM   42  C15 UNL     1       8.884   8.937  15.990  1.00  0.00     0.000 A 
HETATM   43  C16 UNL     1       7.507   8.806  16.156  1.00  0.00     0.001 A 
HETATM   44  C17 UNL     1       6.737   8.201  15.161  1.00  0.00     0.007 A 
ENDBRANCH  38  39
ENDBRANCH  37  38
BRANCH  37  45
HETATM   45  C18 UNL     1       5.612   9.208  11.848  1.00  0.00     0.163 C 
HETATM   46  O7  UNL     1       6.254   9.344  10.818  1.00  0.00    -0.648 OA
BRANCH  45  47
HETATM   47  O8  UNL     1       5.155  10.300  12.508  1.00  0.00    -0.775 OA
HETATM   48  H19 UNL     1       5.467  11.050  11.959  1.00  0.00     0.167 HD
ENDBRANCH  45  47
ENDBRANCH  37  45
ENDBRANCH  35  37
ENDBRANCH  32  33
ENDBRANCH  31  32
ENDBRANCH  29  31
ENDBRANCH  28  29
ENDBRANCH  27  28
ENDBRANCH  25  27
ENDBRANCH   1  25
TORSDOF 14
ENDMDL
MODEL 2
REMARK minimizedAffinity -9.86580944
REMARK CNNscore 0.56560111
REMARK CNNaffinity 7.72139931
REMARK  14 active torsions:
REMARK  status: ('A' for Active; 'I' for Inactive)
REMARK    1  A    between atoms: C2_2  and  O2_4 
REMARK    2  A    between atoms: O2_4  and  C3_5 
REMARK    3  A    between atoms: C3_5  and  C4_6 
REMARK    4  A    between atoms: C4_6  and  C5_8 
REMARK    5  A    between atoms: C5_8  and  O4_9 
REMARK    6  A    between atoms: O4_9  and  C6_10 
REMARK    7  A    between atoms: C6_10  and  C7_12 
REMARK    8  A    between atoms: C7_12  and  C8_13 
REMARK    9  A    between atoms: C8_13  and  C9_14 
REMARK       I    between atoms: C9_14  and  N1_16 
REMARK   10  A    between atoms: N1_16  and  C10_17 
REMARK   11  A    between atoms: C10_17  and  C11_18 
REMARK   12  A    between atoms: C10_17  and  C18_25 
REMARK   13  A    between atoms: C11_18  and  C12_19 
REMARK   14  A    between atoms: C18_25  and  O8_27 
ROOT
HETATM    1  C3  UNL     1      -1.806   6.438  13.282  1.00  0.00     0.140 C 
HETATM    2  C19 UNL     1      -1.858   5.044  12.571  1.00  0.00     0.048 C 
HETATM    3  C20 UNL     1      -3.324   4.564  12.613  1.00  0.00     0.009 C 
HETATM    4  C21 UNL     1      -4.095   5.729  13.226  1.00  0.00     0.002 C 
HETATM    5  C22 UNL     1      -5.471   5.463  13.857  1.00  0.00    -0.004 C 
HETATM    6  C23 UNL     1      -6.462   4.732  12.930  1.00  0.00     0.010 C 
HETATM    7  C24 UNL     1      -7.681   5.559  12.532  1.00  0.00     0.035 C 
HETATM    8  C25 UNL     1      -8.364   6.265  13.685  1.00  0.00    -0.068 C 
HETATM    9  C26 UNL     1      -9.661   6.606  13.567  1.00  0.00     0.053 C 
HETATM   10  C27 UNL     1     -10.350   7.431  14.586  1.00  0.00     0.149 C 
HETATM   11  O9  UNL     1     -11.561   7.618  14.485  1.00  0.00    -0.293 OA
HETATM   12  C28 UNL     1      -9.546   8.003  15.729  1.00  0.00     0.084 C 
HETATM   13  C29 UNL     1      -8.047   8.018  15.437  1.00  0.00     0.022 C 
HETATM   14  C30 UNL     1      -7.508   6.670  14.888  1.00  0.00    -0.016 C 
HETATM   15  C31 UNL     1      -7.627   5.595  15.993  1.00  0.00     0.020 C 
HETATM   16  C32 UNL     1      -6.034   6.821  14.384  1.00  0.00     0.002 C 
HETATM   17  C33 UNL     1      -5.047   7.474  15.381  1.00  0.00     0.007 C 
HETATM   18  C34 UNL     1      -3.651   7.663  14.752  1.00  0.00     0.013 C 
HETATM   19  C35 UNL     1      -3.066   6.340  14.224  1.00  0.00    -0.001 C 
HETATM   20  C36 UNL     1      -2.796   5.399  15.441  1.00  0.00     0.019 C 
ENDROOT
BRANCH   1  21
HETATM   21  O2  UNL     1      -2.046   7.387  12.208  1.00  0.00    -0.301 OA
BRANCH  21  22
HETATM   22  C2  UNL     1      -1.268   8.491  12.084  1.00  0.00     0.256 C 
HETATM   23  C1  UNL     1      -0.121   8.202  11.168  1.00  0.00     0.126 C 
HETATM   24  O1  UNL     1      -1.456   9.567  12.628  1.00  0.00    -0.266 OA
ENDBRANCH  21  22
ENDBRANCH   1  21
BRANCH   1  25
HETATM   25  C4  UNL     1      -0.426   6.604  13.983  1.00  0.00     0.186 C 
HETATM   26  O3  UNL     1       0.557   5.917  13.687  1.00  0.00    -0.292 OA
BRANCH  25  27
HETATM   27  C5  UNL     1      -0.275   7.714  15.022  1.00  0.00     0.260 C 
BRANCH  27  28
HETATM   28  O4  UNL     1       0.601   7.369  16.091  1.00  0.00    -0.314 OA
BRANCH  28  29
HETATM   29  C6  UNL     1       1.711   8.153  16.183  1.00  0.00     0.259 C 
HETATM   30  O5  UNL     1       2.144   8.643  17.216  1.00  0.00    -0.265 OA
BRANCH  29  31
HETATM   31  C7  UNL     1       2.300   8.354  14.808  1.00  0.00     0.120 C 
BRANCH  31  32
HETATM   32  C8  UNL     1       3.680   8.995  14.892  1.00  0.00     0.112 C 
BRANCH  32  33
HETATM   33  C9  UNL     1       4.503   8.715  13.652  1.00  0.00     0.218 C 
HETATM   34  O6  UNL     1       5.429   9.431  13.283  1.00  0.00    -0.274 OA
HETATM   35  N1  UNL     1       4.147   7.556  13.016  1.00  0.00    -0.346 N 
HETATM   36  H10 UNL     1       3.297   7.067  13.280  1.00  0.00     0.163 HD
BRANCH  35  37
HETATM   37  C10 UNL     1       4.772   7.118  11.765  1.00  0.00     0.186 C 
BRANCH  37  38
HETATM   38  C11 UNL     1       4.642   8.153  10.635  1.00  0.00     0.074 C 
BRANCH  38  39
HETATM   39  C12 UNL     1       3.743   7.722   9.493  1.00  0.00    -0.056 A 
HETATM   40  C13 UNL     1       3.310   8.653   8.540  1.00  0.00     0.007 A 
HETATM   41  C14 UNL     1       2.502   8.253   7.475  1.00  0.00     0.001 A 
HETATM   42  C15 UNL     1       2.119   6.919   7.353  1.00  0.00     0.000 A 
HETATM   43  C16 UNL     1       2.538   5.985   8.299  1.00  0.00     0.001 A 
HETATM   44  C17 UNL     1       3.345   6.384   9.365  1.00  0.00     0.007 A 
ENDBRANCH  38  39
ENDBRANCH  37  38
BRANCH  37  45
HETATM   45  C18 UNL     1       6.241   6.748  11.994  1.00  0.00     0.163 C 
HETATM   46  O7  UNL     1       7.204   7.187  11.385  1.00  0.00    -0.648 OA
BRANCH  45  47
HETATM   47  O8  UNL     1       6.423   5.840  12.983  1.00  0.00    -0.775 OA
HETATM   48  H19 UNL     1       7.396   5.714  13.005  1.00  0.00     0.167 HD
ENDBRANCH  45  47
ENDBRANCH  37  45
ENDBRANCH  35  37
ENDBRANCH  32  33
ENDBRANCH  31  32
ENDBRANCH  29  31
ENDBRANCH  28  29
ENDBRANCH  27  28
ENDBRANCH  25  27
ENDBRANCH   1  25
TORSDOF 14
ENDMDL
MODEL 3
REMARK minimizedAffinity -8.26194572
REMARK CNNscore 0.514791191
REMARK CNNaffinity 7.43596649
REMARK  14 active torsions:
REMARK  status: ('A' for Active; 'I' for Inactive)
REMARK    1  A    between atoms: C2_2  and  O2_4 
REMARK    2  A    between atoms: O2_4  and  C3_5 
REMARK    3  A    between atoms: C3_5  and  C4_6 
REMARK    4  A    between atoms: C4_6  and  C5_8 
REMARK    5  A    between atoms: C5_8  and  O4_9 
REMARK    6  A    between atoms: O4_9  and  C6_10 
REMARK    7  A    between atoms: C6_10  and  C7_12 
REMARK    8  A    between atoms: C7_12  and  C8_13 
REMARK    9  A    between atoms: C8_13  and  C9_14 
REMARK       I    between atoms: C9_14  and  N1_16 
REMARK   10  A    between atoms: N1_16  and  C10_17 
REMARK   11  A    between atoms: C10_17  and  C11_18 
REMARK   12  A    between atoms: C10_17  and  C18_25 
REMARK   13  A    between atoms: C11_18  and  C12_19 
REMARK   14  A    between atoms: C18_25  and  O8_27 
ROOT
HETATM    1  C3  UNL     1      -1.568   6.440  13.100  1.00  0.00     0.140 C 
HETATM    2  C19 UNL     1      -1.562   5.035  12.411  1.00  0.00     0.048 C 
HETATM    3  C20 UNL     1      -3.004   4.490  12.470  1.00  0.00     0.009 C 
HETATM    4  C21 UNL     1      -3.823   5.629  13.070  1.00  0.00     0.002 C 
HETATM    5  C22 UNL     1      -5.182   5.311  13.714  1.00  0.00    -0.004 C 
HETATM    6  C23 UNL     1      -6.145   4.523  12.804  1.00  0.00     0.010 C 
HETATM    7  C24 UNL     1      -7.402   5.288  12.402  1.00  0.00     0.035 C 
HETATM    8  C25 UNL     1      -8.110   5.980  13.549  1.00  0.00    -0.068 C 
HETATM    9  C26 UNL     1      -9.421   6.261  13.435  1.00  0.00     0.053 C 
HETATM   10  C27 UNL     1     -10.141   7.070  14.447  1.00  0.00     0.149 C 
HETATM   11  O9  UNL     1     -11.359   7.201  14.350  1.00  0.00    -0.293 OA
HETATM   12  C28 UNL     1      -9.356   7.695  15.575  1.00  0.00     0.084 C 
HETATM   13  C29 UNL     1      -7.861   7.772  15.273  1.00  0.00     0.022 C 
HETATM   14  C30 UNL     1      -7.266   6.441  14.741  1.00  0.00    -0.016 C 
HETATM   15  C31 UNL     1      -7.329   5.379  15.863  1.00  0.00     0.020 C 
HETATM   16  C32 UNL     1      -5.803   6.650  14.225  1.00  0.00     0.002 C 
HETATM   17  C33 UNL     1      -4.840   7.361  15.205  1.00  0.00     0.007 C 
HETATM   18  C34 UNL     1      -3.458   7.603  14.564  1.00  0.00     0.013 C 
HETATM   19  C35 UNL     1      -2.817   6.300  14.052  1.00  0.00    -0.001 C 
HETATM   20  C36 UNL     1      -2.498   5.391  15.281  1.00  0.00     0.019 C 
ENDROOT
BRANCH   1  21
HETATM   21  O2  UNL     1      -1.858   7.361  12.014  1.00  0.00    -0.301 OA
BRANCH  21  22
HETATM   22  C2  UNL     1      -1.170   8.525  11.903  1.00  0.00     0.256 C 
HETATM   23  C1  UNL     1      -0.046   8.359  10.931  1.00  0.00     0.126 C 
HETATM   24  O1  UNL     1      -1.415   9.563  12.497  1.00  0.00    -0.266 OA
ENDBRANCH  21  22
ENDBRANCH   1  21
BRANCH   1  25
HETATM   25  C4  UNL     1      -0.192   6.678  13.789  1.00  0.00     0.186 C 
HETATM   26  O3  UNL     1       0.824   6.049  13.479  1.00  0.00    -0.292 OA
BRANCH  25  27
HETATM   27  C5  UNL     1      -0.093   7.788  14.834  1.00  0.00     0.260 C 
BRANCH  27  28
HETATM   28  O4  UNL     1       0.927   7.562  15.801  1.00  0.00    -0.314 OA
BRANCH  28  29
HETATM   29  C6  UNL     1       2.170   7.963  15.411  1.00  0.00     0.259 C 
HETATM   30  O5  UNL     1       3.190   7.296  15.511  1.00  0.00    -0.265 OA
BRANCH  29  31
HETATM   31  C7  UNL     1       2.098   9.372  14.874  1.00  0.00     0.120 C 
BRANCH  31  32
HETATM   32  C8  UNL     1       2.444   9.410  13.391  1.00  0.00     0.112 C 
BRANCH  32  33
HETATM   33  C9  UNL     1       3.877   9.846  13.163  1.00  0.00     0.218 C 
HETATM   34  O6  UNL     1       4.202  11.013  12.961  1.00  0.00    -0.274 OA
HETATM   35  N1  UNL     1       4.777   8.819  13.258  1.00  0.00    -0.346 N 
HETATM   36  H10 UNL     1       4.454   7.857  13.296  1.00  0.00     0.163 HD
BRANCH  35  37
HETATM   37  C10 UNL     1       6.211   9.001  13.017  1.00  0.00     0.186 C 
BRANCH  37  38
HETATM   38  C11 UNL     1       7.090   8.175  13.971  1.00  0.00     0.074 C 
BRANCH  38  39
HETATM   39  C12 UNL     1       8.513   8.680  14.105  1.00  0.00    -0.056 A 
HETATM   40  C13 UNL     1       9.594   7.838  13.815  1.00  0.00     0.007 A 
HETATM   41  C14 UNL     1      10.904   8.309  13.914  1.00  0.00     0.001 A 
HETATM   42  C15 UNL     1      11.145   9.624  14.304  1.00  0.00     0.000 A 
HETATM   43  C16 UNL     1      10.077  10.469  14.600  1.00  0.00     0.001 A 
HETATM   44  C17 UNL     1       8.766  10.000  14.503  1.00  0.00     0.007 A 
ENDBRANCH  38  39
ENDBRANCH  37  38
BRANCH  37  45
HETATM   45  C18 UNL     1       6.558   8.693  11.557  1.00  0.00     0.163 C 
HETATM   46  O7  UNL     1       6.449   9.454  10.609  1.00  0.00    -0.648 OA
BRANCH  45  47
HETATM   47  O8  UNL     1       7.027   7.437  11.366  1.00  0.00    -0.775 OA
HETATM   48  H19 UNL     1       7.201   7.400  10.401  1.00  0.00     0.167 HD
ENDBRANCH  45  47
ENDBRANCH  37  45
ENDBRANCH  35  37
ENDBRANCH  32  33
ENDBRANCH  31  32
ENDBRANCH  29  31
ENDBRANCH  28  29
ENDBRANCH  27  28
ENDBRANCH  25  27
ENDBRANCH   1  25
TORSDOF 14
ENDMDL
MODEL 4
REMARK minimizedAffinity -8.49537849
REMARK CNNscore 0.480239183
REMARK CNNaffinity 6.91963196
REMARK  14 active torsions:
REMARK  status: ('A' for Active; 'I' for Inactive)
REMARK    1  A    between atoms: C2_2  and  O2_4 
REMARK    2  A    between atoms: O2_4  and  C3_5 
REMARK    3  A    between atoms: C3_5  and  C4_6 
REMARK    4  A    between atoms: C4_6  and  C5_8 
REMARK    5  A    between atoms: C5_8  and  O4_9 
REMARK    6  A    between atoms: O4_9  and  C6_10 
REMARK    7  A    between atoms: C6_10  and  C7_12 
REMARK    8  A    between atoms: C7_12  and  C8_13 
REMARK    9  A    between atoms: C8_13  and  C9_14 
REMARK       I    between atoms: C9_14  and  N1_16 
REMARK   10  A    between atoms: N1_16  and  C10_17 
REMARK   11  A    between atoms: C10_17  and  C11_18 
REMARK   12  A    between atoms: C10_17  and  C18_25 
REMARK   13  A    between atoms: C11_18  and  C12_19 
REMARK   14  A    between atoms: C18_25  and  O8_27 
ROOT
HETATM    1  C3  UNL     1      -1.109   8.828  13.244  1.00  0.00     0.140 C 
HETATM    2  C19 UNL     1      -0.102   7.751  13.767  1.00  0.00     0.048 C 
HETATM    3  C20 UNL     1      -0.905   6.457  14.019  1.00  0.00     0.009 C 
HETATM    4  C21 UNL     1      -2.313   6.774  13.524  1.00  0.00     0.002 C 
HETATM    5  C22 UNL     1      -3.490   5.925  14.030  1.00  0.00    -0.004 C 
HETATM    6  C23 UNL     1      -3.301   4.406  13.843  1.00  0.00     0.010 C 
HETATM    7  C24 UNL     1      -4.281   3.763  12.867  1.00  0.00     0.035 C 
HETATM    8  C25 UNL     1      -5.728   4.154  13.082  1.00  0.00    -0.068 C 
HETATM    9  C26 UNL     1      -6.700   3.332  12.642  1.00  0.00     0.053 C 
HETATM   10  C27 UNL     1      -8.129   3.719  12.679  1.00  0.00     0.149 C 
HETATM   11  O9  UNL     1      -8.981   2.889  12.370  1.00  0.00    -0.293 OA
HETATM   12  C28 UNL     1      -8.497   5.119  13.111  1.00  0.00     0.084 C 
HETATM   13  C29 UNL     1      -7.315   6.084  13.029  1.00  0.00     0.022 C 
HETATM   14  C30 UNL     1      -6.019   5.533  13.681  1.00  0.00    -0.016 C 
HETATM   15  C31 UNL     1      -6.241   5.398  15.206  1.00  0.00     0.020 C 
HETATM   16  C32 UNL     1      -4.795   6.452  13.354  1.00  0.00     0.002 C 
HETATM   17  C33 UNL     1      -4.991   7.959  13.644  1.00  0.00     0.007 C 
HETATM   18  C34 UNL     1      -3.767   8.785  13.197  1.00  0.00     0.013 C 
HETATM   19  C35 UNL     1      -2.463   8.290  13.849  1.00  0.00    -0.001 C 
HETATM   20  C36 UNL     1      -2.545   8.559  15.385  1.00  0.00     0.019 C 
ENDROOT
BRANCH   1  21
HETATM   21  O2  UNL     1      -1.092   8.651  11.802  1.00  0.00    -0.301 OA
BRANCH  21  22
HETATM   22  C2  UNL     1       0.060   8.318  11.166  1.00  0.00     0.256 C 
HETATM   23  C1  UNL     1      -0.076   6.964  10.546  1.00  0.00     0.126 C 
HETATM   24  O1  UNL     1       1.066   9.005  11.099  1.00  0.00    -0.266 OA
ENDBRANCH  21  22
ENDBRANCH   1  21
BRANCH   1  25
HETATM   25  C4  UNL     1      -0.646  10.236  13.719  1.00  0.00     0.186 C 
HETATM   26  O3  UNL     1      -1.380  11.228  13.673  1.00  0.00    -0.292 OA
BRANCH  25  27
HETATM   27  C5  UNL     1       0.747  10.367  14.334  1.00  0.00     0.260 C 
BRANCH  27  28
HETATM   28  O4  UNL     1       0.725  10.529  15.748  1.00  0.00    -0.314 OA
BRANCH  28  29
HETATM   29  C6  UNL     1       0.774  11.826  16.165  1.00  0.00     0.259 C 
HETATM   30  O5  UNL     1      -0.168  12.453  16.628  1.00  0.00    -0.265 OA
BRANCH  29  31
HETATM   31  C7  UNL     1       2.159  12.378  15.932  1.00  0.00     0.120 C 
BRANCH  31  32
HETATM   32  C8  UNL     1       3.225  11.399  16.405  1.00  0.00     0.112 C 
BRANCH  32  33
HETATM   33  C9  UNL     1       3.207  11.237  17.912  1.00  0.00     0.218 C 
HETATM   34  O6  UNL     1       2.782  10.234  18.476  1.00  0.00    -0.274 OA
HETATM   35  N1  UNL     1       3.764  12.298  18.576  1.00  0.00    -0.346 N 
HETATM   36  H10 UNL     1       3.982  13.156  18.079  1.00  0.00     0.163 HD
BRANCH  35  37
HETATM   37  C10 UNL     1       3.802  12.380  20.038  1.00  0.00     0.186 C 
BRANCH  37  38
HETATM   38  C11 UNL     1       2.463  12.007  20.696  1.00  0.00     0.074 C 
BRANCH  38  39
HETATM   39  C12 UNL     1       2.559  10.901  21.728  1.00  0.00    -0.056 A 
HETATM   40  C13 UNL     1       3.024  11.175  23.020  1.00  0.00     0.007 A 
HETATM   41  C14 UNL     1       3.090  10.161  23.978  1.00  0.00     0.001 A 
HETATM   42  C15 UNL     1       2.693   8.866  23.652  1.00  0.00     0.000 A 
HETATM   43  C16 UNL     1       2.234   8.581  22.367  1.00  0.00     0.001 A 
HETATM   44  C17 UNL     1       2.169   9.593  21.408  1.00  0.00     0.007 A 
ENDBRANCH  38  39
ENDBRANCH  37  38
BRANCH  37  45
HETATM   45  C18 UNL     1       4.939  11.520  20.600  1.00  0.00     0.163 C 
HETATM   46  O7  UNL     1       5.193  10.364  20.298  1.00  0.00    -0.648 OA
BRANCH  45  47
HETATM   47  O8  UNL     1       5.702  12.162  21.517  1.00  0.00    -0.775 OA
HETATM   48  H19 UNL     1       6.371  11.492  21.771  1.00  0.00     0.167 HD
ENDBRANCH  45  47
ENDBRANCH  37  45
ENDBRANCH  35  37
ENDBRANCH  32  33
ENDBRANCH  31  32
ENDBRANCH  29  31
ENDBRANCH  28  29
ENDBRANCH  27  28
ENDBRANCH  25  27
ENDBRANCH   1  25
TORSDOF 14
ENDMDL
MODEL 5
REMARK minimizedAffinity -9.8099165
REMARK CNNscore 0.443886995
REMARK CNNaffinity 7.22889709
REMARK  14 active torsions:
REMARK  status: ('A' for Active; 'I' for Inactive)
REMARK    1  A    between atoms: C2_2  and  O2_4 
REMARK    2  A    between atoms: O2_4  and  C3_5 
REMARK    3  A    between atoms: C3_5  and  C4_6 
REMARK    4  A    between atoms: C4_6  and  C5_8 
REMARK    5  A    between atoms: C5_8  and  O4_9 
REMARK    6  A    between atoms: O4_9  and  C6_10 
REMARK    7  A    between atoms: C6_10  and  C7_12 
REMARK    8  A    between atoms: C7_12  and  C8_13 
REMARK    9  A    between atoms: C8_13  and  C9_14 
REMARK       I    between atoms: C9_14  and  N1_16 
REMARK   10  A    between atoms: N1_16  and  C10_17 
REMARK   11  A    between atoms: C10_17  and  C11_18 
REMARK   12  A    between atoms: C10_17  and  C18_25 
REMARK   13  A    between atoms: C11_18  and  C12_19 
REMARK   14  A    between atoms: C18_25  and  O8_27 
ROOT
HETATM    1  C3  UNL     1       1.155   6.548  10.995  1.00  0.00     0.140 C 
HETATM    2  C19 UNL     1       1.395   5.002  11.049  1.00  0.00     0.048 C 
HETATM    3  C20 UNL     1       0.147   4.368  11.696  1.00  0.00     0.009 C 
HETATM    4  C21 UNL     1      -0.824   5.529  11.884  1.00  0.00     0.002 C 
HETATM    5  C22 UNL     1      -1.962   5.392  12.908  1.00  0.00    -0.004 C 
HETATM    6  C23 UNL     1      -2.831   4.132  12.723  1.00  0.00     0.010 C 
HETATM    7  C24 UNL     1      -4.278   4.416  12.331  1.00  0.00     0.035 C 
HETATM    8  C25 UNL     1      -4.957   5.482  13.165  1.00  0.00    -0.068 C 
HETATM    9  C26 UNL     1      -6.301   5.487  13.254  1.00  0.00     0.053 C 
HETATM   10  C27 UNL     1      -7.038   6.584  13.921  1.00  0.00     0.149 C 
HETATM   11  O9  UNL     1      -8.254   6.482  14.072  1.00  0.00    -0.293 OA
HETATM   12  C28 UNL     1      -6.271   7.788  14.411  1.00  0.00     0.084 C 
HETATM   13  C29 UNL     1      -4.896   7.909  13.757  1.00  0.00     0.022 C 
HETATM   14  C30 UNL     1      -4.085   6.586  13.769  1.00  0.00    -0.016 C 
HETATM   15  C31 UNL     1      -3.733   6.226  15.232  1.00  0.00     0.020 C 
HETATM   16  C32 UNL     1      -2.803   6.709  12.880  1.00  0.00     0.002 C 
HETATM   17  C33 UNL     1      -1.905   7.937  13.161  1.00  0.00     0.007 C 
HETATM   18  C34 UNL     1      -0.726   8.014  12.169  1.00  0.00     0.013 C 
HETATM   19  C35 UNL     1       0.124   6.731  12.175  1.00  0.00    -0.001 C 
HETATM   20  C36 UNL     1       0.823   6.608  13.566  1.00  0.00     0.019 C 
ENDROOT
BRANCH   1  21
HETATM   21  O2  UNL     1       0.503   6.757   9.714  1.00  0.00    -0.301 OA
BRANCH  21  22
HETATM   22  C2  UNL     1       0.910   7.759   8.895  1.00  0.00     0.256 C 
HETATM   23  C1  UNL     1       1.926   7.241   7.927  1.00  0.00     0.126 C 
HETATM   24  O1  UNL     1       0.519   8.914   8.926  1.00  0.00    -0.266 OA
ENDBRANCH  21  22
ENDBRANCH   1  21
BRANCH   1  25
HETATM   25  C4  UNL     1       2.519   7.283  11.145  1.00  0.00     0.186 C 
HETATM   26  O3  UNL     1       2.601   8.485  11.419  1.00  0.00    -0.292 OA
BRANCH  25  27
HETATM   27  C5  UNL     1       3.800   6.459  11.018  1.00  0.00     0.260 C 
BRANCH  27  28
HETATM   28  O4  UNL     1       4.800   7.090  10.225  1.00  0.00    -0.314 OA
BRANCH  28  29
HETATM   29  C6  UNL     1       6.055   7.030  10.752  1.00  0.00     0.259 C 
HETATM   30  O5  UNL     1       6.847   6.113  10.584  1.00  0.00    -0.265 OA
BRANCH  29  31
HETATM   31  C7  UNL     1       6.302   8.251  11.603  1.00  0.00     0.120 C 
BRANCH  31  32
HETATM   32  C8  UNL     1       6.466   7.873  13.069  1.00  0.00     0.112 C 
BRANCH  32  33
HETATM   33  C9  UNL     1       7.893   8.064  13.540  1.00  0.00     0.218 C 
HETATM   34  O6  UNL     1       8.865   7.605  12.947  1.00  0.00    -0.274 OA
HETATM   35  N1  UNL     1       7.992   8.845  14.661  1.00  0.00    -0.346 N 
HETATM   36  H10 UNL     1       7.160   9.092  15.188  1.00  0.00     0.163 HD
BRANCH  35  37
HETATM   37  C10 UNL     1       9.271   9.115  15.322  1.00  0.00     0.186 C 
BRANCH  37  38
HETATM   38  C11 UNL     1       9.735  10.572  15.161  1.00  0.00     0.074 C 
BRANCH  38  39
HETATM   39  C12 UNL     1      11.230  10.735  14.972  1.00  0.00    -0.056 A 
HETATM   40  C13 UNL     1      11.871  10.167  13.864  1.00  0.00     0.007 A 
HETATM   41  C14 UNL     1      13.244  10.337  13.676  1.00  0.00     0.001 A 
HETATM   42  C15 UNL     1      13.987  11.076  14.594  1.00  0.00     0.000 A 
HETATM   43  C16 UNL     1      13.361  11.640  15.703  1.00  0.00     0.001 A 
HETATM   44  C17 UNL     1      11.989  11.470  15.893  1.00  0.00     0.007 A 
ENDBRANCH  38  39
ENDBRANCH  37  38
BRANCH  37  45
HETATM   45  C18 UNL     1       9.207   8.729  16.804  1.00  0.00     0.163 C 
HETATM   46  O7  UNL     1       9.355   9.477  17.757  1.00  0.00    -0.648 OA
BRANCH  45  47
HETATM   47  O8  UNL     1       8.959   7.413  17.010  1.00  0.00    -0.775 OA
HETATM   48  H19 UNL     1       8.947   7.330  17.987  1.00  0.00     0.167 HD
ENDBRANCH  45  47
ENDBRANCH  37  45
ENDBRANCH  35  37
ENDBRANCH  32  33
ENDBRANCH  31  32
ENDBRANCH  29  31
ENDBRANCH  28  29
ENDBRANCH  27  28
ENDBRANCH  25  27
ENDBRANCH   1  25
TORSDOF 14
ENDMDL
MODEL 6
REMARK minimizedAffinity -7.74519205
REMARK CNNscore 0.428996176
REMARK CNNaffinity 7.3594799
REMARK  14 active torsions:
REMARK  status: ('A' for Active; 'I' for Inactive)
REMARK    1  A    between atoms: C2_2  and  O2_4 
REMARK    2  A    between atoms: O2_4  and  C3_5 
REMARK    3  A    between atoms: C3_5  and  C4_6 
REMARK    4  A    between atoms: C4_6  and  C5_8 
REMARK    5  A    between atoms: C5_8  and  O4_9 
REMARK    6  A    between atoms: O4_9  and  C6_10 
REMARK    7  A    between atoms: C6_10  and  C7_12 
REMARK    8  A    between atoms: C7_12  and  C8_13 
REMARK    9  A    between atoms: C8_13  and  C9_14 
REMARK       I    between atoms: C9_14  and  N1_16 
REMARK   10  A    between atoms: N1_16  and  C10_17 
REMARK   11  A    between atoms: C10_17  and  C11_18 
REMARK   12  A    between atoms: C10_17  and  C18_25 
REMARK   13  A    between atoms: C11_18  and  C12_19 
REMARK   14  A    between atoms: C18_25  and  O8_27 
ROOT
HETATM    1  C3  UNL     1      -5.482   6.682  14.625  1.00  0.00     0.140 C 
HETATM    2  C19 UNL     1      -5.934   5.211  14.339  1.00  0.00     0.048 C 
HETATM    3  C20 UNL     1      -7.459   5.238  14.106  1.00  0.00     0.009 C 
HETATM    4  C21 UNL     1      -7.829   6.718  14.138  1.00  0.00     0.002 C 
HETATM    5  C22 UNL     1      -9.287   7.117  14.415  1.00  0.00    -0.004 C 
HETATM    6  C23 UNL     1     -10.316   6.437  13.488  1.00  0.00     0.010 C 
HETATM    7  C24 UNL     1     -11.057   7.394  12.559  1.00  0.00     0.035 C 
HETATM    8  C25 UNL     1     -11.605   8.631  13.239  1.00  0.00    -0.068 C 
HETATM    9  C26 UNL     1     -12.644   9.279  12.681  1.00  0.00     0.053 C 
HETATM   10  C27 UNL     1     -13.131  10.577  13.203  1.00  0.00     0.149 C 
HETATM   11  O9  UNL     1     -14.151  11.069  12.725  1.00  0.00    -0.293 OA
HETATM   12  C28 UNL     1     -12.367  11.248  14.320  1.00  0.00     0.084 C 
HETATM   13  C29 UNL     1     -10.945  10.710  14.459  1.00  0.00     0.022 C 
HETATM   14  C30 UNL     1     -10.866   9.160  14.472  1.00  0.00    -0.016 C 
HETATM   15  C31 UNL     1     -11.554   8.633  15.753  1.00  0.00     0.020 C 
HETATM   16  C32 UNL     1      -9.381   8.675  14.372  1.00  0.00     0.002 C 
HETATM   17  C33 UNL     1      -8.397   9.311  15.382  1.00  0.00     0.007 C 
HETATM   18  C34 UNL     1      -6.950   8.839  15.134  1.00  0.00     0.013 C 
HETATM   19  C35 UNL     1      -6.823   7.305  15.173  1.00  0.00    -0.001 C 
HETATM   20  C36 UNL     1      -7.123   6.821  16.627  1.00  0.00     0.019 C 
ENDROOT
BRANCH   1  21
HETATM   21  O2  UNL     1      -5.175   7.215  13.309  1.00  0.00    -0.301 OA
BRANCH  21  22
HETATM   22  C2  UNL     1      -3.893   7.246  12.865  1.00  0.00     0.256 C 
HETATM   23  C1  UNL     1      -3.464   8.664  12.655  1.00  0.00     0.126 C 
HETATM   24  O1  UNL     1      -3.180   6.277  12.661  1.00  0.00    -0.266 OA
ENDBRANCH  21  22
ENDBRANCH   1  21
BRANCH   1  25
HETATM   25  C4  UNL     1      -4.272   6.664  15.604  1.00  0.00     0.186 C 
HETATM   26  O3  UNL     1      -3.796   5.617  16.055  1.00  0.00    -0.292 OA
BRANCH  25  27
HETATM   27  C5  UNL     1      -3.610   7.996  15.955  1.00  0.00     0.260 C 
BRANCH  27  28
HETATM   28  O4  UNL     1      -2.383   7.846  16.660  1.00  0.00    -0.314 OA
BRANCH  28  29
HETATM   29  C6  UNL     1      -1.330   8.509  16.104  1.00  0.00     0.259 C 
HETATM   30  O5  UNL     1      -0.937   9.617  16.441  1.00  0.00    -0.265 OA
BRANCH  29  31
HETATM   31  C7  UNL     1      -0.750   7.681  14.984  1.00  0.00     0.120 C 
BRANCH  31  32
HETATM   32  C8  UNL     1       0.151   8.523  14.090  1.00  0.00     0.112 C 
BRANCH  32  33
HETATM   33  C9  UNL     1       1.485   7.849  13.845  1.00  0.00     0.218 C 
HETATM   34  O6  UNL     1       1.813   6.792  14.376  1.00  0.00    -0.274 OA
HETATM   35  N1  UNL     1       2.265   8.508  12.932  1.00  0.00    -0.346 N 
HETATM   36  H10 UNL     1       2.010   9.441  12.620  1.00  0.00     0.163 HD
BRANCH  35  37
HETATM   37  C10 UNL     1       3.618   8.066  12.585  1.00  0.00     0.186 C 
BRANCH  37  38
HETATM   38  C11 UNL     1       3.639   7.038  11.442  1.00  0.00     0.074 C 
BRANCH  38  39
HETATM   39  C12 UNL     1       2.809   7.426  10.235  1.00  0.00    -0.056 A 
HETATM   40  C13 UNL     1       1.418   7.263  10.248  1.00  0.00     0.007 A 
HETATM   41  C14 UNL     1       0.650   7.643   9.147  1.00  0.00     0.001 A 
HETATM   42  C15 UNL     1       1.266   8.189   8.022  1.00  0.00     0.000 A 
HETATM   43  C16 UNL     1       2.649   8.351   7.996  1.00  0.00     0.001 A 
HETATM   44  C17 UNL     1       3.419   7.970   9.096  1.00  0.00     0.007 A 
ENDBRANCH  38  39
ENDBRANCH  37  38
BRANCH  37  45
HETATM   45  C18 UNL     1       4.510   9.266  12.251  1.00  0.00     0.163 C 
HETATM   46  O7  UNL     1       5.489   9.261  11.521  1.00  0.00    -0.648 OA
BRANCH  45  47
HETATM   47  O8  UNL     1       4.124  10.414  12.856  1.00  0.00    -0.775 OA
HETATM   48  H19 UNL     1       4.781  11.072  12.545  1.00  0.00     0.167 HD
ENDBRANCH  45  47
ENDBRANCH  37  45
ENDBRANCH  35  37
ENDBRANCH  32  33
ENDBRANCH  31  32
ENDBRANCH  29  31
ENDBRANCH  28  29
ENDBRANCH  27  28
ENDBRANCH  25  27
ENDBRANCH   1  25
TORSDOF 14
ENDMDL
MODEL 7
REMARK minimizedAffinity -9.93155956
REMARK CNNscore 0.416529059
REMARK CNNaffinity 7.24517298
REMARK  14 active torsions:
REMARK  status: ('A' for Active; 'I' for Inactive)
REMARK    1  A    between atoms: C2_2  and  O2_4 
REMARK    2  A    between atoms: O2_4  and  C3_5 
REMARK    3  A    between atoms: C3_5  and  C4_6 
REMARK    4  A    between atoms: C4_6  and  C5_8 
REMARK    5  A    between atoms: C5_8  and  O4_9 
REMARK    6  A    between atoms: O4_9  and  C6_10 
REMARK    7  A    between atoms: C6_10  and  C7_12 
REMARK    8  A    between atoms: C7_12  and  C8_13 
REMARK    9  A    between atoms: C8_13  and  C9_14 
REMARK       I    between atoms: C9_14  and  N1_16 
REMARK   10  A    between atoms: N1_16  and  C10_17 
REMARK   11  A    between atoms: C10_17  and  C11_18 
REMARK   12  A    between atoms: C10_17  and  C18_25 
REMARK   13  A    between atoms: C11_18  and  C12_19 
REMARK   14  A    between atoms: C18_25  and  O8_27 
ROOT
HETATM    1  C3  UNL     1      -2.217   6.981  13.754  1.00  0.00     0.140 C 
HETATM    2  C19 UNL     1      -2.103   5.537  13.162  1.00  0.00     0.048 C 
HETATM    3  C20 UNL     1      -3.529   4.950  13.111  1.00  0.00     0.009 C 
HETATM    4  C21 UNL     1      -4.435   6.096  13.550  1.00  0.00     0.002 C 
HETATM    5  C22 UNL     1      -5.845   5.774  14.073  1.00  0.00    -0.004 C 
HETATM    6  C23 UNL     1      -6.688   4.900  13.124  1.00  0.00     0.010 C 
HETATM    7  C24 UNL     1      -7.917   5.597  12.548  1.00  0.00     0.035 C 
HETATM    8  C25 UNL     1      -8.756   6.335  13.570  1.00  0.00    -0.068 C 
HETATM    9  C26 UNL     1     -10.056   6.565  13.306  1.00  0.00     0.053 C 
HETATM   10  C27 UNL     1     -10.897   7.411  14.185  1.00  0.00     0.149 C 
HETATM   11  O9  UNL     1     -12.101   7.496  13.957  1.00  0.00    -0.293 OA
HETATM   12  C28 UNL     1     -10.249   8.130  15.343  1.00  0.00     0.084 C 
HETATM   13  C29 UNL     1      -8.733   8.238  15.189  1.00  0.00     0.022 C 
HETATM   14  C30 UNL     1      -8.052   6.897  14.808  1.00  0.00    -0.016 C 
HETATM   15  C31 UNL     1      -8.202   5.904  15.985  1.00  0.00     0.020 C 
HETATM   16  C32 UNL     1      -6.550   7.122  14.430  1.00  0.00     0.002 C 
HETATM   17  C33 UNL     1      -5.712   7.923  15.454  1.00  0.00     0.007 C 
HETATM   18  C34 UNL     1      -4.278   8.170  14.941  1.00  0.00     0.013 C 
HETATM   19  C35 UNL     1      -3.554   6.860  14.583  1.00  0.00    -0.001 C 
HETATM   20  C36 UNL     1      -3.339   6.040  15.894  1.00  0.00     0.019 C 
ENDROOT
BRANCH   1  21
HETATM   21  O2  UNL     1      -2.418   7.823  12.588  1.00  0.00    -0.301 OA
BRANCH  21  22
HETATM   22  C2  UNL     1      -1.616   8.896  12.372  1.00  0.00     0.256 C 
HETATM   23  C1  UNL     1      -0.592   8.563  11.333  1.00  0.00     0.126 C 
HETATM   24  O1  UNL     1      -1.700   9.978  12.930  1.00  0.00    -0.266 OA
ENDBRANCH  21  22
ENDBRANCH   1  21
BRANCH   1  25
HETATM   25  C4  UNL     1      -0.927   7.307  14.562  1.00  0.00     0.186 C 
HETATM   26  O3  UNL     1       0.170   6.805  14.294  1.00  0.00    -0.292 OA
BRANCH  25  27
HETATM   27  C5  UNL     1      -1.019   8.346  15.679  1.00  0.00     0.260 C 
BRANCH  27  28
HETATM   28  O4  UNL     1       0.231   8.954  15.986  1.00  0.00    -0.314 OA
BRANCH  28  29
HETATM   29  C6  UNL     1       0.187   9.835  17.025  1.00  0.00     0.259 C 
HETATM   30  O5  UNL     1      -0.813  10.428  17.404  1.00  0.00    -0.265 OA
BRANCH  29  31
HETATM   31  C7  UNL     1       1.569   9.995  17.607  1.00  0.00     0.120 C 
BRANCH  31  32
HETATM   32  C8  UNL     1       1.581  11.048  18.708  1.00  0.00     0.112 C 
BRANCH  32  33
HETATM   33  C9  UNL     1       2.659  10.771  19.736  1.00  0.00     0.218 C 
HETATM   34  O6  UNL     1       3.859  10.829  19.486  1.00  0.00    -0.274 OA
HETATM   35  N1  UNL     1       2.161  10.505  20.984  1.00  0.00    -0.346 N 
HETATM   36  H10 UNL     1       1.167  10.341  21.114  1.00  0.00     0.163 HD
BRANCH  35  37
HETATM   37  C10 UNL     1       3.020  10.155  22.117  1.00  0.00     0.186 C 
BRANCH  37  38
HETATM   38  C11 UNL     1       3.205  11.313  23.112  1.00  0.00     0.074 C 
BRANCH  38  39
HETATM   39  C12 UNL     1       4.532  12.033  22.993  1.00  0.00    -0.056 A 
HETATM   40  C13 UNL     1       4.572  13.415  22.762  1.00  0.00     0.007 A 
HETATM   41  C14 UNL     1       5.793  14.083  22.677  1.00  0.00     0.001 A 
HETATM   42  C15 UNL     1       6.986  13.378  22.821  1.00  0.00     0.000 A 
HETATM   43  C16 UNL     1       6.960  12.003  23.045  1.00  0.00     0.001 A 
HETATM   44  C17 UNL     1       5.738  11.332  23.130  1.00  0.00     0.007 A 
ENDBRANCH  38  39
ENDBRANCH  37  38
BRANCH  37  45
HETATM   45  C18 UNL     1       2.491   8.906  22.832  1.00  0.00     0.163 C 
HETATM   46  O7  UNL     1       2.548   8.676  24.029  1.00  0.00    -0.648 OA
BRANCH  45  47
HETATM   47  O8  UNL     1       1.915   8.008  21.997  1.00  0.00    -0.775 OA
HETATM   48  H19 UNL     1       1.633   7.284  22.595  1.00  0.00     0.167 HD
ENDBRANCH  45  47
ENDBRANCH  37  45
ENDBRANCH  35  37
ENDBRANCH  32  33
ENDBRANCH  31  32
ENDBRANCH  29  31
ENDBRANCH  28  29
ENDBRANCH  27  28
ENDBRANCH  25  27
ENDBRANCH   1  25
TORSDOF 14
ENDMDL
MODEL 8
REMARK minimizedAffinity -8.28880119
REMARK CNNscore 0.391101837
REMARK CNNaffinity 7.48178482
REMARK  14 active torsions:
REMARK  status: ('A' for Active; 'I' for Inactive)
REMARK    1  A    between atoms: C2_2  and  O2_4 
REMARK    2  A    between atoms: O2_4  and  C3_5 
REMARK    3  A    between atoms: C3_5  and  C4_6 
REMARK    4  A    between atoms: C4_6  and  C5_8 
REMARK    5  A    between atoms: C5_8  and  O4_9 
REMARK    6  A    between atoms: O4_9  and  C6_10 
REMARK    7  A    between atoms: C6_10  and  C7_12 
REMARK    8  A    between atoms: C7_12  and  C8_13 
REMARK    9  A    between atoms: C8_13  and  C9_14 
REMARK       I    between atoms: C9_14  and  N1_16 
REMARK   10  A    between atoms: N1_16  and  C10_17 
REMARK   11  A    between atoms: C10_17  and  C11_18 
REMARK   12  A    between atoms: C10_17  and  C18_25 
REMARK   13  A    between atoms: C11_18  and  C12_19 
REMARK   14  A    between atoms: C18_25  and  O8_27 
ROOT
HETATM    1  C3  UNL     1      -2.469   6.946  13.691  1.00  0.00     0.140 C 
HETATM    2  C19 UNL     1      -2.416   5.498  13.100  1.00  0.00     0.048 C 
HETATM    3  C20 UNL     1      -3.864   4.965  13.064  1.00  0.00     0.009 C 
HETATM    4  C21 UNL     1      -4.721   6.145  13.512  1.00  0.00     0.002 C 
HETATM    5  C22 UNL     1      -6.136   5.878  14.051  1.00  0.00    -0.004 C 
HETATM    6  C23 UNL     1      -7.022   5.035  13.112  1.00  0.00     0.010 C 
HETATM    7  C24 UNL     1      -8.230   5.779  12.549  1.00  0.00     0.035 C 
HETATM    8  C25 UNL     1      -9.029   6.549  13.580  1.00  0.00    -0.068 C 
HETATM    9  C26 UNL     1     -10.322   6.828  13.330  1.00  0.00     0.053 C 
HETATM   10  C27 UNL     1     -11.121   7.705  14.217  1.00  0.00     0.149 C 
HETATM   11  O9  UNL     1     -12.324   7.836  14.003  1.00  0.00    -0.293 OA
HETATM   12  C28 UNL     1     -10.433   8.400  15.368  1.00  0.00     0.084 C 
HETATM   13  C29 UNL     1      -8.916   8.451  15.197  1.00  0.00     0.022 C 
HETATM   14  C30 UNL     1      -8.290   7.084  14.809  1.00  0.00    -0.016 C 
HETATM   15  C31 UNL     1      -8.465   6.099  15.989  1.00  0.00     0.020 C 
HETATM   16  C32 UNL     1      -6.785   7.251  14.414  1.00  0.00     0.002 C 
HETATM   17  C33 UNL     1      -5.906   8.022  15.428  1.00  0.00     0.007 C 
HETATM   18  C34 UNL     1      -4.470   8.213  14.899  1.00  0.00     0.013 C 
HETATM   19  C35 UNL     1      -3.800   6.876  14.535  1.00  0.00    -0.001 C 
HETATM   20  C36 UNL     1      -3.602   6.049  15.844  1.00  0.00     0.019 C 
ENDROOT
BRANCH   1  21
HETATM   21  O2  UNL     1      -2.650   7.794  12.526  1.00  0.00    -0.301 OA
BRANCH  21  22
HETATM   22  C2  UNL     1      -1.875   8.894  12.352  1.00  0.00     0.256 C 
HETATM   23  C1  UNL     1      -0.894   8.653  11.249  1.00  0.00     0.126 C 
HETATM   24  O1  UNL     1      -1.949   9.932  12.989  1.00  0.00    -0.266 OA
ENDBRANCH  21  22
ENDBRANCH   1  21
BRANCH   1  25
HETATM   25  C4  UNL     1      -1.158   7.223  14.484  1.00  0.00     0.186 C 
HETATM   26  O3  UNL     1      -1.071   8.114  15.334  1.00  0.00    -0.292 OA
BRANCH  25  27
HETATM   27  C5  UNL     1       0.036   6.300  14.246  1.00  0.00     0.260 C 
BRANCH  27  28
HETATM   28  O4  UNL     1       0.996   6.843  13.346  1.00  0.00    -0.314 OA
BRANCH  28  29
HETATM   29  C6  UNL     1       2.123   7.320  13.946  1.00  0.00     0.259 C 
HETATM   30  O5  UNL     1       2.289   7.420  15.154  1.00  0.00    -0.265 OA
BRANCH  29  31
HETATM   31  C7  UNL     1       3.116   7.739  12.891  1.00  0.00     0.120 C 
BRANCH  31  32
HETATM   32  C8  UNL     1       3.174   9.256  12.765  1.00  0.00     0.112 C 
BRANCH  32  33
HETATM   33  C9  UNL     1       4.490   9.810  13.271  1.00  0.00     0.218 C 
HETATM   34  O6  UNL     1       4.701  11.009  13.424  1.00  0.00    -0.274 OA
HETATM   35  N1  UNL     1       5.399   8.837  13.593  1.00  0.00    -0.346 N 
HETATM   36  H10 UNL     1       5.230   7.871  13.329  1.00  0.00     0.163 HD
BRANCH  35  37
HETATM   37  C10 UNL     1       6.756   9.146  14.049  1.00  0.00     0.186 C 
BRANCH  37  38
HETATM   38  C11 UNL     1       7.121   8.446  15.369  1.00  0.00     0.074 C 
BRANCH  38  39
HETATM   39  C12 UNL     1       7.759   9.352  16.402  1.00  0.00    -0.056 A 
HETATM   40  C13 UNL     1       7.028  10.402  16.973  1.00  0.00     0.007 A 
HETATM   41  C14 UNL     1       7.606  11.222  17.942  1.00  0.00     0.001 A 
HETATM   42  C15 UNL     1       8.920  11.001  18.350  1.00  0.00     0.000 A 
HETATM   43  C16 UNL     1       9.659   9.963  17.785  1.00  0.00     0.001 A 
HETATM   44  C17 UNL     1       9.082   9.142  16.814  1.00  0.00     0.007 A 
ENDBRANCH  38  39
ENDBRANCH  37  38
BRANCH  37  45
HETATM   45  C18 UNL     1       7.782   8.815  12.960  1.00  0.00     0.163 C 
HETATM   46  O7  UNL     1       8.172   7.702  12.642  1.00  0.00    -0.648 OA
BRANCH  45  47
HETATM   47  O8  UNL     1       8.267   9.908  12.323  1.00  0.00    -0.775 OA
HETATM   48  H19 UNL     1       8.895   9.535  11.669  1.00  0.00     0.167 HD
ENDBRANCH  45  47
ENDBRANCH  37  45
ENDBRANCH  35  37
ENDBRANCH  32  33
ENDBRANCH  31  32
ENDBRANCH  29  31
ENDBRANCH  28  29
ENDBRANCH  27  28
ENDBRANCH  25  27
ENDBRANCH   1  25
TORSDOF 14
ENDMDL
MODEL 9
REMARK minimizedAffinity -8.92508316
REMARK CNNscore 0.347343713
REMARK CNNaffinity 7.10523081
REMARK  14 active torsions:
REMARK  status: ('A' for Active; 'I' for Inactive)
REMARK    1  A    between atoms: C2_2  and  O2_4 
REMARK    2  A    between atoms: O2_4  and  C3_5 
REMARK    3  A    between atoms: C3_5  and  C4_6 
REMARK    4  A    between atoms: C4_6  and  C5_8 
REMARK    5  A    between atoms: C5_8  and  O4_9 
REMARK    6  A    between atoms: O4_9  and  C6_10 
REMARK    7  A    between atoms: C6_10  and  C7_12 
REMARK    8  A    between atoms: C7_12  and  C8_13 
REMARK    9  A    between atoms: C8_13  and  C9_14 
REMARK       I    between atoms: C9_14  and  N1_16 
REMARK   10  A    between atoms: N1_16  and  C10_17 
REMARK   11  A    between atoms: C10_17  and  C11_18 
REMARK   12  A    between atoms: C10_17  and  C18_25 
REMARK   13  A    between atoms: C11_18  and  C12_19 
REMARK   14  A    between atoms: C18_25  and  O8_27 
ROOT
HETATM    1  C3  UNL     1       1.899   6.937  10.833  1.00  0.00     0.140 C 
HETATM    2  C19 UNL     1       2.464   5.478  10.811  1.00  0.00     0.048 C 
HETATM    3  C20 UNL     1       1.345   4.547  11.324  1.00  0.00     0.009 C 
HETATM    4  C21 UNL     1       0.137   5.459  11.509  1.00  0.00     0.002 C 
HETATM    5  C22 UNL     1      -1.004   5.008  12.436  1.00  0.00    -0.004 C 
HETATM    6  C23 UNL     1      -1.567   3.610  12.111  1.00  0.00     0.010 C 
HETATM    7  C24 UNL     1      -3.015   3.610  11.630  1.00  0.00     0.035 C 
HETATM    8  C25 UNL     1      -3.957   4.443  12.474  1.00  0.00    -0.068 C 
HETATM    9  C26 UNL     1      -5.272   4.156  12.463  1.00  0.00     0.053 C 
HETATM   10  C27 UNL     1      -6.269   5.020  13.139  1.00  0.00     0.149 C 
HETATM   11  O9  UNL     1      -7.440   4.652  13.192  1.00  0.00    -0.293 OA
HETATM   12  C28 UNL     1      -5.810   6.319  13.756  1.00  0.00     0.084 C 
HETATM   13  C29 UNL     1      -4.457   6.777  13.214  1.00  0.00     0.022 C 
HETATM   14  C30 UNL     1      -3.382   5.658  13.207  1.00  0.00    -0.016 C 
HETATM   15  C31 UNL     1      -3.049   5.272  14.667  1.00  0.00     0.020 C 
HETATM   16  C32 UNL     1      -2.106   6.115  12.425  1.00  0.00     0.002 C 
HETATM   17  C33 UNL     1      -1.514   7.482  12.844  1.00  0.00     0.007 C 
HETATM   18  C34 UNL     1      -0.322   7.880  11.949  1.00  0.00     0.013 C 
HETATM   19  C35 UNL     1       0.784   6.810  11.941  1.00  0.00    -0.001 C 
HETATM   20  C36 UNL     1       1.408   6.734  13.370  1.00  0.00     0.019 C 
ENDROOT
BRANCH   1  21
HETATM   21  O2  UNL     1       1.295   7.098   9.521  1.00  0.00    -0.301 OA
BRANCH  21  22
HETATM   22  C2  UNL     1       2.041   6.939   8.400  1.00  0.00     0.256 C 
HETATM   23  C1  UNL     1       2.343   8.275   7.798  1.00  0.00     0.126 C 
HETATM   24  O1  UNL     1       2.420   5.877   7.935  1.00  0.00    -0.266 OA
ENDBRANCH  21  22
ENDBRANCH   1  21
BRANCH   1  25
HETATM   25  C4  UNL     1       3.060   7.931  11.127  1.00  0.00     0.186 C 
HETATM   26  O3  UNL     1       2.869   9.054  11.606  1.00  0.00    -0.292 OA
BRANCH  25  27
HETATM   27  C5  UNL     1       4.492   7.460  10.879  1.00  0.00     0.260 C 
BRANCH  27  28
HETATM   28  O4  UNL     1       5.352   8.493  10.410  1.00  0.00    -0.314 OA
BRANCH  28  29
HETATM   29  C6  UNL     1       6.547   8.568  11.061  1.00  0.00     0.259 C 
HETATM   30  O5  UNL     1       7.269   9.555  11.095  1.00  0.00    -0.265 OA
BRANCH  29  31
HETATM   31  C7  UNL     1       6.858   7.237  11.698  1.00  0.00     0.120 C 
BRANCH  31  32
HETATM   32  C8  UNL     1       6.873   7.347  13.217  1.00  0.00     0.112 C 
BRANCH  32  33
HETATM   33  C9  UNL     1       8.193   7.888  13.726  1.00  0.00     0.218 C 
HETATM   34  O6  UNL     1       9.272   7.636  13.198  1.00  0.00    -0.274 OA
HETATM   35  N1  UNL     1       8.056   8.728  14.799  1.00  0.00    -0.346 N 
HETATM   36  H10 UNL     1       7.164   8.803  15.280  1.00  0.00     0.163 HD
BRANCH  35  37
HETATM   37  C10 UNL     1       9.204   9.321  15.488  1.00  0.00     0.186 C 
BRANCH  37  38
HETATM   38  C11 UNL     1       9.212  10.858  15.430  1.00  0.00     0.074 C 
BRANCH  38  39
HETATM   39  C12 UNL     1       7.888  11.475  15.027  1.00  0.00    -0.056 A 
HETATM   40  C13 UNL     1       6.921  11.776  15.995  1.00  0.00     0.007 A 
HETATM   41  C14 UNL     1       5.712  12.367  15.628  1.00  0.00     0.001 A 
HETATM   42  C15 UNL     1       5.457  12.662  14.290  1.00  0.00     0.000 A 
HETATM   43  C16 UNL     1       6.409  12.362  13.318  1.00  0.00     0.001 A 
HETATM   44  C17 UNL     1       7.620  11.769  13.683  1.00  0.00     0.007 A 
ENDBRANCH  38  39
ENDBRANCH  37  38
BRANCH  37  45
HETATM   45  C18 UNL     1       9.277   8.833  16.938  1.00  0.00     0.163 C 
HETATM   46  O7  UNL     1       9.679   9.470  17.900  1.00  0.00    -0.648 OA
BRANCH  45  47
HETATM   47  O8  UNL     1       8.838   7.562  17.105  1.00  0.00    -0.775 OA
HETATM   48  H19 UNL     1       8.945   7.405  18.067  1.00  0.00     0.167 HD
ENDBRANCH  45  47
ENDBRANCH  37  45
ENDBRANCH  35  37
ENDBRANCH  32  33
ENDBRANCH  31  32
ENDBRANCH  29  31
ENDBRANCH  28  29
ENDBRANCH  27  28
ENDBRANCH  25  27
ENDBRANCH   1  25
TORSDOF 14
ENDMDL
