MODEL 1
REMARK minimizedAffinity -8.92295837
REMARK CNNscore 0.654538393
REMARK CNNaffinity 7.21701097
REMARK  6 active torsions:
REMARK  status: ('A' for Active; 'I' for Inactive)
REMARK    1  A    between atoms: C2_2  and  O2_4 
REMARK    2  A    between atoms: O2_4  and  C3_5 
REMARK    3  A    between atoms: C13_15  and  C14_16 
REMARK    4  A    between atoms: C14_16  and  C16_18 
REMARK    5  A    between atoms: C16_18  and  C17_19 
REMARK    6  A    between atoms: C17_19  and  C18_20 
ROOT
HETATM    1  C3  UNL     1      -5.856   5.138  13.339  1.00  0.00     0.132 C 
HETATM    2  C4  UNL     1      -4.923   4.190  12.579  1.00  0.00     0.033 C 
HETATM    3  C5  UNL     1      -3.746   4.932  11.947  1.00  0.00     0.013 C 
HETATM    4  C6  UNL     1      -3.004   5.740  13.000  1.00  0.00    -0.028 A 
HETATM    5  C7  UNL     1      -1.940   5.024  13.793  1.00  0.00     0.021 A 
HETATM    6  C8  UNL     1      -1.522   6.112  12.810  1.00  0.00    -0.027 A 
HETATM    7  C9  UNL     1      -0.760   5.606  11.599  1.00  0.00     0.011 C 
HETATM    8  C10 UNL     1       0.731   5.792  11.810  1.00  0.00     0.011 C 
HETATM    9  C11 UNL     1       1.191   7.263  11.915  1.00  0.00    -0.032 C 
HETATM   10  C12 UNL     1       2.433   7.250  12.841  1.00  0.00     0.016 C 
HETATM   11  C13 UNL     1       1.521   7.965  10.549  1.00  0.00    -0.002 C 
HETATM   12  C22 UNL     1       0.167   8.448  10.017  1.00  0.00     0.006 C 
HETATM   13  C23 UNL     1      -0.701   8.745  11.233  1.00  0.00     0.011 C 
HETATM   14  C24 UNL     1       0.031   8.192  12.491  1.00  0.00    -0.032 C 
HETATM   15  C25 UNL     1       0.608   9.423  13.249  1.00  0.00     0.016 C 
HETATM   16  C26 UNL     1      -0.956   7.412  13.445  1.00  0.00     0.004 C 
HETATM   17  C27 UNL     1      -2.062   8.342  14.001  1.00  0.00     0.006 C 
HETATM   18  C28 UNL     1      -3.198   7.614  14.704  1.00  0.00     0.006 C 
HETATM   19  C29 UNL     1      -3.929   6.720  13.707  1.00  0.00    -0.003 C 
HETATM   20  C30 UNL     1      -5.077   5.956  14.378  1.00  0.00     0.038 C 
ENDROOT
BRANCH  11  21
HETATM   21  C14 UNL     1       2.423   7.342   9.434  1.00  0.00    -0.014 C 
HETATM   22  C15 UNL     1       2.964   5.963   9.826  1.00  0.00     0.010 C 
BRANCH  21  23
HETATM   23  C16 UNL     1       1.870   7.325   7.988  1.00  0.00     0.008 C 
BRANCH  23  24
HETATM   24  C17 UNL     1       2.535   6.252   7.111  1.00  0.00     0.028 C 
BRANCH  24  25
HETATM   25  C18 UNL     1       3.290   5.254   7.949  1.00  0.00    -0.025 C 
HETATM   26  C19 UNL     1       3.822   4.083   7.550  1.00  0.00    -0.091 C 
HETATM   27  C20 UNL     1       3.709   3.513   6.162  1.00  0.00     0.042 C 
HETATM   28  C21 UNL     1       4.594   3.222   8.516  1.00  0.00     0.042 C 
ENDBRANCH  24  25
ENDBRANCH  23  24
ENDBRANCH  21  23
ENDBRANCH  11  21
BRANCH   1  29
HETATM   29  O2  UNL     1      -6.852   4.325  13.989  1.00  0.00    -0.316 OA
BRANCH  29  30
HETATM   30  C2  UNL     1      -7.817   3.799  13.186  1.00  0.00     0.255 C 
HETATM   31  C1  UNL     1      -7.569   2.336  12.984  1.00  0.00     0.126 C 
HETATM   32  O1  UNL     1      -8.745   4.417  12.687  1.00  0.00    -0.266 OA
ENDBRANCH  29  30
ENDBRANCH   1  29
TORSDOF 6
ENDMDL
MODEL 2
REMARK minimizedAffinity -8.90916538
REMARK CNNscore 0.433327228
REMARK CNNaffinity 7.0277133
REMARK  6 active torsions:
REMARK  status: ('A' for Active; 'I' for Inactive)
REMARK    1  A    between atoms: C2_2  and  O2_4 
REMARK    2  A    between atoms: O2_4  and  C3_5 
REMARK    3  A    between atoms: C13_15  and  C14_16 
REMARK    4  A    between atoms: C14_16  and  C16_18 
REMARK    5  A    between atoms: C16_18  and  C17_19 
REMARK    6  A    between atoms: C17_19  and  C18_20 
ROOT
HETATM    1  C3  UNL     1      -0.692   6.472  11.541  1.00  0.00     0.132 C 
HETATM    2  C4  UNL     1      -1.205   7.475  12.580  1.00  0.00     0.033 C 
HETATM    3  C5  UNL     1      -2.719   7.385  12.762  1.00  0.00     0.013 C 
HETATM    4  C6  UNL     1      -3.128   5.959  13.096  1.00  0.00    -0.028 A 
HETATM    5  C7  UNL     1      -3.075   5.550  14.546  1.00  0.00     0.021 A 
HETATM    6  C8  UNL     1      -4.432   5.669  13.861  1.00  0.00    -0.027 A 
HETATM    7  C9  UNL     1      -5.289   6.817  14.363  1.00  0.00     0.011 C 
HETATM    8  C10 UNL     1      -6.300   6.305  15.374  1.00  0.00     0.011 C 
HETATM    9  C11 UNL     1      -7.344   5.321  14.802  1.00  0.00    -0.032 C 
HETATM   10  C12 UNL     1      -7.720   4.381  15.975  1.00  0.00     0.016 C 
HETATM   11  C13 UNL     1      -8.627   5.983  14.184  1.00  0.00    -0.002 C 
HETATM   12  C22 UNL     1      -8.228   6.357  12.753  1.00  0.00     0.006 C 
HETATM   13  C23 UNL     1      -7.184   5.340  12.310  1.00  0.00     0.011 C 
HETATM   14  C24 UNL     1      -6.758   4.515  13.559  1.00  0.00    -0.032 C 
HETATM   15  C25 UNL     1      -7.428   3.116  13.418  1.00  0.00     0.016 C 
HETATM   16  C26 UNL     1      -5.192   4.335  13.633  1.00  0.00     0.004 C 
HETATM   17  C27 UNL     1      -4.654   3.535  12.421  1.00  0.00     0.006 C 
HETATM   18  C28 UNL     1      -3.139   3.552  12.281  1.00  0.00     0.006 C 
HETATM   19  C29 UNL     1      -2.664   4.980  12.027  1.00  0.00    -0.003 C 
HETATM   20  C30 UNL     1      -1.138   5.046  11.891  1.00  0.00     0.038 C 
ENDROOT
BRANCH  11  21
HETATM   21  C14 UNL     1      -9.470   7.096  14.889  1.00  0.00    -0.014 C 
HETATM   22  C15 UNL     1      -8.606   8.275  15.351  1.00  0.00     0.010 C 
BRANCH  21  23
HETATM   23  C16 UNL     1     -10.744   7.598  14.168  1.00  0.00     0.008 C 
BRANCH  23  24
HETATM   24  C17 UNL     1     -11.963   6.694  14.416  1.00  0.00     0.028 C 
BRANCH  24  25
HETATM   25  C18 UNL     1     -13.073   7.000  13.447  1.00  0.00    -0.025 C 
HETATM   26  C19 UNL     1     -14.357   6.597  13.515  1.00  0.00    -0.091 C 
HETATM   27  C20 UNL     1     -14.921   5.692  14.577  1.00  0.00     0.042 C 
HETATM   28  C21 UNL     1     -15.357   7.039  12.479  1.00  0.00     0.042 C 
ENDBRANCH  24  25
ENDBRANCH  23  24
ENDBRANCH  21  23
ENDBRANCH  11  21
BRANCH   1  29
HETATM   29  O2  UNL     1       0.746   6.559  11.539  1.00  0.00    -0.316 OA
BRANCH  29  30
HETATM   30  C2  UNL     1       1.356   6.403  10.333  1.00  0.00     0.255 C 
HETATM   31  C1  UNL     1       1.060   7.581   9.457  1.00  0.00     0.126 C 
HETATM   32  O1  UNL     1       2.036   5.446   9.995  1.00  0.00    -0.266 OA
ENDBRANCH  29  30
ENDBRANCH   1  29
TORSDOF 6
ENDMDL
MODEL 3
REMARK minimizedAffinity -6.13583565
REMARK CNNscore 0.418165565
REMARK CNNaffinity 5.90167761
REMARK  6 active torsions:
REMARK  status: ('A' for Active; 'I' for Inactive)
REMARK    1  A    between atoms: C2_2  and  O2_4 
REMARK    2  A    between atoms: O2_4  and  C3_5 
REMARK    3  A    between atoms: C13_15  and  C14_16 
REMARK    4  A    between atoms: C14_16  and  C16_18 
REMARK    5  A    between atoms: C16_18  and  C17_19 
REMARK    6  A    between atoms: C17_19  and  C18_20 
ROOT
HETATM    1  C3  UNL     1     -13.289   2.421  25.798  1.00  0.00     0.132 C 
HETATM    2  C4  UNL     1     -12.449   2.607  24.530  1.00  0.00     0.033 C 
HETATM    3  C5  UNL     1     -13.270   3.190  23.381  1.00  0.00     0.013 C 
HETATM    4  C6  UNL     1     -13.941   4.484  23.815  1.00  0.00    -0.028 A 
HETATM    5  C7  UNL     1     -13.136   5.752  23.691  1.00  0.00     0.021 A 
HETATM    6  C8  UNL     1     -14.341   5.551  22.780  1.00  0.00    -0.027 A 
HETATM    7  C9  UNL     1     -13.996   5.356  21.315  1.00  0.00     0.011 C 
HETATM    8  C10 UNL     1     -14.160   6.666  20.565  1.00  0.00     0.011 C 
HETATM    9  C11 UNL     1     -15.608   7.201  20.508  1.00  0.00    -0.032 C 
HETATM   10  C12 UNL     1     -15.483   8.744  20.447  1.00  0.00     0.016 C 
HETATM   11  C13 UNL     1     -16.478   6.664  19.316  1.00  0.00    -0.002 C 
HETATM   12  C22 UNL     1     -17.018   5.314  19.799  1.00  0.00     0.006 C 
HETATM   13  C23 UNL     1     -17.155   5.413  21.312  1.00  0.00     0.011 C 
HETATM   14  C24 UNL     1     -16.451   6.722  21.773  1.00  0.00    -0.032 C 
HETATM   15  C25 UNL     1     -17.580   7.736  22.124  1.00  0.00     0.016 C 
HETATM   16  C26 UNL     1     -15.553   6.484  23.049  1.00  0.00     0.004 C 
HETATM   17  C27 UNL     1     -16.401   6.036  24.265  1.00  0.00     0.006 C 
HETATM   18  C28 UNL     1     -15.584   5.530  25.445  1.00  0.00     0.006 C 
HETATM   19  C29 UNL     1     -14.820   4.274  25.040  1.00  0.00    -0.003 C 
HETATM   20  C30 UNL     1     -13.973   3.736  26.199  1.00  0.00     0.038 C 
ENDROOT
BRANCH  11  21
HETATM   21  C14 UNL     1     -16.005   6.630  17.826  1.00  0.00    -0.014 C 
HETATM   22  C15 UNL     1     -16.888   5.730  16.955  1.00  0.00     0.010 C 
BRANCH  21  23
HETATM   23  C16 UNL     1     -15.739   7.984  17.124  1.00  0.00     0.008 C 
BRANCH  23  24
HETATM   24  C17 UNL     1     -15.442   7.828  15.624  1.00  0.00     0.028 C 
BRANCH  24  25
HETATM   25  C18 UNL     1     -14.003   7.449  15.392  1.00  0.00    -0.025 C 
HETATM   26  C19 UNL     1     -13.424   7.101  14.226  1.00  0.00    -0.091 C 
HETATM   27  C20 UNL     1     -14.144   6.970  12.911  1.00  0.00     0.042 C 
HETATM   28  C21 UNL     1     -11.950   6.796  14.162  1.00  0.00     0.042 C 
ENDBRANCH  24  25
ENDBRANCH  23  24
ENDBRANCH  21  23
ENDBRANCH  11  21
BRANCH   1  29
HETATM   29  O2  UNL     1     -12.396   1.985  26.841  1.00  0.00    -0.316 OA
BRANCH  29  30
HETATM   30  C2  UNL     1     -12.955   1.785  28.066  1.00  0.00     0.255 C 
HETATM   31  C1  UNL     1     -12.141   2.478  29.115  1.00  0.00     0.126 C 
HETATM   32  O1  UNL     1     -13.960   1.130  28.294  1.00  0.00    -0.266 OA
ENDBRANCH  29  30
ENDBRANCH   1  29
TORSDOF 6
ENDMDL
MODEL 4
REMARK minimizedAffinity -6.13279676
REMARK CNNscore 0.402398974
REMARK CNNaffinity 5.45470667
REMARK  6 active torsions:
REMARK  status: ('A' for Active; 'I' for Inactive)
REMARK    1  A    between atoms: C2_2  and  O2_4 
REMARK    2  A    between atoms: O2_4  and  C3_5 
REMARK    3  A    between atoms: C13_15  and  C14_16 
REMARK    4  A    between atoms: C14_16  and  C16_18 
REMARK    5  A    between atoms: C16_18  and  C17_19 
REMARK    6  A    between atoms: C17_19  and  C18_20 
ROOT
HETATM    1  C3  UNL     1      -6.015  -9.344   8.779  1.00  0.00     0.132 C 
HETATM    2  C4  UNL     1      -7.072  -9.149   7.687  1.00  0.00     0.033 C 
HETATM    3  C5  UNL     1      -6.478  -9.290   6.286  1.00  0.00     0.013 C 
HETATM    4  C6  UNL     1      -5.755 -10.621   6.150  1.00  0.00    -0.028 A 
HETATM    5  C7  UNL     1      -6.585 -11.818   5.760  1.00  0.00     0.021 A 
HETATM    6  C8  UNL     1      -5.560 -11.276   4.770  1.00  0.00    -0.027 A 
HETATM    7  C9  UNL     1      -6.161 -10.634   3.532  1.00  0.00     0.011 C 
HETATM    8  C10 UNL     1      -6.150 -11.622   2.380  1.00  0.00     0.011 C 
HETATM    9  C11 UNL     1      -4.742 -12.040   1.900  1.00  0.00    -0.032 C 
HETATM   10  C12 UNL     1      -4.895 -13.484   1.362  1.00  0.00     0.016 C 
HETATM   11  C13 UNL     1      -4.094 -11.106   0.817  1.00  0.00    -0.002 C 
HETATM   12  C22 UNL     1      -3.459  -9.960   1.613  1.00  0.00     0.006 C 
HETATM   13  C23 UNL     1      -3.054 -10.538   2.963  1.00  0.00     0.011 C 
HETATM   14  C24 UNL     1      -3.680 -11.957   3.085  1.00  0.00    -0.032 C 
HETATM   15  C25 UNL     1      -2.519 -12.976   2.884  1.00  0.00     0.016 C 
HETATM   16  C26 UNL     1      -4.332 -12.188   4.505  1.00  0.00     0.004 C 
HETATM   17  C27 UNL     1      -3.274 -12.117   5.633  1.00  0.00     0.006 C 
HETATM   18  C28 UNL     1      -3.859 -12.060   7.037  1.00  0.00     0.006 C 
HETATM   19  C29 UNL     1      -4.668 -10.777   7.204  1.00  0.00    -0.003 C 
HETATM   20  C30 UNL     1      -5.287 -10.684   8.603  1.00  0.00     0.038 C 
ENDROOT
BRANCH  11  21
HETATM   21  C14 UNL     1      -4.826 -10.614  -0.474  1.00  0.00    -0.014 C 
HETATM   22  C15 UNL     1      -4.539 -11.510  -1.683  1.00  0.00     0.010 C 
BRANCH  21  23
HETATM   23  C16 UNL     1      -6.338 -10.301  -0.368  1.00  0.00     0.008 C 
BRANCH  23  24
HETATM   24  C17 UNL     1      -7.037 -10.272  -1.737  1.00  0.00     0.028 C 
BRANCH  24  25
HETATM   25  C18 UNL     1      -7.541  -8.891  -2.060  1.00  0.00    -0.025 C 
HETATM   26  C19 UNL     1      -8.517  -8.205  -1.433  1.00  0.00    -0.091 C 
HETATM   27  C20 UNL     1      -9.345  -8.733  -0.293  1.00  0.00     0.042 C 
HETATM   28  C21 UNL     1      -8.865  -6.802  -1.858  1.00  0.00     0.042 C 
ENDBRANCH  24  25
ENDBRANCH  23  24
ENDBRANCH  21  23
ENDBRANCH  11  21
BRANCH   1  29
HETATM   29  O2  UNL     1      -6.701  -9.312  10.046  1.00  0.00    -0.316 OA
BRANCH  29  30
HETATM   30  C2  UNL     1      -5.981  -8.862  11.109  1.00  0.00     0.255 C 
HETATM   31  C1  UNL     1      -6.786  -7.865  11.884  1.00  0.00     0.126 C 
HETATM   32  O1  UNL     1      -4.842  -9.201  11.395  1.00  0.00    -0.266 OA
ENDBRANCH  29  30
ENDBRANCH   1  29
TORSDOF 6
ENDMDL
MODEL 5
REMARK minimizedAffinity -8.13453484
REMARK CNNscore 0.400968194
REMARK CNNaffinity 6.65420771
REMARK  6 active torsions:
REMARK  status: ('A' for Active; 'I' for Inactive)
REMARK    1  A    between atoms: C2_2  and  O2_4 
REMARK    2  A    between atoms: O2_4  and  C3_5 
REMARK    3  A    between atoms: C13_15  and  C14_16 
REMARK    4  A    between atoms: C14_16  and  C16_18 
REMARK    5  A    between atoms: C16_18  and  C17_19 
REMARK    6  A    between atoms: C17_19  and  C18_20 
ROOT
HETATM    1  C3  UNL     1      -5.925   4.819  13.193  1.00  0.00     0.132 C 
HETATM    2  C4  UNL     1      -6.685   6.130  13.418  1.00  0.00     0.033 C 
HETATM    3  C5  UNL     1      -5.944   7.063  14.374  1.00  0.00     0.013 C 
HETATM    4  C6  UNL     1      -4.525   7.304  13.884  1.00  0.00    -0.028 A 
HETATM    5  C7  UNL     1      -4.322   8.409  12.879  1.00  0.00     0.021 A 
HETATM    6  C8  UNL     1      -3.756   8.576  14.285  1.00  0.00    -0.027 A 
HETATM    7  C9  UNL     1      -4.440   9.648  15.114  1.00  0.00     0.011 C 
HETATM    8  C10 UNL     1      -3.628  10.930  15.074  1.00  0.00     0.011 C 
HETATM    9  C11 UNL     1      -2.231  10.831  15.726  1.00  0.00    -0.032 C 
HETATM   10  C12 UNL     1      -1.338  11.837  14.958  1.00  0.00     0.016 C 
HETATM   11  C13 UNL     1      -2.187  11.111  17.271  1.00  0.00    -0.002 C 
HETATM   12  C22 UNL     1      -2.562   9.776  17.924  1.00  0.00     0.006 C 
HETATM   13  C23 UNL     1      -2.083   8.678  16.984  1.00  0.00     0.011 C 
HETATM   14  C24 UNL     1      -1.659   9.346  15.643  1.00  0.00    -0.032 C 
HETATM   15  C25 UNL     1      -0.102   9.334  15.613  1.00  0.00     0.016 C 
HETATM   16  C26 UNL     1      -2.207   8.550  14.395  1.00  0.00     0.004 C 
HETATM   17  C27 UNL     1      -1.622   7.118  14.333  1.00  0.00     0.006 C 
HETATM   18  C28 UNL     1      -2.303   6.207  13.322  1.00  0.00     0.006 C 
HETATM   19  C29 UNL     1      -3.761   5.997  13.721  1.00  0.00    -0.003 C 
HETATM   20  C30 UNL     1      -4.490   5.092  12.721  1.00  0.00     0.038 C 
ENDROOT
BRANCH  11  21
HETATM   21  C14 UNL     1      -2.865  12.337  17.963  1.00  0.00    -0.014 C 
HETATM   22  C15 UNL     1      -3.285  13.414  16.958  1.00  0.00     0.010 C 
BRANCH  21  23
HETATM   23  C16 UNL     1      -4.004  12.054  18.973  1.00  0.00     0.008 C 
BRANCH  23  24
HETATM   24  C17 UNL     1      -4.443  13.310  19.742  1.00  0.00     0.028 C 
BRANCH  24  25
HETATM   25  C18 UNL     1      -5.547  12.994  20.715  1.00  0.00    -0.025 C 
HETATM   26  C19 UNL     1      -5.812  13.608  21.884  1.00  0.00    -0.091 C 
HETATM   27  C20 UNL     1      -4.995  14.724  22.476  1.00  0.00     0.042 C 
HETATM   28  C21 UNL     1      -6.996  13.193  22.719  1.00  0.00     0.042 C 
ENDBRANCH  24  25
ENDBRANCH  23  24
ENDBRANCH  21  23
ENDBRANCH  11  21
BRANCH   1  29
HETATM   29  O2  UNL     1      -6.646   4.075  12.192  1.00  0.00    -0.316 OA
BRANCH  29  30
HETATM   30  C2  UNL     1      -6.991   2.801  12.522  1.00  0.00     0.255 C 
HETATM   31  C1  UNL     1      -6.228   1.830  11.674  1.00  0.00     0.126 C 
HETATM   32  O1  UNL     1      -7.808   2.480  13.372  1.00  0.00    -0.266 OA
ENDBRANCH  29  30
ENDBRANCH   1  29
TORSDOF 6
ENDMDL
MODEL 6
REMARK minimizedAffinity -8.87437725
REMARK CNNscore 0.370794058
REMARK CNNaffinity 7.11353064
REMARK  6 active torsions:
REMARK  status: ('A' for Active; 'I' for Inactive)
REMARK    1  A    between atoms: C2_2  and  O2_4 
REMARK    2  A    between atoms: O2_4  and  C3_5 
REMARK    3  A    between atoms: C13_15  and  C14_16 
REMARK    4  A    between atoms: C14_16  and  C16_18 
REMARK    5  A    between atoms: C16_18  and  C17_19 
REMARK    6  A    between atoms: C17_19  and  C18_20 
ROOT
HETATM    1  C3  UNL     1      -7.170   6.156  13.434  1.00  0.00     0.132 C 
HETATM    2  C4  UNL     1      -6.239   4.939  13.448  1.00  0.00     0.033 C 
HETATM    3  C5  UNL     1      -4.824   5.298  12.998  1.00  0.00     0.013 C 
HETATM    4  C6  UNL     1      -4.278   6.444  13.835  1.00  0.00    -0.028 A 
HETATM    5  C7  UNL     1      -3.616   6.087  15.142  1.00  0.00     0.021 A 
HETATM    6  C8  UNL     1      -2.760   6.643  14.009  1.00  0.00    -0.027 A 
HETATM    7  C9  UNL     1      -1.790   5.643  13.407  1.00  0.00     0.011 C 
HETATM    8  C10 UNL     1      -0.408   5.841  14.002  1.00  0.00     0.011 C 
HETATM    9  C11 UNL     1       0.250   7.199  13.672  1.00  0.00    -0.032 C 
HETATM   10  C12 UNL     1       1.163   7.528  14.879  1.00  0.00     0.016 C 
HETATM   11  C13 UNL     1       1.063   7.246  12.329  1.00  0.00    -0.002 C 
HETATM   12  C22 UNL     1       0.014   7.513  11.243  1.00  0.00     0.006 C 
HETATM   13  C23 UNL     1      -1.094   8.330  11.896  1.00  0.00     0.011 C 
HETATM   14  C24 UNL     1      -0.848   8.329  13.432  1.00  0.00    -0.032 C 
HETATM   15  C25 UNL     1      -0.303   9.742  13.797  1.00  0.00     0.016 C 
HETATM   16  C26 UNL     1      -2.180   8.064  14.237  1.00  0.00     0.004 C 
HETATM   17  C27 UNL     1      -3.221   9.186  13.997  1.00  0.00     0.006 C 
HETATM   18  C28 UNL     1      -4.615   8.868  14.517  1.00  0.00     0.006 C 
HETATM   19  C29 UNL     1      -5.181   7.667  13.766  1.00  0.00    -0.003 C 
HETATM   20  C30 UNL     1      -6.584   7.304  14.267  1.00  0.00     0.038 C 
ENDROOT
BRANCH  11  21
HETATM   21  C14 UNL     1       2.119   6.176  11.901  1.00  0.00    -0.014 C 
HETATM   22  C15 UNL     1       1.494   5.029  11.099  1.00  0.00     0.010 C 
BRANCH  21  23
HETATM   23  C16 UNL     1       3.417   6.677  11.222  1.00  0.00     0.008 C 
BRANCH  23  24
HETATM   24  C17 UNL     1       3.161   7.803  10.208  1.00  0.00     0.028 C 
BRANCH  24  25
HETATM   25  C18 UNL     1       3.016   7.256   8.813  1.00  0.00    -0.025 C 
HETATM   26  C19 UNL     1       2.016   7.487   7.941  1.00  0.00    -0.091 C 
HETATM   27  C20 UNL     1       0.794   8.317   8.230  1.00  0.00     0.042 C 
HETATM   28  C21 UNL     1       2.052   6.894   6.556  1.00  0.00     0.042 C 
ENDBRANCH  24  25
ENDBRANCH  23  24
ENDBRANCH  21  23
ENDBRANCH  11  21
BRANCH   1  29
HETATM   29  O2  UNL     1      -8.432   5.733  13.986  1.00  0.00    -0.316 OA
BRANCH  29  30
HETATM   30  C2  UNL     1      -8.935   6.499  14.992  1.00  0.00     0.255 C 
HETATM   31  C1  UNL     1     -10.025   7.380  14.463  1.00  0.00     0.126 C 
HETATM   32  O1  UNL     1      -8.558   6.491  16.153  1.00  0.00    -0.266 OA
ENDBRANCH  29  30
ENDBRANCH   1  29
TORSDOF 6
ENDMDL
MODEL 7
REMARK minimizedAffinity -9.08390999
REMARK CNNscore 0.370319575
REMARK CNNaffinity 6.87751913
REMARK  6 active torsions:
REMARK  status: ('A' for Active; 'I' for Inactive)
REMARK    1  A    between atoms: C2_2  and  O2_4 
REMARK    2  A    between atoms: O2_4  and  C3_5 
REMARK    3  A    between atoms: C13_15  and  C14_16 
REMARK    4  A    between atoms: C14_16  and  C16_18 
REMARK    5  A    between atoms: C16_18  and  C17_19 
REMARK    6  A    between atoms: C17_19  and  C18_20 
ROOT
HETATM    1  C3  UNL     1      -5.404   4.219  12.427  1.00  0.00     0.132 C 
HETATM    2  C4  UNL     1      -4.289   3.414  11.752  1.00  0.00     0.033 C 
HETATM    3  C5  UNL     1      -3.160   4.312  11.249  1.00  0.00     0.013 C 
HETATM    4  C6  UNL     1      -2.632   5.181  12.379  1.00  0.00    -0.028 A 
HETATM    5  C7  UNL     1      -1.567   4.585  13.265  1.00  0.00     0.021 A 
HETATM    6  C8  UNL     1      -1.198   5.740  12.342  1.00  0.00    -0.027 A 
HETATM    7  C9  UNL     1      -0.265   5.363  11.206  1.00  0.00     0.011 C 
HETATM    8  C10 UNL     1       1.164   5.729  11.566  1.00  0.00     0.011 C 
HETATM    9  C11 UNL     1       1.421   7.243  11.733  1.00  0.00    -0.032 C 
HETATM   10  C12 UNL     1       2.559   7.363  12.777  1.00  0.00     0.016 C 
HETATM   11  C13 UNL     1       1.789   8.013  10.414  1.00  0.00    -0.002 C 
HETATM   12  C22 UNL     1       0.443   8.335   9.756  1.00  0.00     0.006 C 
HETATM   13  C23 UNL     1      -0.569   8.492  10.884  1.00  0.00     0.011 C 
HETATM   14  C24 UNL     1       0.102   8.005  12.201  1.00  0.00    -0.032 C 
HETATM   15  C25 UNL     1       0.442   9.280  13.027  1.00  0.00     0.016 C 
HETATM   16  C26 UNL     1      -0.866   7.085  13.044  1.00  0.00     0.004 C 
HETATM   17  C27 UNL     1      -2.130   7.856  13.498  1.00  0.00     0.006 C 
HETATM   18  C28 UNL     1      -3.227   6.974  14.077  1.00  0.00     0.006 C 
HETATM   19  C29 UNL     1      -3.739   6.020  13.002  1.00  0.00    -0.003 C 
HETATM   20  C30 UNL     1      -4.840   5.103  13.547  1.00  0.00     0.038 C 
ENDROOT
BRANCH  11  21
HETATM   21  C14 UNL     1       2.867   7.534   9.387  1.00  0.00    -0.014 C 
HETATM   22  C15 UNL     1       2.918   8.424   8.141  1.00  0.00     0.010 C 
BRANCH  21  23
HETATM   23  C16 UNL     1       4.293   7.252   9.920  1.00  0.00     0.008 C 
BRANCH  23  24
HETATM   24  C17 UNL     1       5.070   8.537  10.247  1.00  0.00     0.028 C 
BRANCH  24  25
HETATM   25  C18 UNL     1       5.771   8.425  11.575  1.00  0.00    -0.025 C 
HETATM   26  C19 UNL     1       6.643   7.475  11.965  1.00  0.00    -0.091 C 
HETATM   27  C20 UNL     1       7.049   6.285  11.138  1.00  0.00     0.042 C 
HETATM   28  C21 UNL     1       7.294   7.541  13.322  1.00  0.00     0.042 C 
ENDBRANCH  24  25
ENDBRANCH  23  24
ENDBRANCH  21  23
ENDBRANCH  11  21
BRANCH   1  29
HETATM   29  O2  UNL     1      -6.347   3.272  12.965  1.00  0.00    -0.316 OA
BRANCH  29  30
HETATM   30  C2  UNL     1      -7.662   3.539  12.740  1.00  0.00     0.255 C 
HETATM   31  C1  UNL     1      -7.835   4.985  12.388  1.00  0.00     0.126 C 
HETATM   32  O1  UNL     1      -8.578   2.735  12.820  1.00  0.00    -0.266 OA
ENDBRANCH  29  30
ENDBRANCH   1  29
TORSDOF 6
ENDMDL
MODEL 8
REMARK minimizedAffinity -8.00513172
REMARK CNNscore 0.346961766
REMARK CNNaffinity 6.96310663
REMARK  6 active torsions:
REMARK  status: ('A' for Active; 'I' for Inactive)
REMARK    1  A    between atoms: C2_2  and  O2_4 
REMARK    2  A    between atoms: O2_4  and  C3_5 
REMARK    3  A    between atoms: C13_15  and  C14_16 
REMARK    4  A    between atoms: C14_16  and  C16_18 
REMARK    5  A    between atoms: C16_18  and  C17_19 
REMARK    6  A    between atoms: C17_19  and  C18_20 
ROOT
HETATM    1  C3  UNL     1      -9.805   6.729  13.684  1.00  0.00     0.132 C 
HETATM    2  C4  UNL     1      -9.031   5.832  12.713  1.00  0.00     0.033 C 
HETATM    3  C5  UNL     1      -7.588   6.300  12.528  1.00  0.00     0.013 C 
HETATM    4  C6  UNL     1      -6.893   6.414  13.876  1.00  0.00    -0.028 A 
HETATM    5  C7  UNL     1      -6.263   5.163  14.433  1.00  0.00     0.021 A 
HETATM    6  C8  UNL     1      -5.361   6.308  13.986  1.00  0.00    -0.027 A 
HETATM    7  C9  UNL     1      -4.530   6.008  12.751  1.00  0.00     0.011 C 
HETATM    8  C10 UNL     1      -3.126   5.601  13.160  1.00  0.00     0.011 C 
HETATM    9  C11 UNL     1      -2.310   6.709  13.862  1.00  0.00    -0.032 C 
HETATM   10  C12 UNL     1      -1.347   5.973  14.827  1.00  0.00     0.016 C 
HETATM   11  C13 UNL     1      -1.516   7.669  12.906  1.00  0.00    -0.002 C 
HETATM   12  C22 UNL     1      -2.538   8.726  12.472  1.00  0.00     0.006 C 
HETATM   13  C23 UNL     1      -3.527   8.876  13.620  1.00  0.00     0.011 C 
HETATM   14  C24 UNL     1      -3.262   7.726  14.634  1.00  0.00    -0.032 C 
HETATM   15  C25 UNL     1      -2.542   8.367  15.857  1.00  0.00     0.016 C 
HETATM   16  C26 UNL     1      -4.606   7.054  15.119  1.00  0.00     0.004 C 
HETATM   17  C27 UNL     1      -5.503   8.061  15.879  1.00  0.00     0.006 C 
HETATM   18  C28 UNL     1      -6.919   7.567  16.139  1.00  0.00     0.006 C 
HETATM   19  C29 UNL     1      -7.640   7.354  14.811  1.00  0.00    -0.003 C 
HETATM   20  C30 UNL     1      -9.069   6.845  15.026  1.00  0.00     0.038 C 
ENDROOT
BRANCH  11  21
HETATM   21  C14 UNL     1      -0.606   7.187  11.729  1.00  0.00    -0.014 C 
HETATM   22  C15 UNL     1      -0.018   8.355  10.931  1.00  0.00     0.010 C 
BRANCH  21  23
HETATM   23  C16 UNL     1       0.484   6.135  12.048  1.00  0.00     0.008 C 
BRANCH  23  24
HETATM   24  C17 UNL     1       1.878   6.556  11.555  1.00  0.00     0.028 C 
BRANCH  24  25
HETATM   25  C18 UNL     1       1.913   6.666  10.054  1.00  0.00    -0.025 C 
HETATM   26  C19 UNL     1       2.687   5.970   9.198  1.00  0.00    -0.091 C 
HETATM   27  C20 UNL     1       3.728   4.962   9.602  1.00  0.00     0.042 C 
HETATM   28  C21 UNL     1       2.559   6.172   7.711  1.00  0.00     0.042 C 
ENDBRANCH  24  25
ENDBRANCH  23  24
ENDBRANCH  21  23
ENDBRANCH  11  21
BRANCH   1  29
HETATM   29  O2  UNL     1     -11.102   6.131  13.875  1.00  0.00    -0.316 OA
BRANCH  29  30
HETATM   30  C2  UNL     1     -12.151   6.991  13.973  1.00  0.00     0.255 C 
HETATM   31  C1  UNL     1     -11.977   8.119  13.004  1.00  0.00     0.126 C 
HETATM   32  O1  UNL     1     -13.096   6.881  14.740  1.00  0.00    -0.266 OA
ENDBRANCH  29  30
ENDBRANCH   1  29
TORSDOF 6
ENDMDL
MODEL 9
REMARK minimizedAffinity -9.57742214
REMARK CNNscore 0.324298471
REMARK CNNaffinity 6.86049652
REMARK  6 active torsions:
REMARK  status: ('A' for Active; 'I' for Inactive)
REMARK    1  A    between atoms: C2_2  and  O2_4 
REMARK    2  A    between atoms: O2_4  and  C3_5 
REMARK    3  A    between atoms: C13_15  and  C14_16 
REMARK    4  A    between atoms: C14_16  and  C16_18 
REMARK    5  A    between atoms: C16_18  and  C17_19 
REMARK    6  A    between atoms: C17_19  and  C18_20 
ROOT
HETATM    1  C3  UNL     1      -6.004   4.957  13.269  1.00  0.00     0.132 C 
HETATM    2  C4  UNL     1      -4.832   4.018  12.968  1.00  0.00     0.033 C 
HETATM    3  C5  UNL     1      -3.580   4.784  12.543  1.00  0.00     0.013 C 
HETATM    4  C6  UNL     1      -3.220   5.829  13.588  1.00  0.00    -0.028 A 
HETATM    5  C7  UNL     1      -2.372   5.376  14.749  1.00  0.00     0.021 A 
HETATM    6  C8  UNL     1      -1.774   6.338  13.729  1.00  0.00    -0.027 A 
HETATM    7  C9  UNL     1      -0.671   5.740  12.874  1.00  0.00     0.011 C 
HETATM    8  C10 UNL     1       0.685   6.131  13.433  1.00  0.00     0.011 C 
HETATM    9  C11 UNL     1       0.994   7.644  13.383  1.00  0.00    -0.032 C 
HETATM   10  C12 UNL     1       1.926   7.922  14.588  1.00  0.00     0.016 C 
HETATM   11  C13 UNL     1       1.642   8.156  12.047  1.00  0.00    -0.002 C 
HETATM   12  C22 UNL     1       0.460   8.387  11.099  1.00  0.00     0.006 C 
HETATM   13  C23 UNL     1      -0.731   8.767  11.968  1.00  0.00     0.011 C 
HETATM   14  C24 UNL     1      -0.343   8.509  13.453  1.00  0.00    -0.032 C 
HETATM   15  C25 UNL     1      -0.088   9.903  14.097  1.00  0.00     0.016 C 
HETATM   16  C26 UNL     1      -1.500   7.778  14.240  1.00  0.00     0.004 C 
HETATM   17  C27 UNL     1      -2.779   8.648  14.305  1.00  0.00     0.006 C 
HETATM   18  C28 UNL     1      -4.013   7.911  14.807  1.00  0.00     0.006 C 
HETATM   19  C29 UNL     1      -4.372   6.792  13.835  1.00  0.00    -0.003 C 
HETATM   20  C30 UNL     1      -5.606   6.014  14.308  1.00  0.00     0.038 C 
ENDROOT
BRANCH  11  21
HETATM   21  C14 UNL     1       2.861   7.475  11.342  1.00  0.00    -0.014 C 
HETATM   22  C15 UNL     1       4.130   7.525  12.199  1.00  0.00     0.010 C 
BRANCH  21  23
HETATM   23  C16 UNL     1       2.652   6.060  10.751  1.00  0.00     0.008 C 
BRANCH  23  24
HETATM   24  C17 UNL     1       3.454   5.831   9.460  1.00  0.00     0.028 C 
BRANCH  24  25
HETATM   25  C18 UNL     1       2.602   6.068   8.241  1.00  0.00    -0.025 C 
HETATM   26  C19 UNL     1       2.415   7.229   7.584  1.00  0.00    -0.091 C 
HETATM   27  C20 UNL     1       2.999   8.555   7.993  1.00  0.00     0.042 C 
HETATM   28  C21 UNL     1       1.563   7.281   6.343  1.00  0.00     0.042 C 
ENDBRANCH  24  25
ENDBRANCH  23  24
ENDBRANCH  21  23
ENDBRANCH  11  21
BRANCH   1  29
HETATM   29  O2  UNL     1      -7.083   4.145  13.772  1.00  0.00    -0.316 OA
BRANCH  29  30
HETATM   30  C2  UNL     1      -8.099   3.891  12.904  1.00  0.00     0.255 C 
HETATM   31  C1  UNL     1      -8.501   5.154  12.207  1.00  0.00     0.126 C 
HETATM   32  O1  UNL     1      -8.625   2.804  12.718  1.00  0.00    -0.266 OA
ENDBRANCH  29  30
ENDBRANCH   1  29
TORSDOF 6
ENDMDL
