MODEL 1
REMARK minimizedAffinity -8.69490242
REMARK  10 active torsions:
REMARK  status: ('A' for Active; 'I' for Inactive)
REMARK       I    between atoms: N1_2  and  C2_3 
REMARK    1  A    between atoms: C2_3  and  C3_5 
REMARK    2  A    between atoms: C3_5  and  C4_6 
REMARK    3  A    between atoms: C3_5  and  N3_16 
REMARK    4  A    between atoms: C4_6  and  C5_7 
REMARK       I    between atoms: N3_16  and  C13_17 
REMARK    5  A    between atoms: C13_17  and  C14_19 
REMARK    6  A    between atoms: C14_19  and  C15_20 
REMARK    7  A    between atoms: C14_19  and  C17_25 
REMARK    8  A    between atoms: C15_20  and  C16_21 
REMARK       I    between atoms: C16_21  and  N4_23 
REMARK    9  A    between atoms: N4_23  and  O4_24 
REMARK   10  A    between atoms: C17_25  and  C18_26 
ROOT
HETATM    1  C3  UNL     1      -0.470  52.945 -24.713  1.00  0.00     0.180 C 
ENDROOT
BRANCH   1   2
HETATM    2  C2  UNL     1      -0.093  53.588 -26.066  1.00  0.00     0.240 C 
HETATM    3  N1  UNL     1      -0.095  52.702 -27.124  1.00  0.00    -0.364 N 
HETATM    4  C1  UNL     1       0.313  53.091 -28.446  1.00  0.00     0.149 C 
HETATM    5  H4  UNL     1      -0.244  51.713 -26.924  1.00  0.00     0.161 HD
HETATM    6  O1  UNL     1       0.163  54.784 -26.195  1.00  0.00    -0.271 OA
ENDBRANCH   1   2
BRANCH   1   7
HETATM    7  C4  UNL     1       0.800  52.536 -23.947  1.00  0.00     0.075 C 
BRANCH   7   8
HETATM    8  C5  UNL     1       0.749  52.915 -22.496  1.00  0.00    -0.028 A 
HETATM    9  C6  UNL     1       1.190  54.107 -21.945  1.00  0.00     0.096 A 
HETATM   10  N2  UNL     1       0.943  54.073 -20.600  1.00  0.00    -0.365 N 
HETATM   11  C7  UNL     1       0.343  52.881 -20.256  1.00  0.00     0.042 A 
HETATM   12  H9  UNL     1       1.158  54.818 -19.948  1.00  0.00     0.165 HD
HETATM   13  C8  UNL     1      -0.090  52.419 -19.007  1.00  0.00     0.030 A 
HETATM   14  C12 UNL     1       0.213  52.131 -21.425  1.00  0.00    -0.002 A 
HETATM   15  C9  UNL     1      -0.677  51.150 -18.952  1.00  0.00     0.002 A 
HETATM   16  C10 UNL     1      -0.824  50.378 -20.101  1.00  0.00     0.001 A 
HETATM   17  C11 UNL     1      -0.386  50.856 -21.343  1.00  0.00     0.014 A 
ENDBRANCH   7   8
ENDBRANCH   1   7
BRANCH   1  18
HETATM   18  N3  UNL     1      -1.359  51.797 -24.942  1.00  0.00    -0.347 N 
HETATM   19  C13 UNL     1      -2.616  51.928 -25.468  1.00  0.00     0.223 C 
HETATM   20  O2  UNL     1      -3.048  53.010 -25.857  1.00  0.00    -0.273 OA
HETATM   21  H14 UNL     1      -1.070  50.901 -24.543  1.00  0.00     0.163 HD
BRANCH  19  22
HETATM   22  C14 UNL     1      -3.440  50.639 -25.497  1.00  0.00     0.087 C 
BRANCH  22  23
HETATM   23  C15 UNL     1      -2.733  49.609 -26.394  1.00  0.00     0.119 C 
BRANCH  23  24
HETATM   24  C16 UNL     1      -3.398  49.371 -27.737  1.00  0.00     0.241 C 
HETATM   25  O3  UNL     1      -3.865  48.298 -28.109  1.00  0.00    -0.271 OA
HETATM   26  N4  UNL     1      -3.504  50.511 -28.507  1.00  0.00    -0.237 N 
HETATM   27  H18 UNL     1      -2.776  51.218 -28.460  1.00  0.00     0.197 HD
BRANCH  26  28
HETATM   28  O4  UNL     1      -4.030  50.282 -29.806  1.00  0.00    -0.287 OA
HETATM   29  H19 UNL     1      -4.238  49.321 -29.782  1.00  0.00     0.244 HD
ENDBRANCH  26  28
ENDBRANCH  23  24
ENDBRANCH  22  23
BRANCH  22  30
HETATM   30  C17 UNL     1      -3.796  50.159 -24.073  1.00  0.00     0.018 C 
BRANCH  30  31
HETATM   31  C18 UNL     1      -3.847  48.629 -23.873  1.00  0.00    -0.022 C 
HETATM   32  C19 UNL     1      -5.286  48.111 -23.797  1.00  0.00     0.009 C 
HETATM   33  C20 UNL     1      -3.096  48.255 -22.590  1.00  0.00     0.009 C 
ENDBRANCH  30  31
ENDBRANCH  22  30
ENDBRANCH  19  22
ENDBRANCH   1  18
TORSDOF 10
ENDMDL
MODEL 2
REMARK minimizedAffinity -8.5795517
REMARK  10 active torsions:
REMARK  status: ('A' for Active; 'I' for Inactive)
REMARK       I    between atoms: N1_2  and  C2_3 
REMARK    1  A    between atoms: C2_3  and  C3_5 
REMARK    2  A    between atoms: C3_5  and  C4_6 
REMARK    3  A    between atoms: C3_5  and  N3_16 
REMARK    4  A    between atoms: C4_6  and  C5_7 
REMARK       I    between atoms: N3_16  and  C13_17 
REMARK    5  A    between atoms: C13_17  and  C14_19 
REMARK    6  A    between atoms: C14_19  and  C15_20 
REMARK    7  A    between atoms: C14_19  and  C17_25 
REMARK    8  A    between atoms: C15_20  and  C16_21 
REMARK       I    between atoms: C16_21  and  N4_23 
REMARK    9  A    between atoms: N4_23  and  O4_24 
REMARK   10  A    between atoms: C17_25  and  C18_26 
ROOT
HETATM    1  C3  UNL     1      -3.399  50.411 -23.787  1.00  0.00     0.180 C 
ENDROOT
BRANCH   1   2
HETATM    2  C2  UNL     1      -3.576  50.852 -22.317  1.00  0.00     0.240 C 
HETATM    3  N1  UNL     1      -4.589  50.189 -21.654  1.00  0.00    -0.364 N 
HETATM    4  C1  UNL     1      -4.964  50.520 -20.307  1.00  0.00     0.149 C 
HETATM    5  H4  UNL     1      -5.182  49.555 -22.190  1.00  0.00     0.161 HD
HETATM    6  O1  UNL     1      -2.865  51.698 -21.777  1.00  0.00    -0.271 OA
ENDBRANCH   1   2
BRANCH   1   7
HETATM    7  C4  UNL     1      -3.475  48.878 -23.894  1.00  0.00     0.075 C 
BRANCH   7   8
HETATM    8  C5  UNL     1      -4.674  48.409 -24.663  1.00  0.00    -0.028 A 
HETATM    9  C6  UNL     1      -5.894  48.029 -24.127  1.00  0.00     0.096 A 
HETATM   10  N2  UNL     1      -6.728  47.695 -25.159  1.00  0.00    -0.365 N 
HETATM   11  C7  UNL     1      -6.082  47.854 -26.365  1.00  0.00     0.042 A 
HETATM   12  H9  UNL     1      -7.688  47.387 -25.057  1.00  0.00     0.165 HD
HETATM   13  C8  UNL     1      -6.545  47.641 -27.669  1.00  0.00     0.030 A 
HETATM   14  C12 UNL     1      -4.788  48.296 -26.085  1.00  0.00    -0.002 A 
HETATM   15  C9  UNL     1      -5.657  47.890 -28.722  1.00  0.00     0.002 A 
HETATM   16  C10 UNL     1      -4.361  48.334 -28.477  1.00  0.00     0.001 A 
HETATM   17  C11 UNL     1      -3.914  48.543 -27.165  1.00  0.00     0.014 A 
ENDBRANCH   7   8
ENDBRANCH   1   7
BRANCH   1  18
HETATM   18  N3  UNL     1      -2.127  50.929 -24.307  1.00  0.00    -0.347 N 
HETATM   19  C13 UNL     1      -2.058  51.983 -25.178  1.00  0.00     0.223 C 
HETATM   20  O2  UNL     1      -3.057  52.614 -25.515  1.00  0.00    -0.273 OA
HETATM   21  H14 UNL     1      -1.289  50.370 -24.124  1.00  0.00     0.163 HD
BRANCH  19  22
HETATM   22  C14 UNL     1      -0.658  52.283 -25.718  1.00  0.00     0.087 C 
BRANCH  22  23
HETATM   23  C15 UNL     1       0.078  53.201 -24.727  1.00  0.00     0.119 C 
BRANCH  23  24
HETATM   24  C16 UNL     1       0.405  54.584 -25.262  1.00  0.00     0.241 C 
HETATM   25  O3  UNL     1       0.088  55.000 -26.373  1.00  0.00    -0.271 OA
HETATM   26  N4  UNL     1       1.047  55.390 -24.344  1.00  0.00    -0.237 N 
HETATM   27  H18 UNL     1       1.695  54.976 -23.679  1.00  0.00     0.197 HD
BRANCH  26  28
HETATM   28  O4  UNL     1       1.450  56.648 -24.865  1.00  0.00    -0.287 OA
HETATM   29  H19 UNL     1       1.092  56.621 -25.780  1.00  0.00     0.244 HD
ENDBRANCH  26  28
ENDBRANCH  23  24
ENDBRANCH  22  23
BRANCH  22  30
HETATM   30  C17 UNL     1       0.088  50.992 -26.117  1.00  0.00     0.018 C 
BRANCH  30  31
HETATM   31  C18 UNL     1       1.098  51.129 -27.276  1.00  0.00    -0.022 C 
HETATM   32  C19 UNL     1       2.470  51.601 -26.785  1.00  0.00     0.009 C 
HETATM   33  C20 UNL     1       0.555  52.115 -28.316  1.00  0.00     0.009 C 
ENDBRANCH  30  31
ENDBRANCH  22  30
ENDBRANCH  19  22
ENDBRANCH   1  18
TORSDOF 10
ENDMDL
MODEL 3
REMARK minimizedAffinity -8.57589626
REMARK  10 active torsions:
REMARK  status: ('A' for Active; 'I' for Inactive)
REMARK       I    between atoms: N1_2  and  C2_3 
REMARK    1  A    between atoms: C2_3  and  C3_5 
REMARK    2  A    between atoms: C3_5  and  C4_6 
REMARK    3  A    between atoms: C3_5  and  N3_16 
REMARK    4  A    between atoms: C4_6  and  C5_7 
REMARK       I    between atoms: N3_16  and  C13_17 
REMARK    5  A    between atoms: C13_17  and  C14_19 
REMARK    6  A    between atoms: C14_19  and  C15_20 
REMARK    7  A    between atoms: C14_19  and  C17_25 
REMARK    8  A    between atoms: C15_20  and  C16_21 
REMARK       I    between atoms: C16_21  and  N4_23 
REMARK    9  A    between atoms: N4_23  and  O4_24 
REMARK   10  A    between atoms: C17_25  and  C18_26 
ROOT
HETATM    1  C3  UNL     1      -0.166  53.095 -24.245  1.00  0.00     0.180 C 
ENDROOT
BRANCH   1   2
HETATM    2  C2  UNL     1       0.266  53.238 -25.721  1.00  0.00     0.240 C 
HETATM    3  N1  UNL     1      -0.724  53.726 -26.549  1.00  0.00    -0.364 N 
HETATM    4  C1  UNL     1      -0.542  53.848 -27.969  1.00  0.00     0.149 C 
HETATM    5  H4  UNL     1      -1.657  53.857 -26.157  1.00  0.00     0.161 HD
HETATM    6  O1  UNL     1       1.398  52.965 -26.121  1.00  0.00    -0.271 OA
ENDBRANCH   1   2
BRANCH   1   7
HETATM    7  C4  UNL     1       0.988  52.520 -23.407  1.00  0.00     0.075 C 
BRANCH   7   8
HETATM    8  C5  UNL     1       0.879  52.869 -21.953  1.00  0.00    -0.028 A 
HETATM    9  C6  UNL     1       1.199  54.087 -21.376  1.00  0.00     0.096 A 
HETATM   10  N2  UNL     1       0.935  54.009 -20.036  1.00  0.00    -0.365 N 
HETATM   11  C7  UNL     1       0.440  52.763 -19.720  1.00  0.00     0.042 A 
HETATM   12  H9  UNL     1       1.069  54.761 -19.370  1.00  0.00     0.165 HD
HETATM   13  C8  UNL     1       0.030  52.243 -18.486  1.00  0.00     0.030 A 
HETATM   14  C12 UNL     1       0.399  52.023 -20.902  1.00  0.00    -0.002 A 
HETATM   15  C9  UNL     1      -0.439  50.925 -18.460  1.00  0.00     0.002 A 
HETATM   16  C10 UNL     1      -0.495  50.161 -19.622  1.00  0.00     0.001 A 
HETATM   17  C11 UNL     1      -0.082  50.697 -20.850  1.00  0.00     0.014 A 
ENDBRANCH   7   8
ENDBRANCH   1   7
BRANCH   1  18
HETATM   18  N3  UNL     1      -1.368  52.254 -24.163  1.00  0.00    -0.347 N 
HETATM   19  C13 UNL     1      -1.478  51.054 -24.812  1.00  0.00     0.223 C 
HETATM   20  O2  UNL     1      -0.542  50.568 -25.441  1.00  0.00    -0.273 OA
HETATM   21  H14 UNL     1      -2.197  52.671 -23.730  1.00  0.00     0.163 HD
BRANCH  19  22
HETATM   22  C14 UNL     1      -2.857  50.395 -24.722  1.00  0.00     0.087 C 
BRANCH  22  23
HETATM   23  C15 UNL     1      -3.940  51.461 -24.957  1.00  0.00     0.119 C 
BRANCH  23  24
HETATM   24  C16 UNL     1      -4.907  51.653 -23.802  1.00  0.00     0.241 C 
HETATM   25  O3  UNL     1      -4.705  52.375 -22.830  1.00  0.00    -0.271 OA
HETATM   26  N4  UNL     1      -6.102  50.983 -23.969  1.00  0.00    -0.237 N 
HETATM   27  H18 UNL     1      -6.112  50.087 -24.450  1.00  0.00     0.197 HD
BRANCH  26  28
HETATM   28  O4  UNL     1      -6.972  51.071 -22.851  1.00  0.00    -0.287 OA
HETATM   29  H19 UNL     1      -6.477  51.666 -22.245  1.00  0.00     0.244 HD
ENDBRANCH  26  28
ENDBRANCH  23  24
ENDBRANCH  22  23
BRANCH  22  30
HETATM   30  C17 UNL     1      -2.947  49.138 -25.613  1.00  0.00     0.018 C 
BRANCH  30  31
HETATM   31  C18 UNL     1      -4.284  48.936 -26.359  1.00  0.00    -0.022 C 
HETATM   32  C19 UNL     1      -5.259  48.070 -25.556  1.00  0.00     0.009 C 
HETATM   33  C20 UNL     1      -4.017  48.287 -27.721  1.00  0.00     0.009 C 
ENDBRANCH  30  31
ENDBRANCH  22  30
ENDBRANCH  19  22
ENDBRANCH   1  18
TORSDOF 10
ENDMDL
MODEL 4
REMARK minimizedAffinity -8.54088593
REMARK  10 active torsions:
REMARK  status: ('A' for Active; 'I' for Inactive)
REMARK       I    between atoms: N1_2  and  C2_3 
REMARK    1  A    between atoms: C2_3  and  C3_5 
REMARK    2  A    between atoms: C3_5  and  C4_6 
REMARK    3  A    between atoms: C3_5  and  N3_16 
REMARK    4  A    between atoms: C4_6  and  C5_7 
REMARK       I    between atoms: N3_16  and  C13_17 
REMARK    5  A    between atoms: C13_17  and  C14_19 
REMARK    6  A    between atoms: C14_19  and  C15_20 
REMARK    7  A    between atoms: C14_19  and  C17_25 
REMARK    8  A    between atoms: C15_20  and  C16_21 
REMARK       I    between atoms: C16_21  and  N4_23 
REMARK    9  A    between atoms: N4_23  and  O4_24 
REMARK   10  A    between atoms: C17_25  and  C18_26 
ROOT
HETATM    1  C3  UNL     1      -3.047  50.485 -23.572  1.00  0.00     0.180 C 
ENDROOT
BRANCH   1   2
HETATM    2  C2  UNL     1      -3.794  50.924 -22.293  1.00  0.00     0.240 C 
HETATM    3  N1  UNL     1      -3.030  50.850 -21.147  1.00  0.00    -0.364 N 
HETATM    4  C1  UNL     1      -3.573  51.134 -19.847  1.00  0.00     0.149 C 
HETATM    5  H4  UNL     1      -2.099  50.436 -21.214  1.00  0.00     0.161 HD
HETATM    6  O1  UNL     1      -4.957  51.327 -22.297  1.00  0.00    -0.271 OA
ENDBRANCH   1   2
BRANCH   1   7
HETATM    7  C4  UNL     1      -3.121  48.956 -23.731  1.00  0.00     0.075 C 
BRANCH   7   8
HETATM    8  C5  UNL     1      -4.394  48.502 -24.379  1.00  0.00    -0.028 A 
HETATM    9  C6  UNL     1      -5.576  48.182 -23.729  1.00  0.00     0.096 A 
HETATM   10  N2  UNL     1      -6.504  47.840 -24.674  1.00  0.00    -0.365 N 
HETATM   11  C7  UNL     1      -5.958  47.936 -25.936  1.00  0.00     0.042 A 
HETATM   12  H9  UNL     1      -7.461  47.569 -24.481  1.00  0.00     0.165 HD
HETATM   13  C8  UNL     1      -6.536  47.694 -27.188  1.00  0.00     0.030 A 
HETATM   14  C12 UNL     1      -4.633  48.344 -25.782  1.00  0.00    -0.002 A 
HETATM   15  C9  UNL     1      -5.734  47.877 -28.319  1.00  0.00     0.002 A 
HETATM   16  C10 UNL     1      -4.408  48.285 -28.201  1.00  0.00     0.001 A 
HETATM   17  C11 UNL     1      -3.846  48.524 -26.939  1.00  0.00     0.014 A 
ENDBRANCH   7   8
ENDBRANCH   1   7
BRANCH   1  18
HETATM   18  N3  UNL     1      -1.657  50.959 -23.519  1.00  0.00    -0.347 N 
HETATM   19  C13 UNL     1      -1.278  52.192 -23.977  1.00  0.00     0.223 C 
HETATM   20  O2  UNL     1      -2.095  53.012 -24.388  1.00  0.00    -0.273 OA
HETATM   21  H14 UNL     1      -0.942  50.269 -23.274  1.00  0.00     0.163 HD
BRANCH  19  22
HETATM   22  C14 UNL     1       0.231  52.447 -23.969  1.00  0.00     0.087 C 
BRANCH  22  23
HETATM   23  C15 UNL     1       0.674  52.890 -25.374  1.00  0.00     0.119 C 
BRANCH  23  24
HETATM   24  C16 UNL     1       1.406  51.829 -26.176  1.00  0.00     0.241 C 
HETATM   25  O3  UNL     1       0.966  50.709 -26.424  1.00  0.00    -0.271 OA
HETATM   26  N4  UNL     1       2.615  52.259 -26.681  1.00  0.00    -0.237 N 
HETATM   27  H18 UNL     1       3.176  52.918 -26.149  1.00  0.00     0.197 HD
BRANCH  26  28
HETATM   28  O4  UNL     1       3.355  51.246 -27.346  1.00  0.00    -0.287 OA
HETATM   29  H19 UNL     1       2.742  50.478 -27.308  1.00  0.00     0.244 HD
ENDBRANCH  26  28
ENDBRANCH  23  24
ENDBRANCH  22  23
BRANCH  22  30
HETATM   30  C17 UNL     1       0.646  53.377 -22.809  1.00  0.00     0.018 C 
BRANCH  30  31
HETATM   31  C18 UNL     1       0.208  52.930 -21.398  1.00  0.00    -0.022 C 
HETATM   32  C19 UNL     1       0.683  53.905 -20.317  1.00  0.00     0.009 C 
HETATM   33  C20 UNL     1       0.762  51.530 -21.110  1.00  0.00     0.009 C 
ENDBRANCH  30  31
ENDBRANCH  22  30
ENDBRANCH  19  22
ENDBRANCH   1  18
TORSDOF 10
ENDMDL
MODEL 5
REMARK minimizedAffinity -8.45853424
REMARK  10 active torsions:
REMARK  status: ('A' for Active; 'I' for Inactive)
REMARK       I    between atoms: N1_2  and  C2_3 
REMARK    1  A    between atoms: C2_3  and  C3_5 
REMARK    2  A    between atoms: C3_5  and  C4_6 
REMARK    3  A    between atoms: C3_5  and  N3_16 
REMARK    4  A    between atoms: C4_6  and  C5_7 
REMARK       I    between atoms: N3_16  and  C13_17 
REMARK    5  A    between atoms: C13_17  and  C14_19 
REMARK    6  A    between atoms: C14_19  and  C15_20 
REMARK    7  A    between atoms: C14_19  and  C17_25 
REMARK    8  A    between atoms: C15_20  and  C16_21 
REMARK       I    between atoms: C16_21  and  N4_23 
REMARK    9  A    between atoms: N4_23  and  O4_24 
REMARK   10  A    between atoms: C17_25  and  C18_26 
ROOT
HETATM    1  C3  UNL     1      -0.800  50.522 -21.920  1.00  0.00     0.180 C 
ENDROOT
BRANCH   1   2
HETATM    2  C2  UNL     1      -1.340  49.144 -21.476  1.00  0.00     0.240 C 
HETATM    3  N1  UNL     1      -2.664  48.932 -21.801  1.00  0.00    -0.364 N 
HETATM    4  C1  UNL     1      -3.370  47.748 -21.397  1.00  0.00     0.149 C 
HETATM    5  H4  UNL     1      -3.191  49.707 -22.206  1.00  0.00     0.161 HD
HETATM    6  O1  UNL     1      -0.648  48.302 -20.905  1.00  0.00    -0.271 OA
ENDBRANCH   1   2
BRANCH   1   7
HETATM    7  C4  UNL     1      -1.394  51.634 -21.038  1.00  0.00     0.075 C 
BRANCH   7   8
HETATM    8  C5  UNL     1      -0.387  52.230 -20.100  1.00  0.00    -0.028 A 
HETATM    9  C6  UNL     1       0.304  53.416 -20.286  1.00  0.00     0.096 A 
HETATM   10  N2  UNL     1       1.104  53.621 -19.195  1.00  0.00    -0.365 N 
HETATM   11  C7  UNL     1       0.948  52.594 -18.291  1.00  0.00     0.042 A 
HETATM   12  H9  UNL     1       1.715  54.418 -19.061  1.00  0.00     0.165 HD
HETATM   13  C8  UNL     1       1.553  52.392 -17.044  1.00  0.00     0.030 A 
HETATM   14  C12 UNL     1       0.022  51.702 -18.834  1.00  0.00    -0.002 A 
HETATM   15  C9  UNL     1       1.199  51.243 -16.329  1.00  0.00     0.002 A 
HETATM   16  C10 UNL     1       0.277  50.335 -16.841  1.00  0.00     0.001 A 
HETATM   17  C11 UNL     1      -0.321  50.553 -18.090  1.00  0.00     0.014 A 
ENDBRANCH   7   8
ENDBRANCH   1   7
BRANCH   1  18
HETATM   18  N3  UNL     1      -1.104  50.736 -23.341  1.00  0.00    -0.347 N 
HETATM   19  C13 UNL     1      -0.394  51.603 -24.127  1.00  0.00     0.223 C 
HETATM   20  O2  UNL     1       0.596  52.197 -23.709  1.00  0.00    -0.273 OA
HETATM   21  H14 UNL     1      -1.976  50.333 -23.694  1.00  0.00     0.163 HD
BRANCH  19  22
HETATM   22  C14 UNL     1      -0.950  51.797 -25.540  1.00  0.00     0.087 C 
BRANCH  22  23
HETATM   23  C15 UNL     1      -0.070  52.808 -26.294  1.00  0.00     0.119 C 
BRANCH  23  24
HETATM   24  C16 UNL     1       1.027  52.190 -27.141  1.00  0.00     0.241 C 
HETATM   25  O3  UNL     1       0.904  51.857 -28.317  1.00  0.00    -0.271 OA
HETATM   26  N4  UNL     1       2.238  52.090 -26.485  1.00  0.00    -0.237 N 
HETATM   27  H18 UNL     1       2.254  51.907 -25.486  1.00  0.00     0.197 HD
BRANCH  26  28
HETATM   28  O4  UNL     1       3.243  51.421 -27.231  1.00  0.00    -0.287 OA
HETATM   29  H19 UNL     1       2.790  51.246 -28.086  1.00  0.00     0.244 HD
ENDBRANCH  26  28
ENDBRANCH  23  24
ENDBRANCH  22  23
BRANCH  22  30
HETATM   30  C17 UNL     1      -1.181  50.446 -26.251  1.00  0.00     0.018 C 
BRANCH  30  31
HETATM   31  C18 UNL     1      -2.650  50.097 -26.572  1.00  0.00    -0.022 C 
HETATM   32  C19 UNL     1      -2.902  48.587 -26.523  1.00  0.00     0.009 C 
HETATM   33  C20 UNL     1      -3.014  50.636 -27.960  1.00  0.00     0.009 C 
ENDBRANCH  30  31
ENDBRANCH  22  30
ENDBRANCH  19  22
ENDBRANCH   1  18
TORSDOF 10
ENDMDL
MODEL 6
REMARK minimizedAffinity -8.34998512
REMARK  10 active torsions:
REMARK  status: ('A' for Active; 'I' for Inactive)
REMARK       I    between atoms: N1_2  and  C2_3 
REMARK    1  A    between atoms: C2_3  and  C3_5 
REMARK    2  A    between atoms: C3_5  and  C4_6 
REMARK    3  A    between atoms: C3_5  and  N3_16 
REMARK    4  A    between atoms: C4_6  and  C5_7 
REMARK       I    between atoms: N3_16  and  C13_17 
REMARK    5  A    between atoms: C13_17  and  C14_19 
REMARK    6  A    between atoms: C14_19  and  C15_20 
REMARK    7  A    between atoms: C14_19  and  C17_25 
REMARK    8  A    between atoms: C15_20  and  C16_21 
REMARK       I    between atoms: C16_21  and  N4_23 
REMARK    9  A    between atoms: N4_23  and  O4_24 
REMARK   10  A    between atoms: C17_25  and  C18_26 
ROOT
HETATM    1  C3  UNL     1      -2.773  50.487 -22.553  1.00  0.00     0.180 C 
ENDROOT
BRANCH   1   2
HETATM    2  C2  UNL     1      -2.579  50.848 -21.063  1.00  0.00     0.240 C 
HETATM    3  N1  UNL     1      -1.332  51.359 -20.770  1.00  0.00    -0.364 N 
HETATM    4  C1  UNL     1      -0.931  51.673 -19.426  1.00  0.00     0.149 C 
HETATM    5  H4  UNL     1      -0.629  51.369 -21.510  1.00  0.00     0.161 HD
HETATM    6  O1  UNL     1      -3.464  50.715 -20.218  1.00  0.00    -0.271 OA
ENDBRANCH   1   2
BRANCH   1   7
HETATM    7  C4  UNL     1      -2.943  48.967 -22.712  1.00  0.00     0.075 C 
BRANCH   7   8
HETATM    8  C5  UNL     1      -4.087  48.603 -23.612  1.00  0.00    -0.028 A 
HETATM    9  C6  UNL     1      -5.386  48.329 -23.215  1.00  0.00     0.096 A 
HETATM   10  N2  UNL     1      -6.129  48.069 -24.335  1.00  0.00    -0.365 N 
HETATM   11  C7  UNL     1      -5.344  48.172 -25.462  1.00  0.00     0.042 A 
HETATM   12  H9  UNL     1      -7.117  47.844 -24.340  1.00  0.00     0.165 HD
HETATM   13  C8  UNL     1      -5.678  48.001 -26.811  1.00  0.00     0.030 A 
HETATM   14  C12 UNL     1      -4.055  48.502 -25.039  1.00  0.00    -0.002 A 
HETATM   15  C9  UNL     1      -4.664  48.173 -27.758  1.00  0.00     0.002 A 
HETATM   16  C10 UNL     1      -3.368  48.504 -27.370  1.00  0.00     0.001 A 
HETATM   17  C11 UNL     1      -3.051  48.673 -26.016  1.00  0.00     0.014 A 
ENDBRANCH   7   8
ENDBRANCH   1   7
BRANCH   1  18
HETATM   18  N3  UNL     1      -1.636  50.992 -23.334  1.00  0.00    -0.347 N 
HETATM   19  C13 UNL     1      -1.791  51.699 -24.496  1.00  0.00     0.223 C 
HETATM   20  O2  UNL     1      -2.899  52.026 -24.914  1.00  0.00    -0.273 OA
HETATM   21  H14 UNL     1      -0.706  50.656 -23.068  1.00  0.00     0.163 HD
BRANCH  19  22
HETATM   22  C14 UNL     1      -0.491  52.012 -25.240  1.00  0.00     0.087 C 
BRANCH  22  23
HETATM   23  C15 UNL     1       0.485  52.707 -24.275  1.00  0.00     0.119 C 
BRANCH  23  24
HETATM   24  C16 UNL     1       0.725  54.179 -24.562  1.00  0.00     0.241 C 
HETATM   25  O3  UNL     1       1.346  54.944 -23.830  1.00  0.00    -0.271 OA
HETATM   26  N4  UNL     1       0.232  54.587 -25.785  1.00  0.00    -0.237 N 
HETATM   27  H18 UNL     1      -0.619  54.168 -26.149  1.00  0.00     0.197 HD
BRANCH  26  28
HETATM   28  O4  UNL     1       0.359  55.981 -26.020  1.00  0.00    -0.287 OA
HETATM   29  H19 UNL     1       0.840  56.287 -25.219  1.00  0.00     0.244 HD
ENDBRANCH  26  28
ENDBRANCH  23  24
ENDBRANCH  22  23
BRANCH  22  30
HETATM   30  C17 UNL     1       0.059  50.770 -25.973  1.00  0.00     0.018 C 
BRANCH  30  31
HETATM   31  C18 UNL     1       0.875  51.051 -27.253  1.00  0.00    -0.022 C 
HETATM   32  C19 UNL     1       2.249  51.649 -26.934  1.00  0.00     0.009 C 
HETATM   33  C20 UNL     1       0.094  52.009 -28.159  1.00  0.00     0.009 C 
ENDBRANCH  30  31
ENDBRANCH  22  30
ENDBRANCH  19  22
ENDBRANCH   1  18
TORSDOF 10
ENDMDL
MODEL 7
REMARK minimizedAffinity -8.30940437
REMARK  10 active torsions:
REMARK  status: ('A' for Active; 'I' for Inactive)
REMARK       I    between atoms: N1_2  and  C2_3 
REMARK    1  A    between atoms: C2_3  and  C3_5 
REMARK    2  A    between atoms: C3_5  and  C4_6 
REMARK    3  A    between atoms: C3_5  and  N3_16 
REMARK    4  A    between atoms: C4_6  and  C5_7 
REMARK       I    between atoms: N3_16  and  C13_17 
REMARK    5  A    between atoms: C13_17  and  C14_19 
REMARK    6  A    between atoms: C14_19  and  C15_20 
REMARK    7  A    between atoms: C14_19  and  C17_25 
REMARK    8  A    between atoms: C15_20  and  C16_21 
REMARK       I    between atoms: C16_21  and  N4_23 
REMARK    9  A    between atoms: N4_23  and  O4_24 
REMARK   10  A    between atoms: C17_25  and  C18_26 
ROOT
HETATM    1  C3  UNL     1      -3.507  50.322 -23.908  1.00  0.00     0.180 C 
ENDROOT
BRANCH   1   2
HETATM    2  C2  UNL     1      -4.423  50.578 -22.691  1.00  0.00     0.240 C 
HETATM    3  N1  UNL     1      -3.771  50.512 -21.477  1.00  0.00    -0.364 N 
HETATM    4  C1  UNL     1      -4.469  50.636 -20.227  1.00  0.00     0.149 C 
HETATM    5  H4  UNL     1      -2.795  50.214 -21.470  1.00  0.00     0.161 HD
HETATM    6  O1  UNL     1      -5.621  50.842 -22.793  1.00  0.00    -0.271 OA
ENDBRANCH   1   2
BRANCH   1   7
HETATM    7  C4  UNL     1      -3.495  48.824 -24.256  1.00  0.00     0.075 C 
BRANCH   7   8
HETATM    8  C5  UNL     1      -3.909  48.554 -25.673  1.00  0.00    -0.028 A 
HETATM    9  C6  UNL     1      -3.096  48.630 -26.792  1.00  0.00     0.096 A 
HETATM   10  N2  UNL     1      -3.842  48.286 -27.886  1.00  0.00    -0.365 N 
HETATM   11  C7  UNL     1      -5.130  47.978 -27.507  1.00  0.00     0.042 A 
HETATM   12  H9  UNL     1      -3.498  48.248 -28.838  1.00  0.00     0.165 HD
HETATM   13  C8  UNL     1      -6.223  47.571 -28.281  1.00  0.00     0.030 A 
HETATM   14  C12 UNL     1      -5.204  48.143 -26.123  1.00  0.00    -0.002 A 
HETATM   15  C9  UNL     1      -7.430  47.321 -27.619  1.00  0.00     0.002 A 
HETATM   16  C10 UNL     1      -7.537  47.473 -26.239  1.00  0.00     0.001 A 
HETATM   17  C11 UNL     1      -6.432  47.882 -25.479  1.00  0.00     0.014 A 
ENDBRANCH   7   8
ENDBRANCH   1   7
BRANCH   1  18
HETATM   18  N3  UNL     1      -2.156  50.824 -23.622  1.00  0.00    -0.347 N 
HETATM   19  C13 UNL     1      -1.533  51.758 -24.406  1.00  0.00     0.223 C 
HETATM   20  O2  UNL     1      -2.101  52.295 -25.353  1.00  0.00    -0.273 OA
HETATM   21  H14 UNL     1      -1.621  50.331 -22.903  1.00  0.00     0.163 HD
BRANCH  19  22
HETATM   22  C14 UNL     1      -0.078  52.047 -24.031  1.00  0.00     0.087 C 
BRANCH  22  23
HETATM   23  C15 UNL     1       0.621  52.733 -25.217  1.00  0.00     0.119 C 
BRANCH  23  24
HETATM   24  C16 UNL     1       1.356  51.792 -26.155  1.00  0.00     0.241 C 
HETATM   25  O3  UNL     1       0.894  50.746 -26.603  1.00  0.00    -0.271 OA
HETATM   26  N4  UNL     1       2.600  52.254 -26.533  1.00  0.00    -0.237 N 
HETATM   27  H18 UNL     1       3.156  52.795 -25.876  1.00  0.00     0.197 HD
BRANCH  26  28
HETATM   28  O4  UNL     1       3.338  51.337 -27.327  1.00  0.00    -0.287 OA
HETATM   29  H19 UNL     1       2.700  50.597 -27.441  1.00  0.00     0.244 HD
ENDBRANCH  26  28
ENDBRANCH  23  24
ENDBRANCH  22  23
BRANCH  22  30
HETATM   30  C17 UNL     1       0.027  52.779 -22.675  1.00  0.00     0.018 C 
BRANCH  30  31
HETATM   31  C18 UNL     1       0.888  52.083 -21.600  1.00  0.00    -0.022 C 
HETATM   32  C19 UNL     1       0.091  51.033 -20.821  1.00  0.00     0.009 C 
HETATM   33  C20 UNL     1       1.444  53.133 -20.631  1.00  0.00     0.009 C 
ENDBRANCH  30  31
ENDBRANCH  22  30
ENDBRANCH  19  22
ENDBRANCH   1  18
TORSDOF 10
ENDMDL
MODEL 8
REMARK minimizedAffinity -8.300807
REMARK  10 active torsions:
REMARK  status: ('A' for Active; 'I' for Inactive)
REMARK       I    between atoms: N1_2  and  C2_3 
REMARK    1  A    between atoms: C2_3  and  C3_5 
REMARK    2  A    between atoms: C3_5  and  C4_6 
REMARK    3  A    between atoms: C3_5  and  N3_16 
REMARK    4  A    between atoms: C4_6  and  C5_7 
REMARK       I    between atoms: N3_16  and  C13_17 
REMARK    5  A    between atoms: C13_17  and  C14_19 
REMARK    6  A    between atoms: C14_19  and  C15_20 
REMARK    7  A    between atoms: C14_19  and  C17_25 
REMARK    8  A    between atoms: C15_20  and  C16_21 
REMARK       I    between atoms: C16_21  and  N4_23 
REMARK    9  A    between atoms: N4_23  and  O4_24 
REMARK   10  A    between atoms: C17_25  and  C18_26 
ROOT
HETATM    1  C3  UNL     1      -2.960  50.692 -23.453  1.00  0.00     0.180 C 
ENDROOT
BRANCH   1   2
HETATM    2  C2  UNL     1      -3.668  50.777 -22.083  1.00  0.00     0.240 C 
HETATM    3  N1  UNL     1      -2.849  51.201 -21.057  1.00  0.00    -0.364 N 
HETATM    4  C1  UNL     1      -3.302  51.262 -19.695  1.00  0.00     0.149 C 
HETATM    5  H4  UNL     1      -1.856  51.328 -21.254  1.00  0.00     0.161 HD
HETATM    6  O1  UNL     1      -4.859  50.515 -21.924  1.00  0.00    -0.271 OA
ENDBRANCH   1   2
BRANCH   1   7
HETATM    7  C4  UNL     1      -2.725  49.222 -23.839  1.00  0.00     0.075 C 
BRANCH   7   8
HETATM    8  C5  UNL     1      -3.268  48.885 -25.196  1.00  0.00    -0.028 A 
HETATM    9  C6  UNL     1      -2.565  48.912 -26.390  1.00  0.00     0.096 A 
HETATM   10  N2  UNL     1      -3.407  48.513 -27.391  1.00  0.00    -0.365 N 
HETATM   11  C7  UNL     1      -4.651  48.218 -26.878  1.00  0.00     0.042 A 
HETATM   12  H9  UNL     1      -3.154  48.432 -28.369  1.00  0.00     0.165 HD
HETATM   13  C8  UNL     1      -5.809  47.769 -27.525  1.00  0.00     0.030 A 
HETATM   14  C12 UNL     1      -4.596  48.447 -25.503  1.00  0.00    -0.002 A 
HETATM   15  C9  UNL     1      -6.946  47.545 -26.742  1.00  0.00     0.002 A 
HETATM   16  C10 UNL     1      -6.923  47.761 -25.367  1.00  0.00     0.001 A 
HETATM   17  C11 UNL     1      -5.755  48.210 -24.734  1.00  0.00     0.014 A 
ENDBRANCH   7   8
ENDBRANCH   1   7
BRANCH   1  18
HETATM   18  N3  UNL     1      -1.701  51.449 -23.406  1.00  0.00    -0.347 N 
HETATM   19  C13 UNL     1      -1.461  52.537 -24.201  1.00  0.00     0.223 C 
HETATM   20  O2  UNL     1      -2.320  52.998 -24.947  1.00  0.00    -0.273 OA
HETATM   21  H14 UNL     1      -0.933  51.037 -22.869  1.00  0.00     0.163 HD
BRANCH  19  22
HETATM   22  C14 UNL     1      -0.041  53.102 -24.109  1.00  0.00     0.087 C 
BRANCH  22  23
HETATM   23  C15 UNL     1       0.664  52.497 -22.884  1.00  0.00     0.119 C 
BRANCH  23  24
HETATM   24  C16 UNL     1       0.933  53.476 -21.755  1.00  0.00     0.241 C 
HETATM   25  O3  UNL     1       1.677  54.449 -21.833  1.00  0.00    -0.271 OA
HETATM   26  N4  UNL     1       0.196  53.218 -20.618  1.00  0.00    -0.237 N 
HETATM   27  H18 UNL     1      -0.022  52.258 -20.367  1.00  0.00     0.197 HD
BRANCH  26  28
HETATM   28  O4  UNL     1       0.513  54.064 -19.522  1.00  0.00    -0.287 OA
HETATM   29  H19 UNL     1       1.176  54.675 -19.913  1.00  0.00     0.244 HD
ENDBRANCH  26  28
ENDBRANCH  23  24
ENDBRANCH  22  23
BRANCH  22  30
HETATM   30  C17 UNL     1       0.712  52.970 -25.451  1.00  0.00     0.018 C 
BRANCH  30  31
HETATM   31  C18 UNL     1       0.950  51.528 -25.949  1.00  0.00    -0.022 C 
HETATM   32  C19 UNL     1       2.418  51.285 -26.311  1.00  0.00     0.009 C 
HETATM   33  C20 UNL     1       0.066  51.256 -27.171  1.00  0.00     0.009 C 
ENDBRANCH  30  31
ENDBRANCH  22  30
ENDBRANCH  19  22
ENDBRANCH   1  18
TORSDOF 10
ENDMDL
MODEL 9
REMARK minimizedAffinity -8.20041275
REMARK  10 active torsions:
REMARK  status: ('A' for Active; 'I' for Inactive)
REMARK       I    between atoms: N1_2  and  C2_3 
REMARK    1  A    between atoms: C2_3  and  C3_5 
REMARK    2  A    between atoms: C3_5  and  C4_6 
REMARK    3  A    between atoms: C3_5  and  N3_16 
REMARK    4  A    between atoms: C4_6  and  C5_7 
REMARK       I    between atoms: N3_16  and  C13_17 
REMARK    5  A    between atoms: C13_17  and  C14_19 
REMARK    6  A    between atoms: C14_19  and  C15_20 
REMARK    7  A    between atoms: C14_19  and  C17_25 
REMARK    8  A    between atoms: C15_20  and  C16_21 
REMARK       I    between atoms: C16_21  and  N4_23 
REMARK    9  A    between atoms: N4_23  and  O4_24 
REMARK   10  A    between atoms: C17_25  and  C18_26 
ROOT
HETATM    1  C3  UNL     1      -1.706  52.214 -25.078  1.00  0.00     0.180 C 
ENDROOT
BRANCH   1   2
HETATM    2  C2  UNL     1      -1.408  52.659 -26.527  1.00  0.00     0.240 C 
HETATM    3  N1  UNL     1      -0.178  52.245 -26.996  1.00  0.00    -0.364 N 
HETATM    4  C1  UNL     1       0.316  52.632 -28.288  1.00  0.00     0.149 C 
HETATM    5  H4  UNL     1       0.454  51.779 -26.344  1.00  0.00     0.161 HD
HETATM    6  O1  UNL     1      -2.202  53.303 -27.211  1.00  0.00    -0.271 OA
ENDBRANCH   1   2
BRANCH   1   7
HETATM    7  C4  UNL     1      -0.447  51.603 -24.441  1.00  0.00     0.075 C 
BRANCH   7   8
HETATM    8  C5  UNL     1      -0.566  51.448 -22.954  1.00  0.00    -0.028 A 
HETATM    9  C6  UNL     1      -1.296  50.477 -22.287  1.00  0.00     0.096 A 
HETATM   10  N2  UNL     1      -1.126  50.663 -20.942  1.00  0.00    -0.365 N 
HETATM   11  C7  UNL     1      -0.292  51.735 -20.711  1.00  0.00     0.042 A 
HETATM   12  H9  UNL     1      -1.540  50.090 -20.217  1.00  0.00     0.165 HD
HETATM   13  C8  UNL     1       0.162  52.278 -19.503  1.00  0.00     0.030 A 
HETATM   14  C12 UNL     1       0.071  52.252 -21.955  1.00  0.00    -0.002 A 
HETATM   15  C9  UNL     1       1.016  53.384 -19.568  1.00  0.00     0.002 A 
HETATM   16  C10 UNL     1       1.399  53.923 -20.793  1.00  0.00     0.001 A 
HETATM   17  C11 UNL     1       0.936  53.366 -21.994  1.00  0.00     0.014 A 
ENDBRANCH   7   8
ENDBRANCH   1   7
BRANCH   1  18
HETATM   18  N3  UNL     1      -2.830  51.268 -25.074  1.00  0.00    -0.347 N 
HETATM   19  C13 UNL     1      -2.768  50.042 -25.681  1.00  0.00     0.223 C 
HETATM   20  O2  UNL     1      -1.734  49.625 -26.197  1.00  0.00    -0.273 OA
HETATM   21  H14 UNL     1      -3.731  51.620 -24.740  1.00  0.00     0.163 HD
BRANCH  19  22
HETATM   22  C14 UNL     1      -4.083  49.261 -25.693  1.00  0.00     0.087 C 
BRANCH  22  23
HETATM   23  C15 UNL     1      -4.017  48.179 -26.785  1.00  0.00     0.119 C 
BRANCH  23  24
HETATM   24  C16 UNL     1      -4.242  48.686 -28.198  1.00  0.00     0.241 C 
HETATM   25  O3  UNL     1      -4.740  48.030 -29.109  1.00  0.00    -0.271 OA
HETATM   26  N4  UNL     1      -3.896  50.011 -28.368  1.00  0.00    -0.237 N 
HETATM   27  H18 UNL     1      -3.112  50.396 -27.848  1.00  0.00     0.197 HD
BRANCH  26  28
HETATM   28  O4  UNL     1      -4.005  50.468 -29.708  1.00  0.00    -0.287 OA
HETATM   29  H19 UNL     1      -4.370  49.681 -30.169  1.00  0.00     0.244 HD
ENDBRANCH  26  28
ENDBRANCH  23  24
ENDBRANCH  22  23
BRANCH  22  30
HETATM   30  C17 UNL     1      -4.466  48.766 -24.281  1.00  0.00     0.018 C 
BRANCH  30  31
HETATM   31  C18 UNL     1      -5.896  48.205 -24.129  1.00  0.00    -0.022 C 
HETATM   32  C19 UNL     1      -6.941  49.321 -24.045  1.00  0.00     0.009 C 
HETATM   33  C20 UNL     1      -5.972  47.330 -22.873  1.00  0.00     0.009 C 
ENDBRANCH  30  31
ENDBRANCH  22  30
ENDBRANCH  19  22
ENDBRANCH   1  18
TORSDOF 10
ENDMDL
