MODEL 1
REMARK minimizedAffinity -8.48782063
REMARK CNNscore 0.48376742
REMARK CNNaffinity 6.16740084
REMARK  9 active torsions:
REMARK  status: ('A' for Active; 'I' for Inactive)
REMARK    1  A    between atoms: C3_3  and  O1_4 
REMARK    2  A    between atoms: N1_14  and  O2_16 
REMARK    3  A    between atoms: O2_16  and  C13_17 
REMARK    4  A    between atoms: C13_17  and  C14_18 
REMARK       I    between atoms: C14_18  and  N2_20 
REMARK    5  A    between atoms: N2_20  and  C15_21 
REMARK    6  A    between atoms: C15_21  and  C16_22 
REMARK    7  A    between atoms: C15_21  and  C18_26 
REMARK    8  A    between atoms: C16_22  and  C17_23 
REMARK    9  A    between atoms: C17_23  and  O5_25 
ROOT
HETATM    1  C1  UNL     1      -0.061  50.276 -20.615  1.00  0.00     0.015 C 
HETATM    2  C2  UNL     1      -1.122  50.605 -21.074  1.00  0.00    -0.078 C 
HETATM    3  C3  UNL     1      -2.414  50.998 -21.661  1.00  0.00     0.128 C 
HETATM    4  C4  UNL     1      -3.404  51.498 -20.607  1.00  0.00     0.052 C 
HETATM    5  C5  UNL     1      -4.794  51.228 -21.188  1.00  0.00     0.010 C 
HETATM    6  C6  UNL     1      -4.596  50.445 -22.508  1.00  0.00     0.002 C 
HETATM    7  C7  UNL     1      -5.756  49.456 -22.774  1.00  0.00    -0.004 C 
HETATM    8  C8  UNL     1      -5.891  49.137 -24.283  1.00  0.00     0.010 C 
HETATM    9  C9  UNL     1      -6.432  47.746 -24.601  1.00  0.00     0.035 C 
HETATM   10  C10 UNL     1      -7.445  47.339 -23.573  1.00  0.00    -0.069 C 
HETATM   11  C11 UNL     1      -8.734  47.160 -23.911  1.00  0.00     0.030 C 
HETATM   12  C12 UNL     1      -9.767  46.832 -22.897  1.00  0.00     0.032 C 
HETATM   13  N1  UNL     1     -10.944  46.476 -23.330  1.00  0.00    -0.271 N 
ATOM     14  H1  UNL     1     -11.197  46.408 -24.316  1.00  0.00     0.194 HD
HETATM   15  C25 UNL     1      -9.389  46.901 -21.429  1.00  0.00     0.060 C 
HETATM   16  C26 UNL     1      -8.079  47.651 -21.192  1.00  0.00     0.020 C 
HETATM   17  C27 UNL     1      -6.925  47.221 -22.144  1.00  0.00    -0.016 C 
HETATM   18  C28 UNL     1      -6.570  45.743 -21.872  1.00  0.00     0.020 C 
HETATM   19  C29 UNL     1      -5.693  48.185 -21.882  1.00  0.00     0.002 C 
HETATM   20  C30 UNL     1      -4.293  47.547 -21.974  1.00  0.00     0.007 C 
HETATM   21  C31 UNL     1      -3.202  48.532 -21.544  1.00  0.00     0.014 C 
HETATM   22  C32 UNL     1      -3.171  49.836 -22.382  1.00  0.00     0.003 C 
HETATM   23  C33 UNL     1      -2.530  49.540 -23.752  1.00  0.00     0.020 C 
ENDROOT
BRANCH   3  24
HETATM   24  O1  UNL     1      -2.189  52.073 -22.580  1.00  0.00    -0.377 OA
HETATM   25  H2  UNL     1      -1.538  52.669 -22.173  1.00  0.00     0.211 HD
ENDBRANCH   3  24
BRANCH  13  26
HETATM   26  O2  UNL     1     -11.821  46.199 -22.269  1.00  0.00    -0.271 OA
BRANCH  26  27
HETATM   27  C13 UNL     1     -13.056  46.851 -22.526  1.00  0.00     0.303 C 
BRANCH  27  28
HETATM   28  C14 UNL     1     -13.742  47.311 -21.240  1.00  0.00     0.244 C 
HETATM   29  O3  UNL     1     -13.940  48.484 -20.945  1.00  0.00    -0.271 OA
HETATM   30  N2  UNL     1     -14.142  46.258 -20.429  1.00  0.00    -0.354 N 
HETATM   31  H16 UNL     1     -13.637  45.386 -20.555  1.00  0.00     0.162 HD
BRANCH  30  32
HETATM   32  C15 UNL     1     -14.723  46.497 -19.109  1.00  0.00     0.098 C 
BRANCH  32  33
HETATM   33  C16 UNL     1     -13.893  45.876 -17.973  1.00  0.00     0.135 C 
BRANCH  33  34
HETATM   34  C17 UNL     1     -13.781  46.672 -16.705  1.00  0.00     0.141 C 
HETATM   35  O4  UNL     1     -14.258  46.356 -15.627  1.00  0.00    -0.650 OA
BRANCH  34  36
HETATM   36  O5  UNL     1     -13.131  47.844 -16.835  1.00  0.00    -0.776 OA
HETATM   37  H20 UNL     1     -13.235  48.260 -15.949  1.00  0.00     0.167 HD
ENDBRANCH  34  36
ENDBRANCH  33  34
ENDBRANCH  32  33
BRANCH  32  38
HETATM   38  C18 UNL     1     -16.245  46.176 -19.059  1.00  0.00     0.014 C 
HETATM   39  C19 UNL     1     -16.606  44.710 -18.782  1.00  0.00     0.033 C 
HETATM   40  C20 UNL     1     -18.112  44.489 -18.836  1.00  0.00     0.169 C 
HETATM   41  O6  UNL     1     -18.654  44.910 -20.082  1.00  0.00    -0.381 OA
HETATM   42  C21 UNL     1     -18.435  46.289 -20.406  1.00  0.00     0.054 C 
HETATM   43  C22 UNL     1     -18.959  46.471 -21.840  1.00  0.00     0.045 C 
HETATM   44  C23 UNL     1     -19.249  47.205 -19.482  1.00  0.00     0.045 C 
HETATM   45  C24 UNL     1     -16.930  46.611 -20.373  1.00  0.00     0.044 C 
ENDBRANCH  32  38
ENDBRANCH  30  32
ENDBRANCH  27  28
ENDBRANCH  26  27
ENDBRANCH  13  26
TORSDOF 9
ENDMDL
MODEL 2
REMARK minimizedAffinity -10.078331
REMARK CNNscore 0.404275984
REMARK CNNaffinity 7.26263285
REMARK  9 active torsions:
REMARK  status: ('A' for Active; 'I' for Inactive)
REMARK    1  A    between atoms: C3_3  and  O1_4 
REMARK    2  A    between atoms: N1_14  and  O2_16 
REMARK    3  A    between atoms: O2_16  and  C13_17 
REMARK    4  A    between atoms: C13_17  and  C14_18 
REMARK       I    between atoms: C14_18  and  N2_20 
REMARK    5  A    between atoms: N2_20  and  C15_21 
REMARK    6  A    between atoms: C15_21  and  C16_22 
REMARK    7  A    between atoms: C15_21  and  C18_26 
REMARK    8  A    between atoms: C16_22  and  C17_23 
REMARK    9  A    between atoms: C17_23  and  O5_25 
ROOT
HETATM    1  C1  UNL     1       0.419  51.878 -28.510  1.00  0.00     0.015 C 
HETATM    2  C2  UNL     1       0.173  52.291 -27.407  1.00  0.00    -0.078 C 
HETATM    3  C3  UNL     1      -0.154  52.800 -26.065  1.00  0.00     0.128 C 
HETATM    4  C4  UNL     1       1.016  52.659 -25.088  1.00  0.00     0.052 C 
HETATM    5  C5  UNL     1       0.381  52.574 -23.698  1.00  0.00     0.010 C 
HETATM    6  C6  UNL     1      -1.153  52.522 -23.895  1.00  0.00     0.002 C 
HETATM    7  C7  UNL     1      -1.849  51.678 -22.801  1.00  0.00    -0.004 C 
HETATM    8  C8  UNL     1      -3.330  52.093 -22.624  1.00  0.00     0.010 C 
HETATM    9  C9  UNL     1      -4.264  50.973 -22.174  1.00  0.00     0.035 C 
HETATM   10  C10 UNL     1      -3.544  50.045 -21.241  1.00  0.00    -0.069 C 
HETATM   11  C11 UNL     1      -3.922  49.935 -19.956  1.00  0.00     0.030 C 
HETATM   12  C12 UNL     1      -3.178  49.082 -18.995  1.00  0.00     0.032 C 
HETATM   13  N1  UNL     1      -3.723  48.871 -17.830  1.00  0.00    -0.271 N 
ATOM     14  H1  UNL     1      -4.624  49.251 -17.540  1.00  0.00     0.194 HD
HETATM   15  C25 UNL     1      -1.852  48.486 -19.431  1.00  0.00     0.060 C 
HETATM   16  C26 UNL     1      -1.295  49.148 -20.691  1.00  0.00     0.020 C 
HETATM   17  C27 UNL     1      -2.341  49.317 -21.830  1.00  0.00    -0.016 C 
HETATM   18  C28 UNL     1      -2.799  47.920 -22.307  1.00  0.00     0.020 C 
HETATM   19  C29 UNL     1      -1.662  50.148 -22.998  1.00  0.00     0.002 C 
HETATM   20  C30 UNL     1      -2.049  49.751 -24.436  1.00  0.00     0.007 C 
HETATM   21  C31 UNL     1      -1.209  50.510 -25.469  1.00  0.00     0.014 C 
HETATM   22  C32 UNL     1      -1.334  52.051 -25.366  1.00  0.00     0.003 C 
HETATM   23  C33 UNL     1      -2.685  52.489 -25.965  1.00  0.00     0.020 C 
ENDROOT
BRANCH   3  24
HETATM   24  O1  UNL     1      -0.459  54.195 -26.169  1.00  0.00    -0.377 OA
HETATM   25  H2  UNL     1       0.178  54.585 -26.791  1.00  0.00     0.211 HD
ENDBRANCH   3  24
BRANCH  13  26
HETATM   26  O2  UNL     1      -2.914  48.053 -17.024  1.00  0.00    -0.271 OA
BRANCH  26  27
HETATM   27  C13 UNL     1      -2.638  48.747 -15.816  1.00  0.00     0.303 C 
BRANCH  27  28
HETATM   28  C14 UNL     1      -2.104  50.156 -16.071  1.00  0.00     0.244 C 
HETATM   29  O3  UNL     1      -2.787  51.173 -16.020  1.00  0.00    -0.271 OA
HETATM   30  N2  UNL     1      -0.745  50.181 -16.357  1.00  0.00    -0.354 N 
HETATM   31  H16 UNL     1      -0.356  49.320 -16.729  1.00  0.00     0.162 HD
BRANCH  30  32
HETATM   32  C15 UNL     1      -0.072  51.423 -16.731  1.00  0.00     0.098 C 
BRANCH  32  33
HETATM   33  C16 UNL     1       0.205  51.518 -18.240  1.00  0.00     0.135 C 
BRANCH  33  34
HETATM   34  C17 UNL     1      -0.739  52.358 -19.051  1.00  0.00     0.141 C 
HETATM   35  O4  UNL     1      -1.951  52.397 -18.909  1.00  0.00    -0.650 OA
BRANCH  34  36
HETATM   36  O5  UNL     1      -0.154  53.070 -20.032  1.00  0.00    -0.776 OA
HETATM   37  H20 UNL     1      -0.916  53.474 -20.505  1.00  0.00     0.167 HD
ENDBRANCH  34  36
ENDBRANCH  33  34
ENDBRANCH  32  33
BRANCH  32  38
HETATM   38  C18 UNL     1       1.149  51.739 -15.819  1.00  0.00     0.014 C 
HETATM   39  C19 UNL     1       2.405  52.242 -16.542  1.00  0.00     0.033 C 
HETATM   40  C20 UNL     1       3.562  52.441 -15.572  1.00  0.00     0.169 C 
HETATM   41  O6  UNL     1       3.845  51.250 -14.849  1.00  0.00    -0.381 OA
HETATM   42  C21 UNL     1       2.753  50.733 -14.076  1.00  0.00     0.054 C 
HETATM   43  C22 UNL     1       3.235  49.383 -13.521  1.00  0.00     0.045 C 
HETATM   44  C23 UNL     1       2.439  51.653 -12.888  1.00  0.00     0.045 C 
HETATM   45  C24 UNL     1       1.527  50.501 -14.978  1.00  0.00     0.044 C 
ENDBRANCH  32  38
ENDBRANCH  30  32
ENDBRANCH  27  28
ENDBRANCH  26  27
ENDBRANCH  13  26
TORSDOF 9
ENDMDL
MODEL 3
REMARK minimizedAffinity -8.45526695
REMARK CNNscore 0.383718371
REMARK CNNaffinity 6.77196741
REMARK  9 active torsions:
REMARK  status: ('A' for Active; 'I' for Inactive)
REMARK    1  A    between atoms: C3_3  and  O1_4 
REMARK    2  A    between atoms: N1_14  and  O2_16 
REMARK    3  A    between atoms: O2_16  and  C13_17 
REMARK    4  A    between atoms: C13_17  and  C14_18 
REMARK       I    between atoms: C14_18  and  N2_20 
REMARK    5  A    between atoms: N2_20  and  C15_21 
REMARK    6  A    between atoms: C15_21  and  C16_22 
REMARK    7  A    between atoms: C15_21  and  C18_26 
REMARK    8  A    between atoms: C16_22  and  C17_23 
REMARK    9  A    between atoms: C17_23  and  O5_25 
ROOT
HETATM    1  C1  UNL     1       0.311  51.938 -28.534  1.00  0.00     0.015 C 
HETATM    2  C2  UNL     1       0.110  52.333 -27.416  1.00  0.00    -0.078 C 
HETATM    3  C3  UNL     1      -0.163  52.821 -26.054  1.00  0.00     0.128 C 
HETATM    4  C4  UNL     1       1.044  52.662 -25.126  1.00  0.00     0.052 C 
HETATM    5  C5  UNL     1       0.464  52.555 -23.713  1.00  0.00     0.010 C 
HETATM    6  C6  UNL     1      -1.076  52.509 -23.850  1.00  0.00     0.002 C 
HETATM    7  C7  UNL     1      -1.731  51.647 -22.744  1.00  0.00    -0.004 C 
HETATM    8  C8  UNL     1      -3.203  52.062 -22.502  1.00  0.00     0.010 C 
HETATM    9  C9  UNL     1      -4.120  50.936 -22.034  1.00  0.00     0.035 C 
HETATM   10  C10 UNL     1      -3.366  49.992 -21.145  1.00  0.00    -0.069 C 
HETATM   11  C11 UNL     1      -3.693  49.861 -19.848  1.00  0.00     0.030 C 
HETATM   12  C12 UNL     1      -2.914  48.992 -18.932  1.00  0.00     0.032 C 
HETATM   13  N1  UNL     1      -3.413  48.762 -17.750  1.00  0.00    -0.271 N 
ATOM     14  H1  UNL     1      -4.301  49.138 -17.418  1.00  0.00     0.194 HD
HETATM   15  C25 UNL     1      -1.608  48.401 -19.430  1.00  0.00     0.060 C 
HETATM   16  C26 UNL     1      -1.099  49.083 -20.699  1.00  0.00     0.020 C 
HETATM   17  C27 UNL     1      -2.189  49.271 -21.794  1.00  0.00    -0.016 C 
HETATM   18  C28 UNL     1      -2.669  47.884 -22.274  1.00  0.00     0.020 C 
HETATM   19  C29 UNL     1      -1.554  50.121 -22.973  1.00  0.00     0.002 C 
HETATM   20  C30 UNL     1      -1.999  49.749 -24.402  1.00  0.00     0.007 C 
HETATM   21  C31 UNL     1      -1.199  50.523 -25.454  1.00  0.00     0.014 C 
HETATM   22  C32 UNL     1      -1.316  52.063 -25.320  1.00  0.00     0.003 C 
HETATM   23  C33 UNL     1      -2.689  52.512 -25.859  1.00  0.00     0.020 C 
ENDROOT
BRANCH   3  24
HETATM   24  O1  UNL     1      -0.469  54.218 -26.122  1.00  0.00    -0.377 OA
HETATM   25  H2  UNL     1       0.144  54.617 -26.762  1.00  0.00     0.211 HD
ENDBRANCH   3  24
BRANCH  13  26
HETATM   26  O2  UNL     1      -2.574  47.930 -16.989  1.00  0.00    -0.271 OA
BRANCH  26  27
HETATM   27  C13 UNL     1      -1.831  48.742 -16.092  1.00  0.00     0.303 C 
BRANCH  27  28
HETATM   28  C14 UNL     1      -1.230  47.930 -14.946  1.00  0.00     0.244 C 
HETATM   29  O3  UNL     1      -1.772  47.764 -13.859  1.00  0.00    -0.271 OA
HETATM   30  N2  UNL     1       0.002  47.373 -15.260  1.00  0.00    -0.354 N 
HETATM   31  H16 UNL     1       0.523  47.839 -15.996  1.00  0.00     0.162 HD
BRANCH  30  32
HETATM   32  C15 UNL     1       0.783  46.649 -14.259  1.00  0.00     0.098 C 
BRANCH  32  33
HETATM   33  C16 UNL     1       2.264  47.062 -14.246  1.00  0.00     0.135 C 
BRANCH  33  34
HETATM   34  C17 UNL     1       2.572  48.461 -13.797  1.00  0.00     0.141 C 
HETATM   35  O4  UNL     1       1.747  49.341 -13.606  1.00  0.00    -0.650 OA
BRANCH  34  36
HETATM   36  O5  UNL     1       3.884  48.728 -13.655  1.00  0.00    -0.776 OA
HETATM   37  H20 UNL     1       3.899  49.691 -13.453  1.00  0.00     0.167 HD
ENDBRANCH  34  36
ENDBRANCH  33  34
ENDBRANCH  32  33
BRANCH  32  38
HETATM   38  C18 UNL     1       0.532  45.113 -14.303  1.00  0.00     0.014 C 
HETATM   39  C19 UNL     1       0.073  44.477 -12.983  1.00  0.00     0.033 C 
HETATM   40  C20 UNL     1      -0.063  42.966 -13.113  1.00  0.00     0.169 C 
HETATM   41  O6  UNL     1       1.149  42.371 -13.559  1.00  0.00    -0.381 OA
HETATM   42  C21 UNL     1       1.629  42.844 -14.825  1.00  0.00     0.054 C 
HETATM   43  C22 UNL     1       3.005  42.190 -15.022  1.00  0.00     0.045 C 
HETATM   44  C23 UNL     1       0.713  42.381 -15.966  1.00  0.00     0.045 C 
HETATM   45  C24 UNL     1       1.797  44.374 -14.792  1.00  0.00     0.044 C 
ENDBRANCH  32  38
ENDBRANCH  30  32
ENDBRANCH  27  28
ENDBRANCH  26  27
ENDBRANCH  13  26
TORSDOF 9
ENDMDL
MODEL 4
REMARK minimizedAffinity -8.15322971
REMARK CNNscore 0.310949951
REMARK CNNaffinity 6.05185699
REMARK  9 active torsions:
REMARK  status: ('A' for Active; 'I' for Inactive)
REMARK    1  A    between atoms: C3_3  and  O1_4 
REMARK    2  A    between atoms: N1_14  and  O2_16 
REMARK    3  A    between atoms: O2_16  and  C13_17 
REMARK    4  A    between atoms: C13_17  and  C14_18 
REMARK       I    between atoms: C14_18  and  N2_20 
REMARK    5  A    between atoms: N2_20  and  C15_21 
REMARK    6  A    between atoms: C15_21  and  C16_22 
REMARK    7  A    between atoms: C15_21  and  C18_26 
REMARK    8  A    between atoms: C16_22  and  C17_23 
REMARK    9  A    between atoms: C17_23  and  O5_25 
ROOT
HETATM    1  C1  UNL     1      -0.045  54.311 -25.871  1.00  0.00     0.015 C 
HETATM    2  C2  UNL     1      -0.278  53.131 -25.891  1.00  0.00    -0.078 C 
HETATM    3  C3  UNL     1      -0.554  51.685 -25.890  1.00  0.00     0.128 C 
HETATM    4  C4  UNL     1      -1.305  51.235 -27.146  1.00  0.00     0.052 C 
HETATM    5  C5  UNL     1      -2.076  49.979 -26.734  1.00  0.00     0.010 C 
HETATM    6  C6  UNL     1      -1.878  49.796 -25.211  1.00  0.00     0.002 C 
HETATM    7  C7  UNL     1      -3.117  49.158 -24.539  1.00  0.00    -0.004 C 
HETATM    8  C8  UNL     1      -2.737  48.440 -23.220  1.00  0.00     0.010 C 
HETATM    9  C9  UNL     1      -3.835  48.416 -22.161  1.00  0.00     0.035 C 
HETATM   10  C10 UNL     1      -5.180  48.296 -22.814  1.00  0.00    -0.069 C 
HETATM   11  C11 UNL     1      -5.938  47.201 -22.630  1.00  0.00     0.030 C 
HETATM   12  C12 UNL     1      -7.236  47.026 -23.326  1.00  0.00     0.032 C 
HETATM   13  N1  UNL     1      -7.999  46.041 -22.941  1.00  0.00    -0.271 N 
ATOM     14  H1  UNL     1      -7.761  45.389 -22.194  1.00  0.00     0.194 HD
HETATM   15  C25 UNL     1      -7.613  48.011 -24.417  1.00  0.00     0.060 C 
HETATM   16  C26 UNL     1      -6.424  48.846 -24.892  1.00  0.00     0.020 C 
HETATM   17  C27 UNL     1      -5.573  49.446 -23.735  1.00  0.00    -0.016 C 
HETATM   18  C28 UNL     1      -6.440  50.441 -22.933  1.00  0.00     0.020 C 
HETATM   19  C29 UNL     1      -4.304  50.148 -24.377  1.00  0.00     0.002 C 
HETATM   20  C30 UNL     1      -3.819  51.443 -23.696  1.00  0.00     0.007 C 
HETATM   21  C31 UNL     1      -2.698  52.109 -24.498  1.00  0.00     0.014 C 
HETATM   22  C32 UNL     1      -1.456  51.205 -24.708  1.00  0.00     0.003 C 
HETATM   23  C33 UNL     1      -0.647  51.148 -23.397  1.00  0.00     0.020 C 
ENDROOT
BRANCH   3  24
HETATM   24  O1  UNL     1       0.694  50.983 -25.863  1.00  0.00    -0.377 OA
HETATM   25  H2  UNL     1       1.302  51.451 -26.460  1.00  0.00     0.211 HD
ENDBRANCH   3  24
BRANCH  13  26
HETATM   26  O2  UNL     1      -9.190  45.990 -23.683  1.00  0.00    -0.271 OA
BRANCH  26  27
HETATM   27  C13 UNL     1      -9.995  44.939 -23.169  1.00  0.00     0.303 C 
BRANCH  27  28
HETATM   28  C14 UNL     1     -11.411  44.968 -23.740  1.00  0.00     0.244 C 
HETATM   29  O3  UNL     1     -12.092  43.969 -23.948  1.00  0.00    -0.271 OA
HETATM   30  N2  UNL     1     -11.872  46.253 -23.993  1.00  0.00    -0.354 N 
HETATM   31  H16 UNL     1     -11.157  46.957 -24.140  1.00  0.00     0.162 HD
BRANCH  30  32
HETATM   32  C15 UNL     1     -13.164  46.482 -24.637  1.00  0.00     0.098 C 
BRANCH  32  33
HETATM   33  C16 UNL     1     -14.342  45.924 -23.821  1.00  0.00     0.135 C 
BRANCH  33  34
HETATM   34  C17 UNL     1     -15.412  46.899 -23.424  1.00  0.00     0.141 C 
HETATM   35  O4  UNL     1     -16.243  46.719 -22.548  1.00  0.00    -0.650 OA
BRANCH  34  36
HETATM   36  O5  UNL     1     -15.443  48.027 -24.159  1.00  0.00    -0.776 OA
HETATM   37  H20 UNL     1     -16.244  48.491 -23.827  1.00  0.00     0.167 HD
ENDBRANCH  34  36
ENDBRANCH  33  34
ENDBRANCH  32  33
BRANCH  32  38
HETATM   38  C18 UNL     1     -13.161  46.083 -26.141  1.00  0.00     0.014 C 
HETATM   39  C19 UNL     1     -12.924  47.231 -27.132  1.00  0.00     0.033 C 
HETATM   40  C20 UNL     1     -13.022  46.748 -28.574  1.00  0.00     0.169 C 
HETATM   41  O6  UNL     1     -14.272  46.119 -28.827  1.00  0.00    -0.381 OA
HETATM   42  C21 UNL     1     -14.561  44.984 -28.001  1.00  0.00     0.054 C 
HETATM   43  C22 UNL     1     -16.003  44.575 -28.339  1.00  0.00     0.045 C 
HETATM   44  C23 UNL     1     -13.638  43.807 -28.345  1.00  0.00     0.045 C 
HETATM   45  C24 UNL     1     -14.482  45.375 -26.514  1.00  0.00     0.044 C 
ENDBRANCH  32  38
ENDBRANCH  30  32
ENDBRANCH  27  28
ENDBRANCH  26  27
ENDBRANCH  13  26
TORSDOF 9
ENDMDL
MODEL 5
REMARK minimizedAffinity -8.46723843
REMARK CNNscore 0.264399022
REMARK CNNaffinity 6.04455042
REMARK  9 active torsions:
REMARK  status: ('A' for Active; 'I' for Inactive)
REMARK    1  A    between atoms: C3_3  and  O1_4 
REMARK    2  A    between atoms: N1_14  and  O2_16 
REMARK    3  A    between atoms: O2_16  and  C13_17 
REMARK    4  A    between atoms: C13_17  and  C14_18 
REMARK       I    between atoms: C14_18  and  N2_20 
REMARK    5  A    between atoms: N2_20  and  C15_21 
REMARK    6  A    between atoms: C15_21  and  C16_22 
REMARK    7  A    between atoms: C15_21  and  C18_26 
REMARK    8  A    between atoms: C16_22  and  C17_23 
REMARK    9  A    between atoms: C17_23  and  O5_25 
ROOT
HETATM    1  C1  UNL     1      -0.097  55.105 -27.272  1.00  0.00     0.015 C 
HETATM    2  C2  UNL     1      -0.026  53.982 -26.849  1.00  0.00    -0.078 C 
HETATM    3  C3  UNL     1       0.066  52.617 -26.305  1.00  0.00     0.128 C 
HETATM    4  C4  UNL     1      -0.276  51.551 -27.349  1.00  0.00     0.052 C 
HETATM    5  C5  UNL     1      -0.786  50.347 -26.553  1.00  0.00     0.010 C 
HETATM    6  C6  UNL     1      -0.868  50.777 -25.070  1.00  0.00     0.002 C 
HETATM    7  C7  UNL     1      -2.026  50.069 -24.325  1.00  0.00    -0.004 C 
HETATM    8  C8  UNL     1      -1.763  50.010 -22.800  1.00  0.00     0.010 C 
HETATM    9  C9  UNL     1      -3.016  50.024 -21.930  1.00  0.00     0.035 C 
HETATM   10  C10 UNL     1      -4.126  49.280 -22.612  1.00  0.00    -0.069 C 
HETATM   11  C11 UNL     1      -4.615  48.143 -22.086  1.00  0.00     0.030 C 
HETATM   12  C12 UNL     1      -5.659  47.349 -22.781  1.00  0.00     0.032 C 
HETATM   13  N1  UNL     1      -6.221  46.380 -22.115  1.00  0.00    -0.271 N 
ATOM     14  H1  UNL     1      -5.991  46.135 -21.152  1.00  0.00     0.194 HD
HETATM   15  C25 UNL     1      -6.030  47.727 -24.203  1.00  0.00     0.060 C 
HETATM   16  C26 UNL     1      -5.010  48.663 -24.849  1.00  0.00     0.020 C 
HETATM   17  C27 UNL     1      -4.589  49.857 -23.945  1.00  0.00    -0.016 C 
HETATM   18  C28 UNL     1      -5.819  50.756 -23.689  1.00  0.00     0.020 C 
HETATM   19  C29 UNL     1      -3.425  50.641 -24.684  1.00  0.00     0.002 C 
HETATM   20  C30 UNL     1      -3.422  52.175 -24.524  1.00  0.00     0.007 C 
HETATM   21  C31 UNL     1      -2.357  52.826 -25.410  1.00  0.00     0.014 C 
HETATM   22  C32 UNL     1      -0.916  52.330 -25.124  1.00  0.00     0.003 C 
HETATM   23  C33 UNL     1      -0.407  52.984 -23.825  1.00  0.00     0.020 C 
ENDROOT
BRANCH   3  24
HETATM   24  O1  UNL     1       1.414  52.384 -25.882  1.00  0.00    -0.377 OA
HETATM   25  H2  UNL     1       1.999  52.775 -26.552  1.00  0.00     0.211 HD
ENDBRANCH   3  24
BRANCH  13  26
HETATM   26  O2  UNL     1      -7.184  45.713 -22.890  1.00  0.00    -0.271 OA
BRANCH  26  27
HETATM   27  C13 UNL     1      -8.450  46.303 -22.638  1.00  0.00     0.303 C 
BRANCH  27  28
HETATM   28  C14 UNL     1      -9.550  45.697 -23.508  1.00  0.00     0.244 C 
HETATM   29  O3  UNL     1      -9.393  44.732 -24.247  1.00  0.00    -0.271 OA
HETATM   30  N2  UNL     1     -10.772  46.342 -23.370  1.00  0.00    -0.354 N 
HETATM   31  H16 UNL     1     -10.730  47.304 -23.048  1.00  0.00     0.162 HD
BRANCH  30  32
HETATM   32  C15 UNL     1     -11.921  45.974 -24.196  1.00  0.00     0.098 C 
BRANCH  32  33
HETATM   33  C16 UNL     1     -11.650  46.145 -25.700  1.00  0.00     0.135 C 
BRANCH  33  34
HETATM   34  C17 UNL     1     -12.272  47.337 -26.368  1.00  0.00     0.141 C 
HETATM   35  O4  UNL     1     -13.280  47.317 -27.056  1.00  0.00    -0.650 OA
BRANCH  34  36
HETATM   36  O5  UNL     1     -11.595  48.489 -26.203  1.00  0.00    -0.776 OA
HETATM   37  H20 UNL     1     -12.084  49.124 -26.772  1.00  0.00     0.167 HD
ENDBRANCH  34  36
ENDBRANCH  33  34
ENDBRANCH  32  33
BRANCH  32  38
HETATM   38  C18 UNL     1     -13.248  46.613 -23.692  1.00  0.00     0.014 C 
HETATM   39  C19 UNL     1     -13.269  47.018 -22.212  1.00  0.00     0.033 C 
HETATM   40  C20 UNL     1     -14.635  47.554 -21.803  1.00  0.00     0.169 C 
HETATM   41  O6  UNL     1     -15.666  46.613 -22.078  1.00  0.00    -0.381 OA
HETATM   42  C21 UNL     1     -15.780  46.220 -23.452  1.00  0.00     0.054 C 
HETATM   43  C22 UNL     1     -16.833  45.101 -23.482  1.00  0.00     0.045 C 
HETATM   44  C23 UNL     1     -16.294  47.382 -24.313  1.00  0.00     0.045 C 
HETATM   45  C24 UNL     1     -14.437  45.665 -23.961  1.00  0.00     0.044 C 
ENDBRANCH  32  38
ENDBRANCH  30  32
ENDBRANCH  27  28
ENDBRANCH  26  27
ENDBRANCH  13  26
TORSDOF 9
ENDMDL
MODEL 6
REMARK minimizedAffinity -9.48973465
REMARK CNNscore 0.253345907
REMARK CNNaffinity 6.69286776
REMARK  9 active torsions:
REMARK  status: ('A' for Active; 'I' for Inactive)
REMARK    1  A    between atoms: C3_3  and  O1_4 
REMARK    2  A    between atoms: N1_14  and  O2_16 
REMARK    3  A    between atoms: O2_16  and  C13_17 
REMARK    4  A    between atoms: C13_17  and  C14_18 
REMARK       I    between atoms: C14_18  and  N2_20 
REMARK    5  A    between atoms: N2_20  and  C15_21 
REMARK    6  A    between atoms: C15_21  and  C16_22 
REMARK    7  A    between atoms: C15_21  and  C18_26 
REMARK    8  A    between atoms: C16_22  and  C17_23 
REMARK    9  A    between atoms: C17_23  and  O5_25 
ROOT
HETATM    1  C1  UNL     1      -3.079  48.515 -27.051  1.00  0.00     0.015 C 
HETATM    2  C2  UNL     1      -2.967  49.403 -26.248  1.00  0.00    -0.078 C 
HETATM    3  C3  UNL     1      -2.856  50.487 -25.259  1.00  0.00     0.128 C 
HETATM    4  C4  UNL     1      -1.410  50.950 -25.061  1.00  0.00     0.052 C 
HETATM    5  C5  UNL     1      -1.352  51.521 -23.643  1.00  0.00     0.010 C 
HETATM    6  C6  UNL     1      -2.726  51.254 -22.983  1.00  0.00     0.002 C 
HETATM    7  C7  UNL     1      -2.600  51.017 -21.459  1.00  0.00    -0.004 C 
HETATM    8  C8  UNL     1      -3.924  51.344 -20.725  1.00  0.00     0.010 C 
HETATM    9  C9  UNL     1      -4.177  50.529 -19.460  1.00  0.00     0.035 C 
HETATM   10  C10 UNL     1      -2.882  50.254 -18.755  1.00  0.00    -0.069 C 
HETATM   11  C11 UNL     1      -2.640  50.773 -17.538  1.00  0.00     0.030 C 
HETATM   12  C12 UNL     1      -1.337  50.579 -16.854  1.00  0.00     0.032 C 
HETATM   13  N1  UNL     1      -1.254  50.936 -15.603  1.00  0.00    -0.271 N 
ATOM     14  H1  UNL     1      -2.025  51.336 -15.068  1.00  0.00     0.194 HD
HETATM   15  C25 UNL     1      -0.195  49.954 -17.634  1.00  0.00     0.060 C 
HETATM   16  C26 UNL     1      -0.450  49.939 -19.141  1.00  0.00     0.020 C 
HETATM   17  C27 UNL     1      -1.866  49.429 -19.536  1.00  0.00    -0.016 C 
HETATM   18  C28 UNL     1      -2.007  47.950 -19.112  1.00  0.00     0.020 C 
HETATM   19  C29 UNL     1      -2.032  49.615 -21.102  1.00  0.00     0.002 C 
HETATM   20  C30 UNL     1      -2.828  48.522 -21.842  1.00  0.00     0.007 C 
HETATM   21  C31 UNL     1      -2.779  48.727 -23.359  1.00  0.00     0.014 C 
HETATM   22  C32 UNL     1      -3.336  50.097 -23.823  1.00  0.00     0.003 C 
HETATM   23  C33 UNL     1      -4.875  50.064 -23.757  1.00  0.00     0.020 C 
ENDROOT
BRANCH   3  24
HETATM   24  O1  UNL     1      -3.605  51.613 -25.730  1.00  0.00    -0.377 OA
HETATM   25  H2  UNL     1      -3.442  51.689 -26.685  1.00  0.00     0.211 HD
ENDBRANCH   3  24
BRANCH  13  26
HETATM   26  O2  UNL     1       0.029  50.701 -15.084  1.00  0.00    -0.271 OA
BRANCH  26  27
HETATM   27  C13 UNL     1       0.570  51.939 -14.647  1.00  0.00     0.303 C 
BRANCH  27  28
HETATM   28  C14 UNL     1       0.700  52.005 -13.126  1.00  0.00     0.244 C 
HETATM   29  O3  UNL     1       0.867  51.028 -12.405  1.00  0.00    -0.271 OA
HETATM   30  N2  UNL     1       0.626  53.298 -12.628  1.00  0.00    -0.354 N 
HETATM   31  H16 UNL     1       0.140  53.970 -13.213  1.00  0.00     0.162 HD
BRANCH  30  32
HETATM   32  C15 UNL     1       0.626  53.558 -11.190  1.00  0.00     0.098 C 
BRANCH  32  33
HETATM   33  C16 UNL     1      -0.383  54.643 -10.781  1.00  0.00     0.135 C 
BRANCH  33  34
HETATM   34  C17 UNL     1      -1.618  54.183 -10.061  1.00  0.00     0.141 C 
HETATM   35  O4  UNL     1      -1.634  53.559  -9.012  1.00  0.00    -0.650 OA
BRANCH  34  36
HETATM   36  O5  UNL     1      -2.772  54.466 -10.693  1.00  0.00    -0.776 OA
HETATM   37  H20 UNL     1      -3.450  54.018 -10.138  1.00  0.00     0.167 HD
ENDBRANCH  34  36
ENDBRANCH  33  34
ENDBRANCH  32  33
BRANCH  32  38
HETATM   38  C18 UNL     1       2.061  53.748 -10.617  1.00  0.00     0.014 C 
HETATM   39  C19 UNL     1       2.470  52.765  -9.511  1.00  0.00     0.033 C 
HETATM   40  C20 UNL     1       3.855  53.089  -8.965  1.00  0.00     0.169 C 
HETATM   41  O6  UNL     1       3.928  54.429  -8.495  1.00  0.00    -0.381 OA
HETATM   42  C21 UNL     1       3.634  55.434  -9.474  1.00  0.00     0.054 C 
HETATM   43  C22 UNL     1       3.618  56.769  -8.713  1.00  0.00     0.045 C 
HETATM   44  C23 UNL     1       4.739  55.504 -10.537  1.00  0.00     0.045 C 
HETATM   45  C24 UNL     1       2.244  55.187 -10.090  1.00  0.00     0.044 C 
ENDBRANCH  32  38
ENDBRANCH  30  32
ENDBRANCH  27  28
ENDBRANCH  26  27
ENDBRANCH  13  26
TORSDOF 9
ENDMDL
MODEL 7
REMARK minimizedAffinity -9.54724312
REMARK CNNscore 0.229885966
REMARK CNNaffinity 6.79298592
REMARK  9 active torsions:
REMARK  status: ('A' for Active; 'I' for Inactive)
REMARK    1  A    between atoms: C3_3  and  O1_4 
REMARK    2  A    between atoms: N1_14  and  O2_16 
REMARK    3  A    between atoms: O2_16  and  C13_17 
REMARK    4  A    between atoms: C13_17  and  C14_18 
REMARK       I    between atoms: C14_18  and  N2_20 
REMARK    5  A    between atoms: N2_20  and  C15_21 
REMARK    6  A    between atoms: C15_21  and  C16_22 
REMARK    7  A    between atoms: C15_21  and  C18_26 
REMARK    8  A    between atoms: C16_22  and  C17_23 
REMARK    9  A    between atoms: C17_23  and  O5_25 
ROOT
HETATM    1  C1  UNL     1       0.399  50.197 -16.809  1.00  0.00     0.015 C 
HETATM    2  C2  UNL     1      -0.613  49.992 -17.425  1.00  0.00    -0.078 C 
HETATM    3  C3  UNL     1      -1.857  49.769 -18.180  1.00  0.00     0.128 C 
HETATM    4  C4  UNL     1      -2.023  48.309 -18.610  1.00  0.00     0.052 C 
HETATM    5  C5  UNL     1      -2.901  48.347 -19.863  1.00  0.00     0.010 C 
HETATM    6  C6  UNL     1      -3.116  49.834 -20.229  1.00  0.00     0.002 C 
HETATM    7  C7  UNL     1      -3.243  50.042 -21.757  1.00  0.00    -0.004 C 
HETATM    8  C8  UNL     1      -4.026  51.337 -22.088  1.00  0.00     0.010 C 
HETATM    9  C9  UNL     1      -3.626  52.014 -23.395  1.00  0.00     0.035 C 
HETATM   10  C10 UNL     1      -3.256  50.983 -24.419  1.00  0.00    -0.069 C 
HETATM   11  C11 UNL     1      -3.993  50.825 -25.532  1.00  0.00     0.030 C 
HETATM   12  C12 UNL     1      -3.692  49.761 -26.522  1.00  0.00     0.032 C 
HETATM   13  N1  UNL     1      -4.321  49.804 -27.663  1.00  0.00    -0.271 N 
ATOM     14  H1  UNL     1      -5.001  50.520 -27.917  1.00  0.00     0.194 HD
HETATM   15  C25 UNL     1      -2.657  48.710 -26.164  1.00  0.00     0.060 C 
HETATM   16  C26 UNL     1      -2.326  48.695 -24.672  1.00  0.00     0.020 C 
HETATM   17  C27 UNL     1      -2.059  50.105 -24.071  1.00  0.00    -0.016 C 
HETATM   18  C28 UNL     1      -0.800  50.708 -24.733  1.00  0.00     0.020 C 
HETATM   19  C29 UNL     1      -1.884  49.941 -22.503  1.00  0.00     0.002 C 
HETATM   20  C30 UNL     1      -0.845  50.860 -21.830  1.00  0.00     0.007 C 
HETATM   21  C31 UNL     1      -0.651  50.496 -20.355  1.00  0.00     0.014 C 
HETATM   22  C32 UNL     1      -1.951  50.576 -19.515  1.00  0.00     0.003 C 
HETATM   23  C33 UNL     1      -2.277  52.056 -19.231  1.00  0.00     0.020 C 
ENDROOT
BRANCH   3  24
HETATM   24  O1  UNL     1      -2.967  50.096 -17.337  1.00  0.00    -0.377 OA
HETATM   25  H2  UNL     1      -2.766  49.755 -16.450  1.00  0.00     0.211 HD
ENDBRANCH   3  24
BRANCH  13  26
HETATM   26  O2  UNL     1      -3.945  48.740 -28.499  1.00  0.00    -0.271 OA
BRANCH  26  27
HETATM   27  C13 UNL     1      -5.044  48.419 -29.339  1.00  0.00     0.303 C 
BRANCH  27  28
HETATM   28  C14 UNL     1      -6.263  47.962 -28.540  1.00  0.00     0.244 C 
HETATM   29  O3  UNL     1      -6.248  47.056 -27.713  1.00  0.00    -0.271 OA
HETATM   30  N2  UNL     1      -7.409  48.691 -28.829  1.00  0.00    -0.354 N 
HETATM   31  H16 UNL     1      -7.428  49.142 -29.738  1.00  0.00     0.162 HD
BRANCH  30  32
HETATM   32  C15 UNL     1      -8.700  48.337 -28.243  1.00  0.00     0.098 C 
BRANCH  32  33
HETATM   33  C16 UNL     1      -8.591  47.933 -26.763  1.00  0.00     0.135 C 
BRANCH  33  34
HETATM   34  C17 UNL     1      -9.390  48.739 -25.781  1.00  0.00     0.141 C 
HETATM   35  O4  UNL     1      -9.920  48.302 -24.771  1.00  0.00    -0.650 OA
BRANCH  34  36
HETATM   36  O5  UNL     1      -9.546  50.035 -26.114  1.00  0.00    -0.776 OA
HETATM   37  H20 UNL     1     -10.158  50.375 -25.423  1.00  0.00     0.167 HD
ENDBRANCH  34  36
ENDBRANCH  33  34
ENDBRANCH  32  33
BRANCH  32  38
HETATM   38  C18 UNL     1      -9.510  47.350 -29.133  1.00  0.00     0.014 C 
HETATM   39  C19 UNL     1      -9.558  47.692 -30.629  1.00  0.00     0.033 C 
HETATM   40  C20 UNL     1     -10.440  46.714 -31.394  1.00  0.00     0.169 C 
HETATM   41  O6  UNL     1     -11.753  46.665 -30.851  1.00  0.00    -0.381 OA
HETATM   42  C21 UNL     1     -11.828  46.283 -29.471  1.00  0.00     0.054 C 
HETATM   43  C22 UNL     1     -13.301  46.452 -29.068  1.00  0.00     0.045 C 
HETATM   44  C23 UNL     1     -11.450  44.806 -29.291  1.00  0.00     0.045 C 
HETATM   45  C24 UNL     1     -10.958  47.218 -28.612  1.00  0.00     0.044 C 
ENDBRANCH  32  38
ENDBRANCH  30  32
ENDBRANCH  27  28
ENDBRANCH  26  27
ENDBRANCH  13  26
TORSDOF 9
ENDMDL
MODEL 8
REMARK minimizedAffinity -8.89423561
REMARK CNNscore 0.229206353
REMARK CNNaffinity 6.82149076
REMARK  9 active torsions:
REMARK  status: ('A' for Active; 'I' for Inactive)
REMARK    1  A    between atoms: C3_3  and  O1_4 
REMARK    2  A    between atoms: N1_14  and  O2_16 
REMARK    3  A    between atoms: O2_16  and  C13_17 
REMARK    4  A    between atoms: C13_17  and  C14_18 
REMARK       I    between atoms: C14_18  and  N2_20 
REMARK    5  A    between atoms: N2_20  and  C15_21 
REMARK    6  A    between atoms: C15_21  and  C16_22 
REMARK    7  A    between atoms: C15_21  and  C18_26 
REMARK    8  A    between atoms: C16_22  and  C17_23 
REMARK    9  A    between atoms: C17_23  and  O5_25 
ROOT
HETATM    1  C1  UNL     1       0.173  51.867 -28.234  1.00  0.00     0.015 C 
HETATM    2  C2  UNL     1      -0.053  52.209 -27.103  1.00  0.00    -0.078 C 
HETATM    3  C3  UNL     1      -0.356  52.633 -25.726  1.00  0.00     0.128 C 
HETATM    4  C4  UNL     1       0.814  52.389 -24.771  1.00  0.00     0.052 C 
HETATM    5  C5  UNL     1       0.186  52.225 -23.385  1.00  0.00     0.010 C 
HETATM    6  C6  UNL     1      -1.350  52.235 -23.572  1.00  0.00     0.002 C 
HETATM    7  C7  UNL     1      -2.065  51.337 -22.534  1.00  0.00    -0.004 C 
HETATM    8  C8  UNL     1      -3.532  51.785 -22.317  1.00  0.00     0.010 C 
HETATM    9  C9  UNL     1      -4.497  50.665 -21.938  1.00  0.00     0.035 C 
HETATM   10  C10 UNL     1      -3.801  49.652 -21.078  1.00  0.00    -0.069 C 
HETATM   11  C11 UNL     1      -4.174  49.464 -19.800  1.00  0.00     0.030 C 
HETATM   12  C12 UNL     1      -3.451  48.524 -18.908  1.00  0.00     0.032 C 
HETATM   13  N1  UNL     1      -3.995  48.248 -17.756  1.00  0.00    -0.271 N 
ATOM     14  H1  UNL     1      -4.882  48.634 -17.433  1.00  0.00     0.194 HD
HETATM   15  C25 UNL     1      -2.147  47.919 -19.396  1.00  0.00     0.060 C 
HETATM   16  C26 UNL     1      -1.578  48.651 -20.611  1.00  0.00     0.020 C 
HETATM   17  C27 UNL     1      -2.625  48.930 -21.727  1.00  0.00    -0.016 C 
HETATM   18  C28 UNL     1      -3.129  47.586 -22.296  1.00  0.00     0.020 C 
HETATM   19  C29 UNL     1      -1.927  49.820 -22.839  1.00  0.00     0.002 C 
HETATM   20  C30 UNL     1      -2.335  49.538 -24.299  1.00  0.00     0.007 C 
HETATM   21  C31 UNL     1      -1.479  50.340 -25.282  1.00  0.00     0.014 C 
HETATM   22  C32 UNL     1      -1.555  51.874 -25.071  1.00  0.00     0.003 C 
HETATM   23  C33 UNL     1      -2.895  52.394 -25.627  1.00  0.00     0.020 C 
ENDROOT
BRANCH   3  24
HETATM   24  O1  UNL     1      -0.619  54.041 -25.730  1.00  0.00    -0.377 OA
HETATM   25  H2  UNL     1       0.027  54.453 -26.328  1.00  0.00     0.211 HD
ENDBRANCH   3  24
BRANCH  13  26
HETATM   26  O2  UNL     1      -3.207  47.352 -17.016  1.00  0.00    -0.271 OA
BRANCH  26  27
HETATM   27  C13 UNL     1      -3.221  47.760 -15.656  1.00  0.00     0.303 C 
BRANCH  27  28
HETATM   28  C14 UNL     1      -1.910  48.426 -15.241  1.00  0.00     0.244 C 
HETATM   29  O3  UNL     1      -1.793  49.184 -14.285  1.00  0.00    -0.271 OA
HETATM   30  N2  UNL     1      -0.840  48.074 -16.053  1.00  0.00    -0.354 N 
HETATM   31  H16 UNL     1      -1.079  47.762 -16.988  1.00  0.00     0.162 HD
BRANCH  30  32
HETATM   32  C15 UNL     1       0.475  48.688 -15.880  1.00  0.00     0.098 C 
BRANCH  32  33
HETATM   33  C16 UNL     1       0.865  48.852 -14.402  1.00  0.00     0.135 C 
BRANCH  33  34
HETATM   34  C17 UNL     1       1.459  47.653 -13.722  1.00  0.00     0.141 C 
HETATM   35  O4  UNL     1       2.550  47.164 -13.973  1.00  0.00    -0.650 OA
BRANCH  34  36
HETATM   36  O5  UNL     1       0.662  47.078 -12.802  1.00  0.00    -0.776 OA
HETATM   37  H20 UNL     1       1.164  46.275 -12.536  1.00  0.00     0.167 HD
ENDBRANCH  34  36
ENDBRANCH  33  34
ENDBRANCH  32  33
BRANCH  32  38
HETATM   38  C18 UNL     1       0.658  49.964 -16.752  1.00  0.00     0.014 C 
HETATM   39  C19 UNL     1       1.133  51.217 -16.004  1.00  0.00     0.033 C 
HETATM   40  C20 UNL     1       1.200  52.425 -16.929  1.00  0.00     0.169 C 
HETATM   41  O6  UNL     1      -0.052  52.665 -17.561  1.00  0.00    -0.381 OA
HETATM   42  C21 UNL     1      -0.554  51.578 -18.350  1.00  0.00     0.054 C 
HETATM   43  C22 UNL     1      -1.963  51.999 -18.794  1.00  0.00     0.045 C 
HETATM   44  C23 UNL     1       0.302  51.373 -19.607  1.00  0.00     0.045 C 
HETATM   45  C24 UNL     1      -0.653  50.302 -17.494  1.00  0.00     0.044 C 
ENDBRANCH  32  38
ENDBRANCH  30  32
ENDBRANCH  27  28
ENDBRANCH  26  27
ENDBRANCH  13  26
TORSDOF 9
ENDMDL
MODEL 9
REMARK minimizedAffinity -8.35458946
REMARK CNNscore 0.224870697
REMARK CNNaffinity 6.07263517
REMARK  9 active torsions:
REMARK  status: ('A' for Active; 'I' for Inactive)
REMARK    1  A    between atoms: C3_3  and  O1_4 
REMARK    2  A    between atoms: N1_14  and  O2_16 
REMARK    3  A    between atoms: O2_16  and  C13_17 
REMARK    4  A    between atoms: C13_17  and  C14_18 
REMARK       I    between atoms: C14_18  and  N2_20 
REMARK    5  A    between atoms: N2_20  and  C15_21 
REMARK    6  A    between atoms: C15_21  and  C16_22 
REMARK    7  A    between atoms: C15_21  and  C18_26 
REMARK    8  A    between atoms: C16_22  and  C17_23 
REMARK    9  A    between atoms: C17_23  and  O5_25 
ROOT
HETATM    1  C1  UNL     1       0.130  51.360 -25.788  1.00  0.00     0.015 C 
HETATM    2  C2  UNL     1      -1.025  51.560 -25.518  1.00  0.00    -0.078 C 
HETATM    3  C3  UNL     1      -2.446  51.788 -25.209  1.00  0.00     0.128 C 
HETATM    4  C4  UNL     1      -2.639  52.605 -23.928  1.00  0.00     0.052 C 
HETATM    5  C5  UNL     1      -4.015  52.204 -23.390  1.00  0.00     0.010 C 
HETATM    6  C6  UNL     1      -4.542  51.057 -24.283  1.00  0.00     0.002 C 
HETATM    7  C7  UNL     1      -5.419  50.060 -23.488  1.00  0.00    -0.004 C 
HETATM    8  C8  UNL     1      -6.400  49.305 -24.418  1.00  0.00     0.010 C 
HETATM    9  C9  UNL     1      -6.765  47.896 -23.960  1.00  0.00     0.035 C 
HETATM   10  C10 UNL     1      -6.831  47.840 -22.462  1.00  0.00    -0.069 C 
HETATM   11  C11 UNL     1      -7.994  47.597 -21.834  1.00  0.00     0.030 C 
HETATM   12  C12 UNL     1      -8.099  47.613 -20.354  1.00  0.00     0.032 C 
HETATM   13  N1  UNL     1      -9.204  47.171 -19.823  1.00  0.00    -0.271 N 
ATOM     14  H1  UNL     1      -9.996  46.815 -20.359  1.00  0.00     0.194 HD
HETATM   15  C25 UNL     1      -6.913  48.112 -19.549  1.00  0.00     0.060 C 
HETATM   16  C26 UNL     1      -5.897  48.869 -20.404  1.00  0.00     0.020 C 
HETATM   17  C27 UNL     1      -5.528  48.146 -21.732  1.00  0.00    -0.016 C 
HETATM   18  C28 UNL     1      -4.826  46.810 -21.402  1.00  0.00     0.020 C 
HETATM   19  C29 UNL     1      -4.594  49.115 -22.571  1.00  0.00     0.002 C 
HETATM   20  C30 UNL     1      -3.467  48.447 -23.383  1.00  0.00     0.007 C 
HETATM   21  C31 UNL     1      -2.540  49.491 -24.014  1.00  0.00     0.014 C 
HETATM   22  C32 UNL     1      -3.266  50.481 -24.960  1.00  0.00     0.003 C 
HETATM   23  C33 UNL     1      -3.572  49.771 -26.294  1.00  0.00     0.020 C 
ENDROOT
BRANCH   3  24
HETATM   24  O1  UNL     1      -3.033  52.531 -26.283  1.00  0.00    -0.377 OA
HETATM   25  H2  UNL     1      -2.389  53.207 -26.552  1.00  0.00     0.211 HD
ENDBRANCH   3  24
BRANCH  13  26
HETATM   26  O2  UNL     1      -9.169  47.246 -18.421  1.00  0.00    -0.271 OA
BRANCH  26  27
HETATM   27  C13 UNL     1     -10.502  47.350 -17.944  1.00  0.00     0.303 C 
BRANCH  27  28
HETATM   28  C14 UNL     1     -11.515  47.451 -19.083  1.00  0.00     0.244 C 
HETATM   29  O3  UNL     1     -11.225  47.379 -20.273  1.00  0.00    -0.271 OA
HETATM   30  N2  UNL     1     -12.820  47.619 -18.641  1.00  0.00    -0.354 N 
HETATM   31  H16 UNL     1     -12.923  48.023 -17.715  1.00  0.00     0.162 HD
BRANCH  30  32
HETATM   32  C15 UNL     1     -13.917  47.840 -19.581  1.00  0.00     0.098 C 
BRANCH  32  33
HETATM   33  C16 UNL     1     -14.688  49.140 -19.301  1.00  0.00     0.135 C 
BRANCH  33  34
HETATM   34  C17 UNL     1     -15.341  49.263 -17.955  1.00  0.00     0.141 C 
HETATM   35  O4  UNL     1     -16.179  50.096 -17.649  1.00  0.00    -0.650 OA
BRANCH  34  36
HETATM   36  O5  UNL     1     -14.894  48.389 -17.034  1.00  0.00    -0.776 OA
HETATM   37  H20 UNL     1     -15.354  48.672 -16.211  1.00  0.00     0.167 HD
ENDBRANCH  34  36
ENDBRANCH  33  34
ENDBRANCH  32  33
BRANCH  32  38
HETATM   38  C18 UNL     1     -14.807  46.576 -19.766  1.00  0.00     0.014 C 
HETATM   39  C19 UNL     1     -14.209  45.464 -20.638  1.00  0.00     0.033 C 
HETATM   40  C20 UNL     1     -15.191  44.314 -20.822  1.00  0.00     0.169 C 
HETATM   41  O6  UNL     1     -16.425  44.766 -21.365  1.00  0.00    -0.381 OA
HETATM   42  C21 UNL     1     -17.106  45.759 -20.586  1.00  0.00     0.054 C 
HETATM   43  C22 UNL     1     -18.309  46.203 -21.432  1.00  0.00     0.045 C 
HETATM   44  C23 UNL     1     -17.638  45.158 -19.278  1.00  0.00     0.045 C 
HETATM   45  C24 UNL     1     -16.185  46.968 -20.343  1.00  0.00     0.044 C 
ENDBRANCH  32  38
ENDBRANCH  30  32
ENDBRANCH  27  28
ENDBRANCH  26  27
ENDBRANCH  13  26
TORSDOF 9
ENDMDL
