MODEL 1
REMARK minimizedAffinity -7.40359735
REMARK CNNscore 0.592155933
REMARK CNNaffinity 6.14596558
REMARK  9 active torsions:
REMARK  status: ('A' for Active; 'I' for Inactive)
REMARK    1  A    between atoms: C4_4  and  C5_5 
REMARK    2  A    between atoms: C5_5  and  C6_6 
REMARK    3  A    between atoms: C6_6  and  C7_7 
REMARK    4  A    between atoms: C7_7  and  C9_9 
REMARK    5  A    between atoms: C16_16  and  O1_17 
REMARK    6  A    between atoms: C25_27  and  C27_29 
REMARK    7  A    between atoms: C27_29  and  O4_31 
REMARK    8  A    between atoms: C28_32  and  O5_33 
REMARK    9  A    between atoms: C30_35  and  O6_36 
ROOT
HETATM    1  C9  UNL     1     -15.857  43.687 -26.918  1.00  0.00    -0.002 C 
HETATM    2  C10 UNL     1     -15.350  42.398 -27.602  1.00  0.00     0.007 C 
HETATM    3  C11 UNL     1     -13.870  42.651 -27.977  1.00  0.00     0.015 C 
HETATM    4  C12 UNL     1     -13.460  43.916 -27.189  1.00  0.00    -0.005 C 
HETATM    5  C13 UNL     1     -13.077  43.455 -25.749  1.00  0.00     0.021 C 
HETATM    6  C14 UNL     1     -12.287  44.778 -27.635  1.00  0.00     0.003 C 
HETATM    7  C15 UNL     1     -12.232  46.117 -27.376  1.00  0.00    -0.030 C 
HETATM    8  C16 UNL     1     -13.457  46.823 -26.740  1.00  0.00     0.149 C 
HETATM    9  C17 UNL     1     -14.685  45.951 -26.391  1.00  0.00     0.047 C 
HETATM   10  C18 UNL     1     -14.796  44.747 -27.323  1.00  0.00    -0.026 C 
HETATM   11  C19 UNL     1     -15.029  45.259 -28.776  1.00  0.00     0.016 C 
HETATM   12  C20 UNL     1     -11.015  47.025 -27.822  1.00  0.00     0.014 C 
HETATM   13  C21 UNL     1     -11.570  47.892 -28.977  1.00  0.00     0.023 C 
HETATM   14  C22 UNL     1      -9.811  46.128 -28.276  1.00  0.00     0.029 C 
HETATM   15  C23 UNL     1     -10.263  44.989 -29.186  1.00  0.00     0.090 C 
HETATM   16  C24 UNL     1     -11.187  44.107 -28.394  1.00  0.00     0.157 C 
HETATM   17  O2  UNL     1     -11.055  42.887 -28.399  1.00  0.00    -0.293 OA
HETATM   18  C25 UNL     1      -8.502  46.879 -28.739  1.00  0.00     0.072 C 
HETATM   19  C26 UNL     1      -7.304  45.955 -28.359  1.00  0.00     0.030 C 
HETATM   20  C28 UNL     1      -8.316  48.227 -27.988  1.00  0.00     0.139 C 
HETATM   21  C29 UNL     1      -8.965  48.206 -26.608  1.00  0.00     0.065 C 
HETATM   22  C30 UNL     1     -10.474  47.881 -26.613  1.00  0.00     0.133 C 
ENDROOT
BRANCH   1  23
HETATM   23  C7  UNL     1     -17.382  43.985 -26.966  1.00  0.00    -0.014 C 
HETATM   24  C8  UNL     1     -17.955  43.961 -25.538  1.00  0.00     0.010 C 
BRANCH  23  25
HETATM   25  C6  UNL     1     -18.322  43.251 -27.951  1.00  0.00     0.008 C 
BRANCH  25  26
HETATM   26  C5  UNL     1     -18.149  43.404 -29.470  1.00  0.00     0.028 C 
BRANCH  26  27
HETATM   27  C4  UNL     1     -19.427  43.660 -30.219  1.00  0.00    -0.025 C 
HETATM   28  C2  UNL     1     -20.266  42.757 -30.764  1.00  0.00    -0.091 C 
HETATM   29  C1  UNL     1     -20.069  41.266 -30.757  1.00  0.00     0.042 C 
HETATM   30  C3  UNL     1     -21.523  43.208 -31.463  1.00  0.00     0.042 C 
ENDBRANCH  26  27
ENDBRANCH  25  26
ENDBRANCH  23  25
ENDBRANCH   1  23
BRANCH   8  31
HETATM   31  O1  UNL     1     -13.097  47.483 -25.535  1.00  0.00    -0.391 OA
HETATM   32  H25 UNL     1     -12.702  48.335 -25.819  1.00  0.00     0.210 HD
ENDBRANCH   8  31
BRANCH  22  33
HETATM   33  O6  UNL     1     -11.227  49.093 -26.454  1.00  0.00    -0.394 OA
HETATM   34  H46 UNL     1     -10.851  49.577 -25.697  1.00  0.00     0.210 HD
ENDBRANCH  22  33
BRANCH  18  35
HETATM   35  C27 UNL     1      -8.326  47.144 -30.235  1.00  0.00     0.151 C 
HETATM   36  O3  UNL     1      -7.335  46.853 -30.893  1.00  0.00    -0.649 OA
BRANCH  35  37
HETATM   37  O4  UNL     1      -9.353  47.752 -30.844  1.00  0.00    -0.776 OA
HETATM   38  H40 UNL     1      -9.026  47.898 -31.757  1.00  0.00     0.167 HD
ENDBRANCH  35  37
ENDBRANCH  18  35
BRANCH  20  39
HETATM   39  O5  UNL     1      -8.845  49.332 -28.713  1.00  0.00    -0.394 OA
HETATM   40  H42 UNL     1      -8.635  50.150 -28.228  1.00  0.00     0.210 HD
ENDBRANCH  20  39
TORSDOF 9
ENDMDL
MODEL 2
REMARK minimizedAffinity -7.37082672
REMARK CNNscore 0.553526163
REMARK CNNaffinity 6.48656225
REMARK  9 active torsions:
REMARK  status: ('A' for Active; 'I' for Inactive)
REMARK    1  A    between atoms: C4_4  and  C5_5 
REMARK    2  A    between atoms: C5_5  and  C6_6 
REMARK    3  A    between atoms: C6_6  and  C7_7 
REMARK    4  A    between atoms: C7_7  and  C9_9 
REMARK    5  A    between atoms: C16_16  and  O1_17 
REMARK    6  A    between atoms: C25_27  and  C27_29 
REMARK    7  A    between atoms: C27_29  and  O4_31 
REMARK    8  A    between atoms: C28_32  and  O5_33 
REMARK    9  A    between atoms: C30_35  and  O6_36 
ROOT
HETATM    1  C9  UNL     1      -3.631  50.134 -23.633  1.00  0.00    -0.002 C 
HETATM    2  C10 UNL     1      -3.989  49.541 -25.014  1.00  0.00     0.007 C 
HETATM    3  C11 UNL     1      -5.077  48.469 -24.765  1.00  0.00     0.015 C 
HETATM    4  C12 UNL     1      -5.574  48.720 -23.323  1.00  0.00    -0.005 C 
HETATM    5  C13 UNL     1      -6.635  49.862 -23.397  1.00  0.00     0.021 C 
HETATM    6  C14 UNL     1      -6.256  47.621 -22.520  1.00  0.00     0.003 C 
HETATM    7  C15 UNL     1      -6.193  47.573 -21.158  1.00  0.00    -0.030 C 
HETATM    8  C16 UNL     1      -5.283  48.574 -20.400  1.00  0.00     0.149 C 
HETATM    9  C17 UNL     1      -4.510  49.617 -21.239  1.00  0.00     0.047 C 
HETATM   10  C18 UNL     1      -4.201  49.088 -22.637  1.00  0.00    -0.026 C 
HETATM   11  C19 UNL     1      -3.257  47.854 -22.507  1.00  0.00     0.016 C 
HETATM   12  C20 UNL     1      -6.906  46.445 -20.308  1.00  0.00     0.014 C 
HETATM   13  C21 UNL     1      -5.754  45.556 -19.783  1.00  0.00     0.023 C 
HETATM   14  C22 UNL     1      -7.913  45.646 -21.208  1.00  0.00     0.029 C 
HETATM   15  C23 UNL     1      -7.302  45.286 -22.560  1.00  0.00     0.090 C 
HETATM   16  C24 UNL     1      -6.997  46.568 -23.283  1.00  0.00     0.157 C 
HETATM   17  O2  UNL     1      -7.317  46.725 -24.457  1.00  0.00    -0.293 OA
HETATM   18  C25 UNL     1      -8.725  44.488 -20.509  1.00  0.00     0.072 C 
HETATM   19  C26 UNL     1     -10.105  44.415 -21.234  1.00  0.00     0.030 C 
HETATM   20  C28 UNL     1      -8.996  44.799 -19.010  1.00  0.00     0.139 C 
HETATM   21  C29 UNL     1      -9.048  46.299 -18.739  1.00  0.00     0.065 C 
HETATM   22  C30 UNL     1      -7.778  47.071 -19.152  1.00  0.00     0.133 C 
ENDROOT
BRANCH   1  23
HETATM   23  C7  UNL     1      -2.221  50.764 -23.455  1.00  0.00    -0.014 C 
HETATM   24  C8  UNL     1      -2.364  52.208 -22.942  1.00  0.00     0.010 C 
BRANCH  23  25
HETATM   25  C6  UNL     1      -1.146  50.674 -24.564  1.00  0.00     0.008 C 
BRANCH  25  26
HETATM   26  C5  UNL     1      -0.601  51.940 -25.241  1.00  0.00     0.028 C 
BRANCH  26  27
HETATM   27  C4  UNL     1       0.806  51.815 -25.755  1.00  0.00    -0.025 C 
HETATM   28  C2  UNL     1       1.223  51.784 -27.036  1.00  0.00    -0.091 C 
HETATM   29  C1  UNL     1       0.333  51.839 -28.247  1.00  0.00     0.042 C 
HETATM   30  C3  UNL     1       2.692  51.676 -27.358  1.00  0.00     0.042 C 
ENDBRANCH  26  27
ENDBRANCH  25  26
ENDBRANCH  23  25
ENDBRANCH   1  23
BRANCH   8  31
HETATM   31  O1  UNL     1      -6.027  49.318 -19.446  1.00  0.00    -0.391 OA
HETATM   32  H25 UNL     1      -6.101  48.730 -18.665  1.00  0.00     0.210 HD
ENDBRANCH   8  31
BRANCH  22  33
HETATM   33  O6  UNL     1      -6.981  47.344 -17.989  1.00  0.00    -0.394 OA
HETATM   34  H46 UNL     1      -7.569  47.728 -17.313  1.00  0.00     0.210 HD
ENDBRANCH  22  33
BRANCH  18  35
HETATM   35  C27 UNL     1      -8.165  43.069 -20.602  1.00  0.00     0.151 C 
HETATM   36  O3  UNL     1      -8.788  42.085 -20.979  1.00  0.00    -0.649 OA
BRANCH  35  37
HETATM   37  O4  UNL     1      -6.886  42.921 -20.227  1.00  0.00    -0.776 OA
HETATM   38  H40 UNL     1      -6.739  41.953 -20.285  1.00  0.00     0.167 HD
ENDBRANCH  35  37
ENDBRANCH  18  35
BRANCH  20  39
HETATM   39  O5  UNL     1      -8.019  44.224 -18.150  1.00  0.00    -0.394 OA
HETATM   40  H42 UNL     1      -8.280  44.392 -17.227  1.00  0.00     0.210 HD
ENDBRANCH  20  39
TORSDOF 9
ENDMDL
MODEL 3
REMARK minimizedAffinity -7.37131357
REMARK CNNscore 0.548323154
REMARK CNNaffinity 6.4949379
REMARK  9 active torsions:
REMARK  status: ('A' for Active; 'I' for Inactive)
REMARK    1  A    between atoms: C4_4  and  C5_5 
REMARK    2  A    between atoms: C5_5  and  C6_6 
REMARK    3  A    between atoms: C6_6  and  C7_7 
REMARK    4  A    between atoms: C7_7  and  C9_9 
REMARK    5  A    between atoms: C16_16  and  O1_17 
REMARK    6  A    between atoms: C25_27  and  C27_29 
REMARK    7  A    between atoms: C27_29  and  O4_31 
REMARK    8  A    between atoms: C28_32  and  O5_33 
REMARK    9  A    between atoms: C30_35  and  O6_36 
ROOT
HETATM    1  C9  UNL     1       2.806  55.024  -8.386  1.00  0.00    -0.002 C 
HETATM    2  C10 UNL     1       1.558  55.664  -7.738  1.00  0.00     0.007 C 
HETATM    3  C11 UNL     1       0.329  54.958  -8.358  1.00  0.00     0.015 C 
HETATM    4  C12 UNL     1       0.893  53.702  -9.062  1.00  0.00    -0.005 C 
HETATM    5  C13 UNL     1       1.049  52.598  -7.972  1.00  0.00     0.021 C 
HETATM    6  C14 UNL     1       0.128  53.018 -10.187  1.00  0.00     0.003 C 
HETATM    7  C15 UNL     1       0.762  52.330 -11.180  1.00  0.00    -0.030 C 
HETATM    8  C16 UNL     1       2.310  52.359 -11.261  1.00  0.00     0.149 C 
HETATM    9  C17 UNL     1       3.070  53.149 -10.172  1.00  0.00     0.047 C 
HETATM   10  C18 UNL     1       2.231  54.308  -9.637  1.00  0.00    -0.026 C 
HETATM   11  C19 UNL     1       1.972  55.314 -10.799  1.00  0.00     0.016 C 
HETATM   12  C20 UNL     1      -0.018  51.602 -12.349  1.00  0.00     0.014 C 
HETATM   13  C21 UNL     1       0.260  52.462 -13.605  1.00  0.00     0.023 C 
HETATM   14  C22 UNL     1      -1.547  51.521 -12.009  1.00  0.00     0.029 C 
HETATM   15  C23 UNL     1      -2.080  52.846 -11.470  1.00  0.00     0.090 C 
HETATM   16  C24 UNL     1      -1.363  53.139 -10.181  1.00  0.00     0.157 C 
HETATM   17  O2  UNL     1      -1.980  53.491  -9.180  1.00  0.00    -0.293 OA
HETATM   18  C25 UNL     1      -2.473  50.807 -13.068  1.00  0.00     0.072 C 
HETATM   19  C26 UNL     1      -3.631  50.138 -12.265  1.00  0.00     0.030 C 
HETATM   20  C28 UNL     1      -1.716  49.682 -13.829  1.00  0.00     0.139 C 
HETATM   21  C29 UNL     1      -0.589  49.086 -12.992  1.00  0.00     0.065 C 
HETATM   22  C30 UNL     1       0.461  50.107 -12.507  1.00  0.00     0.133 C 
ENDROOT
BRANCH   1  23
HETATM   23  C7  UNL     1       4.111  55.868  -8.442  1.00  0.00    -0.014 C 
HETATM   24  C8  UNL     1       3.779  57.346  -8.167  1.00  0.00     0.010 C 
BRANCH  23  25
HETATM   25  C6  UNL     1       5.115  55.734  -9.611  1.00  0.00     0.008 C 
BRANCH  25  26
HETATM   26  C5  UNL     1       6.393  54.896  -9.462  1.00  0.00     0.028 C 
BRANCH  26  27
HETATM   27  C4  UNL     1       6.448  54.059  -8.215  1.00  0.00    -0.025 C 
HETATM   28  C2  UNL     1       6.916  54.408  -7.000  1.00  0.00    -0.091 C 
HETATM   29  C1  UNL     1       7.525  55.736  -6.647  1.00  0.00     0.042 C 
HETATM   30  C3  UNL     1       6.865  53.430  -5.853  1.00  0.00     0.042 C 
ENDBRANCH  26  27
ENDBRANCH  25  26
ENDBRANCH  23  25
ENDBRANCH   1  23
BRANCH   8  31
HETATM   31  O1  UNL     1       2.847  51.044 -11.232  1.00  0.00    -0.391 OA
HETATM   32  H25 UNL     1       2.765  50.714 -12.150  1.00  0.00     0.210 HD
ENDBRANCH   8  31
BRANCH  22  33
HETATM   33  O6  UNL     1       1.634  50.021 -13.331  1.00  0.00    -0.394 OA
HETATM   34  H46 UNL     1       1.882  49.081 -13.391  1.00  0.00     0.210 HD
ENDBRANCH  22  33
BRANCH  18  35
HETATM   35  C27 UNL     1      -3.177  51.684 -14.104  1.00  0.00     0.151 C 
HETATM   36  O3  UNL     1      -3.387  51.374 -15.269  1.00  0.00    -0.649 OA
BRANCH  35  37
HETATM   37  O4  UNL     1      -3.579  52.888 -13.672  1.00  0.00    -0.776 OA
HETATM   38  H40 UNL     1      -3.931  53.317 -14.480  1.00  0.00     0.167 HD
ENDBRANCH  35  37
ENDBRANCH  18  35
BRANCH  20  39
HETATM   39  O5  UNL     1      -1.164  50.134 -15.061  1.00  0.00    -0.394 OA
HETATM   40  H42 UNL     1      -0.767  49.373 -15.521  1.00  0.00     0.210 HD
ENDBRANCH  20  39
TORSDOF 9
ENDMDL
MODEL 4
REMARK minimizedAffinity -7.99641705
REMARK CNNscore 0.452409476
REMARK CNNaffinity 6.34637117
REMARK  9 active torsions:
REMARK  status: ('A' for Active; 'I' for Inactive)
REMARK    1  A    between atoms: C4_4  and  C5_5 
REMARK    2  A    between atoms: C5_5  and  C6_6 
REMARK    3  A    between atoms: C6_6  and  C7_7 
REMARK    4  A    between atoms: C7_7  and  C9_9 
REMARK    5  A    between atoms: C16_16  and  O1_17 
REMARK    6  A    between atoms: C25_27  and  C27_29 
REMARK    7  A    between atoms: C27_29  and  O4_31 
REMARK    8  A    between atoms: C28_32  and  O5_33 
REMARK    9  A    between atoms: C30_35  and  O6_36 
ROOT
HETATM    1  C9  UNL     1      -3.230  48.866 -23.279  1.00  0.00    -0.002 C 
HETATM    2  C10 UNL     1      -2.383  49.394 -22.099  1.00  0.00     0.007 C 
HETATM    3  C11 UNL     1      -3.152  49.029 -20.808  1.00  0.00     0.015 C 
HETATM    4  C12 UNL     1      -4.218  47.999 -21.245  1.00  0.00    -0.005 C 
HETATM    5  C13 UNL     1      -3.517  46.606 -21.290  1.00  0.00     0.021 C 
HETATM    6  C14 UNL     1      -5.475  47.763 -20.418  1.00  0.00     0.003 C 
HETATM    7  C15 UNL     1      -6.647  47.352 -20.982  1.00  0.00    -0.030 C 
HETATM    8  C16 UNL     1      -6.760  47.258 -22.526  1.00  0.00     0.149 C 
HETATM    9  C17 UNL     1      -5.505  47.605 -23.358  1.00  0.00     0.047 C 
HETATM   10  C18 UNL     1      -4.622  48.621 -22.638  1.00  0.00    -0.026 C 
HETATM   11  C19 UNL     1      -5.418  49.952 -22.481  1.00  0.00     0.016 C 
HETATM   12  C20 UNL     1      -7.958  47.091 -20.136  1.00  0.00     0.014 C 
HETATM   13  C21 UNL     1      -8.903  48.261 -20.498  1.00  0.00     0.023 C 
HETATM   14  C22 UNL     1      -7.615  47.055 -18.606  1.00  0.00     0.029 C 
HETATM   15  C23 UNL     1      -6.685  48.198 -18.206  1.00  0.00     0.090 C 
HETATM   16  C24 UNL     1      -5.390  48.018 -18.946  1.00  0.00     0.157 C 
HETATM   17  O2  UNL     1      -4.312  48.106 -18.366  1.00  0.00    -0.293 OA
HETATM   18  C25 UNL     1      -8.813  46.787 -17.615  1.00  0.00     0.072 C 
HETATM   19  C26 UNL     1      -8.216  46.019 -16.395  1.00  0.00     0.030 C 
HETATM   20  C28 UNL     1      -9.899  45.880 -18.258  1.00  0.00     0.139 C 
HETATM   21  C29 UNL     1      -9.314  44.954 -19.320  1.00  0.00     0.065 C 
HETATM   22  C30 UNL     1      -8.574  45.676 -20.465  1.00  0.00     0.133 C 
ENDROOT
BRANCH   1  23
HETATM   23  C7  UNL     1      -3.066  49.561 -24.661  1.00  0.00    -0.014 C 
HETATM   24  C8  UNL     1      -3.138  48.506 -25.778  1.00  0.00     0.010 C 
BRANCH  23  25
HETATM   25  C6  UNL     1      -1.929  50.575 -24.930  1.00  0.00     0.008 C 
BRANCH  25  26
HETATM   26  C5  UNL     1      -1.437  50.850 -26.359  1.00  0.00     0.028 C 
BRANCH  26  27
HETATM   27  C4  UNL     1       0.052  50.746 -26.535  1.00  0.00    -0.025 C 
HETATM   28  C2  UNL     1       0.996  51.639 -26.176  1.00  0.00    -0.091 C 
HETATM   29  C1  UNL     1       0.737  52.974 -25.535  1.00  0.00     0.042 C 
HETATM   30  C3  UNL     1       2.455  51.345 -26.417  1.00  0.00     0.042 C 
ENDBRANCH  26  27
ENDBRANCH  25  26
ENDBRANCH  23  25
ENDBRANCH   1  23
BRANCH   8  31
HETATM   31  O1  UNL     1      -7.145  45.952 -22.930  1.00  0.00    -0.391 OA
HETATM   32  H25 UNL     1      -8.118  45.925 -22.817  1.00  0.00     0.210 HD
ENDBRANCH   8  31
BRANCH  22  33
HETATM   33  O6  UNL     1      -9.419  45.733 -21.624  1.00  0.00    -0.394 OA
HETATM   34  H46 UNL     1      -9.768  44.837 -21.778  1.00  0.00     0.210 HD
ENDBRANCH  22  33
BRANCH  18  35
HETATM   35  C27 UNL     1      -9.515  48.000 -17.002  1.00  0.00     0.151 C 
HETATM   36  O3  UNL     1     -10.489  47.954 -16.262  1.00  0.00    -0.649 OA
BRANCH  35  37
HETATM   37  O4  UNL     1      -9.001  49.195 -17.325  1.00  0.00    -0.776 OA
HETATM   38  H40 UNL     1      -9.618  49.832 -16.906  1.00  0.00     0.167 HD
ENDBRANCH  35  37
ENDBRANCH  18  35
BRANCH  20  39
HETATM   39  O5  UNL     1     -10.953  46.630 -18.853  1.00  0.00    -0.394 OA
HETATM   40  H42 UNL     1     -11.632  46.010 -19.173  1.00  0.00     0.210 HD
ENDBRANCH  20  39
TORSDOF 9
ENDMDL
MODEL 5
REMARK minimizedAffinity -8.31972218
REMARK CNNscore 0.451229602
REMARK CNNaffinity 6.33840513
REMARK  9 active torsions:
REMARK  status: ('A' for Active; 'I' for Inactive)
REMARK    1  A    between atoms: C4_4  and  C5_5 
REMARK    2  A    between atoms: C5_5  and  C6_6 
REMARK    3  A    between atoms: C6_6  and  C7_7 
REMARK    4  A    between atoms: C7_7  and  C9_9 
REMARK    5  A    between atoms: C16_16  and  O1_17 
REMARK    6  A    between atoms: C25_27  and  C27_29 
REMARK    7  A    between atoms: C27_29  and  O4_31 
REMARK    8  A    between atoms: C28_32  and  O5_33 
REMARK    9  A    between atoms: C30_35  and  O6_36 
ROOT
HETATM    1  C9  UNL     1      -1.886  50.413 -23.097  1.00  0.00    -0.002 C 
HETATM    2  C10 UNL     1      -1.129  51.735 -22.836  1.00  0.00     0.007 C 
HETATM    3  C11 UNL     1      -0.888  51.811 -21.310  1.00  0.00     0.015 C 
HETATM    4  C12 UNL     1      -1.180  50.388 -20.780  1.00  0.00    -0.005 C 
HETATM    5  C13 UNL     1       0.113  49.543 -21.000  1.00  0.00     0.021 C 
HETATM    6  C14 UNL     1      -1.544  50.149 -19.321  1.00  0.00     0.003 C 
HETATM    7  C15 UNL     1      -2.333  49.106 -18.933  1.00  0.00    -0.030 C 
HETATM    8  C16 UNL     1      -3.005  48.215 -20.009  1.00  0.00     0.149 C 
HETATM    9  C17 UNL     1      -2.711  48.538 -21.492  1.00  0.00     0.047 C 
HETATM   10  C18 UNL     1      -2.416  50.022 -21.691  1.00  0.00    -0.026 C 
HETATM   11  C19 UNL     1      -3.688  50.840 -21.315  1.00  0.00     0.016 C 
HETATM   12  C20 UNL     1      -2.711  48.835 -17.420  1.00  0.00     0.014 C 
HETATM   13  C21 UNL     1      -4.208  49.211 -17.313  1.00  0.00     0.023 C 
HETATM   14  C22 UNL     1      -1.810  49.704 -16.475  1.00  0.00     0.029 C 
HETATM   15  C23 UNL     1      -1.694  51.145 -16.969  1.00  0.00     0.090 C 
HETATM   16  C24 UNL     1      -1.017  51.118 -18.310  1.00  0.00     0.157 C 
HETATM   17  O2  UNL     1      -0.093  51.883 -18.568  1.00  0.00    -0.293 OA
HETATM   18  C25 UNL     1      -2.046  49.544 -14.924  1.00  0.00     0.072 C 
HETATM   19  C26 UNL     1      -0.665  49.782 -14.238  1.00  0.00     0.030 C 
HETATM   20  C28 UNL     1      -2.513  48.107 -14.558  1.00  0.00     0.139 C 
HETATM   21  C29 UNL     1      -2.008  47.072 -15.558  1.00  0.00     0.065 C 
HETATM   22  C30 UNL     1      -2.421  47.337 -17.022  1.00  0.00     0.133 C 
ENDROOT
BRANCH   1  23
HETATM   23  C7  UNL     1      -2.774  50.322 -24.370  1.00  0.00    -0.014 C 
HETATM   24  C8  UNL     1      -2.845  48.860 -24.843  1.00  0.00     0.010 C 
BRANCH  23  25
HETATM   25  C6  UNL     1      -2.578  51.282 -25.566  1.00  0.00     0.008 C 
BRANCH  25  26
HETATM   26  C5  UNL     1      -1.573  50.961 -26.682  1.00  0.00     0.028 C 
BRANCH  26  27
HETATM   27  C4  UNL     1      -0.134  50.978 -26.247  1.00  0.00    -0.025 C 
HETATM   28  C2  UNL     1       0.945  51.360 -26.959  1.00  0.00    -0.091 C 
HETATM   29  C1  UNL     1       0.928  51.832 -28.386  1.00  0.00     0.042 C 
HETATM   30  C3  UNL     1       2.319  51.328 -26.338  1.00  0.00     0.042 C 
ENDBRANCH  26  27
ENDBRANCH  25  26
ENDBRANCH  23  25
ENDBRANCH   1  23
BRANCH   8  31
HETATM   31  O1  UNL     1      -2.655  46.850 -19.833  1.00  0.00    -0.391 OA
HETATM   32  H25 UNL     1      -3.253  46.521 -19.130  1.00  0.00     0.210 HD
ENDBRANCH   8  31
BRANCH  22  33
HETATM   33  O6  UNL     1      -3.519  46.482 -17.374  1.00  0.00    -0.394 OA
HETATM   34  H46 UNL     1      -3.284  45.575 -17.107  1.00  0.00     0.210 HD
ENDBRANCH  22  33
BRANCH  18  35
HETATM   35  C27 UNL     1      -2.992  50.534 -14.241  1.00  0.00     0.151 C 
HETATM   36  O3  UNL     1      -3.275  50.535 -13.050  1.00  0.00    -0.649 OA
BRANCH  35  37
HETATM   37  O4  UNL     1      -3.544  51.457 -15.040  1.00  0.00    -0.776 OA
HETATM   38  H40 UNL     1      -4.159  51.937 -14.446  1.00  0.00     0.167 HD
ENDBRANCH  35  37
ENDBRANCH  18  35
BRANCH  20  39
HETATM   39  O5  UNL     1      -3.930  47.997 -14.481  1.00  0.00    -0.394 OA
HETATM   40  H42 UNL     1      -4.156  47.099 -14.181  1.00  0.00     0.210 HD
ENDBRANCH  20  39
TORSDOF 9
ENDMDL
MODEL 6
REMARK minimizedAffinity -9.14767933
REMARK CNNscore 0.405788988
REMARK CNNaffinity 6.4974575
REMARK  9 active torsions:
REMARK  status: ('A' for Active; 'I' for Inactive)
REMARK    1  A    between atoms: C4_4  and  C5_5 
REMARK    2  A    between atoms: C5_5  and  C6_6 
REMARK    3  A    between atoms: C6_6  and  C7_7 
REMARK    4  A    between atoms: C7_7  and  C9_9 
REMARK    5  A    between atoms: C16_16  and  O1_17 
REMARK    6  A    between atoms: C25_27  and  C27_29 
REMARK    7  A    between atoms: C27_29  and  O4_31 
REMARK    8  A    between atoms: C28_32  and  O5_33 
REMARK    9  A    between atoms: C30_35  and  O6_36 
ROOT
HETATM    1  C9  UNL     1      -0.292  51.015 -21.744  1.00  0.00    -0.002 C 
HETATM    2  C10 UNL     1       0.090  51.140 -20.252  1.00  0.00     0.007 C 
HETATM    3  C11 UNL     1      -0.993  50.376 -19.455  1.00  0.00     0.015 C 
HETATM    4  C12 UNL     1      -1.756  49.536 -20.504  1.00  0.00    -0.005 C 
HETATM    5  C13 UNL     1      -0.929  48.234 -20.738  1.00  0.00     0.021 C 
HETATM    6  C14 UNL     1      -3.172  49.042 -20.242  1.00  0.00     0.003 C 
HETATM    7  C15 UNL     1      -4.064  48.829 -21.253  1.00  0.00    -0.030 C 
HETATM    8  C16 UNL     1      -3.688  49.235 -22.701  1.00  0.00     0.149 C 
HETATM    9  C17 UNL     1      -2.284  49.837 -22.935  1.00  0.00     0.047 C 
HETATM   10  C18 UNL     1      -1.779  50.571 -21.695  1.00  0.00    -0.026 C 
HETATM   11  C19 UNL     1      -2.724  51.777 -21.410  1.00  0.00     0.016 C 
HETATM   12  C20 UNL     1      -5.535  48.304 -20.999  1.00  0.00     0.014 C 
HETATM   13  C21 UNL     1      -6.444  49.524 -21.277  1.00  0.00     0.023 C 
HETATM   14  C22 UNL     1      -5.675  47.779 -19.527  1.00  0.00     0.029 C 
HETATM   15  C23 UNL     1      -5.041  48.738 -18.521  1.00  0.00     0.090 C 
HETATM   16  C24 UNL     1      -3.570  48.810 -18.819  1.00  0.00     0.157 C 
HETATM   17  O2  UNL     1      -2.738  48.712 -17.922  1.00  0.00    -0.293 OA
HETATM   18  C25 UNL     1      -7.082  47.202 -19.110  1.00  0.00     0.072 C 
HETATM   19  C26 UNL     1      -6.808  46.085 -18.055  1.00  0.00     0.030 C 
HETATM   20  C28 UNL     1      -7.815  46.545 -20.313  1.00  0.00     0.139 C 
HETATM   21  C29 UNL     1      -6.836  46.012 -21.355  1.00  0.00     0.065 C 
HETATM   22  C30 UNL     1      -5.863  47.067 -21.922  1.00  0.00     0.133 C 
ENDROOT
BRANCH   1  23
HETATM   23  C7  UNL     1       0.210  52.117 -22.719  1.00  0.00    -0.014 C 
HETATM   24  C8  UNL     1       0.919  53.226 -21.921  1.00  0.00     0.010 C 
BRANCH  23  25
HETATM   25  C6  UNL     1      -0.710  52.720 -23.806  1.00  0.00     0.008 C 
BRANCH  25  26
HETATM   26  C5  UNL     1      -0.605  52.266 -25.270  1.00  0.00     0.028 C 
BRANCH  26  27
HETATM   27  C4  UNL     1       0.800  52.045 -25.754  1.00  0.00    -0.025 C 
HETATM   28  C2  UNL     1       1.225  51.869 -27.021  1.00  0.00    -0.091 C 
HETATM   29  C1  UNL     1       0.345  51.828 -28.240  1.00  0.00     0.042 C 
HETATM   30  C3  UNL     1       2.692  51.682 -27.315  1.00  0.00     0.042 C 
ENDBRANCH  26  27
ENDBRANCH  25  26
ENDBRANCH  23  25
ENDBRANCH   1  23
BRANCH   8  31
HETATM   31  O1  UNL     1      -3.787  48.126 -23.584  1.00  0.00    -0.391 OA
HETATM   32  H25 UNL     1      -4.739  48.060 -23.806  1.00  0.00     0.210 HD
ENDBRANCH   8  31
BRANCH  22  33
HETATM   33  O6  UNL     1      -6.314  47.489 -23.218  1.00  0.00    -0.394 OA
HETATM   34  H46 UNL     1      -6.499  46.688 -23.741  1.00  0.00     0.210 HD
ENDBRANCH  22  33
BRANCH  18  35
HETATM   35  C27 UNL     1      -8.065  48.150 -18.421  1.00  0.00     0.151 C 
HETATM   36  O3  UNL     1      -8.862  48.881 -18.994  1.00  0.00    -0.649 OA
BRANCH  35  37
HETATM   37  O4  UNL     1      -8.019  48.165 -17.082  1.00  0.00    -0.776 OA
HETATM   38  H40 UNL     1      -8.654  48.871 -16.837  1.00  0.00     0.167 HD
ENDBRANCH  35  37
ENDBRANCH  18  35
BRANCH  20  39
HETATM   39  O5  UNL     1      -8.710  47.442 -20.961  1.00  0.00    -0.394 OA
HETATM   40  H42 UNL     1      -9.188  46.955 -21.656  1.00  0.00     0.210 HD
ENDBRANCH  20  39
TORSDOF 9
ENDMDL
MODEL 7
REMARK minimizedAffinity -8.0723629
REMARK CNNscore 0.405360639
REMARK CNNaffinity 6.27565336
REMARK  9 active torsions:
REMARK  status: ('A' for Active; 'I' for Inactive)
REMARK    1  A    between atoms: C4_4  and  C5_5 
REMARK    2  A    between atoms: C5_5  and  C6_6 
REMARK    3  A    between atoms: C6_6  and  C7_7 
REMARK    4  A    between atoms: C7_7  and  C9_9 
REMARK    5  A    between atoms: C16_16  and  O1_17 
REMARK    6  A    between atoms: C25_27  and  C27_29 
REMARK    7  A    between atoms: C27_29  and  O4_31 
REMARK    8  A    between atoms: C28_32  and  O5_33 
REMARK    9  A    between atoms: C30_35  and  O6_36 
ROOT
HETATM    1  C9  UNL     1      -2.593  50.728 -23.271  1.00  0.00    -0.002 C 
HETATM    2  C10 UNL     1      -1.483  50.880 -22.207  1.00  0.00     0.007 C 
HETATM    3  C11 UNL     1      -1.871  49.953 -21.031  1.00  0.00     0.015 C 
HETATM    4  C12 UNL     1      -2.980  49.031 -21.587  1.00  0.00    -0.005 C 
HETATM    5  C13 UNL     1      -2.270  47.867 -22.345  1.00  0.00     0.021 C 
HETATM    6  C14 UNL     1      -3.965  48.332 -20.660  1.00  0.00     0.003 C 
HETATM    7  C15 UNL     1      -5.230  48.010 -21.057  1.00  0.00    -0.030 C 
HETATM    8  C16 UNL     1      -5.743  48.493 -22.438  1.00  0.00     0.149 C 
HETATM    9  C17 UNL     1      -4.765  49.296 -23.325  1.00  0.00     0.047 C 
HETATM   10  C18 UNL     1      -3.758  50.073 -22.482  1.00  0.00    -0.026 C 
HETATM   11  C19 UNL     1      -4.527  51.124 -21.627  1.00  0.00     0.016 C 
HETATM   12  C20 UNL     1      -6.262  47.274 -20.110  1.00  0.00     0.014 C 
HETATM   13  C21 UNL     1      -7.307  48.355 -19.746  1.00  0.00     0.023 C 
HETATM   14  C22 UNL     1      -5.526  46.708 -18.845  1.00  0.00     0.029 C 
HETATM   15  C23 UNL     1      -4.562  47.730 -18.246  1.00  0.00     0.090 C 
HETATM   16  C24 UNL     1      -3.503  48.019 -19.272  1.00  0.00     0.157 C 
HETATM   17  O2  UNL     1      -2.314  48.027 -18.969  1.00  0.00    -0.293 OA
HETATM   18  C25 UNL     1      -6.410  45.926 -17.799  1.00  0.00     0.072 C 
HETATM   19  C26 UNL     1      -5.487  44.842 -17.161  1.00  0.00     0.030 C 
HETATM   20  C28 UNL     1      -7.597  45.192 -18.484  1.00  0.00     0.139 C 
HETATM   21  C29 UNL     1      -7.283  44.825 -19.930  1.00  0.00     0.065 C 
HETATM   22  C30 UNL     1      -6.895  46.019 -20.827  1.00  0.00     0.133 C 
ENDROOT
BRANCH   1  23
HETATM   23  C7  UNL     1      -2.823  51.909 -24.257  1.00  0.00    -0.014 C 
HETATM   24  C8  UNL     1      -4.329  52.071 -24.522  1.00  0.00     0.010 C 
BRANCH  23  25
HETATM   25  C6  UNL     1      -2.012  52.042 -25.567  1.00  0.00     0.008 C 
BRANCH  25  26
HETATM   26  C5  UNL     1      -1.256  50.840 -26.155  1.00  0.00     0.028 C 
BRANCH  26  27
HETATM   27  C4  UNL     1       0.240  50.935 -26.051  1.00  0.00    -0.025 C 
HETATM   28  C2  UNL     1       1.105  51.449 -26.948  1.00  0.00    -0.091 C 
HETATM   29  C1  UNL     1       0.735  52.023 -28.287  1.00  0.00     0.042 C 
HETATM   30  C3  UNL     1       2.583  51.477 -26.653  1.00  0.00     0.042 C 
ENDBRANCH  26  27
ENDBRANCH  25  26
ENDBRANCH  23  25
ENDBRANCH   1  23
BRANCH   8  31
HETATM   31  O1  UNL     1      -6.177  47.398 -23.232  1.00  0.00    -0.391 OA
HETATM   32  H25 UNL     1      -7.084  47.199 -22.919  1.00  0.00     0.210 HD
ENDBRANCH   8  31
BRANCH  22  33
HETATM   33  O6  UNL     1      -8.018  46.396 -21.639  1.00  0.00    -0.394 OA
HETATM   34  H46 UNL     1      -8.365  45.586 -22.055  1.00  0.00     0.210 HD
ENDBRANCH  22  33
BRANCH  18  35
HETATM   35  C27 UNL     1      -6.965  46.710 -16.609  1.00  0.00     0.151 C 
HETATM   36  O3  UNL     1      -6.857  46.383 -15.434  1.00  0.00    -0.649 OA
BRANCH  35  37
HETATM   37  O4  UNL     1      -7.624  47.838 -16.910  1.00  0.00    -0.776 OA
HETATM   38  H40 UNL     1      -7.959  48.148 -16.042  1.00  0.00     0.167 HD
ENDBRANCH  35  37
ENDBRANCH  18  35
BRANCH  20  39
HETATM   39  O5  UNL     1      -8.795  45.961 -18.470  1.00  0.00    -0.394 OA
HETATM   40  H42 UNL     1      -9.513  45.423 -18.846  1.00  0.00     0.210 HD
ENDBRANCH  20  39
TORSDOF 9
ENDMDL
MODEL 8
REMARK minimizedAffinity -8.0724144
REMARK CNNscore 0.388317943
REMARK CNNaffinity 6.22568893
REMARK  9 active torsions:
REMARK  status: ('A' for Active; 'I' for Inactive)
REMARK    1  A    between atoms: C4_4  and  C5_5 
REMARK    2  A    between atoms: C5_5  and  C6_6 
REMARK    3  A    between atoms: C6_6  and  C7_7 
REMARK    4  A    between atoms: C7_7  and  C9_9 
REMARK    5  A    between atoms: C16_16  and  O1_17 
REMARK    6  A    between atoms: C25_27  and  C27_29 
REMARK    7  A    between atoms: C27_29  and  O4_31 
REMARK    8  A    between atoms: C28_32  and  O5_33 
REMARK    9  A    between atoms: C30_35  and  O6_36 
ROOT
HETATM    1  C9  UNL     1      -2.965  49.980 -22.769  1.00  0.00    -0.002 C 
HETATM    2  C10 UNL     1      -3.559  48.591 -23.096  1.00  0.00     0.007 C 
HETATM    3  C11 UNL     1      -3.739  47.860 -21.745  1.00  0.00     0.015 C 
HETATM    4  C12 UNL     1      -3.591  48.956 -20.665  1.00  0.00    -0.005 C 
HETATM    5  C13 UNL     1      -4.978  49.659 -20.534  1.00  0.00     0.021 C 
HETATM    6  C14 UNL     1      -3.208  48.608 -19.234  1.00  0.00     0.003 C 
HETATM    7  C15 UNL     1      -2.529  49.479 -18.433  1.00  0.00    -0.030 C 
HETATM    8  C16 UNL     1      -1.998  50.809 -19.028  1.00  0.00     0.149 C 
HETATM    9  C17 UNL     1      -2.303  51.100 -20.515  1.00  0.00     0.047 C 
HETATM   10  C18 UNL     1      -2.436  49.809 -21.320  1.00  0.00    -0.026 C 
HETATM   11  C19 UNL     1      -1.068  49.063 -21.298  1.00  0.00     0.016 C 
HETATM   12  C20 UNL     1      -2.133  49.138 -16.939  1.00  0.00     0.014 C 
HETATM   13  C21 UNL     1      -0.601  48.929 -16.973  1.00  0.00     0.023 C 
HETATM   14  C22 UNL     1      -2.898  47.856 -16.458  1.00  0.00     0.029 C 
HETATM   15  C23 UNL     1      -2.867  46.748 -17.509  1.00  0.00     0.090 C 
HETATM   16  C24 UNL     1      -3.588  47.252 -18.728  1.00  0.00     0.157 C 
HETATM   17  O2  UNL     1      -4.428  46.562 -19.296  1.00  0.00    -0.293 OA
HETATM   18  C25 UNL     1      -2.630  47.383 -14.977  1.00  0.00     0.072 C 
HETATM   19  C26 UNL     1      -3.952  46.722 -14.476  1.00  0.00     0.030 C 
HETATM   20  C28 UNL     1      -2.316  48.581 -14.038  1.00  0.00     0.139 C 
HETATM   21  C29 UNL     1      -2.968  49.872 -14.523  1.00  0.00     0.065 C 
HETATM   22  C30 UNL     1      -2.577  50.290 -15.957  1.00  0.00     0.133 C 
ENDROOT
BRANCH   1  23
HETATM   23  C7  UNL     1      -2.136  50.695 -23.874  1.00  0.00    -0.014 C 
HETATM   24  C8  UNL     1      -2.653  52.132 -24.055  1.00  0.00     0.010 C 
BRANCH  23  25
HETATM   25  C6  UNL     1      -1.861  50.029 -25.242  1.00  0.00     0.008 C 
BRANCH  25  26
HETATM   26  C5  UNL     1      -1.383  50.858 -26.443  1.00  0.00     0.028 C 
BRANCH  26  27
HETATM   27  C4  UNL     1       0.099  50.800 -26.689  1.00  0.00    -0.025 C 
HETATM   28  C2  UNL     1       1.067  51.537 -26.111  1.00  0.00    -0.091 C 
HETATM   29  C1  UNL     1       0.849  52.623 -25.094  1.00  0.00     0.042 C 
HETATM   30  C3  UNL     1       2.514  51.317 -26.474  1.00  0.00     0.042 C 
ENDBRANCH  26  27
ENDBRANCH  25  26
ENDBRANCH  23  25
ENDBRANCH   1  23
BRANCH   8  31
HETATM   31  O1  UNL     1      -2.494  51.926 -18.305  1.00  0.00    -0.391 OA
HETATM   32  H25 UNL     1      -1.914  51.999 -17.519  1.00  0.00     0.210 HD
ENDBRANCH   8  31
BRANCH  22  33
HETATM   33  O6  UNL     1      -1.595  51.335 -15.903  1.00  0.00    -0.394 OA
HETATM   34  H46 UNL     1      -1.922  52.014 -15.286  1.00  0.00     0.210 HD
ENDBRANCH  22  33
BRANCH  18  35
HETATM   35  C27 UNL     1      -1.557  46.316 -14.753  1.00  0.00     0.151 C 
HETATM   36  O3  UNL     1      -1.725  45.255 -14.167  1.00  0.00    -0.649 OA
BRANCH  35  37
HETATM   37  O4  UNL     1      -0.342  46.600 -15.245  1.00  0.00    -0.776 OA
HETATM   38  H40 UNL     1       0.210  45.848 -14.943  1.00  0.00     0.167 HD
ENDBRANCH  35  37
ENDBRANCH  18  35
BRANCH  20  39
HETATM   39  O5  UNL     1      -0.919  48.813 -13.898  1.00  0.00    -0.394 OA
HETATM   40  H42 UNL     1      -0.786  49.525 -13.248  1.00  0.00     0.210 HD
ENDBRANCH  20  39
TORSDOF 9
ENDMDL
MODEL 9
REMARK minimizedAffinity -8.03501606
REMARK CNNscore 0.386572868
REMARK CNNaffinity 6.00297213
REMARK  9 active torsions:
REMARK  status: ('A' for Active; 'I' for Inactive)
REMARK    1  A    between atoms: C4_4  and  C5_5 
REMARK    2  A    between atoms: C5_5  and  C6_6 
REMARK    3  A    between atoms: C6_6  and  C7_7 
REMARK    4  A    between atoms: C7_7  and  C9_9 
REMARK    5  A    between atoms: C16_16  and  O1_17 
REMARK    6  A    between atoms: C25_27  and  C27_29 
REMARK    7  A    between atoms: C27_29  and  O4_31 
REMARK    8  A    between atoms: C28_32  and  O5_33 
REMARK    9  A    between atoms: C30_35  and  O6_36 
ROOT
HETATM    1  C9  UNL     1     -13.943  44.675 -26.762  1.00  0.00    -0.002 C 
HETATM    2  C10 UNL     1     -13.938  43.362 -27.576  1.00  0.00     0.007 C 
HETATM    3  C11 UNL     1     -12.667  43.395 -28.458  1.00  0.00     0.015 C 
HETATM    4  C12 UNL     1     -11.796  44.532 -27.876  1.00  0.00    -0.005 C 
HETATM    5  C13 UNL     1     -11.011  43.934 -26.667  1.00  0.00     0.021 C 
HETATM    6  C14 UNL     1     -10.729  45.219 -28.717  1.00  0.00     0.003 C 
HETATM    7  C15 UNL     1     -10.359  46.514 -28.501  1.00  0.00    -0.030 C 
HETATM    8  C16 UNL     1     -11.140  47.370 -27.471  1.00  0.00     0.149 C 
HETATM    9  C17 UNL     1     -12.294  46.688 -26.701  1.00  0.00     0.047 C 
HETATM   10  C18 UNL     1     -12.930  45.571 -27.525  1.00  0.00    -0.026 C 
HETATM   11  C19 UNL     1     -13.573  46.196 -28.800  1.00  0.00     0.016 C 
HETATM   12  C20 UNL     1      -9.244  47.239 -29.358  1.00  0.00     0.014 C 
HETATM   13  C21 UNL     1     -10.016  48.248 -30.241  1.00  0.00     0.023 C 
HETATM   14  C22 UNL     1      -8.449  46.188 -30.209  1.00  0.00     0.029 C 
HETATM   15  C23 UNL     1      -9.381  45.189 -30.892  1.00  0.00     0.090 C 
HETATM   16  C24 UNL     1     -10.100  44.423 -29.817  1.00  0.00     0.157 C 
HETATM   17  O2  UNL     1     -10.188  43.200 -29.863  1.00  0.00    -0.293 OA
HETATM   18  C25 UNL     1      -7.282  46.744 -31.115  1.00  0.00     0.072 C 
HETATM   19  C26 UNL     1      -6.203  45.620 -31.186  1.00  0.00     0.030 C 
HETATM   20  C28 UNL     1      -6.616  48.000 -30.487  1.00  0.00     0.139 C 
HETATM   21  C29 UNL     1      -6.728  48.006 -28.966  1.00  0.00     0.065 C 
HETATM   22  C30 UNL     1      -8.172  47.928 -28.427  1.00  0.00     0.133 C 
ENDROOT
BRANCH   1  23
HETATM   23  C7  UNL     1     -15.312  45.215 -26.260  1.00  0.00    -0.014 C 
HETATM   24  C8  UNL     1     -16.363  45.065 -27.374  1.00  0.00     0.010 C 
BRANCH  23  25
HETATM   25  C6  UNL     1     -15.435  46.590 -25.563  1.00  0.00     0.008 C 
BRANCH  25  26
HETATM   26  C5  UNL     1     -16.483  46.828 -24.465  1.00  0.00     0.028 C 
BRANCH  26  27
HETATM   27  C4  UNL     1     -17.904  46.610 -24.903  1.00  0.00    -0.025 C 
HETATM   28  C2  UNL     1     -18.949  46.199 -24.158  1.00  0.00    -0.091 C 
HETATM   29  C1  UNL     1     -18.894  45.836 -22.700  1.00  0.00     0.042 C 
HETATM   30  C3  UNL     1     -20.318  46.060 -24.774  1.00  0.00     0.042 C 
ENDBRANCH  26  27
ENDBRANCH  25  26
ENDBRANCH  23  25
ENDBRANCH   1  23
BRANCH   8  31
HETATM   31  O1  UNL     1     -10.270  47.895 -26.479  1.00  0.00    -0.391 OA
HETATM   32  H25 UNL     1      -9.863  48.687 -26.889  1.00  0.00     0.210 HD
ENDBRANCH   8  31
BRANCH  22  33
HETATM   33  O6  UNL     1      -8.603  49.234 -28.015  1.00  0.00    -0.394 OA
HETATM   34  H46 UNL     1      -7.906  49.607 -27.445  1.00  0.00     0.210 HD
ENDBRANCH  22  33
BRANCH  18  35
HETATM   35  C27 UNL     1      -7.605  47.062 -32.575  1.00  0.00     0.151 C 
HETATM   36  O3  UNL     1      -8.436  47.876 -32.956  1.00  0.00    -0.649 OA
BRANCH  35  37
HETATM   37  O4  UNL     1      -6.909  46.372 -33.489  1.00  0.00    -0.776 OA
HETATM   38  H40 UNL     1      -7.302  46.655 -34.342  1.00  0.00     0.167 HD
ENDBRANCH  35  37
ENDBRANCH  18  35
BRANCH  20  39
HETATM   39  O5  UNL     1      -7.171  49.215 -30.979  1.00  0.00    -0.394 OA
HETATM   40  H42 UNL     1      -6.668  49.960 -30.605  1.00  0.00     0.210 HD
ENDBRANCH  20  39
TORSDOF 9
ENDMDL
