MODEL 1
REMARK minimizedAffinity -7.35942936
REMARK CNNscore 0.526029646
REMARK CNNaffinity 6.08880424
REMARK  15 active torsions:
REMARK  status: ('A' for Active; 'I' for Inactive)
REMARK    1  A    between atoms: C2_2  and  C4_4 
REMARK    2  A    between atoms: C4_4  and  C5_5 
REMARK    3  A    between atoms: C4_4  and  C28_40 
REMARK    4  A    between atoms: C6_6  and  C7_7 
REMARK    5  A    between atoms: C7_7  and  C8_8 
REMARK    6  A    between atoms: C7_7  and  C9_14 
REMARK    7  A    between atoms: C8_8  and  O1_9 
REMARK    8  A    between atoms: O1_9  and  S1_10 
REMARK    9  A    between atoms: S1_10  and  O4_13 
REMARK   10  A    between atoms: C17_22  and  O5_23 
REMARK   11  A    between atoms: C18_24  and  O6_25 
REMARK   12  A    between atoms: O6_25  and  S2_26 
REMARK   13  A    between atoms: S2_26  and  O9_29 
REMARK   14  A    between atoms: C19_30  and  O10_31 
REMARK   15  A    between atoms: C28_40  and  O11_41 
ROOT
HETATM    1  C9  UNL     1       6.636  66.861 -35.868  1.00  0.00     0.004 C 
HETATM    2  C10 UNL     1       7.562  68.078 -36.136  1.00  0.00     0.006 C 
HETATM    3  C11 UNL     1       6.755  69.039 -37.028  1.00  0.00     0.006 C 
HETATM    4  C12 UNL     1       5.370  68.396 -37.119  1.00  0.00    -0.002 C 
HETATM    5  C13 UNL     1       4.432  68.835 -38.253  1.00  0.00    -0.005 C 
HETATM    6  C14 UNL     1       4.194  70.356 -38.218  1.00  0.00     0.006 C 
HETATM    7  C15 UNL     1       2.733  70.754 -38.368  1.00  0.00     0.008 C 
HETATM    8  C16 UNL     1       2.032  69.996 -39.506  1.00  0.00     0.026 C 
HETATM    9  C17 UNL     1       0.598  70.549 -39.704  1.00  0.00     0.156 C 
HETATM   10  C18 UNL     1      -0.212  69.643 -40.629  1.00  0.00     0.202 C 
HETATM   11  C19 UNL     1      -0.420  68.260 -40.000  1.00  0.00     0.151 C 
HETATM   12  C20 UNL     1       0.703  67.829 -39.045  1.00  0.00     0.044 C 
HETATM   13  C21 UNL     1       2.110  68.424 -39.342  1.00  0.00    -0.032 C 
HETATM   14  C22 UNL     1       2.612  67.820 -40.683  1.00  0.00     0.016 C 
HETATM   15  C23 UNL     1       3.097  68.037 -38.165  1.00  0.00    -0.001 C 
HETATM   16  C24 UNL     1       3.327  66.510 -37.999  1.00  0.00     0.006 C 
HETATM   17  C25 UNL     1       4.335  66.152 -36.894  1.00  0.00     0.010 C 
HETATM   18  C26 UNL     1       5.672  66.875 -37.092  1.00  0.00    -0.036 C 
HETATM   19  C27 UNL     1       6.346  66.377 -38.394  1.00  0.00     0.016 C 
ENDROOT
BRANCH   1  20
HETATM   20  C7  UNL     1       7.346  65.571 -35.367  1.00  0.00     0.038 C 
BRANCH  20  21
HETATM   21  C6  UNL     1       6.338  64.678 -34.651  1.00  0.00    -0.023 C 
HETATM   22  C5  UNL     1       5.656  63.630 -35.146  1.00  0.00    -0.023 C 
BRANCH  22  23
HETATM   23  C4  UNL     1       4.695  62.791 -34.322  1.00  0.00     0.035 C 
BRANCH  23  24
HETATM   24  C2  UNL     1       4.566  63.360 -32.876  1.00  0.00    -0.013 C 
HETATM   25  C1  UNL     1       4.152  64.840 -32.887  1.00  0.00     0.010 C 
HETATM   26  C3  UNL     1       3.562  62.581 -32.019  1.00  0.00     0.010 C 
ENDBRANCH  23  24
BRANCH  23  27
HETATM   27  C28 UNL     1       5.168  61.322 -34.356  1.00  0.00     0.173 C 
BRANCH  27  28
HETATM   28  O11 UNL     1       6.165  61.123 -35.355  1.00  0.00    -0.400 OA
HETATM   29  H48 UNL     1       6.930  61.671 -35.114  1.00  0.00     0.209 HD
ENDBRANCH  27  28
ENDBRANCH  23  27
ENDBRANCH  22  23
ENDBRANCH  20  21
BRANCH  20  30
HETATM   30  C8  UNL     1       8.263  64.804 -36.336  1.00  0.00     0.201 C 
BRANCH  30  31
HETATM   31  O1  UNL     1       9.527  64.535 -35.758  1.00  0.00    -0.263 OA
BRANCH  31  32
HETATM   32  S1  UNL     1       9.721  63.101 -35.027  1.00  0.00     0.240 S 
HETATM   33  O2  UNL     1      11.056  62.635 -35.323  1.00  0.00    -0.579 OA
HETATM   34  O3  UNL     1       9.215  63.190 -33.677  1.00  0.00    -0.579 OA
BRANCH  32  35
HETATM   35  O4  UNL     1       8.727  62.159 -35.873  1.00  0.00    -0.274 OA
HETATM   36  H14 UNL     1       9.140  61.994 -36.742  1.00  0.00     0.234 HD
ENDBRANCH  32  35
ENDBRANCH  31  32
ENDBRANCH  30  31
ENDBRANCH  20  30
ENDBRANCH   1  20
BRANCH   9  37
HETATM   37  O5  UNL     1      -0.079  70.679 -38.448  1.00  0.00    -0.392 OA
HETATM   38  H28 UNL     1      -0.961  71.050 -38.635  1.00  0.00     0.210 HD
ENDBRANCH   9  37
BRANCH  11  39
HETATM   39  O10 UNL     1      -0.542  67.292 -41.050  1.00  0.00    -0.393 OA
HETATM   40  H32 UNL     1      -1.424  67.406 -41.446  1.00  0.00     0.210 HD
ENDBRANCH  11  39
BRANCH  10  41
HETATM   41  O6  UNL     1      -1.504  70.218 -40.848  1.00  0.00    -0.253 OA
BRANCH  41  42
HETATM   42  S2  UNL     1      -2.029  70.368 -42.375  1.00  0.00     0.240 S 
HETATM   43  O7  UNL     1      -1.261  71.405 -43.022  1.00  0.00    -0.579 OA
HETATM   44  O8  UNL     1      -2.162  69.054 -42.957  1.00  0.00    -0.579 OA
BRANCH  42  45
HETATM   45  O9  UNL     1      -3.516  70.957 -42.195  1.00  0.00    -0.274 OA
HETATM   46  H30 UNL     1      -3.850  71.194 -43.084  1.00  0.00     0.234 HD
ENDBRANCH  42  45
ENDBRANCH  41  42
ENDBRANCH  10  41
TORSDOF 15
ENDMDL
MODEL 2
REMARK minimizedAffinity -8.99459934
REMARK CNNscore 0.40692544
REMARK CNNaffinity 6.77141953
REMARK  15 active torsions:
REMARK  status: ('A' for Active; 'I' for Inactive)
REMARK    1  A    between atoms: C2_2  and  C4_4 
REMARK    2  A    between atoms: C4_4  and  C5_5 
REMARK    3  A    between atoms: C4_4  and  C28_40 
REMARK    4  A    between atoms: C6_6  and  C7_7 
REMARK    5  A    between atoms: C7_7  and  C8_8 
REMARK    6  A    between atoms: C7_7  and  C9_14 
REMARK    7  A    between atoms: C8_8  and  O1_9 
REMARK    8  A    between atoms: O1_9  and  S1_10 
REMARK    9  A    between atoms: S1_10  and  O4_13 
REMARK   10  A    between atoms: C17_22  and  O5_23 
REMARK   11  A    between atoms: C18_24  and  O6_25 
REMARK   12  A    between atoms: O6_25  and  S2_26 
REMARK   13  A    between atoms: S2_26  and  O9_29 
REMARK   14  A    between atoms: C19_30  and  O10_31 
REMARK   15  A    between atoms: C28_40  and  O11_41 
ROOT
HETATM    1  C9  UNL     1      -0.072  51.569 -20.931  1.00  0.00     0.004 C 
HETATM    2  C10 UNL     1       0.445  53.027 -21.060  1.00  0.00     0.006 C 
HETATM    3  C11 UNL     1       1.028  53.395 -19.683  1.00  0.00     0.006 C 
HETATM    4  C12 UNL     1       0.940  52.099 -18.877  1.00  0.00    -0.002 C 
HETATM    5  C13 UNL     1       1.031  52.180 -17.347  1.00  0.00    -0.005 C 
HETATM    6  C14 UNL     1       2.336  52.869 -16.904  1.00  0.00     0.006 C 
HETATM    7  C15 UNL     1       3.070  52.139 -15.788  1.00  0.00     0.008 C 
HETATM    8  C16 UNL     1       2.128  51.704 -14.655  1.00  0.00     0.026 C 
HETATM    9  C17 UNL     1       2.951  51.102 -13.488  1.00  0.00     0.156 C 
HETATM   10  C18 UNL     1       2.038  50.415 -12.475  1.00  0.00     0.202 C 
HETATM   11  C19 UNL     1       1.329  49.209 -13.103  1.00  0.00     0.151 C 
HETATM   12  C20 UNL     1       1.092  49.338 -14.615  1.00  0.00     0.044 C 
HETATM   13  C21 UNL     1       0.938  50.789 -15.155  1.00  0.00    -0.032 C 
HETATM   14  C22 UNL     1      -0.390  51.370 -14.594  1.00  0.00     0.016 C 
HETATM   15  C23 UNL     1       0.893  50.753 -16.738  1.00  0.00    -0.001 C 
HETATM   16  C24 UNL     1      -0.311  49.969 -17.326  1.00  0.00     0.006 C 
HETATM   17  C25 UNL     1      -0.377  49.995 -18.863  1.00  0.00     0.010 C 
HETATM   18  C26 UNL     1      -0.355  51.429 -19.405  1.00  0.00    -0.036 C 
HETATM   19  C27 UNL     1      -1.637  52.174 -18.960  1.00  0.00     0.016 C 
ENDROOT
BRANCH   1  20
HETATM   20  C7  UNL     1      -1.082  51.113 -22.023  1.00  0.00     0.038 C 
BRANCH  20  21
HETATM   21  C6  UNL     1      -0.742  51.789 -23.347  1.00  0.00    -0.023 C 
HETATM   22  C5  UNL     1      -1.527  51.947 -24.427  1.00  0.00    -0.023 C 
BRANCH  22  23
HETATM   23  C4  UNL     1      -1.085  52.672 -25.686  1.00  0.00     0.035 C 
BRANCH  23  24
HETATM   24  C2  UNL     1      -1.028  51.691 -26.896  1.00  0.00    -0.013 C 
HETATM   25  C1  UNL     1       0.389  51.602 -27.484  1.00  0.00     0.010 C 
HETATM   26  C3  UNL     1      -1.493  50.275 -26.535  1.00  0.00     0.010 C 
ENDBRANCH  23  24
BRANCH  23  27
HETATM   27  C28 UNL     1       0.262  53.371 -25.407  1.00  0.00     0.173 C 
BRANCH  27  28
HETATM   28  O11 UNL     1       0.202  54.758 -25.732  1.00  0.00    -0.400 OA
HETATM   29  H48 UNL     1      -0.464  55.163 -25.151  1.00  0.00     0.209 HD
ENDBRANCH  27  28
ENDBRANCH  23  27
ENDBRANCH  22  23
ENDBRANCH  20  21
BRANCH  20  30
HETATM   30  C8  UNL     1      -1.393  49.612 -22.165  1.00  0.00     0.201 C 
BRANCH  30  31
HETATM   31  O1  UNL     1      -2.714  49.312 -21.755  1.00  0.00    -0.263 OA
BRANCH  31  32
HETATM   32  S1  UNL     1      -3.842  49.185 -22.913  1.00  0.00     0.240 S 
HETATM   33  O2  UNL     1      -4.477  50.475 -23.050  1.00  0.00    -0.579 OA
HETATM   34  O3  UNL     1      -3.282  48.475 -24.040  1.00  0.00    -0.579 OA
BRANCH  32  35
HETATM   35  O4  UNL     1      -4.931  48.228 -22.213  1.00  0.00    -0.274 OA
HETATM   36  H14 UNL     1      -5.401  48.756 -21.538  1.00  0.00     0.234 HD
ENDBRANCH  32  35
ENDBRANCH  31  32
ENDBRANCH  30  31
ENDBRANCH  20  30
ENDBRANCH   1  20
BRANCH   9  37
HETATM   37  O5  UNL     1       3.919  50.164 -13.973  1.00  0.00    -0.392 OA
HETATM   38  H28 UNL     1       4.417  49.840 -13.200  1.00  0.00     0.210 HD
ENDBRANCH   9  37
BRANCH  11  39
HETATM   39  O10 UNL     1       0.071  49.021 -12.444  1.00  0.00    -0.393 OA
HETATM   40  H32 UNL     1       0.260  48.639 -11.568  1.00  0.00     0.210 HD
ENDBRANCH  11  39
BRANCH  10  41
HETATM   41  O6  UNL     1       2.820  49.934 -11.377  1.00  0.00    -0.253 OA
BRANCH  41  42
HETATM   42  S2  UNL     1       3.051  48.334 -11.242  1.00  0.00     0.240 S 
HETATM   43  O7  UNL     1       1.974  47.782 -10.457  1.00  0.00    -0.579 OA
HETATM   44  O8  UNL     1       3.393  47.798 -12.538  1.00  0.00    -0.579 OA
BRANCH  42  45
HETATM   45  O9  UNL     1       4.372  48.232 -10.327  1.00  0.00    -0.274 OA
HETATM   46  H30 UNL     1       4.499  47.289 -10.096  1.00  0.00     0.234 HD
ENDBRANCH  42  45
ENDBRANCH  41  42
ENDBRANCH  10  41
TORSDOF 15
ENDMDL
MODEL 3
REMARK minimizedAffinity -9.15618515
REMARK CNNscore 0.347842395
REMARK CNNaffinity 6.27373743
REMARK  15 active torsions:
REMARK  status: ('A' for Active; 'I' for Inactive)
REMARK    1  A    between atoms: C2_2  and  C4_4 
REMARK    2  A    between atoms: C4_4  and  C5_5 
REMARK    3  A    between atoms: C4_4  and  C28_40 
REMARK    4  A    between atoms: C6_6  and  C7_7 
REMARK    5  A    between atoms: C7_7  and  C8_8 
REMARK    6  A    between atoms: C7_7  and  C9_14 
REMARK    7  A    between atoms: C8_8  and  O1_9 
REMARK    8  A    between atoms: O1_9  and  S1_10 
REMARK    9  A    between atoms: S1_10  and  O4_13 
REMARK   10  A    between atoms: C17_22  and  O5_23 
REMARK   11  A    between atoms: C18_24  and  O6_25 
REMARK   12  A    between atoms: O6_25  and  S2_26 
REMARK   13  A    between atoms: S2_26  and  O9_29 
REMARK   14  A    between atoms: C19_30  and  O10_31 
REMARK   15  A    between atoms: C28_40  and  O11_41 
ROOT
HETATM    1  C9  UNL     1      -1.684  49.479 -21.713  1.00  0.00     0.004 C 
HETATM    2  C10 UNL     1      -1.881  48.833 -20.315  1.00  0.00     0.006 C 
HETATM    3  C11 UNL     1      -3.277  48.184 -20.339  1.00  0.00     0.006 C 
HETATM    4  C12 UNL     1      -3.756  48.371 -21.779  1.00  0.00    -0.002 C 
HETATM    5  C13 UNL     1      -5.256  48.235 -22.076  1.00  0.00    -0.005 C 
HETATM    6  C14 UNL     1      -5.788  46.862 -21.626  1.00  0.00     0.006 C 
HETATM    7  C15 UNL     1      -6.664  46.171 -22.662  1.00  0.00     0.008 C 
HETATM    8  C16 UNL     1      -7.704  47.120 -23.276  1.00  0.00     0.026 C 
HETATM    9  C17 UNL     1      -8.656  46.328 -24.207  1.00  0.00     0.156 C 
HETATM   10  C18 UNL     1      -9.518  47.275 -25.039  1.00  0.00     0.202 C 
HETATM   11  C19 UNL     1      -8.655  48.107 -25.995  1.00  0.00     0.151 C 
HETATM   12  C20 UNL     1      -7.230  48.369 -25.487  1.00  0.00     0.044 C 
HETATM   13  C21 UNL     1      -7.057  48.401 -23.940  1.00  0.00    -0.032 C 
HETATM   14  C22 UNL     1      -7.800  49.656 -23.402  1.00  0.00     0.016 C 
HETATM   15  C23 UNL     1      -5.515  48.489 -23.592  1.00  0.00    -0.001 C 
HETATM   16  C24 UNL     1      -4.814  49.775 -24.107  1.00  0.00     0.006 C 
HETATM   17  C25 UNL     1      -3.332  49.876 -23.707  1.00  0.00     0.010 C 
HETATM   18  C26 UNL     1      -3.144  49.736 -22.191  1.00  0.00    -0.036 C 
HETATM   19  C27 UNL     1      -3.812  50.932 -21.471  1.00  0.00     0.016 C 
ENDROOT
BRANCH   1  20
HETATM   20  C7  UNL     1      -0.563  50.553 -21.807  1.00  0.00     0.038 C 
BRANCH  20  21
HETATM   21  C6  UNL     1      -0.771  51.401 -23.057  1.00  0.00    -0.023 C 
HETATM   22  C5  UNL     1       0.160  51.911 -23.881  1.00  0.00    -0.023 C 
BRANCH  22  23
HETATM   23  C4  UNL     1      -0.172  52.720 -25.123  1.00  0.00     0.035 C 
BRANCH  23  24
HETATM   24  C2  UNL     1       0.406  52.034 -26.399  1.00  0.00    -0.013 C 
HETATM   25  C1  UNL     1       1.891  51.678 -26.224  1.00  0.00     0.010 C 
HETATM   26  C3  UNL     1      -0.357  50.762 -26.787  1.00  0.00     0.010 C 
ENDBRANCH  23  24
BRANCH  23  27
HETATM   27  C28 UNL     1       0.339  54.162 -24.925  1.00  0.00     0.173 C 
BRANCH  27  28
HETATM   28  O11 UNL     1       0.206  54.927 -26.121  1.00  0.00    -0.400 OA
HETATM   29  H48 UNL     1      -0.743  54.977 -26.329  1.00  0.00     0.209 HD
ENDBRANCH  27  28
ENDBRANCH  23  27
ENDBRANCH  22  23
ENDBRANCH  20  21
BRANCH  20  30
HETATM   30  C8  UNL     1      -0.222  51.382 -20.555  1.00  0.00     0.201 C 
BRANCH  30  31
HETATM   31  O1  UNL     1      -0.255  52.772 -20.824  1.00  0.00    -0.263 OA
BRANCH  31  32
HETATM   32  S1  UNL     1       0.821  53.705 -20.049  1.00  0.00     0.240 S 
HETATM   33  O2  UNL     1       1.552  52.861 -19.131  1.00  0.00    -0.579 OA
HETATM   34  O3  UNL     1       1.482  54.558 -21.008  1.00  0.00    -0.579 OA
BRANCH  32  35
HETATM   35  O4  UNL     1      -0.134  54.625 -19.136  1.00  0.00    -0.274 OA
HETATM   36  H14 UNL     1      -0.475  54.071 -18.407  1.00  0.00     0.234 HD
ENDBRANCH  32  35
ENDBRANCH  31  32
ENDBRANCH  30  31
ENDBRANCH  20  30
ENDBRANCH   1  20
BRANCH   9  37
HETATM   37  O5  UNL     1      -7.918  45.462 -25.079  1.00  0.00    -0.392 OA
HETATM   38  H28 UNL     1      -8.568  44.978 -25.620  1.00  0.00     0.210 HD
ENDBRANCH   9  37
BRANCH  11  39
HETATM   39  O10 UNL     1      -9.309  49.361 -26.230  1.00  0.00    -0.393 OA
HETATM   40  H32 UNL     1     -10.059  49.187 -26.826  1.00  0.00     0.210 HD
ENDBRANCH  11  39
BRANCH  10  41
HETATM   41  O6  UNL     1     -10.433  46.513 -25.834  1.00  0.00    -0.253 OA
BRANCH  41  42
HETATM   42  S2  UNL     1     -12.002  46.924 -25.802  1.00  0.00     0.240 S 
HETATM   43  O7  UNL     1     -12.141  48.242 -26.373  1.00  0.00    -0.579 OA
HETATM   44  O8  UNL     1     -12.789  45.810 -26.276  1.00  0.00    -0.579 OA
BRANCH  42  45
HETATM   45  O9  UNL     1     -12.307  47.081 -24.230  1.00  0.00    -0.274 OA
HETATM   46  H30 UNL     1     -13.208  47.454 -24.139  1.00  0.00     0.234 HD
ENDBRANCH  42  45
ENDBRANCH  41  42
ENDBRANCH  10  41
TORSDOF 15
ENDMDL
MODEL 4
REMARK minimizedAffinity -8.68167591
REMARK CNNscore 0.343600631
REMARK CNNaffinity 6.32046509
REMARK  15 active torsions:
REMARK  status: ('A' for Active; 'I' for Inactive)
REMARK    1  A    between atoms: C2_2  and  C4_4 
REMARK    2  A    between atoms: C4_4  and  C5_5 
REMARK    3  A    between atoms: C4_4  and  C28_40 
REMARK    4  A    between atoms: C6_6  and  C7_7 
REMARK    5  A    between atoms: C7_7  and  C8_8 
REMARK    6  A    between atoms: C7_7  and  C9_14 
REMARK    7  A    between atoms: C8_8  and  O1_9 
REMARK    8  A    between atoms: O1_9  and  S1_10 
REMARK    9  A    between atoms: S1_10  and  O4_13 
REMARK   10  A    between atoms: C17_22  and  O5_23 
REMARK   11  A    between atoms: C18_24  and  O6_25 
REMARK   12  A    between atoms: O6_25  and  S2_26 
REMARK   13  A    between atoms: S2_26  and  O9_29 
REMARK   14  A    between atoms: C19_30  and  O10_31 
REMARK   15  A    between atoms: C28_40  and  O11_41 
ROOT
HETATM    1  C9  UNL     1      -4.166  48.527 -25.618  1.00  0.00     0.004 C 
HETATM    2  C10 UNL     1      -2.689  48.623 -25.152  1.00  0.00     0.006 C 
HETATM    3  C11 UNL     1      -2.721  48.522 -23.615  1.00  0.00     0.006 C 
HETATM    4  C12 UNL     1      -4.187  48.242 -23.285  1.00  0.00    -0.002 C 
HETATM    5  C13 UNL     1      -4.678  48.497 -21.853  1.00  0.00    -0.005 C 
HETATM    6  C14 UNL     1      -3.850  47.693 -20.832  1.00  0.00     0.006 C 
HETATM    7  C15 UNL     1      -4.692  46.966 -19.793  1.00  0.00     0.008 C 
HETATM    8  C16 UNL     1      -5.794  47.859 -19.203  1.00  0.00     0.026 C 
HETATM    9  C17 UNL     1      -6.517  47.113 -18.053  1.00  0.00     0.156 C 
HETATM   10  C18 UNL     1      -7.784  47.856 -17.633  1.00  0.00     0.202 C 
HETATM   11  C19 UNL     1      -8.809  47.881 -18.774  1.00  0.00     0.151 C 
HETATM   12  C20 UNL     1      -8.187  47.845 -20.177  1.00  0.00     0.044 C 
HETATM   13  C21 UNL     1      -6.761  48.457 -20.303  1.00  0.00    -0.032 C 
HETATM   14  C22 UNL     1      -6.876  49.989 -20.067  1.00  0.00     0.016 C 
HETATM   15  C23 UNL     1      -6.198  48.169 -21.754  1.00  0.00    -0.001 C 
HETATM   16  C24 UNL     1      -7.021  48.815 -22.901  1.00  0.00     0.006 C 
HETATM   17  C25 UNL     1      -6.427  48.580 -24.300  1.00  0.00     0.010 C 
HETATM   18  C26 UNL     1      -4.962  49.027 -24.375  1.00  0.00    -0.036 C 
HETATM   19  C27 UNL     1      -4.876  50.560 -24.182  1.00  0.00     0.016 C 
ENDROOT
BRANCH   1  20
HETATM   20  C7  UNL     1      -4.451  49.031 -27.062  1.00  0.00     0.038 C 
BRANCH  20  21
HETATM   21  C6  UNL     1      -3.454  50.125 -27.428  1.00  0.00    -0.023 C 
HETATM   22  C5  UNL     1      -2.161  50.224 -27.074  1.00  0.00    -0.023 C 
BRANCH  22  23
HETATM   23  C4  UNL     1      -1.252  51.353 -27.530  1.00  0.00     0.035 C 
BRANCH  23  24
HETATM   24  C2  UNL     1       0.215  51.100 -27.068  1.00  0.00    -0.013 C 
HETATM   25  C1  UNL     1       1.226  51.801 -27.990  1.00  0.00     0.010 C 
HETATM   26  C3  UNL     1       0.473  51.559 -25.628  1.00  0.00     0.010 C 
ENDBRANCH  23  24
BRANCH  23  27
HETATM   27  C28 UNL     1      -1.828  52.689 -27.016  1.00  0.00     0.173 C 
BRANCH  27  28
HETATM   28  O11 UNL     1      -1.895  53.658 -28.060  1.00  0.00    -0.400 OA
HETATM   29  H48 UNL     1      -2.506  53.316 -28.734  1.00  0.00     0.209 HD
ENDBRANCH  27  28
ENDBRANCH  23  27
ENDBRANCH  22  23
ENDBRANCH  20  21
BRANCH  20  30
HETATM   30  C8  UNL     1      -4.660  47.995 -28.182  1.00  0.00     0.201 C 
BRANCH  30  31
HETATM   31  O1  UNL     1      -4.570  48.586 -29.465  1.00  0.00    -0.263 OA
BRANCH  31  32
HETATM   32  S1  UNL     1      -5.482  47.948 -30.643  1.00  0.00     0.240 S 
HETATM   33  O2  UNL     1      -4.761  48.101 -31.886  1.00  0.00    -0.579 OA
HETATM   34  O3  UNL     1      -5.999  46.674 -30.201  1.00  0.00    -0.579 OA
BRANCH  32  35
HETATM   35  O4  UNL     1      -6.708  48.988 -30.714  1.00  0.00    -0.274 OA
HETATM   36  H14 UNL     1      -6.382  49.806 -31.139  1.00  0.00     0.234 HD
ENDBRANCH  32  35
ENDBRANCH  31  32
ENDBRANCH  30  31
ENDBRANCH  20  30
ENDBRANCH   1  20
BRANCH   9  37
HETATM   37  O5  UNL     1      -6.852  45.775 -18.439  1.00  0.00    -0.392 OA
HETATM   38  H28 UNL     1      -7.280  45.354 -17.672  1.00  0.00     0.210 HD
ENDBRANCH   9  37
BRANCH  11  39
HETATM   39  O10 UNL     1      -9.610  49.063 -18.644  1.00  0.00    -0.393 OA
HETATM   40  H32 UNL     1     -10.222  48.915 -17.901  1.00  0.00     0.210 HD
ENDBRANCH  11  39
BRANCH  10  41
HETATM   41  O6  UNL     1      -8.387  47.181 -16.524  1.00  0.00    -0.253 OA
BRANCH  41  42
HETATM   42  S2  UNL     1      -9.800  46.422 -16.764  1.00  0.00     0.240 S 
HETATM   43  O7  UNL     1      -9.867  46.006 -18.144  1.00  0.00    -0.579 OA
HETATM   44  O8  UNL     1     -10.022  45.491 -15.684  1.00  0.00    -0.579 OA
BRANCH  42  45
HETATM   45  O9  UNL     1     -10.882  47.603 -16.598  1.00  0.00    -0.274 OA
HETATM   46  H30 UNL     1     -11.755  47.243 -16.857  1.00  0.00     0.234 HD
ENDBRANCH  42  45
ENDBRANCH  41  42
ENDBRANCH  10  41
TORSDOF 15
ENDMDL
MODEL 5
REMARK minimizedAffinity -9.31214142
REMARK CNNscore 0.302406728
REMARK CNNaffinity 6.71434164
REMARK  15 active torsions:
REMARK  status: ('A' for Active; 'I' for Inactive)
REMARK    1  A    between atoms: C2_2  and  C4_4 
REMARK    2  A    between atoms: C4_4  and  C5_5 
REMARK    3  A    between atoms: C4_4  and  C28_40 
REMARK    4  A    between atoms: C6_6  and  C7_7 
REMARK    5  A    between atoms: C7_7  and  C8_8 
REMARK    6  A    between atoms: C7_7  and  C9_14 
REMARK    7  A    between atoms: C8_8  and  O1_9 
REMARK    8  A    between atoms: O1_9  and  S1_10 
REMARK    9  A    between atoms: S1_10  and  O4_13 
REMARK   10  A    between atoms: C17_22  and  O5_23 
REMARK   11  A    between atoms: C18_24  and  O6_25 
REMARK   12  A    between atoms: O6_25  and  S2_26 
REMARK   13  A    between atoms: S2_26  and  O9_29 
REMARK   14  A    between atoms: C19_30  and  O10_31 
REMARK   15  A    between atoms: C28_40  and  O11_41 
ROOT
HETATM    1  C9  UNL     1       0.139  52.016 -21.161  1.00  0.00     0.004 C 
HETATM    2  C10 UNL     1       0.604  53.493 -21.047  1.00  0.00     0.006 C 
HETATM    3  C11 UNL     1       1.044  53.687 -19.584  1.00  0.00     0.006 C 
HETATM    4  C12 UNL     1       0.938  52.292 -18.968  1.00  0.00    -0.002 C 
HETATM    5  C13 UNL     1       0.887  52.167 -17.439  1.00  0.00    -0.005 C 
HETATM    6  C14 UNL     1       2.116  52.827 -16.788  1.00  0.00     0.006 C 
HETATM    7  C15 UNL     1       2.776  51.974 -15.713  1.00  0.00     0.008 C 
HETATM    8  C16 UNL     1       1.755  51.362 -14.742  1.00  0.00     0.026 C 
HETATM    9  C17 UNL     1       2.493  50.632 -13.592  1.00  0.00     0.156 C 
HETATM   10  C18 UNL     1       1.521  49.787 -12.770  1.00  0.00     0.202 C 
HETATM   11  C19 UNL     1       0.924  48.657 -13.618  1.00  0.00     0.151 C 
HETATM   12  C20 UNL     1       0.819  48.983 -15.114  1.00  0.00     0.044 C 
HETATM   13  C21 UNL     1       0.654  50.490 -15.470  1.00  0.00    -0.032 C 
HETATM   14  C22 UNL     1      -0.742  50.950 -14.966  1.00  0.00     0.016 C 
HETATM   15  C23 UNL     1       0.754  50.666 -17.041  1.00  0.00    -0.001 C 
HETATM   16  C24 UNL     1      -0.358  49.935 -17.839  1.00  0.00     0.006 C 
HETATM   17  C25 UNL     1      -0.286  50.168 -19.358  1.00  0.00     0.010 C 
HETATM   18  C26 UNL     1      -0.275  51.662 -19.702  1.00  0.00    -0.036 C 
HETATM   19  C27 UNL     1      -1.622  52.301 -19.286  1.00  0.00     0.016 C 
ENDROOT
BRANCH   1  20
HETATM   20  C7  UNL     1      -0.748  51.683 -22.396  1.00  0.00     0.038 C 
BRANCH  20  21
HETATM   21  C6  UNL     1      -0.095  52.237 -23.658  1.00  0.00    -0.023 C 
HETATM   22  C5  UNL     1       0.519  51.559 -24.643  1.00  0.00    -0.023 C 
BRANCH  22  23
HETATM   23  C4  UNL     1       1.108  52.223 -25.876  1.00  0.00     0.035 C 
BRANCH  23  24
HETATM   24  C2  UNL     1      -0.006  52.526 -26.924  1.00  0.00    -0.013 C 
HETATM   25  C1  UNL     1      -0.068  54.023 -27.264  1.00  0.00     0.010 C 
HETATM   26  C3  UNL     1       0.175  51.738 -28.227  1.00  0.00     0.010 C 
ENDBRANCH  23  24
BRANCH  23  27
HETATM   27  C28 UNL     1       2.235  51.326 -26.430  1.00  0.00     0.173 C 
BRANCH  27  28
HETATM   28  O11 UNL     1       3.258  52.103 -27.046  1.00  0.00    -0.400 OA
HETATM   29  H48 UNL     1       3.646  52.670 -26.358  1.00  0.00     0.209 HD
ENDBRANCH  27  28
ENDBRANCH  23  27
ENDBRANCH  22  23
ENDBRANCH  20  21
BRANCH  20  30
HETATM   30  C8  UNL     1      -1.280  50.248 -22.562  1.00  0.00     0.201 C 
BRANCH  30  31
HETATM   31  O1  UNL     1      -2.261  50.169 -23.580  1.00  0.00    -0.263 OA
BRANCH  31  32
HETATM   32  S1  UNL     1      -3.299  48.925 -23.517  1.00  0.00     0.240 S 
HETATM   33  O2  UNL     1      -2.670  47.868 -22.760  1.00  0.00    -0.579 OA
HETATM   34  O3  UNL     1      -4.616  49.426 -23.199  1.00  0.00    -0.579 OA
BRANCH  32  35
HETATM   35  O4  UNL     1      -3.311  48.425 -25.047  1.00  0.00    -0.274 OA
HETATM   36  H14 UNL     1      -2.465  47.967 -25.218  1.00  0.00     0.234 HD
ENDBRANCH  32  35
ENDBRANCH  31  32
ENDBRANCH  30  31
ENDBRANCH  20  30
ENDBRANCH   1  20
BRANCH   9  37
HETATM   37  O5  UNL     1       3.540  49.797 -14.102  1.00  0.00    -0.392 OA
HETATM   38  H28 UNL     1       3.978  49.386 -13.335  1.00  0.00     0.210 HD
ENDBRANCH   9  37
BRANCH  11  39
HETATM   39  O10 UNL     1      -0.380  48.344 -13.111  1.00  0.00    -0.393 OA
HETATM   40  H32 UNL     1      -0.256  47.853 -12.280  1.00  0.00     0.210 HD
ENDBRANCH  11  39
BRANCH  10  41
HETATM   41  O6  UNL     1       2.221  49.185 -11.676  1.00  0.00    -0.253 OA
BRANCH  41  42
HETATM   42  S2  UNL     1       2.549  47.598 -11.755  1.00  0.00     0.240 S 
HETATM   43  O7  UNL     1       1.399  46.869 -11.275  1.00  0.00    -0.579 OA
HETATM   44  O8  UNL     1       3.146  47.305 -13.036  1.00  0.00    -0.579 OA
BRANCH  42  45
HETATM   45  O9  UNL     1       3.698  47.406 -10.644  1.00  0.00    -0.274 OA
HETATM   46  H30 UNL     1       3.857  46.445 -10.546  1.00  0.00     0.234 HD
ENDBRANCH  42  45
ENDBRANCH  41  42
ENDBRANCH  10  41
TORSDOF 15
ENDMDL
MODEL 6
REMARK minimizedAffinity -8.73346043
REMARK CNNscore 0.270185113
REMARK CNNaffinity 6.0698638
REMARK  15 active torsions:
REMARK  status: ('A' for Active; 'I' for Inactive)
REMARK    1  A    between atoms: C2_2  and  C4_4 
REMARK    2  A    between atoms: C4_4  and  C5_5 
REMARK    3  A    between atoms: C4_4  and  C28_40 
REMARK    4  A    between atoms: C6_6  and  C7_7 
REMARK    5  A    between atoms: C7_7  and  C8_8 
REMARK    6  A    between atoms: C7_7  and  C9_14 
REMARK    7  A    between atoms: C8_8  and  O1_9 
REMARK    8  A    between atoms: O1_9  and  S1_10 
REMARK    9  A    between atoms: S1_10  and  O4_13 
REMARK   10  A    between atoms: C17_22  and  O5_23 
REMARK   11  A    between atoms: C18_24  and  O6_25 
REMARK   12  A    between atoms: O6_25  and  S2_26 
REMARK   13  A    between atoms: S2_26  and  O9_29 
REMARK   14  A    between atoms: C19_30  and  O10_31 
REMARK   15  A    between atoms: C28_40  and  O11_41 
ROOT
HETATM    1  C9  UNL     1      -1.609  49.921 -22.667  1.00  0.00     0.004 C 
HETATM    2  C10 UNL     1      -1.382  49.497 -21.191  1.00  0.00     0.006 C 
HETATM    3  C11 UNL     1      -2.629  48.689 -20.785  1.00  0.00     0.006 C 
HETATM    4  C12 UNL     1      -3.442  48.575 -22.074  1.00  0.00    -0.002 C 
HETATM    5  C13 UNL     1      -4.930  48.211 -21.973  1.00  0.00    -0.005 C 
HETATM    6  C14 UNL     1      -5.125  46.877 -21.228  1.00  0.00     0.006 C 
HETATM    7  C15 UNL     1      -6.091  45.922 -21.915  1.00  0.00     0.008 C 
HETATM    8  C16 UNL     1      -7.378  46.623 -22.375  1.00  0.00     0.026 C 
HETATM    9  C17 UNL     1      -8.378  45.578 -22.931  1.00  0.00     0.156 C 
HETATM   10  C18 UNL     1      -9.543  46.262 -23.643  1.00  0.00     0.202 C 
HETATM   11  C19 UNL     1      -9.058  47.023 -24.883  1.00  0.00     0.151 C 
HETATM   12  C20 UNL     1      -7.615  47.536 -24.780  1.00  0.00     0.044 C 
HETATM   13  C21 UNL     1      -7.106  47.845 -23.342  1.00  0.00    -0.032 C 
HETATM   14  C22 UNL     1      -7.898  49.072 -22.809  1.00  0.00     0.016 C 
HETATM   15  C23 UNL     1      -5.559  48.176 -23.398  1.00  0.00    -0.001 C 
HETATM   16  C24 UNL     1      -5.203  49.434 -24.235  1.00  0.00     0.006 C 
HETATM   17  C25 UNL     1      -3.704  49.780 -24.229  1.00  0.00     0.010 C 
HETATM   18  C26 UNL     1      -3.161  49.916 -22.801  1.00  0.00    -0.036 C 
HETATM   19  C27 UNL     1      -3.830  51.125 -22.104  1.00  0.00     0.016 C 
ENDROOT
BRANCH   1  20
HETATM   20  C7  UNL     1      -0.720  51.093 -23.175  1.00  0.00     0.038 C 
BRANCH  20  21
HETATM   21  C6  UNL     1      -0.996  51.339 -24.654  1.00  0.00    -0.023 C 
HETATM   22  C5  UNL     1      -0.311  50.880 -25.716  1.00  0.00    -0.023 C 
BRANCH  22  23
HETATM   23  C4  UNL     1      -0.703  51.167 -27.155  1.00  0.00     0.035 C 
BRANCH  23  24
HETATM   24  C2  UNL     1       0.256  52.221 -27.788  1.00  0.00    -0.013 C 
HETATM   25  C1  UNL     1       0.080  53.604 -27.142  1.00  0.00     0.010 C 
HETATM   26  C3  UNL     1       1.732  51.820 -27.682  1.00  0.00     0.010 C 
ENDBRANCH  23  24
BRANCH  23  27
HETATM   27  C28 UNL     1      -2.184  51.598 -27.187  1.00  0.00     0.173 C 
BRANCH  27  28
HETATM   28  O11 UNL     1      -2.852  51.071 -28.331  1.00  0.00    -0.400 OA
HETATM   29  H48 UNL     1      -2.830  50.102 -28.258  1.00  0.00     0.209 HD
ENDBRANCH  27  28
ENDBRANCH  23  27
ENDBRANCH  22  23
ENDBRANCH  20  21
BRANCH  20  30
HETATM   30  C8  UNL     1      -0.650  52.386 -22.343  1.00  0.00     0.201 C 
BRANCH  30  31
HETATM   31  O1  UNL     1       0.543  53.106 -22.595  1.00  0.00    -0.263 OA
BRANCH  31  32
HETATM   32  S1  UNL     1       1.329  53.715 -21.315  1.00  0.00     0.240 S 
HETATM   33  O2  UNL     1       0.342  54.280 -20.423  1.00  0.00    -0.579 OA
HETATM   34  O3  UNL     1       2.315  52.759 -20.870  1.00  0.00    -0.579 OA
BRANCH  32  35
HETATM   35  O4  UNL     1       2.104  54.967 -21.965  1.00  0.00    -0.274 OA
HETATM   36  H14 UNL     1       1.445  55.667 -22.143  1.00  0.00     0.234 HD
ENDBRANCH  32  35
ENDBRANCH  31  32
ENDBRANCH  30  31
ENDBRANCH  20  30
ENDBRANCH   1  20
BRANCH   9  37
HETATM   37  O5  UNL     1      -7.728  44.676 -23.834  1.00  0.00    -0.392 OA
HETATM   38  H28 UNL     1      -8.399  44.033 -24.130  1.00  0.00     0.210 HD
ENDBRANCH   9  37
BRANCH  11  39
HETATM   39  O10 UNL     1      -9.937  48.131 -25.114  1.00  0.00    -0.393 OA
HETATM   40  H32 UNL     1     -10.765  47.771 -25.478  1.00  0.00     0.210 HD
ENDBRANCH  11  39
BRANCH  10  41
HETATM   41  O6  UNL     1     -10.482  45.274 -24.080  1.00  0.00    -0.253 OA
BRANCH  41  42
HETATM   42  S2  UNL     1     -12.063  45.584 -23.896  1.00  0.00     0.240 S 
HETATM   43  O7  UNL     1     -12.626  44.585 -23.020  1.00  0.00    -0.579 OA
HETATM   44  O8  UNL     1     -12.239  46.994 -23.644  1.00  0.00    -0.579 OA
BRANCH  42  45
HETATM   45  O9  UNL     1     -12.666  45.288 -25.359  1.00  0.00    -0.274 OA
HETATM   46  H30 UNL     1     -13.642  45.332 -25.292  1.00  0.00     0.234 HD
ENDBRANCH  42  45
ENDBRANCH  41  42
ENDBRANCH  10  41
TORSDOF 15
ENDMDL
MODEL 7
REMARK minimizedAffinity -7.2740941
REMARK CNNscore 0.253060341
REMARK CNNaffinity 6.15885782
REMARK  15 active torsions:
REMARK  status: ('A' for Active; 'I' for Inactive)
REMARK    1  A    between atoms: C2_2  and  C4_4 
REMARK    2  A    between atoms: C4_4  and  C5_5 
REMARK    3  A    between atoms: C4_4  and  C28_40 
REMARK    4  A    between atoms: C6_6  and  C7_7 
REMARK    5  A    between atoms: C7_7  and  C8_8 
REMARK    6  A    between atoms: C7_7  and  C9_14 
REMARK    7  A    between atoms: C8_8  and  O1_9 
REMARK    8  A    between atoms: O1_9  and  S1_10 
REMARK    9  A    between atoms: S1_10  and  O4_13 
REMARK   10  A    between atoms: C17_22  and  O5_23 
REMARK   11  A    between atoms: C18_24  and  O6_25 
REMARK   12  A    between atoms: O6_25  and  S2_26 
REMARK   13  A    between atoms: S2_26  and  O9_29 
REMARK   14  A    between atoms: C19_30  and  O10_31 
REMARK   15  A    between atoms: C28_40  and  O11_41 
ROOT
HETATM    1  C9  UNL     1      -2.327  50.606 -21.338  1.00  0.00     0.004 C 
HETATM    2  C10 UNL     1      -3.209  51.632 -22.098  1.00  0.00     0.006 C 
HETATM    3  C11 UNL     1      -4.668  51.225 -21.820  1.00  0.00     0.006 C 
HETATM    4  C12 UNL     1      -4.557  50.078 -20.817  1.00  0.00    -0.002 C 
HETATM    5  C13 UNL     1      -5.763  49.146 -20.631  1.00  0.00    -0.005 C 
HETATM    6  C14 UNL     1      -7.020  49.940 -20.231  1.00  0.00     0.006 C 
HETATM    7  C15 UNL     1      -7.792  49.329 -19.070  1.00  0.00     0.008 C 
HETATM    8  C16 UNL     1      -7.983  47.813 -19.228  1.00  0.00     0.026 C 
HETATM    9  C17 UNL     1      -8.897  47.276 -18.098  1.00  0.00     0.156 C 
HETATM   10  C18 UNL     1      -8.883  45.750 -18.064  1.00  0.00     0.202 C 
HETATM   11  C19 UNL     1      -7.488  45.220 -17.709  1.00  0.00     0.151 C 
HETATM   12  C20 UNL     1      -6.339  46.140 -18.145  1.00  0.00     0.044 C 
HETATM   13  C21 UNL     1      -6.618  47.030 -19.391  1.00  0.00    -0.032 C 
HETATM   14  C22 UNL     1      -6.738  46.097 -20.628  1.00  0.00     0.016 C 
HETATM   15  C23 UNL     1      -5.417  48.044 -19.586  1.00  0.00    -0.001 C 
HETATM   16  C24 UNL     1      -4.048  47.367 -19.867  1.00  0.00     0.006 C 
HETATM   17  C25 UNL     1      -2.903  48.364 -20.117  1.00  0.00     0.010 C 
HETATM   18  C26 UNL     1      -3.250  49.355 -21.234  1.00  0.00    -0.036 C 
HETATM   19  C27 UNL     1      -3.389  48.597 -22.577  1.00  0.00     0.016 C 
ENDROOT
BRANCH   1  20
HETATM   20  C7  UNL     1      -0.842  50.525 -21.795  1.00  0.00     0.038 C 
BRANCH  20  21
HETATM   21  C6  UNL     1      -0.764  50.681 -23.310  1.00  0.00    -0.023 C 
HETATM   22  C5  UNL     1      -1.209  51.700 -24.065  1.00  0.00    -0.023 C 
BRANCH  22  23
HETATM   23  C4  UNL     1      -1.045  51.759 -25.574  1.00  0.00     0.035 C 
BRANCH  23  24
HETATM   24  C2  UNL     1       0.157  52.671 -25.964  1.00  0.00    -0.013 C 
HETATM   25  C1  UNL     1       0.358  53.806 -24.946  1.00  0.00     0.010 C 
HETATM   26  C3  UNL     1       1.474  51.896 -26.093  1.00  0.00     0.010 C 
ENDBRANCH  23  24
BRANCH  23  27
HETATM   27  C28 UNL     1      -2.381  52.214 -26.199  1.00  0.00     0.173 C 
BRANCH  27  28
HETATM   28  O11 UNL     1      -3.259  52.747 -25.211  1.00  0.00    -0.400 OA
HETATM   29  H48 UNL     1      -2.829  53.533 -24.834  1.00  0.00     0.209 HD
ENDBRANCH  27  28
ENDBRANCH  23  27
ENDBRANCH  22  23
ENDBRANCH  20  21
BRANCH  20  30
HETATM   30  C8  UNL     1       0.213  51.353 -21.040  1.00  0.00     0.201 C 
BRANCH  30  31
HETATM   31  O1  UNL     1      -0.036  52.742 -21.150  1.00  0.00    -0.263 OA
BRANCH  31  32
HETATM   32  S1  UNL     1       0.923  53.739 -20.305  1.00  0.00     0.240 S 
HETATM   33  O2  UNL     1       1.663  52.937 -19.358  1.00  0.00    -0.579 OA
HETATM   34  O3  UNL     1       1.570  54.654 -21.216  1.00  0.00    -0.579 OA
BRANCH  32  35
HETATM   35  O4  UNL     1      -0.146  54.573 -19.436  1.00  0.00    -0.274 OA
HETATM   36  H14 UNL     1      -0.484  53.984 -18.734  1.00  0.00     0.234 HD
ENDBRANCH  32  35
ENDBRANCH  31  32
ENDBRANCH  30  31
ENDBRANCH  20  30
ENDBRANCH   1  20
BRANCH   9  37
HETATM   37  O5  UNL     1      -8.490  47.787 -16.823  1.00  0.00    -0.392 OA
HETATM   38  H28 UNL     1      -9.113  47.434 -16.161  1.00  0.00     0.210 HD
ENDBRANCH   9  37
BRANCH  11  39
HETATM   39  O10 UNL     1      -7.317  43.933 -18.317  1.00  0.00    -0.393 OA
HETATM   40  H32 UNL     1      -7.849  43.300 -17.802  1.00  0.00     0.210 HD
ENDBRANCH  11  39
BRANCH  10  41
HETATM   41  O6  UNL     1      -9.791  45.286 -17.058  1.00  0.00    -0.253 OA
BRANCH  41  42
HETATM   42  S2  UNL     1     -10.889  44.167 -17.473  1.00  0.00     0.240 S 
HETATM   43  O7  UNL     1     -10.234  43.157 -18.269  1.00  0.00    -0.579 OA
HETATM   44  O8  UNL     1     -11.670  43.821 -16.309  1.00  0.00    -0.579 OA
BRANCH  42  45
HETATM   45  O9  UNL     1     -11.864  44.965 -18.475  1.00  0.00    -0.274 OA
HETATM   46  H30 UNL     1     -12.482  44.314 -18.868  1.00  0.00     0.234 HD
ENDBRANCH  42  45
ENDBRANCH  41  42
ENDBRANCH  10  41
TORSDOF 15
ENDMDL
MODEL 8
REMARK minimizedAffinity -7.644876
REMARK CNNscore 0.250031531
REMARK CNNaffinity 6.57027817
REMARK  15 active torsions:
REMARK  status: ('A' for Active; 'I' for Inactive)
REMARK    1  A    between atoms: C2_2  and  C4_4 
REMARK    2  A    between atoms: C4_4  and  C5_5 
REMARK    3  A    between atoms: C4_4  and  C28_40 
REMARK    4  A    between atoms: C6_6  and  C7_7 
REMARK    5  A    between atoms: C7_7  and  C8_8 
REMARK    6  A    between atoms: C7_7  and  C9_14 
REMARK    7  A    between atoms: C8_8  and  O1_9 
REMARK    8  A    between atoms: O1_9  and  S1_10 
REMARK    9  A    between atoms: S1_10  and  O4_13 
REMARK   10  A    between atoms: C17_22  and  O5_23 
REMARK   11  A    between atoms: C18_24  and  O6_25 
REMARK   12  A    between atoms: O6_25  and  S2_26 
REMARK   13  A    between atoms: S2_26  and  O9_29 
REMARK   14  A    between atoms: C19_30  and  O10_31 
REMARK   15  A    between atoms: C28_40  and  O11_41 
ROOT
HETATM    1  C9  UNL     1       0.556  51.845 -15.712  1.00  0.00     0.004 C 
HETATM    2  C10 UNL     1       1.766  52.223 -16.608  1.00  0.00     0.006 C 
HETATM    3  C11 UNL     1       1.310  51.987 -18.060  1.00  0.00     0.006 C 
HETATM    4  C12 UNL     1      -0.167  51.616 -17.936  1.00  0.00    -0.002 C 
HETATM    5  C13 UNL     1      -0.846  50.906 -19.116  1.00  0.00    -0.005 C 
HETATM    6  C14 UNL     1      -0.722  51.735 -20.408  1.00  0.00     0.006 C 
HETATM    7  C15 UNL     1      -2.023  51.858 -21.188  1.00  0.00     0.008 C 
HETATM    8  C16 UNL     1      -2.753  50.514 -21.326  1.00  0.00     0.026 C 
HETATM    9  C17 UNL     1      -3.986  50.676 -22.251  1.00  0.00     0.156 C 
HETATM   10  C18 UNL     1      -4.880  49.440 -22.188  1.00  0.00     0.202 C 
HETATM   11  C19 UNL     1      -5.476  49.262 -20.786  1.00  0.00     0.151 C 
HETATM   12  C20 UNL     1      -4.598  49.819 -19.657  1.00  0.00     0.044 C 
HETATM   13  C21 UNL     1      -3.066  49.833 -19.933  1.00  0.00    -0.032 C 
HETATM   14  C22 UNL     1      -2.577  48.359 -19.992  1.00  0.00     0.016 C 
HETATM   15  C23 UNL     1      -2.333  50.605 -18.761  1.00  0.00    -0.001 C 
HETATM   16  C24 UNL     1      -2.489  49.945 -17.364  1.00  0.00     0.006 C 
HETATM   17  C25 UNL     1      -1.720  50.670 -16.246  1.00  0.00     0.010 C 
HETATM   18  C26 UNL     1      -0.237  50.838 -16.597  1.00  0.00    -0.036 C 
HETATM   19  C27 UNL     1       0.439  49.447 -16.678  1.00  0.00     0.016 C 
ENDROOT
BRANCH   1  20
HETATM   20  C7  UNL     1       0.884  51.580 -14.214  1.00  0.00     0.038 C 
BRANCH  20  21
HETATM   21  C6  UNL     1      -0.150  52.275 -13.335  1.00  0.00    -0.023 C 
HETATM   22  C5  UNL     1      -0.094  52.511 -12.012  1.00  0.00    -0.023 C 
BRANCH  22  23
HETATM   23  C4  UNL     1      -1.179  53.246 -11.245  1.00  0.00     0.035 C 
BRANCH  23  24
HETATM   24  C2  UNL     1      -0.554  54.286 -10.266  1.00  0.00    -0.013 C 
HETATM   25  C1  UNL     1       0.859  54.699 -10.708  1.00  0.00     0.010 C 
HETATM   26  C3  UNL     1      -1.407  55.552 -10.122  1.00  0.00     0.010 C 
ENDBRANCH  23  24
BRANCH  23  27
HETATM   27  C28 UNL     1      -2.074  52.208 -10.537  1.00  0.00     0.173 C 
BRANCH  27  28
HETATM   28  O11 UNL     1      -1.356  51.008 -10.262  1.00  0.00    -0.400 OA
HETATM   29  H48 UNL     1      -0.633  51.236  -9.652  1.00  0.00     0.209 HD
ENDBRANCH  27  28
ENDBRANCH  23  27
ENDBRANCH  22  23
ENDBRANCH  20  21
BRANCH  20  30
HETATM   30  C8  UNL     1       1.199  50.141 -13.767  1.00  0.00     0.201 C 
BRANCH  30  31
HETATM   31  O1  UNL     1       2.539  49.786 -14.056  1.00  0.00    -0.263 OA
BRANCH  31  32
HETATM   32  S1  UNL     1       3.545  49.593 -12.800  1.00  0.00     0.240 S 
HETATM   33  O2  UNL     1       3.433  50.767 -11.965  1.00  0.00    -0.579 OA
HETATM   34  O3  UNL     1       3.395  48.256 -12.277  1.00  0.00    -0.579 OA
BRANCH  32  35
HETATM   35  O4  UNL     1       4.987  49.693 -13.510  1.00  0.00    -0.274 OA
HETATM   36  H14 UNL     1       5.140  50.629 -13.744  1.00  0.00     0.234 HD
ENDBRANCH  32  35
ENDBRANCH  31  32
ENDBRANCH  30  31
ENDBRANCH  20  30
ENDBRANCH   1  20
BRANCH   9  37
HETATM   37  O5  UNL     1      -4.747  51.836 -21.892  1.00  0.00    -0.392 OA
HETATM   38  H28 UNL     1      -5.491  51.896 -22.519  1.00  0.00     0.210 HD
ENDBRANCH   9  37
BRANCH  11  39
HETATM   39  O10 UNL     1      -5.706  47.866 -20.559  1.00  0.00    -0.393 OA
HETATM   40  H32 UNL     1      -6.488  47.614 -21.082  1.00  0.00     0.210 HD
ENDBRANCH  11  39
BRANCH  10  41
HETATM   41  O6  UNL     1      -5.969  49.592 -23.105  1.00  0.00    -0.253 OA
BRANCH  41  42
HETATM   42  S2  UNL     1      -6.254  48.396 -24.164  1.00  0.00     0.240 S 
HETATM   43  O7  UNL     1      -5.169  48.360 -25.115  1.00  0.00    -0.579 OA
HETATM   44  O8  UNL     1      -6.661  47.215 -23.440  1.00  0.00    -0.579 OA
BRANCH  42  45
HETATM   45  O9  UNL     1      -7.543  48.921 -24.972  1.00  0.00    -0.274 OA
HETATM   46  H30 UNL     1      -7.696  48.305 -25.717  1.00  0.00     0.234 HD
ENDBRANCH  42  45
ENDBRANCH  41  42
ENDBRANCH  10  41
TORSDOF 15
ENDMDL
MODEL 9
REMARK minimizedAffinity -7.9712019
REMARK CNNscore 0.242363453
REMARK CNNaffinity 6.05693769
REMARK  15 active torsions:
REMARK  status: ('A' for Active; 'I' for Inactive)
REMARK    1  A    between atoms: C2_2  and  C4_4 
REMARK    2  A    between atoms: C4_4  and  C5_5 
REMARK    3  A    between atoms: C4_4  and  C28_40 
REMARK    4  A    between atoms: C6_6  and  C7_7 
REMARK    5  A    between atoms: C7_7  and  C8_8 
REMARK    6  A    between atoms: C7_7  and  C9_14 
REMARK    7  A    between atoms: C8_8  and  O1_9 
REMARK    8  A    between atoms: O1_9  and  S1_10 
REMARK    9  A    between atoms: S1_10  and  O4_13 
REMARK   10  A    between atoms: C17_22  and  O5_23 
REMARK   11  A    between atoms: C18_24  and  O6_25 
REMARK   12  A    between atoms: O6_25  and  S2_26 
REMARK   13  A    between atoms: S2_26  and  O9_29 
REMARK   14  A    between atoms: C19_30  and  O10_31 
REMARK   15  A    between atoms: C28_40  and  O11_41 
ROOT
HETATM    1  C9  UNL     1      -2.597  48.150 -21.665  1.00  0.00     0.004 C 
HETATM    2  C10 UNL     1      -2.813  47.072 -20.570  1.00  0.00     0.006 C 
HETATM    3  C11 UNL     1      -4.202  46.464 -20.840  1.00  0.00     0.006 C 
HETATM    4  C12 UNL     1      -4.655  47.122 -22.144  1.00  0.00    -0.002 C 
HETATM    5  C13 UNL     1      -6.148  47.088 -22.502  1.00  0.00    -0.005 C 
HETATM    6  C14 UNL     1      -6.674  45.642 -22.550  1.00  0.00     0.006 C 
HETATM    7  C15 UNL     1      -7.523  45.335 -23.776  1.00  0.00     0.008 C 
HETATM    8  C16 UNL     1      -8.561  46.432 -24.059  1.00  0.00     0.026 C 
HETATM    9  C17 UNL     1      -9.486  45.995 -25.222  1.00  0.00     0.156 C 
HETATM   10  C18 UNL     1     -10.342  47.163 -25.706  1.00  0.00     0.202 C 
HETATM   11  C19 UNL     1      -9.469  48.271 -26.309  1.00  0.00     0.151 C 
HETATM   12  C20 UNL     1      -8.057  48.352 -25.712  1.00  0.00     0.044 C 
HETATM   13  C21 UNL     1      -7.914  47.864 -24.240  1.00  0.00    -0.032 C 
HETATM   14  C22 UNL     1      -8.681  48.863 -23.329  1.00  0.00     0.016 C 
HETATM   15  C23 UNL     1      -6.380  47.835 -23.849  1.00  0.00    -0.001 C 
HETATM   16  C24 UNL     1      -5.683  49.222 -23.888  1.00  0.00     0.006 C 
HETATM   17  C25 UNL     1      -4.210  49.188 -23.445  1.00  0.00     0.010 C 
HETATM   18  C26 UNL     1      -4.050  48.548 -22.061  1.00  0.00    -0.036 C 
HETATM   19  C27 UNL     1      -4.744  49.431 -20.996  1.00  0.00     0.016 C 
ENDROOT
BRANCH   1  20
HETATM   20  C7  UNL     1      -1.485  49.198 -21.369  1.00  0.00     0.038 C 
BRANCH  20  21
HETATM   21  C6  UNL     1      -1.438  50.225 -22.495  1.00  0.00    -0.023 C 
HETATM   22  C5  UNL     1      -1.358  50.005 -23.819  1.00  0.00    -0.023 C 
BRANCH  22  23
HETATM   23  C4  UNL     1      -1.350  51.117 -24.854  1.00  0.00     0.035 C 
BRANCH  23  24
HETATM   24  C2  UNL     1      -0.970  50.559 -26.259  1.00  0.00    -0.013 C 
HETATM   25  C1  UNL     1      -2.033  50.912 -27.312  1.00  0.00     0.010 C 
HETATM   26  C3  UNL     1       0.389  51.068 -26.753  1.00  0.00     0.010 C 
ENDBRANCH  23  24
BRANCH  23  27
HETATM   27  C28 UNL     1      -0.405  52.237 -24.370  1.00  0.00     0.173 C 
BRANCH  27  28
HETATM   28  O11 UNL     1      -0.744  53.489 -24.960  1.00  0.00    -0.400 OA
HETATM   29  H48 UNL     1      -1.642  53.716 -24.665  1.00  0.00     0.209 HD
ENDBRANCH  27  28
ENDBRANCH  23  27
ENDBRANCH  22  23
ENDBRANCH  20  21
BRANCH  20  30
HETATM   30  C8  UNL     1      -1.411  49.825 -19.965  1.00  0.00     0.201 C 
BRANCH  30  31
HETATM   31  O1  UNL     1      -0.240  50.603 -19.801  1.00  0.00    -0.263 OA
BRANCH  31  32
HETATM   32  S1  UNL     1      -0.429  52.138 -19.313  1.00  0.00     0.240 S 
HETATM   33  O2  UNL     1       0.355  52.315 -18.113  1.00  0.00    -0.579 OA
HETATM   34  O3  UNL     1      -0.303  53.013 -20.455  1.00  0.00    -0.579 OA
BRANCH  32  35
HETATM   35  O4  UNL     1      -1.968  52.149 -18.841  1.00  0.00    -0.274 OA
HETATM   36  H14 UNL     1      -2.024  51.665 -17.994  1.00  0.00     0.234 HD
ENDBRANCH  32  35
ENDBRANCH  31  32
ENDBRANCH  30  31
ENDBRANCH  20  30
ENDBRANCH   1  20
BRANCH   9  37
HETATM   37  O5  UNL     1      -8.722  45.475 -26.317  1.00  0.00    -0.392 OA
HETATM   38  H28 UNL     1      -9.357  45.198 -27.003  1.00  0.00     0.210 HD
ENDBRANCH   9  37
BRANCH  11  39
HETATM   39  O10 UNL     1     -10.131  49.529 -26.124  1.00  0.00    -0.393 OA
HETATM   40  H32 UNL     1     -10.869  49.562 -26.760  1.00  0.00     0.210 HD
ENDBRANCH  11  39
BRANCH  10  41
HETATM   41  O6  UNL     1     -11.234  46.709 -26.730  1.00  0.00    -0.253 OA
BRANCH  41  42
HETATM   42  S2  UNL     1     -12.743  47.301 -26.750  1.00  0.00     0.240 S 
HETATM   43  O7  UNL     1     -13.526  46.526 -27.682  1.00  0.00    -0.579 OA
HETATM   44  O8  UNL     1     -13.182  47.516 -25.391  1.00  0.00    -0.579 OA
BRANCH  42  45
HETATM   45  O9  UNL     1     -12.558  48.753 -27.420  1.00  0.00    -0.274 OA
HETATM   46  H30 UNL     1     -13.451  49.121 -27.582  1.00  0.00     0.234 HD
ENDBRANCH  42  45
ENDBRANCH  41  42
ENDBRANCH  10  41
TORSDOF 15
ENDMDL
