MODEL 1
REMARK minimizedAffinity -6.6562438
REMARK CNNscore 0.860704482
REMARK CNNaffinity 7.69673014
REMARK  12 active torsions:
REMARK  status: ('A' for Active; 'I' for Inactive)
REMARK    1  A    between atoms: O1_2  and  C2_3 
REMARK    2  A    between atoms: C4_5  and  O2_6 
REMARK    3  A    between atoms: O2_6  and  C5_7 
REMARK    4  A    between atoms: C15_17  and  O3_18 
REMARK    5  A    between atoms: O3_18  and  C16_19 
REMARK    6  A    between atoms: C18_22  and  O5_23 
REMARK    7  A    between atoms: O5_23  and  C19_24 
REMARK    8  A    between atoms: C19_24  and  C20_26 
REMARK    9  A    between atoms: C20_26  and  C21_27 
REMARK   10  A    between atoms: C26_32  and  C27_33 
REMARK   11  A    between atoms: C31_38  and  O8_39 
REMARK   12  A    between atoms: C35_44  and  O10_45 
ROOT
HETATM    1  C5  UNL     1      -3.282  52.012 -10.981  1.00  0.00     0.128 C 
HETATM    2  C6  UNL     1      -3.330  53.295 -10.141  1.00  0.00     0.033 C 
HETATM    3  C7  UNL     1      -1.939  53.886  -9.878  1.00  0.00     0.016 C 
HETATM    4  C8  UNL     1      -0.915  52.890  -9.248  1.00  0.00    -0.014 C 
HETATM    5  C9  UNL     1      -1.435  52.481  -7.852  1.00  0.00     0.020 C 
HETATM    6  C10 UNL     1      -0.930  51.658 -10.160  1.00  0.00    -0.072 C 
HETATM    7  C11 UNL     1       0.153  51.215 -10.815  1.00  0.00    -0.023 C 
HETATM    8  C12 UNL     1       1.462  51.929 -10.815  1.00  0.00     0.035 C 
HETATM    9  C13 UNL     1       1.290  53.430 -10.507  1.00  0.00     0.032 C 
HETATM   10  C14 UNL     1       0.511  53.628  -9.178  1.00  0.00     0.037 C 
HETATM   11  C15 UNL     1       1.449  53.340  -7.966  1.00  0.00     0.167 C 
HETATM   12  C18 UNL     1       2.763  54.186  -8.030  1.00  0.00     0.173 C 
HETATM   13  C24 UNL     1       3.577  54.043  -9.350  1.00  0.00     0.027 C 
HETATM   14  C25 UNL     1       4.384  52.727  -9.366  1.00  0.00     0.022 C 
HETATM   15  C26 UNL     1       4.551  55.248  -9.615  1.00  0.00     0.069 C 
HETATM   16  C29 UNL     1       3.628  56.391 -10.052  1.00  0.00     0.016 C 
HETATM   17  C30 UNL     1       2.390  55.736 -10.661  1.00  0.00     0.040 C 
HETATM   18  C31 UNL     1       2.620  54.210 -10.568  1.00  0.00     0.073 C 
HETATM   19  C32 UNL     1      -2.276  51.005 -10.399  1.00  0.00     0.066 C 
ENDROOT
BRANCH   1  20
HETATM   20  O2  UNL     1      -4.551  51.349 -11.040  1.00  0.00    -0.356 OA
BRANCH  20  21
HETATM   21  C4  UNL     1      -4.664  50.193 -10.215  1.00  0.00     0.263 C 
HETATM   22  C3  UNL     1      -6.138  50.032  -9.815  1.00  0.00     0.095 C 
HETATM   23  C2  UNL     1      -6.477  48.554  -9.660  1.00  0.00     0.156 C 
HETATM   24  C35 UNL     1      -6.263  47.842 -11.016  1.00  0.00     0.175 C 
HETATM   25  C33 UNL     1      -5.085  48.466 -11.785  1.00  0.00     0.151 C 
HETATM   26  O9  UNL     1      -4.150  49.027 -10.862  1.00  0.00    -0.354 OA
HETATM   27  C34 UNL     1      -4.360  47.425 -12.627  1.00  0.00     0.042 C 
BRANCH  23  28
HETATM   28  O1  UNL     1      -7.843  48.343  -9.269  1.00  0.00    -0.388 OA
HETATM   29  C1  UNL     1      -8.445  49.487  -8.677  1.00  0.00     0.202 C 
ENDBRANCH  23  28
BRANCH  24  30
HETATM   30  O10 UNL     1      -7.448  47.932 -11.821  1.00  0.00    -0.390 OA
HETATM   31  H54 UNL     1      -8.188  47.910 -11.179  1.00  0.00     0.210 HD
ENDBRANCH  24  30
ENDBRANCH  20  21
ENDBRANCH   1  20
BRANCH  11  32
HETATM   32  O3  UNL     1       0.768  53.780  -6.758  1.00  0.00    -0.313 OA
BRANCH  32  33
HETATM   33  C16 UNL     1       0.064  54.944  -6.824  1.00  0.00     0.255 C 
HETATM   34  C17 UNL     1       0.627  55.818  -7.903  1.00  0.00     0.126 C 
HETATM   35  O4  UNL     1      -0.890  55.246  -6.124  1.00  0.00    -0.266 OA
ENDBRANCH  32  33
ENDBRANCH  11  32
BRANCH  18  36
HETATM   36  O8  UNL     1       3.314  53.851 -11.773  1.00  0.00    -0.389 OA
HETATM   37  H46 UNL     1       2.717  53.989 -12.530  1.00  0.00     0.210 HD
ENDBRANCH  18  36
BRANCH  12  38
HETATM   38  O5  UNL     1       3.587  53.780  -6.911  1.00  0.00    -0.312 OA
BRANCH  38  39
HETATM   39  C19 UNL     1       3.804  54.676  -5.909  1.00  0.00     0.259 C 
HETATM   40  O6  UNL     1       4.557  54.494  -4.964  1.00  0.00    -0.265 OA
BRANCH  39  41
HETATM   41  C20 UNL     1       3.016  55.943  -6.171  1.00  0.00     0.115 C 
BRANCH  41  42
HETATM   42  C21 UNL     1       3.102  56.958  -5.021  1.00  0.00    -0.013 C 
HETATM   43  C22 UNL     1       3.260  58.393  -5.528  1.00  0.00     0.010 C 
HETATM   44  C23 UNL     1       1.846  56.865  -4.150  1.00  0.00     0.010 C 
ENDBRANCH  41  42
ENDBRANCH  39  41
ENDBRANCH  38  39
ENDBRANCH  12  38
BRANCH  15  45
HETATM   45  C27 UNL     1       5.549  55.638  -8.520  1.00  0.00     0.128 C 
HETATM   46  C28 UNL     1       6.682  54.691  -8.203  1.00  0.00     0.091 C 
HETATM   47  O7  UNL     1       5.397  56.649  -7.830  1.00  0.00    -0.298 OA
ENDBRANCH  15  45
TORSDOF 12
ENDMDL
MODEL 2
REMARK minimizedAffinity -8.72932053
REMARK CNNscore 0.749032438
REMARK CNNaffinity 7.82449961
REMARK  12 active torsions:
REMARK  status: ('A' for Active; 'I' for Inactive)
REMARK    1  A    between atoms: O1_2  and  C2_3 
REMARK    2  A    between atoms: C4_5  and  O2_6 
REMARK    3  A    between atoms: O2_6  and  C5_7 
REMARK    4  A    between atoms: C15_17  and  O3_18 
REMARK    5  A    between atoms: O3_18  and  C16_19 
REMARK    6  A    between atoms: C18_22  and  O5_23 
REMARK    7  A    between atoms: O5_23  and  C19_24 
REMARK    8  A    between atoms: C19_24  and  C20_26 
REMARK    9  A    between atoms: C20_26  and  C21_27 
REMARK   10  A    between atoms: C26_32  and  C27_33 
REMARK   11  A    between atoms: C31_38  and  O8_39 
REMARK   12  A    between atoms: C35_44  and  O10_45 
ROOT
HETATM    1  C5  UNL     1      -2.482  49.613 -16.485  1.00  0.00     0.128 C 
HETATM    2  C6  UNL     1      -2.624  51.101 -16.835  1.00  0.00     0.033 C 
HETATM    3  C7  UNL     1      -2.864  51.339 -18.332  1.00  0.00     0.016 C 
HETATM    4  C8  UNL     1      -1.808  50.682 -19.275  1.00  0.00    -0.014 C 
HETATM    5  C9  UNL     1      -0.436  51.332 -18.992  1.00  0.00     0.020 C 
HETATM    6  C10 UNL     1      -1.750  49.207 -18.859  1.00  0.00    -0.072 C 
HETATM    7  C11 UNL     1      -2.045  48.197 -19.689  1.00  0.00    -0.023 C 
HETATM    8  C12 UNL     1      -2.563  48.395 -21.073  1.00  0.00     0.035 C 
HETATM    9  C13 UNL     1      -3.248  49.767 -21.232  1.00  0.00     0.032 C 
HETATM   10  C14 UNL     1      -2.292  50.909 -20.791  1.00  0.00     0.037 C 
HETATM   11  C15 UNL     1      -1.219  51.157 -21.894  1.00  0.00     0.167 C 
HETATM   12  C18 UNL     1      -1.869  51.418 -23.294  1.00  0.00     0.173 C 
HETATM   13  C24 UNL     1      -2.854  50.315 -23.780  1.00  0.00     0.027 C 
HETATM   14  C25 UNL     1      -2.091  49.088 -24.325  1.00  0.00     0.022 C 
HETATM   15  C26 UNL     1      -3.865  50.819 -24.872  1.00  0.00     0.069 C 
HETATM   16  C29 UNL     1      -4.868  51.676 -24.090  1.00  0.00     0.016 C 
HETATM   17  C30 UNL     1      -4.867  51.144 -22.659  1.00  0.00     0.040 C 
HETATM   18  C31 UNL     1      -3.856  49.974 -22.635  1.00  0.00     0.073 C 
HETATM   19  C32 UNL     1      -1.456  48.923 -17.400  1.00  0.00     0.066 C 
ENDROOT
BRANCH   1  20
HETATM   20  O2  UNL     1      -2.045  49.408 -15.136  1.00  0.00    -0.356 OA
BRANCH  20  21
HETATM   21  C4  UNL     1      -1.916  50.595 -14.359  1.00  0.00     0.263 C 
HETATM   22  C3  UNL     1      -3.154  50.715 -13.458  1.00  0.00     0.095 C 
HETATM   23  C2  UNL     1      -2.779  51.394 -12.146  1.00  0.00     0.156 C 
HETATM   24  C35 UNL     1      -1.729  50.529 -11.412  1.00  0.00     0.175 C 
HETATM   25  C33 UNL     1      -0.794  49.829 -12.414  1.00  0.00     0.151 C 
HETATM   26  O9  UNL     1      -0.699  50.608 -13.609  1.00  0.00    -0.354 OA
HETATM   27  C34 UNL     1       0.607  49.661 -11.841  1.00  0.00     0.042 C 
BRANCH  23  28
HETATM   28  O1  UNL     1      -3.906  51.548 -11.268  1.00  0.00    -0.388 OA
HETATM   29  C1  UNL     1      -4.132  52.894 -10.869  1.00  0.00     0.202 C 
ENDBRANCH  23  28
BRANCH  24  30
HETATM   30  O10 UNL     1      -2.376  49.535 -10.603  1.00  0.00    -0.390 OA
HETATM   31  H54 UNL     1      -3.202  49.963 -10.297  1.00  0.00     0.210 HD
ENDBRANCH  24  30
ENDBRANCH  20  21
ENDBRANCH   1  20
BRANCH  11  32
HETATM   32  O3  UNL     1      -0.514  52.386 -21.565  1.00  0.00    -0.313 OA
BRANCH  32  33
HETATM   33  C16 UNL     1       0.848  52.346 -21.564  1.00  0.00     0.255 C 
HETATM   34  C17 UNL     1       1.394  53.666 -21.111  1.00  0.00     0.126 C 
HETATM   35  O4  UNL     1       1.538  51.388 -21.875  1.00  0.00    -0.266 OA
ENDBRANCH  32  33
ENDBRANCH  11  32
BRANCH  18  36
HETATM   36  O8  UNL     1      -4.609  48.806 -22.992  1.00  0.00    -0.389 OA
HETATM   37  H46 UNL     1      -5.253  48.622 -22.285  1.00  0.00     0.210 HD
ENDBRANCH  18  36
BRANCH  12  38
HETATM   38  O5  UNL     1      -0.788  51.552 -24.248  1.00  0.00    -0.312 OA
BRANCH  38  39
HETATM   39  C19 UNL     1      -0.445  52.801 -24.663  1.00  0.00     0.259 C 
HETATM   40  O6  UNL     1      -1.137  53.799 -24.516  1.00  0.00    -0.265 OA
BRANCH  39  41
HETATM   41  C20 UNL     1       0.938  52.778 -25.282  1.00  0.00     0.115 C 
BRANCH  41  42
HETATM   42  C21 UNL     1       1.042  51.843 -26.497  1.00  0.00    -0.013 C 
HETATM   43  C22 UNL     1       0.491  52.487 -27.771  1.00  0.00     0.010 C 
HETATM   44  C23 UNL     1       2.503  51.445 -26.722  1.00  0.00     0.010 C 
ENDBRANCH  41  42
ENDBRANCH  39  41
ENDBRANCH  38  39
ENDBRANCH  12  38
BRANCH  15  45
HETATM   45  C27 UNL     1      -3.309  51.500 -26.126  1.00  0.00     0.128 C 
HETATM   46  C28 UNL     1      -2.624  50.649 -27.167  1.00  0.00     0.091 C 
HETATM   47  O7  UNL     1      -3.321  52.726 -26.261  1.00  0.00    -0.298 OA
ENDBRANCH  15  45
TORSDOF 12
ENDMDL
MODEL 3
REMARK minimizedAffinity -6.7432189
REMARK CNNscore 0.627522767
REMARK CNNaffinity 7.17802429
REMARK  12 active torsions:
REMARK  status: ('A' for Active; 'I' for Inactive)
REMARK    1  A    between atoms: O1_2  and  C2_3 
REMARK    2  A    between atoms: C4_5  and  O2_6 
REMARK    3  A    between atoms: O2_6  and  C5_7 
REMARK    4  A    between atoms: C15_17  and  O3_18 
REMARK    5  A    between atoms: O3_18  and  C16_19 
REMARK    6  A    between atoms: C18_22  and  O5_23 
REMARK    7  A    between atoms: O5_23  and  C19_24 
REMARK    8  A    between atoms: C19_24  and  C20_26 
REMARK    9  A    between atoms: C20_26  and  C21_27 
REMARK   10  A    between atoms: C26_32  and  C27_33 
REMARK   11  A    between atoms: C31_38  and  O8_39 
REMARK   12  A    between atoms: C35_44  and  O10_45 
ROOT
HETATM    1  C5  UNL     1      -0.799  51.695 -11.405  1.00  0.00     0.128 C 
HETATM    2  C6  UNL     1       0.251  50.940 -10.578  1.00  0.00     0.033 C 
HETATM    3  C7  UNL     1       0.771  51.758  -9.388  1.00  0.00     0.016 C 
HETATM    4  C8  UNL     1       1.318  53.172  -9.759  1.00  0.00    -0.014 C 
HETATM    5  C9  UNL     1       2.549  52.990 -10.674  1.00  0.00     0.020 C 
HETATM    6  C10 UNL     1       0.201  53.846 -10.563  1.00  0.00    -0.072 C 
HETATM    7  C11 UNL     1      -0.399  54.982 -10.181  1.00  0.00    -0.023 C 
HETATM    8  C12 UNL     1      -0.123  55.659  -8.882  1.00  0.00     0.035 C 
HETATM    9  C13 UNL     1       0.434  54.673  -7.835  1.00  0.00     0.032 C 
HETATM   10  C14 UNL     1       1.681  53.934  -8.390  1.00  0.00     0.037 C 
HETATM   11  C15 UNL     1       2.917  54.884  -8.362  1.00  0.00     0.167 C 
HETATM   12  C18 UNL     1       3.156  55.490  -6.940  1.00  0.00     0.173 C 
HETATM   13  C24 UNL     1       1.931  56.228  -6.322  1.00  0.00     0.027 C 
HETATM   14  C25 UNL     1       1.765  57.637  -6.931  1.00  0.00     0.022 C 
HETATM   15  C26 UNL     1       2.001  56.349  -4.757  1.00  0.00     0.069 C 
HETATM   16  C29 UNL     1       1.680  54.937  -4.254  1.00  0.00     0.016 C 
HETATM   17  C30 UNL     1       0.827  54.278  -5.337  1.00  0.00     0.040 C 
HETATM   18  C31 UNL     1       0.665  55.330  -6.457  1.00  0.00     0.073 C 
HETATM   19  C32 UNL     1      -0.302  53.101 -11.783  1.00  0.00     0.066 C 
ENDROOT
BRANCH   1  20
HETATM   20  O2  UNL     1      -1.119  51.021 -12.628  1.00  0.00    -0.356 OA
BRANCH  20  21
HETATM   21  C4  UNL     1      -2.505  50.752 -12.822  1.00  0.00     0.263 C 
HETATM   22  C3  UNL     1      -2.869  49.504 -12.006  1.00  0.00     0.095 C 
HETATM   23  C2  UNL     1      -4.310  49.603 -11.517  1.00  0.00     0.156 C 
HETATM   24  C35 UNL     1      -4.447  50.838 -10.597  1.00  0.00     0.175 C 
HETATM   25  C33 UNL     1      -3.528  51.979 -11.068  1.00  0.00     0.151 C 
HETATM   26  O9  UNL     1      -3.317  51.877 -12.478  1.00  0.00    -0.354 OA
HETATM   27  C34 UNL     1      -4.141  53.342 -10.775  1.00  0.00     0.042 C 
BRANCH  23  28
HETATM   28  O1  UNL     1      -4.712  48.450 -10.759  1.00  0.00    -0.388 OA
HETATM   29  C1  UNL     1      -6.117  48.233 -10.764  1.00  0.00     0.202 C 
ENDBRANCH  23  28
BRANCH  24  30
HETATM   30  O10 UNL     1      -4.111  50.495  -9.245  1.00  0.00    -0.390 OA
HETATM   31  H54 UNL     1      -4.406  49.567  -9.143  1.00  0.00     0.210 HD
ENDBRANCH  24  30
ENDBRANCH  20  21
ENDBRANCH   1  20
BRANCH  11  32
HETATM   32  O3  UNL     1       4.101  54.087  -8.643  1.00  0.00    -0.313 OA
BRANCH  32  33
HETATM   33  C16 UNL     1       5.037  54.627  -9.473  1.00  0.00     0.255 C 
HETATM   34  C17 UNL     1       6.337  53.897  -9.314  1.00  0.00     0.126 C 
HETATM   35  O4  UNL     1       4.862  55.559 -10.242  1.00  0.00    -0.266 OA
ENDBRANCH  32  33
ENDBRANCH  11  32
BRANCH  18  36
HETATM   36  O8  UNL     1      -0.500  56.092  -6.105  1.00  0.00    -0.389 OA
HETATM   37  H46 UNL     1      -1.281  55.514  -6.162  1.00  0.00     0.210 HD
ENDBRANCH  18  36
BRANCH  12  38
HETATM   38  O5  UNL     1       4.267  56.412  -7.050  1.00  0.00    -0.312 OA
BRANCH  38  39
HETATM   39  C19 UNL     1       5.448  56.074  -6.464  1.00  0.00     0.259 C 
HETATM   40  O6  UNL     1       5.707  54.969  -6.009  1.00  0.00    -0.265 OA
BRANCH  39  41
HETATM   41  C20 UNL     1       6.402  57.249  -6.510  1.00  0.00     0.115 C 
BRANCH  41  42
HETATM   42  C21 UNL     1       7.180  57.449  -5.200  1.00  0.00    -0.013 C 
HETATM   43  C22 UNL     1       8.606  56.899  -5.284  1.00  0.00     0.010 C 
HETATM   44  C23 UNL     1       7.232  58.938  -4.848  1.00  0.00     0.010 C 
ENDBRANCH  41  42
ENDBRANCH  39  41
ENDBRANCH  38  39
ENDBRANCH  12  38
BRANCH  15  45
HETATM   45  C27 UNL     1       3.254  56.965  -4.125  1.00  0.00     0.128 C 
HETATM   46  C28 UNL     1       3.513  58.439  -4.323  1.00  0.00     0.091 C 
HETATM   47  O7  UNL     1       4.098  56.275  -3.547  1.00  0.00    -0.298 OA
ENDBRANCH  15  45
TORSDOF 12
ENDMDL
MODEL 4
REMARK minimizedAffinity -6.77492857
REMARK CNNscore 0.568528175
REMARK CNNaffinity 6.63201141
REMARK  12 active torsions:
REMARK  status: ('A' for Active; 'I' for Inactive)
REMARK    1  A    between atoms: O1_2  and  C2_3 
REMARK    2  A    between atoms: C4_5  and  O2_6 
REMARK    3  A    between atoms: O2_6  and  C5_7 
REMARK    4  A    between atoms: C15_17  and  O3_18 
REMARK    5  A    between atoms: O3_18  and  C16_19 
REMARK    6  A    between atoms: C18_22  and  O5_23 
REMARK    7  A    between atoms: O5_23  and  C19_24 
REMARK    8  A    between atoms: C19_24  and  C20_26 
REMARK    9  A    between atoms: C20_26  and  C21_27 
REMARK   10  A    between atoms: C26_32  and  C27_33 
REMARK   11  A    between atoms: C31_38  and  O8_39 
REMARK   12  A    between atoms: C35_44  and  O10_45 
ROOT
HETATM    1  C5  UNL     1       5.378  56.775  -7.143  1.00  0.00     0.128 C 
HETATM    2  C6  UNL     1       5.059  55.519  -6.322  1.00  0.00     0.033 C 
HETATM    3  C7  UNL     1       4.290  54.462  -7.126  1.00  0.00     0.016 C 
HETATM    4  C8  UNL     1       2.986  54.982  -7.808  1.00  0.00    -0.014 C 
HETATM    5  C9  UNL     1       2.003  55.420  -6.700  1.00  0.00     0.020 C 
HETATM    6  C10 UNL     1       3.409  56.219  -8.609  1.00  0.00    -0.072 C 
HETATM    7  C11 UNL     1       3.272  56.317  -9.939  1.00  0.00    -0.023 C 
HETATM    8  C12 UNL     1       2.793  55.197 -10.799  1.00  0.00     0.035 C 
HETATM    9  C13 UNL     1       3.030  53.827 -10.132  1.00  0.00     0.032 C 
HETATM   10  C14 UNL     1       2.396  53.793  -8.715  1.00  0.00     0.037 C 
HETATM   11  C15 UNL     1       0.850  53.631  -8.830  1.00  0.00     0.167 C 
HETATM   12  C18 UNL     1       0.455  52.391  -9.699  1.00  0.00     0.173 C 
HETATM   13  C24 UNL     1       1.078  52.360 -11.126  1.00  0.00     0.027 C 
HETATM   14  C25 UNL     1       0.328  53.311 -12.082  1.00  0.00     0.022 C 
HETATM   15  C26 UNL     1       1.118  50.921 -11.757  1.00  0.00     0.069 C 
HETATM   16  C29 UNL     1       2.253  50.212 -11.009  1.00  0.00     0.016 C 
HETATM   17  C30 UNL     1       3.209  51.306 -10.538  1.00  0.00     0.040 C 
HETATM   18  C31 UNL     1       2.608  52.643 -11.029  1.00  0.00     0.073 C 
HETATM   19  C32 UNL     1       4.118  57.316  -7.842  1.00  0.00     0.066 C 
ENDROOT
BRANCH   1  20
HETATM   20  O2  UNL     1       5.898  57.839  -6.336  1.00  0.00    -0.356 OA
BRANCH  20  21
HETATM   21  C4  UNL     1       6.705  57.421  -5.239  1.00  0.00     0.263 C 
HETATM   22  C3  UNL     1       8.063  56.964  -5.790  1.00  0.00     0.095 C 
HETATM   23  C2  UNL     1       9.163  57.262  -4.777  1.00  0.00     0.156 C 
HETATM   24  C35 UNL     1       9.228  58.788  -4.536  1.00  0.00     0.175 C 
HETATM   25  C33 UNL     1       7.827  59.418  -4.623  1.00  0.00     0.151 C 
HETATM   26  O9  UNL     1       6.839  58.451  -4.257  1.00  0.00    -0.354 OA
HETATM   27  C34 UNL     1       7.697  60.611  -3.684  1.00  0.00     0.042 C 
BRANCH  23  28
HETATM   28  O1  UNL     1      10.458  56.839  -5.233  1.00  0.00    -0.388 OA
HETATM   29  C1  UNL     1      11.234  56.206  -4.224  1.00  0.00     0.202 C 
ENDBRANCH  23  28
BRANCH  24  30
HETATM   30  O10 UNL     1      10.082  59.412  -5.506  1.00  0.00    -0.390 OA
HETATM   31  H54 UNL     1      10.779  58.747  -5.688  1.00  0.00     0.210 HD
ENDBRANCH  24  30
ENDBRANCH  20  21
ENDBRANCH   1  20
BRANCH  11  32
HETATM   32  O3  UNL     1       0.329  53.348  -7.501  1.00  0.00    -0.313 OA
BRANCH  32  33
HETATM   33  C16 UNL     1      -0.603  54.205  -6.998  1.00  0.00     0.255 C 
HETATM   34  C17 UNL     1      -1.390  53.523  -5.920  1.00  0.00     0.126 C 
HETATM   35  O4  UNL     1      -0.782  55.360  -7.352  1.00  0.00    -0.266 OA
ENDBRANCH  32  33
ENDBRANCH  11  32
BRANCH  18  36
HETATM   36  O8  UNL     1       3.140  52.845 -12.346  1.00  0.00    -0.389 OA
HETATM   37  H46 UNL     1       4.100  52.990 -12.276  1.00  0.00     0.210 HD
ENDBRANCH  18  36
BRANCH  12  38
HETATM   38  O5  UNL     1      -0.989  52.386  -9.805  1.00  0.00    -0.312 OA
BRANCH  38  39
HETATM   39  C19 UNL     1      -1.625  53.570 -10.016  1.00  0.00     0.259 C 
HETATM   40  O6  UNL     1      -1.102  54.564 -10.501  1.00  0.00    -0.265 OA
BRANCH  39  41
HETATM   41  C20 UNL     1      -3.080  53.455  -9.612  1.00  0.00     0.115 C 
BRANCH  41  42
HETATM   42  C21 UNL     1      -3.947  52.747 -10.664  1.00  0.00    -0.013 C 
HETATM   43  C22 UNL     1      -3.504  53.073 -12.092  1.00  0.00     0.010 C 
HETATM   44  C23 UNL     1      -3.892  51.232 -10.451  1.00  0.00     0.010 C 
ENDBRANCH  41  42
ENDBRANCH  39  41
ENDBRANCH  38  39
ENDBRANCH  12  38
BRANCH  15  45
HETATM   45  C27 UNL     1      -0.183  50.115 -11.824  1.00  0.00     0.128 C 
HETATM   46  C28 UNL     1      -1.131  50.367 -12.972  1.00  0.00     0.091 C 
HETATM   47  O7  UNL     1      -0.517  49.342 -10.923  1.00  0.00    -0.298 OA
ENDBRANCH  15  45
TORSDOF 12
ENDMDL
MODEL 5
REMARK minimizedAffinity -7.1548481
REMARK CNNscore 0.55819428
REMARK CNNaffinity 7.15582228
REMARK  12 active torsions:
REMARK  status: ('A' for Active; 'I' for Inactive)
REMARK    1  A    between atoms: O1_2  and  C2_3 
REMARK    2  A    between atoms: C4_5  and  O2_6 
REMARK    3  A    between atoms: O2_6  and  C5_7 
REMARK    4  A    between atoms: C15_17  and  O3_18 
REMARK    5  A    between atoms: O3_18  and  C16_19 
REMARK    6  A    between atoms: C18_22  and  O5_23 
REMARK    7  A    between atoms: O5_23  and  C19_24 
REMARK    8  A    between atoms: C19_24  and  C20_26 
REMARK    9  A    between atoms: C20_26  and  C21_27 
REMARK   10  A    between atoms: C26_32  and  C27_33 
REMARK   11  A    between atoms: C31_38  and  O8_39 
REMARK   12  A    between atoms: C35_44  and  O10_45 
ROOT
HETATM    1  C5  UNL     1      -2.863  49.217 -15.764  1.00  0.00     0.128 C 
HETATM    2  C6  UNL     1      -1.541  48.725 -15.160  1.00  0.00     0.033 C 
HETATM    3  C7  UNL     1      -1.186  49.436 -13.847  1.00  0.00     0.016 C 
HETATM    4  C8  UNL     1      -1.170  50.995 -13.933  1.00  0.00    -0.014 C 
HETATM    5  C9  UNL     1      -0.056  51.414 -14.917  1.00  0.00     0.020 C 
HETATM    6  C10 UNL     1      -2.527  51.385 -14.530  1.00  0.00    -0.072 C 
HETATM    7  C11 UNL     1      -3.417  52.158 -13.892  1.00  0.00    -0.023 C 
HETATM    8  C12 UNL     1      -3.234  52.637 -12.492  1.00  0.00     0.035 C 
HETATM    9  C13 UNL     1      -2.276  51.724 -11.701  1.00  0.00     0.032 C 
HETATM   10  C14 UNL     1      -0.926  51.568 -12.451  1.00  0.00     0.037 C 
HETATM   11  C15 UNL     1      -0.070  52.859 -12.275  1.00  0.00     0.167 C 
HETATM   12  C18 UNL     1       0.116  53.237 -10.768  1.00  0.00     0.173 C 
HETATM   13  C24 UNL     1      -1.206  53.387  -9.958  1.00  0.00     0.027 C 
HETATM   14  C25 UNL     1      -1.886  54.742 -10.249  1.00  0.00     0.022 C 
HETATM   15  C26 UNL     1      -1.007  53.233  -8.407  1.00  0.00     0.069 C 
HETATM   16  C29 UNL     1      -0.796  51.729  -8.201  1.00  0.00     0.016 C 
HETATM   17  C30 UNL     1      -1.503  51.031  -9.361  1.00  0.00     0.040 C 
HETATM   18  C31 UNL     1      -2.120  52.154 -10.226  1.00  0.00     0.073 C 
HETATM   19  C32 UNL     1      -2.893  50.752 -15.858  1.00  0.00     0.066 C 
ENDROOT
BRANCH   1  20
HETATM   20  O2  UNL     1      -3.080  48.713 -17.088  1.00  0.00    -0.356 OA
BRANCH  20  21
HETATM   21  C4  UNL     1      -1.901  48.320 -17.782  1.00  0.00     0.263 C 
HETATM   22  C3  UNL     1      -2.318  47.696 -19.122  1.00  0.00     0.095 C 
HETATM   23  C2  UNL     1      -1.259  47.979 -20.181  1.00  0.00     0.156 C 
HETATM   24  C35 UNL     1      -1.136  49.508 -20.377  1.00  0.00     0.175 C 
HETATM   25  C33 UNL     1      -1.369  50.253 -19.051  1.00  0.00     0.151 C 
HETATM   26  O9  UNL     1      -0.997  49.414 -17.955  1.00  0.00    -0.354 OA
HETATM   27  C34 UNL     1      -0.540  51.528 -18.979  1.00  0.00     0.042 C 
BRANCH  23  28
HETATM   28  O1  UNL     1      -1.590  47.402 -21.455  1.00  0.00    -0.388 OA
HETATM   29  C1  UNL     1      -2.827  46.701 -21.453  1.00  0.00     0.202 C 
ENDBRANCH  23  28
BRANCH  24  30
HETATM   30  O10 UNL     1      -2.091  49.966 -21.345  1.00  0.00    -0.390 OA
HETATM   31  H54 UNL     1      -2.172  49.228 -21.985  1.00  0.00     0.210 HD
ENDBRANCH  24  30
ENDBRANCH  20  21
ENDBRANCH   1  20
BRANCH  11  32
HETATM   32  O3  UNL     1       1.270  52.579 -12.767  1.00  0.00    -0.313 OA
BRANCH  32  33
HETATM   33  C16 UNL     1       1.879  51.446 -12.318  1.00  0.00     0.255 C 
HETATM   34  C17 UNL     1       3.075  51.140 -13.169  1.00  0.00     0.126 C 
HETATM   35  O4  UNL     1       1.525  50.771 -11.364  1.00  0.00    -0.266 OA
ENDBRANCH  32  33
ENDBRANCH  11  32
BRANCH  18  36
HETATM   36  O8  UNL     1      -3.422  52.395  -9.673  1.00  0.00    -0.389 OA
HETATM   37  H46 UNL     1      -3.975  51.607  -9.818  1.00  0.00     0.210 HD
ENDBRANCH  18  36
BRANCH  12  38
HETATM   38  O5  UNL     1       0.849  54.485 -10.728  1.00  0.00    -0.312 OA
BRANCH  38  39
HETATM   39  C19 UNL     1       2.177  54.444 -10.435  1.00  0.00     0.259 C 
HETATM   40  O6  UNL     1       2.744  53.499  -9.905  1.00  0.00    -0.265 OA
BRANCH  39  41
HETATM   41  C20 UNL     1       2.849  55.716 -10.909  1.00  0.00     0.115 C 
BRANCH  41  42
HETATM   42  C21 UNL     1       3.874  56.270  -9.907  1.00  0.00    -0.013 C 
HETATM   43  C22 UNL     1       3.306  56.360  -8.490  1.00  0.00     0.010 C 
HETATM   44  C23 UNL     1       5.123  55.384  -9.897  1.00  0.00     0.010 C 
ENDBRANCH  41  42
ENDBRANCH  39  41
ENDBRANCH  38  39
ENDBRANCH  12  38
BRANCH  15  45
HETATM   45  C27 UNL     1       0.040  54.110  -7.713  1.00  0.00     0.128 C 
HETATM   46  C28 UNL     1      -0.185  55.601  -7.661  1.00  0.00     0.091 C 
HETATM   47  O7  UNL     1       1.099  53.644  -7.284  1.00  0.00    -0.298 OA
ENDBRANCH  15  45
TORSDOF 12
ENDMDL
MODEL 6
REMARK minimizedAffinity -7.61441422
REMARK CNNscore 0.456102759
REMARK CNNaffinity 6.95998192
REMARK  12 active torsions:
REMARK  status: ('A' for Active; 'I' for Inactive)
REMARK    1  A    between atoms: O1_2  and  C2_3 
REMARK    2  A    between atoms: C4_5  and  O2_6 
REMARK    3  A    between atoms: O2_6  and  C5_7 
REMARK    4  A    between atoms: C15_17  and  O3_18 
REMARK    5  A    between atoms: O3_18  and  C16_19 
REMARK    6  A    between atoms: C18_22  and  O5_23 
REMARK    7  A    between atoms: O5_23  and  C19_24 
REMARK    8  A    between atoms: C19_24  and  C20_26 
REMARK    9  A    between atoms: C20_26  and  C21_27 
REMARK   10  A    between atoms: C26_32  and  C27_33 
REMARK   11  A    between atoms: C31_38  and  O8_39 
REMARK   12  A    between atoms: C35_44  and  O10_45 
ROOT
HETATM    1  C5  UNL     1      -2.021  50.635 -22.702  1.00  0.00     0.128 C 
HETATM    2  C6  UNL     1      -3.188  51.631 -22.648  1.00  0.00     0.033 C 
HETATM    3  C7  UNL     1      -4.441  51.042 -21.985  1.00  0.00     0.016 C 
HETATM    4  C8  UNL     1      -4.934  49.696 -22.603  1.00  0.00    -0.014 C 
HETATM    5  C9  UNL     1      -5.354  49.959 -24.066  1.00  0.00     0.020 C 
HETATM    6  C10 UNL     1      -3.710  48.772 -22.600  1.00  0.00    -0.072 C 
HETATM    7  C11 UNL     1      -3.668  47.609 -21.936  1.00  0.00    -0.023 C 
HETATM    8  C12 UNL     1      -4.763  47.133 -21.042  1.00  0.00     0.035 C 
HETATM    9  C13 UNL     1      -5.619  48.305 -20.521  1.00  0.00     0.032 C 
HETATM   10  C14 UNL     1      -6.153  49.159 -21.703  1.00  0.00     0.037 C 
HETATM   11  C15 UNL     1      -7.334  48.418 -22.401  1.00  0.00     0.167 C 
HETATM   12  C18 UNL     1      -8.457  48.021 -21.386  1.00  0.00     0.173 C 
HETATM   13  C24 UNL     1      -7.976  47.179 -20.167  1.00  0.00     0.027 C 
HETATM   14  C25 UNL     1      -7.762  45.702 -20.560  1.00  0.00     0.022 C 
HETATM   15  C26 UNL     1      -8.954  47.249 -18.938  1.00  0.00     0.069 C 
HETATM   16  C29 UNL     1      -8.717  48.643 -18.346  1.00  0.00     0.016 C 
HETATM   17  C30 UNL     1      -7.291  49.037 -18.726  1.00  0.00     0.040 C 
HETATM   18  C31 UNL     1      -6.719  47.851 -19.537  1.00  0.00     0.073 C 
HETATM   19  C32 UNL     1      -2.467  49.288 -23.296  1.00  0.00     0.066 C 
ENDROOT
BRANCH   1  20
HETATM   20  O2  UNL     1      -0.935  51.109 -23.509  1.00  0.00    -0.356 OA
BRANCH  20  21
HETATM   21  C4  UNL     1      -1.131  50.983 -24.914  1.00  0.00     0.263 C 
HETATM   22  C3  UNL     1      -1.795  52.271 -25.423  1.00  0.00     0.095 C 
HETATM   23  C2  UNL     1      -1.338  52.566 -26.846  1.00  0.00     0.156 C 
HETATM   24  C35 UNL     1       0.194  52.778 -26.851  1.00  0.00     0.175 C 
HETATM   25  C33 UNL     1       0.876  51.878 -25.806  1.00  0.00     0.151 C 
HETATM   26  O9  UNL     1       0.092  50.701 -25.597  1.00  0.00    -0.354 OA
HETATM   27  C34 UNL     1       2.265  51.451 -26.265  1.00  0.00     0.042 C 
BRANCH  23  28
HETATM   28  O1  UNL     1      -1.943  53.755 -27.381  1.00  0.00    -0.388 OA
HETATM   29  C1  UNL     1      -1.582  54.014 -28.732  1.00  0.00     0.202 C 
ENDBRANCH  23  28
BRANCH  24  30
HETATM   30  O10 UNL     1       0.510  54.149 -26.566  1.00  0.00    -0.390 OA
HETATM   31  H54 UNL     1      -0.223  54.662 -26.964  1.00  0.00     0.210 HD
ENDBRANCH  24  30
ENDBRANCH  20  21
ENDBRANCH   1  20
BRANCH  11  32
HETATM   32  O3  UNL     1      -7.964  49.349 -23.324  1.00  0.00    -0.313 OA
BRANCH  32  33
HETATM   33  C16 UNL     1      -8.347  48.866 -24.539  1.00  0.00     0.255 C 
HETATM   34  C17 UNL     1      -7.277  47.973 -25.090  1.00  0.00     0.126 C 
HETATM   35  O4  UNL     1      -9.401  49.106 -25.107  1.00  0.00    -0.266 OA
ENDBRANCH  32  33
ENDBRANCH  11  32
BRANCH  18  36
HETATM   36  O8  UNL     1      -6.139  46.965 -18.568  1.00  0.00    -0.389 OA
HETATM   37  H46 UNL     1      -5.374  47.408 -18.159  1.00  0.00     0.210 HD
ENDBRANCH  18  36
BRANCH  12  38
HETATM   38  O5  UNL     1      -9.454  47.273 -22.123  1.00  0.00    -0.312 OA
BRANCH  38  39
HETATM   39  C19 UNL     1      -9.262  45.937 -22.295  1.00  0.00     0.259 C 
HETATM   40  O6  UNL     1      -9.885  45.063 -21.709  1.00  0.00    -0.265 OA
BRANCH  39  41
HETATM   41  C20 UNL     1      -8.205  45.699 -23.354  1.00  0.00     0.115 C 
BRANCH  41  42
HETATM   42  C21 UNL     1      -8.338  44.334 -24.048  1.00  0.00    -0.013 C 
HETATM   43  C22 UNL     1      -8.173  44.439 -25.565  1.00  0.00     0.010 C 
HETATM   44  C23 UNL     1      -7.293  43.364 -23.491  1.00  0.00     0.010 C 
ENDBRANCH  41  42
ENDBRANCH  39  41
ENDBRANCH  38  39
ENDBRANCH  12  38
BRANCH  15  45
HETATM   45  C27 UNL     1     -10.431  46.908 -19.157  1.00  0.00     0.128 C 
HETATM   46  C28 UNL     1     -11.394  48.028 -19.467  1.00  0.00     0.091 C 
HETATM   47  O7  UNL     1     -10.866  45.765 -18.994  1.00  0.00    -0.298 OA
ENDBRANCH  15  45
TORSDOF 12
ENDMDL
MODEL 7
REMARK minimizedAffinity -7.64169741
REMARK CNNscore 0.406650513
REMARK CNNaffinity 6.49611616
REMARK  12 active torsions:
REMARK  status: ('A' for Active; 'I' for Inactive)
REMARK    1  A    between atoms: O1_2  and  C2_3 
REMARK    2  A    between atoms: C4_5  and  O2_6 
REMARK    3  A    between atoms: O2_6  and  C5_7 
REMARK    4  A    between atoms: C15_17  and  O3_18 
REMARK    5  A    between atoms: O3_18  and  C16_19 
REMARK    6  A    between atoms: C18_22  and  O5_23 
REMARK    7  A    between atoms: O5_23  and  C19_24 
REMARK    8  A    between atoms: C19_24  and  C20_26 
REMARK    9  A    between atoms: C20_26  and  C21_27 
REMARK   10  A    between atoms: C26_32  and  C27_33 
REMARK   11  A    between atoms: C31_38  and  O8_39 
REMARK   12  A    between atoms: C35_44  and  O10_45 
ROOT
HETATM    1  C5  UNL     1     -12.869  45.552 -26.734  1.00  0.00     0.128 C 
HETATM    2  C6  UNL     1     -11.688  44.584 -26.579  1.00  0.00     0.033 C 
HETATM    3  C7  UNL     1     -10.466  44.999 -27.409  1.00  0.00     0.016 C 
HETATM    4  C8  UNL     1     -10.755  45.228 -28.926  1.00  0.00    -0.014 C 
HETATM    5  C9  UNL     1     -11.205  43.884 -29.541  1.00  0.00     0.020 C 
HETATM    6  C10 UNL     1     -11.930  46.211 -28.975  1.00  0.00    -0.072 C 
HETATM    7  C11 UNL     1     -11.857  47.417 -29.556  1.00  0.00    -0.023 C 
HETATM    8  C12 UNL     1     -10.599  47.979 -30.125  1.00  0.00     0.035 C 
HETATM    9  C13 UNL     1      -9.350  47.338 -29.486  1.00  0.00     0.032 C 
HETATM   10  C14 UNL     1      -9.410  45.790 -29.604  1.00  0.00     0.037 C 
HETATM   11  C15 UNL     1      -9.064  45.357 -31.061  1.00  0.00     0.167 C 
HETATM   12  C18 UNL     1      -7.696  45.947 -31.537  1.00  0.00     0.173 C 
HETATM   13  C24 UNL     1      -7.569  47.496 -31.423  1.00  0.00     0.027 C 
HETATM   14  C25 UNL     1      -8.314  48.202 -32.576  1.00  0.00     0.022 C 
HETATM   15  C26 UNL     1      -6.081  47.998 -31.386  1.00  0.00     0.069 C 
HETATM   16  C29 UNL     1      -5.595  47.637 -29.978  1.00  0.00     0.016 C 
HETATM   17  C30 UNL     1      -6.836  47.601 -29.089  1.00  0.00     0.040 C 
HETATM   18  C31 UNL     1      -8.031  47.949 -30.005  1.00  0.00     0.073 C 
HETATM   19  C32 UNL     1     -13.181  45.813 -28.218  1.00  0.00     0.066 C 
ENDROOT
BRANCH   1  20
HETATM   20  O2  UNL     1     -14.070  45.050 -26.136  1.00  0.00    -0.356 OA
BRANCH  20  21
HETATM   21  C4  UNL     1     -15.157  45.969 -26.108  1.00  0.00     0.263 C 
HETATM   22  C3  UNL     1     -16.463  45.165 -26.035  1.00  0.00     0.095 C 
HETATM   23  C2  UNL     1     -17.510  45.941 -25.244  1.00  0.00     0.156 C 
HETATM   24  C35 UNL     1     -16.994  46.158 -23.802  1.00  0.00     0.175 C 
HETATM   25  C33 UNL     1     -15.467  46.345 -23.786  1.00  0.00     0.151 C 
HETATM   26  O9  UNL     1     -15.037  46.901 -25.031  1.00  0.00    -0.354 OA
HETATM   27  C34 UNL     1     -15.035  47.285 -22.669  1.00  0.00     0.042 C 
BRANCH  23  28
HETATM   28  O1  UNL     1     -18.762  45.241 -25.157  1.00  0.00    -0.388 OA
HETATM   29  C1  UNL     1     -19.880  46.102 -24.989  1.00  0.00     0.202 C 
ENDBRANCH  23  28
BRANCH  24  30
HETATM   30  O10 UNL     1     -17.337  45.037 -22.974  1.00  0.00    -0.390 OA
HETATM   31  H54 UNL     1     -18.198  44.724 -23.322  1.00  0.00     0.210 HD
ENDBRANCH  24  30
ENDBRANCH  20  21
ENDBRANCH   1  20
BRANCH  11  32
HETATM   32  O3  UNL     1      -8.880  43.913 -31.067  1.00  0.00    -0.313 OA
BRANCH  32  33
HETATM   33  C16 UNL     1      -7.748  43.423 -30.491  1.00  0.00     0.255 C 
HETATM   34  C17 UNL     1      -7.133  42.386 -31.382  1.00  0.00     0.126 C 
HETATM   35  O4  UNL     1      -7.282  43.768 -29.416  1.00  0.00    -0.266 OA
ENDBRANCH  32  33
ENDBRANCH  11  32
BRANCH  18  36
HETATM   36  O8  UNL     1      -8.138  49.380 -29.973  1.00  0.00    -0.389 OA
HETATM   37  H46 UNL     1      -8.396  49.653 -29.075  1.00  0.00     0.210 HD
ENDBRANCH  18  36
BRANCH  12  38
HETATM   38  O5  UNL     1      -7.517  45.552 -32.919  1.00  0.00    -0.312 OA
BRANCH  38  39
HETATM   39  C19 UNL     1      -8.623  45.257 -33.654  1.00  0.00     0.259 C 
HETATM   40  O6  UNL     1      -9.183  44.169 -33.662  1.00  0.00    -0.265 OA
BRANCH  39  41
HETATM   41  C20 UNL     1      -9.083  46.485 -34.412  1.00  0.00     0.115 C 
BRANCH  41  42
HETATM   42  C21 UNL     1      -9.088  46.290 -35.936  1.00  0.00    -0.013 C 
HETATM   43  C22 UNL     1     -10.494  46.025 -36.479  1.00  0.00     0.010 C 
HETATM   44  C23 UNL     1      -8.507  47.530 -36.621  1.00  0.00     0.010 C 
ENDBRANCH  41  42
ENDBRANCH  39  41
ENDBRANCH  38  39
ENDBRANCH  12  38
BRANCH  15  45
HETATM   45  C27 UNL     1      -5.132  47.559 -32.506  1.00  0.00     0.128 C 
HETATM   46  C28 UNL     1      -4.177  46.421 -32.239  1.00  0.00     0.091 C 
HETATM   47  O7  UNL     1      -5.062  48.167 -33.577  1.00  0.00    -0.298 OA
ENDBRANCH  15  45
TORSDOF 12
ENDMDL
MODEL 8
REMARK minimizedAffinity -7.27443218
REMARK CNNscore 0.351137847
REMARK CNNaffinity 6.73920965
REMARK  12 active torsions:
REMARK  status: ('A' for Active; 'I' for Inactive)
REMARK    1  A    between atoms: O1_2  and  C2_3 
REMARK    2  A    between atoms: C4_5  and  O2_6 
REMARK    3  A    between atoms: O2_6  and  C5_7 
REMARK    4  A    between atoms: C15_17  and  O3_18 
REMARK    5  A    between atoms: O3_18  and  C16_19 
REMARK    6  A    between atoms: C18_22  and  O5_23 
REMARK    7  A    between atoms: O5_23  and  C19_24 
REMARK    8  A    between atoms: C19_24  and  C20_26 
REMARK    9  A    between atoms: C20_26  and  C21_27 
REMARK   10  A    between atoms: C26_32  and  C27_33 
REMARK   11  A    between atoms: C31_38  and  O8_39 
REMARK   12  A    between atoms: C35_44  and  O10_45 
ROOT
HETATM    1  C5  UNL     1      -8.767  47.264 -19.002  1.00  0.00     0.128 C 
HETATM    2  C6  UNL     1      -8.118  48.529 -18.425  1.00  0.00     0.033 C 
HETATM    3  C7  UNL     1      -7.154  49.205 -19.410  1.00  0.00     0.016 C 
HETATM    4  C8  UNL     1      -6.046  48.268 -19.985  1.00  0.00    -0.014 C 
HETATM    5  C9  UNL     1      -5.148  47.806 -18.816  1.00  0.00     0.020 C 
HETATM    6  C10 UNL     1      -6.790  47.050 -20.545  1.00  0.00    -0.072 C 
HETATM    7  C11 UNL     1      -6.742  46.688 -21.835  1.00  0.00    -0.023 C 
HETATM    8  C12 UNL     1      -6.046  47.484 -22.886  1.00  0.00     0.035 C 
HETATM    9  C13 UNL     1      -5.915  48.966 -22.481  1.00  0.00     0.032 C 
HETATM   10  C14 UNL     1      -5.228  49.095 -21.094  1.00  0.00     0.037 C 
HETATM   11  C15 UNL     1      -3.695  48.850 -21.238  1.00  0.00     0.167 C 
HETATM   12  C18 UNL     1      -3.053  49.780 -22.319  1.00  0.00     0.173 C 
HETATM   13  C24 UNL     1      -3.715  49.709 -23.728  1.00  0.00     0.027 C 
HETATM   14  C25 UNL     1      -3.260  48.448 -24.494  1.00  0.00     0.022 C 
HETATM   15  C26 UNL     1      -3.435  50.978 -24.612  1.00  0.00     0.069 C 
HETATM   16  C29 UNL     1      -4.331  52.065 -24.007  1.00  0.00     0.016 C 
HETATM   17  C30 UNL     1      -5.500  51.340 -23.343  1.00  0.00     0.040 C 
HETATM   18  C31 UNL     1      -5.261  49.831 -23.580  1.00  0.00     0.073 C 
HETATM   19  C32 UNL     1      -7.708  46.316 -19.589  1.00  0.00     0.066 C 
ENDROOT
BRANCH   1  20
HETATM   20  O2  UNL     1      -9.491  46.521 -18.013  1.00  0.00    -0.356 OA
BRANCH  20  21
HETATM   21  C4  UNL     1      -8.799  46.323 -16.784  1.00  0.00     0.263 C 
HETATM   22  C3  UNL     1      -9.650  46.916 -15.652  1.00  0.00     0.095 C 
HETATM   23  C2  UNL     1      -9.446  46.115 -14.372  1.00  0.00     0.156 C 
HETATM   24  C35 UNL     1      -9.905  44.657 -14.610  1.00  0.00     0.175 C 
HETATM   25  C33 UNL     1      -9.616  44.218 -16.056  1.00  0.00     0.151 C 
HETATM   26  O9  UNL     1      -8.494  44.944 -16.564  1.00  0.00    -0.354 OA
HETATM   27  C34 UNL     1      -9.296  42.731 -16.130  1.00  0.00     0.042 C 
BRANCH  23  28
HETATM   28  O1  UNL     1     -10.208  46.636 -13.271  1.00  0.00    -0.388 OA
HETATM   29  C1  UNL     1      -9.417  47.328 -12.314  1.00  0.00     0.202 C 
ENDBRANCH  23  28
BRANCH  24  30
HETATM   30  O10 UNL     1     -11.312  44.528 -14.354  1.00  0.00    -0.390 OA
HETATM   31  H54 UNL     1     -11.493  45.162 -13.630  1.00  0.00     0.210 HD
ENDBRANCH  24  30
ENDBRANCH  20  21
ENDBRANCH   1  20
BRANCH  11  32
HETATM   32  O3  UNL     1      -3.062  49.228 -19.984  1.00  0.00    -0.313 OA
BRANCH  32  33
HETATM   33  C16 UNL     1      -3.541  50.333 -19.347  1.00  0.00     0.255 C 
HETATM   34  C17 UNL     1      -3.941  51.366 -20.357  1.00  0.00     0.126 C 
HETATM   35  O4  UNL     1      -3.643  50.477 -18.139  1.00  0.00    -0.266 OA
ENDBRANCH  32  33
ENDBRANCH  11  32
BRANCH  18  36
HETATM   36  O8  UNL     1      -5.886  49.535 -24.838  1.00  0.00    -0.389 OA
HETATM   37  H46 UNL     1      -6.849  49.645 -24.742  1.00  0.00     0.210 HD
ENDBRANCH  18  36
BRANCH  12  38
HETATM   38  O5  UNL     1      -1.657  49.412 -22.425  1.00  0.00    -0.312 OA
BRANCH  38  39
HETATM   39  C19 UNL     1      -0.789  49.895 -21.495  1.00  0.00     0.259 C 
HETATM   40  O6  UNL     1      -0.066  49.203 -20.792  1.00  0.00    -0.265 OA
BRANCH  39  41
HETATM   41  C20 UNL     1      -0.817  51.410 -21.501  1.00  0.00     0.115 C 
BRANCH  41  42
HETATM   42  C21 UNL     1       0.323  52.040 -20.687  1.00  0.00    -0.013 C 
HETATM   43  C22 UNL     1       1.173  52.996 -21.527  1.00  0.00     0.010 C 
HETATM   44  C23 UNL     1      -0.251  52.797 -19.487  1.00  0.00     0.010 C 
ENDBRANCH  41  42
ENDBRANCH  39  41
ENDBRANCH  38  39
ENDBRANCH  12  38
BRANCH  15  45
HETATM   45  C27 UNL     1      -1.983  51.415 -24.827  1.00  0.00     0.128 C 
HETATM   46  C28 UNL     1      -1.590  52.825 -24.459  1.00  0.00     0.091 C 
HETATM   47  O7  UNL     1      -1.156  50.682 -25.376  1.00  0.00    -0.298 OA
ENDBRANCH  15  45
TORSDOF 12
ENDMDL
MODEL 9
REMARK minimizedAffinity -6.73438263
REMARK CNNscore 0.332279682
REMARK CNNaffinity 6.30111933
REMARK  12 active torsions:
REMARK  status: ('A' for Active; 'I' for Inactive)
REMARK    1  A    between atoms: O1_2  and  C2_3 
REMARK    2  A    between atoms: C4_5  and  O2_6 
REMARK    3  A    between atoms: O2_6  and  C5_7 
REMARK    4  A    between atoms: C15_17  and  O3_18 
REMARK    5  A    between atoms: O3_18  and  C16_19 
REMARK    6  A    between atoms: C18_22  and  O5_23 
REMARK    7  A    between atoms: O5_23  and  C19_24 
REMARK    8  A    between atoms: C19_24  and  C20_26 
REMARK    9  A    between atoms: C20_26  and  C21_27 
REMARK   10  A    between atoms: C26_32  and  C27_33 
REMARK   11  A    between atoms: C31_38  and  O8_39 
REMARK   12  A    between atoms: C35_44  and  O10_45 
ROOT
HETATM    1  C5  UNL     1      -6.667  47.899 -23.899  1.00  0.00     0.128 C 
HETATM    2  C6  UNL     1      -7.100  46.506 -23.420  1.00  0.00     0.033 C 
HETATM    3  C7  UNL     1      -8.274  45.938 -24.229  1.00  0.00     0.016 C 
HETATM    4  C8  UNL     1      -9.523  46.871 -24.308  1.00  0.00    -0.014 C 
HETATM    5  C9  UNL     1     -10.084  47.053 -22.880  1.00  0.00     0.020 C 
HETATM    6  C10 UNL     1      -8.993  48.221 -24.805  1.00  0.00    -0.072 C 
HETATM    7  C11 UNL     1      -9.400  48.797 -25.945  1.00  0.00    -0.023 C 
HETATM    8  C12 UNL     1     -10.331  48.143 -26.909  1.00  0.00     0.035 C 
HETATM    9  C13 UNL     1     -10.305  46.607 -26.770  1.00  0.00     0.032 C 
HETATM   10  C14 UNL     1     -10.586  46.187 -25.301  1.00  0.00     0.037 C 
HETATM   11  C15 UNL     1     -12.107  46.333 -24.991  1.00  0.00     0.167 C 
HETATM   12  C18 UNL     1     -12.991  45.557 -26.022  1.00  0.00     0.173 C 
HETATM   13  C24 UNL     1     -12.738  45.922 -27.515  1.00  0.00     0.027 C 
HETATM   14  C25 UNL     1     -13.420  47.257 -27.885  1.00  0.00     0.022 C 
HETATM   15  C26 UNL     1     -13.210  44.807 -28.518  1.00  0.00     0.069 C 
HETATM   16  C29 UNL     1     -12.153  43.705 -28.382  1.00  0.00     0.016 C 
HETATM   17  C30 UNL     1     -10.869  44.393 -27.922  1.00  0.00     0.040 C 
HETATM   18  C31 UNL     1     -11.206  45.897 -27.801  1.00  0.00     0.073 C 
HETATM   19  C32 UNL     1      -7.873  48.849 -24.001  1.00  0.00     0.066 C 
ENDROOT
BRANCH   1  20
HETATM   20  O2  UNL     1      -5.724  48.514 -23.012  1.00  0.00    -0.356 OA
BRANCH  20  21
HETATM   21  C4  UNL     1      -4.368  48.456 -23.443  1.00  0.00     0.263 C 
HETATM   22  C3  UNL     1      -4.351  48.478 -24.979  1.00  0.00     0.095 C 
HETATM   23  C2  UNL     1      -3.097  49.188 -25.475  1.00  0.00     0.156 C 
HETATM   24  C35 UNL     1      -3.110  50.649 -24.970  1.00  0.00     0.175 C 
HETATM   25  C33 UNL     1      -3.762  50.745 -23.580  1.00  0.00     0.151 C 
HETATM   26  O9  UNL     1      -3.587  49.511 -22.879  1.00  0.00    -0.354 OA
HETATM   27  C34 UNL     1      -3.136  51.858 -22.750  1.00  0.00     0.042 C 
BRANCH  23  28
HETATM   28  O1  UNL     1      -3.020  49.224 -26.910  1.00  0.00    -0.388 OA
HETATM   29  C1  UNL     1      -4.004  48.423 -27.549  1.00  0.00     0.202 C 
ENDBRANCH  23  28
BRANCH  24  30
HETATM   30  O10 UNL     1      -3.833  51.488 -25.884  1.00  0.00    -0.390 OA
HETATM   31  H54 UNL     1      -3.658  51.102 -26.768  1.00  0.00     0.210 HD
ENDBRANCH  24  30
ENDBRANCH  20  21
ENDBRANCH   1  20
BRANCH  11  32
HETATM   32  O3  UNL     1     -12.366  45.696 -23.709  1.00  0.00    -0.313 OA
BRANCH  32  33
HETATM   33  C16 UNL     1     -11.697  44.541 -23.437  1.00  0.00     0.255 C 
HETATM   34  C17 UNL     1     -11.709  43.651 -24.643  1.00  0.00     0.126 C 
HETATM   35  O4  UNL     1     -11.157  44.257 -22.379  1.00  0.00    -0.266 OA
ENDBRANCH  32  33
ENDBRANCH  11  32
BRANCH  18  36
HETATM   36  O8  UNL     1     -10.955  46.454 -29.100  1.00  0.00    -0.389 OA
HETATM   37  H46 UNL     1      -9.999  46.404 -29.281  1.00  0.00     0.210 HD
ENDBRANCH  18  36
BRANCH  12  38
HETATM   38  O5  UNL     1     -14.374  45.828 -25.689  1.00  0.00    -0.312 OA
BRANCH  38  39
HETATM   39  C19 UNL     1     -15.077  44.872 -25.022  1.00  0.00     0.259 C 
HETATM   40  O6  UNL     1     -14.752  43.696 -24.946  1.00  0.00    -0.265 OA
BRANCH  39  41
HETATM   41  C20 UNL     1     -16.284  45.493 -24.350  1.00  0.00     0.115 C 
BRANCH  41  42
HETATM   42  C21 UNL     1     -17.279  46.112 -25.344  1.00  0.00    -0.013 C 
HETATM   43  C22 UNL     1     -18.024  45.049 -26.154  1.00  0.00     0.010 C 
HETATM   44  C23 UNL     1     -18.294  46.978 -24.592  1.00  0.00     0.010 C 
ENDBRANCH  41  42
ENDBRANCH  39  41
ENDBRANCH  38  39
ENDBRANCH  12  38
BRANCH  15  45
HETATM   45  C27 UNL     1     -14.653  44.302 -28.424  1.00  0.00     0.128 C 
HETATM   46  C28 UNL     1     -14.890  42.851 -28.081  1.00  0.00     0.091 C 
HETATM   47  O7  UNL     1     -15.615  45.019 -28.713  1.00  0.00    -0.298 OA
ENDBRANCH  15  45
TORSDOF 12
ENDMDL
