MODEL 1
REMARK minimizedAffinity -8.20375156
REMARK CNNscore 0.443152159
REMARK CNNaffinity 6.71804285
REMARK  13 active torsions:
REMARK  status: ('A' for Active; 'I' for Inactive)
REMARK    1  A    between atoms: O1_2  and  C2_3 
REMARK    2  A    between atoms: C12_14  and  C13_15 
REMARK    3  A    between atoms: C13_15  and  C15_17 
REMARK    4  A    between atoms: C15_17  and  C16_18 
REMARK    5  A    between atoms: C17_19  and  C18_20 
REMARK    6  A    between atoms: C18_20  and  O3_23 
REMARK    7  A    between atoms: C28_31  and  O4_32 
REMARK    8  A    between atoms: O4_32  and  C29_33 
REMARK    9  A    between atoms: C30_35  and  C31_36 
REMARK   10  A    between atoms: C31_36  and  O6_37 
REMARK   11  A    between atoms: C32_38  and  O7_39 
REMARK   12  A    between atoms: C33_40  and  O8_41 
REMARK   13  A    between atoms: C34_42  and  O9_43 
ROOT
HETATM    1  C2  UNL     1       2.881  10.383  20.635  1.00  0.00     0.270 C 
HETATM    2  O2  UNL     1       2.648   9.960  19.271  1.00  0.00    -0.344 OA
HETATM    3  C3  UNL     1       2.469  11.141  18.449  1.00  0.00     0.095 C 
HETATM    4  C4  UNL     1       3.887  11.485  18.017  1.00  0.00     0.008 C 
HETATM    5  C5  UNL     1       4.739  12.139  18.815  1.00  0.00    -0.021 C 
HETATM    6  C6  UNL     1       4.373  12.487  20.234  1.00  0.00     0.030 C 
HETATM    7  C7  UNL     1       2.921  11.954  20.643  1.00  0.00     0.024 C 
HETATM    8  C8  UNL     1       2.516  12.473  22.059  1.00  0.00     0.016 C 
HETATM    9  C9  UNL     1       2.865  13.931  22.407  1.00  0.00     0.011 C 
HETATM   10  C10 UNL     1       4.340  14.229  22.114  1.00  0.00    -0.032 C 
HETATM   11  C11 UNL     1       5.202  13.315  23.038  1.00  0.00     0.016 C 
HETATM   12  C12 UNL     1       4.794  15.709  22.261  1.00  0.00    -0.002 C 
HETATM   13  C21 UNL     1       6.072  15.776  21.378  1.00  0.00     0.006 C 
HETATM   14  C22 UNL     1       6.039  14.528  20.454  1.00  0.00     0.011 C 
HETATM   15  C23 UNL     1       4.594  13.995  20.574  1.00  0.00    -0.029 C 
HETATM   16  C24 UNL     1       3.736  14.899  19.625  1.00  0.00     0.016 C 
HETATM   17  C25 UNL     1       1.908  12.162  19.474  1.00  0.00     0.039 C 
HETATM   18  C26 UNL     1       0.433  11.877  19.863  1.00  0.00     0.011 C 
HETATM   19  C27 UNL     1      -0.262  10.810  19.031  1.00  0.00     0.033 C 
HETATM   20  C28 UNL     1       0.012  11.033  17.555  1.00  0.00     0.136 C 
HETATM   21  C35 UNL     1       1.530  10.848  17.207  1.00  0.00     0.014 C 
HETATM   22  C36 UNL     1       1.793  11.831  16.029  1.00  0.00     0.021 C 
HETATM   23  C37 UNL     1       1.807   9.420  16.672  1.00  0.00     0.021 C 
ENDROOT
BRANCH  20  24
HETATM   24  O4  UNL     1      -0.788  10.181  16.721  1.00  0.00    -0.352 OA
BRANCH  24  25
HETATM   25  C29 UNL     1      -1.343  10.815  15.570  1.00  0.00     0.292 C 
HETATM   26  O5  UNL     1      -2.533  11.531  15.900  1.00  0.00    -0.348 OA
HETATM   27  C30 UNL     1      -3.599  10.729  16.437  1.00  0.00     0.179 C 
HETATM   28  C32 UNL     1      -3.580   9.265  15.963  1.00  0.00     0.180 C 
HETATM   29  C33 UNL     1      -3.064   9.231  14.532  1.00  0.00     0.183 C 
HETATM   30  C34 UNL     1      -1.625   9.761  14.469  1.00  0.00     0.204 C 
BRANCH  27  31
HETATM   31  C31 UNL     1      -3.662  10.803  17.969  1.00  0.00     0.198 C 
BRANCH  31  32
HETATM   32  O6  UNL     1      -3.271   9.581  18.590  1.00  0.00    -0.398 OA
HETATM   33  H48 UNL     1      -2.688   9.095  17.968  1.00  0.00     0.209 HD
ENDBRANCH  31  32
ENDBRANCH  27  31
BRANCH  28  34
HETATM   34  O7  UNL     1      -4.898   8.708  16.038  1.00  0.00    -0.390 OA
HETATM   35  H50 UNL     1      -4.846   7.884  15.504  1.00  0.00     0.210 HD
ENDBRANCH  28  34
BRANCH  29  36
HETATM   36  O8  UNL     1      -3.131   7.884  14.035  1.00  0.00    -0.390 OA
HETATM   37  H52 UNL     1      -2.707   7.897  13.156  1.00  0.00     0.210 HD
ENDBRANCH  29  36
BRANCH  30  38
HETATM   38  O9  UNL     1      -1.432  10.310  13.148  1.00  0.00    -0.388 OA
HETATM   39  H54 UNL     1      -1.929  11.147  13.104  1.00  0.00     0.210 HD
ENDBRANCH  30  38
ENDBRANCH  24  25
ENDBRANCH  20  24
BRANCH   1  40
HETATM   40  O1  UNL     1       4.059   9.819  21.197  1.00  0.00    -0.365 OA
HETATM   41  C1  UNL     1       3.809   9.216  22.458  1.00  0.00     0.204 C 
ENDBRANCH   1  40
BRANCH  12  42
HETATM   42  C13 UNL     1       4.823  16.432  23.639  1.00  0.00    -0.010 C 
HETATM   43  C14 UNL     1       3.374  16.619  24.138  1.00  0.00     0.010 C 
BRANCH  42  44
HETATM   44  C15 UNL     1       5.601  17.753  23.851  1.00  0.00     0.031 C 
BRANCH  44  45
HETATM   45  C16 UNL     1       6.804  17.719  24.748  1.00  0.00    -0.027 C 
HETATM   46  C17 UNL     1       7.601  16.647  24.899  1.00  0.00     0.006 C 
BRANCH  46  47
HETATM   47  C18 UNL     1       8.827  16.538  25.771  1.00  0.00     0.068 C 
HETATM   48  C19 UNL     1       8.569  16.554  27.282  1.00  0.00     0.050 C 
HETATM   49  C20 UNL     1       9.826  17.634  25.405  1.00  0.00     0.050 C 
BRANCH  47  50
HETATM   50  O3  UNL     1       9.434  15.284  25.454  1.00  0.00    -0.387 OA
HETATM   51  H30 UNL     1       8.764  14.597  25.618  1.00  0.00     0.211 HD
ENDBRANCH  47  50
ENDBRANCH  46  47
ENDBRANCH  44  45
ENDBRANCH  42  44
ENDBRANCH  12  42
TORSDOF 13
ENDMDL
MODEL 2
REMARK minimizedAffinity -9.34646225
REMARK CNNscore 0.421563566
REMARK CNNaffinity 7.30359268
REMARK  13 active torsions:
REMARK  status: ('A' for Active; 'I' for Inactive)
REMARK    1  A    between atoms: O1_2  and  C2_3 
REMARK    2  A    between atoms: C12_14  and  C13_15 
REMARK    3  A    between atoms: C13_15  and  C15_17 
REMARK    4  A    between atoms: C15_17  and  C16_18 
REMARK    5  A    between atoms: C17_19  and  C18_20 
REMARK    6  A    between atoms: C18_20  and  O3_23 
REMARK    7  A    between atoms: C28_31  and  O4_32 
REMARK    8  A    between atoms: O4_32  and  C29_33 
REMARK    9  A    between atoms: C30_35  and  C31_36 
REMARK   10  A    between atoms: C31_36  and  O6_37 
REMARK   11  A    between atoms: C32_38  and  O7_39 
REMARK   12  A    between atoms: C33_40  and  O8_41 
REMARK   13  A    between atoms: C34_42  and  O9_43 
ROOT
HETATM    1  C2  UNL     1      -1.480   9.725  13.960  1.00  0.00     0.270 C 
HETATM    2  O2  UNL     1      -2.554   8.845  13.553  1.00  0.00    -0.344 OA
HETATM    3  C3  UNL     1      -3.114   8.226  14.739  1.00  0.00     0.095 C 
HETATM    4  C4  UNL     1      -4.190   9.211  15.171  1.00  0.00     0.008 C 
HETATM    5  C5  UNL     1      -3.906  10.326  15.856  1.00  0.00    -0.021 C 
HETATM    6  C6  UNL     1      -2.484  10.722  16.153  1.00  0.00     0.030 C 
HETATM    7  C7  UNL     1      -1.419   9.703  15.529  1.00  0.00     0.024 C 
HETATM    8  C8  UNL     1       0.029  10.058  15.995  1.00  0.00     0.016 C 
HETATM    9  C9  UNL     1       0.219  10.480  17.463  1.00  0.00     0.011 C 
HETATM   10  C10 UNL     1      -0.769  11.586  17.851  1.00  0.00    -0.032 C 
HETATM   11  C11 UNL     1      -0.456  12.833  16.968  1.00  0.00     0.016 C 
HETATM   12  C12 UNL     1      -0.804  11.994  19.351  1.00  0.00    -0.002 C 
HETATM   13  C21 UNL     1      -2.210  12.639  19.508  1.00  0.00     0.006 C 
HETATM   14  C22 UNL     1      -3.046  12.187  18.281  1.00  0.00     0.011 C 
HETATM   15  C23 UNL     1      -2.233  11.028  17.664  1.00  0.00    -0.029 C 
HETATM   16  C24 UNL     1      -2.570   9.771  18.537  1.00  0.00     0.016 C 
HETATM   17  C25 UNL     1      -1.899   8.229  15.704  1.00  0.00     0.039 C 
HETATM   18  C26 UNL     1      -0.828   7.171  15.328  1.00  0.00     0.011 C 
HETATM   19  C27 UNL     1      -1.241   6.190  14.241  1.00  0.00     0.033 C 
HETATM   20  C28 UNL     1      -2.638   5.663  14.510  1.00  0.00     0.136 C 
HETATM   21  C35 UNL     1      -3.718   6.797  14.419  1.00  0.00     0.014 C 
HETATM   22  C36 UNL     1      -4.818   6.384  15.440  1.00  0.00     0.021 C 
HETATM   23  C37 UNL     1      -4.386   6.817  13.020  1.00  0.00     0.021 C 
ENDROOT
BRANCH  20  24
HETATM   24  O4  UNL     1      -2.989   4.583  13.631  1.00  0.00    -0.352 OA
BRANCH  24  25
HETATM   25  C29 UNL     1      -2.660   4.792  12.260  1.00  0.00     0.292 C 
HETATM   26  O5  UNL     1      -3.747   4.430  11.408  1.00  0.00    -0.348 OA
HETATM   27  C30 UNL     1      -4.155   3.053  11.490  1.00  0.00     0.179 C 
HETATM   28  C32 UNL     1      -3.028   2.090  11.902  1.00  0.00     0.180 C 
HETATM   29  C33 UNL     1      -1.720   2.605  11.318  1.00  0.00     0.183 C 
HETATM   30  C34 UNL     1      -1.386   3.988  11.894  1.00  0.00     0.204 C 
BRANCH  27  31
HETATM   31  C31 UNL     1      -5.384   2.868  12.392  1.00  0.00     0.198 C 
BRANCH  31  32
HETATM   32  O6  UNL     1      -5.912   4.109  12.855  1.00  0.00    -0.398 OA
HETATM   33  H48 UNL     1      -5.648   4.809  12.220  1.00  0.00     0.209 HD
ENDBRANCH  31  32
ENDBRANCH  27  31
BRANCH  28  34
HETATM   34  O7  UNL     1      -3.310   0.770  11.420  1.00  0.00    -0.390 OA
HETATM   35  H50 UNL     1      -2.456   0.290  11.507  1.00  0.00     0.210 HD
ENDBRANCH  28  34
BRANCH  29  36
HETATM   36  O8  UNL     1      -0.670   1.667  11.607  1.00  0.00    -0.390 OA
HETATM   37  H52 UNL     1       0.158   2.082  11.296  1.00  0.00     0.210 HD
ENDBRANCH  29  36
BRANCH  30  38
HETATM   38  O9  UNL     1      -0.590   4.678  10.906  1.00  0.00    -0.388 OA
HETATM   39  H54 UNL     1      -1.184   4.931  10.176  1.00  0.00     0.210 HD
ENDBRANCH  30  38
ENDBRANCH  24  25
ENDBRANCH  20  24
BRANCH   1  40
HETATM   40  O1  UNL     1      -1.622  11.045  13.452  1.00  0.00    -0.365 OA
HETATM   41  C1  UNL     1      -1.153  12.020  14.371  1.00  0.00     0.204 C 
ENDBRANCH   1  40
BRANCH  12  42
HETATM   42  C13 UNL     1       0.400  12.695  20.045  1.00  0.00    -0.010 C 
HETATM   43  C14 UNL     1       0.143  14.217  20.080  1.00  0.00     0.010 C 
BRANCH  42  44
HETATM   44  C15 UNL     1       1.860  12.443  19.598  1.00  0.00     0.031 C 
BRANCH  44  45
HETATM   45  C16 UNL     1       2.672  11.457  20.386  1.00  0.00    -0.027 C 
HETATM   46  C17 UNL     1       2.173  10.683  21.365  1.00  0.00     0.006 C 
BRANCH  46  47
HETATM   47  C18 UNL     1       2.920   9.666  22.194  1.00  0.00     0.068 C 
HETATM   48  C19 UNL     1       2.211   8.321  22.387  1.00  0.00     0.050 C 
HETATM   49  C20 UNL     1       3.278  10.264  23.553  1.00  0.00     0.050 C 
BRANCH  47  50
HETATM   50  O3  UNL     1       4.144   9.409  21.505  1.00  0.00    -0.387 OA
HETATM   51  H30 UNL     1       3.906   9.101  20.612  1.00  0.00     0.211 HD
ENDBRANCH  47  50
ENDBRANCH  46  47
ENDBRANCH  44  45
ENDBRANCH  42  44
ENDBRANCH  12  42
TORSDOF 13
ENDMDL
MODEL 3
REMARK minimizedAffinity -7.60865498
REMARK CNNscore 0.404407769
REMARK CNNaffinity 7.0132103
REMARK  13 active torsions:
REMARK  status: ('A' for Active; 'I' for Inactive)
REMARK    1  A    between atoms: O1_2  and  C2_3 
REMARK    2  A    between atoms: C12_14  and  C13_15 
REMARK    3  A    between atoms: C13_15  and  C15_17 
REMARK    4  A    between atoms: C15_17  and  C16_18 
REMARK    5  A    between atoms: C17_19  and  C18_20 
REMARK    6  A    between atoms: C18_20  and  O3_23 
REMARK    7  A    between atoms: C28_31  and  O4_32 
REMARK    8  A    between atoms: O4_32  and  C29_33 
REMARK    9  A    between atoms: C30_35  and  C31_36 
REMARK   10  A    between atoms: C31_36  and  O6_37 
REMARK   11  A    between atoms: C32_38  and  O7_39 
REMARK   12  A    between atoms: C33_40  and  O8_41 
REMARK   13  A    between atoms: C34_42  and  O9_43 
ROOT
HETATM    1  C2  UNL     1      -2.131   6.409  12.327  1.00  0.00     0.270 C 
HETATM    2  O2  UNL     1      -0.841   6.175  12.939  1.00  0.00    -0.344 OA
HETATM    3  C3  UNL     1      -0.819   6.838  14.228  1.00  0.00     0.095 C 
HETATM    4  C4  UNL     1      -1.371   5.781  15.174  1.00  0.00     0.008 C 
HETATM    5  C5  UNL     1      -2.683   5.542  15.291  1.00  0.00    -0.021 C 
HETATM    6  C6  UNL     1      -3.688   6.242  14.414  1.00  0.00     0.030 C 
HETATM    7  C7  UNL     1      -3.001   7.221  13.352  1.00  0.00     0.024 C 
HETATM    8  C8  UNL     1      -4.078   8.044  12.576  1.00  0.00     0.016 C 
HETATM    9  C9  UNL     1      -5.271   8.588  13.382  1.00  0.00     0.011 C 
HETATM   10  C10 UNL     1      -5.924   7.481  14.217  1.00  0.00    -0.032 C 
HETATM   11  C11 UNL     1      -6.482   6.409  13.232  1.00  0.00     0.016 C 
HETATM   12  C12 UNL     1      -7.037   7.921  15.209  1.00  0.00    -0.002 C 
HETATM   13  C21 UNL     1      -7.060   6.766  16.249  1.00  0.00     0.006 C 
HETATM   14  C22 UNL     1      -5.728   5.988  16.077  1.00  0.00     0.011 C 
HETATM   15  C23 UNL     1      -4.842   6.918  15.220  1.00  0.00    -0.029 C 
HETATM   16  C24 UNL     1      -4.262   7.978  16.218  1.00  0.00     0.016 C 
HETATM   17  C25 UNL     1      -1.819   8.002  14.006  1.00  0.00     0.039 C 
HETATM   18  C26 UNL     1      -1.242   9.131  13.112  1.00  0.00     0.011 C 
HETATM   19  C27 UNL     1       0.243   9.013  12.798  1.00  0.00     0.033 C 
HETATM   20  C28 UNL     1       1.023   8.689  14.058  1.00  0.00     0.136 C 
HETATM   21  C35 UNL     1       0.649   7.278  14.632  1.00  0.00     0.014 C 
HETATM   22  C36 UNL     1       0.818   7.415  16.172  1.00  0.00     0.021 C 
HETATM   23  C37 UNL     1       1.661   6.201  14.161  1.00  0.00     0.021 C 
ENDROOT
BRANCH  20  24
HETATM   24  O4  UNL     1       2.442   8.773  13.853  1.00  0.00    -0.352 OA
BRANCH  24  25
HETATM   25  C29 UNL     1       3.230   8.604  15.030  1.00  0.00     0.292 C 
HETATM   26  O5  UNL     1       3.332   9.826  15.761  1.00  0.00    -0.348 OA
HETATM   27  C30 UNL     1       3.948  10.914  15.050  1.00  0.00     0.179 C 
HETATM   28  C32 UNL     1       4.956  10.468  13.976  1.00  0.00     0.180 C 
HETATM   29  C33 UNL     1       5.653   9.207  14.466  1.00  0.00     0.183 C 
HETATM   30  C34 UNL     1       4.636   8.072  14.653  1.00  0.00     0.204 C 
BRANCH  27  31
HETATM   31  C31 UNL     1       2.910  11.876  14.454  1.00  0.00     0.198 C 
BRANCH  31  32
HETATM   32  O6  UNL     1       2.857  11.807  13.031  1.00  0.00    -0.398 OA
HETATM   33  H48 UNL     1       3.186  10.925  12.755  1.00  0.00     0.209 HD
ENDBRANCH  31  32
ENDBRANCH  27  31
BRANCH  28  34
HETATM   34  O7  UNL     1       5.909  11.511  13.735  1.00  0.00    -0.390 OA
HETATM   35  H50 UNL     1       6.635  11.069  13.239  1.00  0.00     0.210 HD
ENDBRANCH  28  34
BRANCH  29  36
HETATM   36  O8  UNL     1       6.669   8.829  13.523  1.00  0.00    -0.390 OA
HETATM   37  H52 UNL     1       7.021   7.972  13.831  1.00  0.00     0.210 HD
ENDBRANCH  29  36
BRANCH  30  38
HETATM   38  O9  UNL     1       5.162   7.195  15.672  1.00  0.00    -0.388 OA
HETATM   39  H54 UNL     1       5.071   7.653  16.527  1.00  0.00     0.210 HD
ENDBRANCH  30  38
ENDBRANCH  24  25
ENDBRANCH  20  24
BRANCH   1  40
HETATM   40  O1  UNL     1      -2.774   5.210  11.915  1.00  0.00    -0.365 OA
HETATM   41  C1  UNL     1      -1.867   4.303  11.306  1.00  0.00     0.204 C 
ENDBRANCH   1  40
BRANCH  12  42
HETATM   42  C13 UNL     1      -8.402   8.488  14.721  1.00  0.00    -0.010 C 
HETATM   43  C14 UNL     1      -8.717   9.781  15.503  1.00  0.00     0.010 C 
BRANCH  42  44
HETATM   44  C15 UNL     1      -9.677   7.612  14.666  1.00  0.00     0.031 C 
BRANCH  44  45
HETATM   45  C16 UNL     1     -10.987   8.301  14.419  1.00  0.00    -0.027 C 
HETATM   46  C17 UNL     1     -11.463   8.600  13.198  1.00  0.00     0.006 C 
BRANCH  46  47
HETATM   47  C18 UNL     1     -12.769   9.280  12.869  1.00  0.00     0.068 C 
HETATM   48  C19 UNL     1     -13.195  10.395  13.831  1.00  0.00     0.050 C 
HETATM   49  C20 UNL     1     -13.883   8.241  12.754  1.00  0.00     0.050 C 
BRANCH  47  50
HETATM   50  O3  UNL     1     -12.600   9.869  11.579  1.00  0.00    -0.387 OA
HETATM   51  H30 UNL     1     -11.839  10.473  11.642  1.00  0.00     0.211 HD
ENDBRANCH  47  50
ENDBRANCH  46  47
ENDBRANCH  44  45
ENDBRANCH  42  44
ENDBRANCH  12  42
TORSDOF 13
ENDMDL
MODEL 4
REMARK minimizedAffinity -8.2679081
REMARK CNNscore 0.369740963
REMARK CNNaffinity 7.06591415
REMARK  13 active torsions:
REMARK  status: ('A' for Active; 'I' for Inactive)
REMARK    1  A    between atoms: O1_2  and  C2_3 
REMARK    2  A    between atoms: C12_14  and  C13_15 
REMARK    3  A    between atoms: C13_15  and  C15_17 
REMARK    4  A    between atoms: C15_17  and  C16_18 
REMARK    5  A    between atoms: C17_19  and  C18_20 
REMARK    6  A    between atoms: C18_20  and  O3_23 
REMARK    7  A    between atoms: C28_31  and  O4_32 
REMARK    8  A    between atoms: O4_32  and  C29_33 
REMARK    9  A    between atoms: C30_35  and  C31_36 
REMARK   10  A    between atoms: C31_36  and  O6_37 
REMARK   11  A    between atoms: C32_38  and  O7_39 
REMARK   12  A    between atoms: C33_40  and  O8_41 
REMARK   13  A    between atoms: C34_42  and  O9_43 
ROOT
HETATM    1  C2  UNL     1      -3.496   5.453  12.478  1.00  0.00     0.270 C 
HETATM    2  O2  UNL     1      -2.141   5.295  12.960  1.00  0.00    -0.344 OA
HETATM    3  C3  UNL     1      -1.914   6.259  14.018  1.00  0.00     0.095 C 
HETATM    4  C4  UNL     1      -2.361   5.517  15.269  1.00  0.00     0.008 C 
HETATM    5  C5  UNL     1      -3.650   5.406  15.612  1.00  0.00    -0.021 C 
HETATM    6  C6  UNL     1      -4.746   5.927  14.719  1.00  0.00     0.030 C 
HETATM    7  C7  UNL     1      -4.185   6.556  13.360  1.00  0.00     0.024 C 
HETATM    8  C8  UNL     1      -5.334   7.227  12.542  1.00  0.00     0.016 C 
HETATM    9  C9  UNL     1      -6.382   8.037  13.324  1.00  0.00     0.011 C 
HETATM   10  C10 UNL     1      -6.946   7.225  14.496  1.00  0.00    -0.032 C 
HETATM   11  C11 UNL     1      -7.673   5.979  13.904  1.00  0.00     0.016 C 
HETATM   12  C12 UNL     1      -7.892   7.977  15.473  1.00  0.00    -0.002 C 
HETATM   13  C21 UNL     1      -7.805   7.127  16.773  1.00  0.00     0.006 C 
HETATM   14  C22 UNL     1      -6.536   6.242  16.640  1.00  0.00     0.011 C 
HETATM   15  C23 UNL     1      -5.752   6.862  15.463  1.00  0.00    -0.029 C 
HETATM   16  C24 UNL     1      -5.001   8.098  16.068  1.00  0.00     0.016 C 
HETATM   17  C25 UNL     1      -2.898   7.395  13.631  1.00  0.00     0.039 C 
HETATM   18  C26 UNL     1      -2.416   8.219  12.407  1.00  0.00     0.011 C 
HETATM   19  C27 UNL     1      -0.996   7.924  11.946  1.00  0.00     0.033 C 
HETATM   20  C28 UNL     1      -0.056   7.877  13.136  1.00  0.00     0.136 C 
HETATM   21  C35 UNL     1      -0.391   6.687  14.100  1.00  0.00     0.014 C 
HETATM   22  C36 UNL     1      -0.001   7.198  15.517  1.00  0.00     0.021 C 
HETATM   23  C37 UNL     1       0.509   5.460  13.801  1.00  0.00     0.021 C 
ENDROOT
BRANCH  20  24
HETATM   24  O4  UNL     1       1.322   7.810  12.736  1.00  0.00    -0.352 OA
BRANCH  24  25
HETATM   25  C29 UNL     1       1.969   9.073  12.593  1.00  0.00     0.292 C 
HETATM   26  O5  UNL     1       3.080   8.984  11.701  1.00  0.00    -0.348 OA
HETATM   27  C30 UNL     1       4.117   8.074  12.106  1.00  0.00     0.179 C 
HETATM   28  C32 UNL     1       4.221   7.881  13.628  1.00  0.00     0.180 C 
HETATM   29  C33 UNL     1       3.869   9.199  14.305  1.00  0.00     0.183 C 
HETATM   30  C34 UNL     1       2.421   9.595  13.981  1.00  0.00     0.204 C 
BRANCH  27  31
HETATM   31  C31 UNL     1       4.007   6.719  11.393  1.00  0.00     0.198 C 
BRANCH  31  32
HETATM   32  O6  UNL     1       5.114   6.465  10.531  1.00  0.00    -0.398 OA
HETATM   33  H48 UNL     1       5.878   6.992  10.850  1.00  0.00     0.209 HD
ENDBRANCH  31  32
ENDBRANCH  27  31
BRANCH  28  34
HETATM   34  O7  UNL     1       5.548   7.472  13.982  1.00  0.00    -0.390 OA
HETATM   35  H50 UNL     1       5.595   7.607  14.955  1.00  0.00     0.210 HD
ENDBRANCH  28  34
BRANCH  29  36
HETATM   36  O8  UNL     1       4.055   9.069  15.723  1.00  0.00    -0.390 OA
HETATM   37  H52 UNL     1       3.730   9.902  16.117  1.00  0.00     0.210 HD
ENDBRANCH  29  36
BRANCH  30  38
HETATM   38  O9  UNL     1       2.349  11.035  14.054  1.00  0.00    -0.388 OA
HETATM   39  H54 UNL     1       2.807  11.391  13.271  1.00  0.00     0.210 HD
ENDBRANCH  30  38
ENDBRANCH  24  25
ENDBRANCH  20  24
BRANCH   1  40
HETATM   40  O1  UNL     1      -4.230   4.236  12.480  1.00  0.00    -0.365 OA
HETATM   41  C1  UNL     1      -4.221   3.610  11.206  1.00  0.00     0.204 C 
ENDBRANCH   1  40
BRANCH  12  42
HETATM   42  C13 UNL     1      -9.293   8.493  15.035  1.00  0.00    -0.010 C 
HETATM   43  C14 UNL     1      -9.722   9.640  15.974  1.00  0.00     0.010 C 
BRANCH  42  44
HETATM   44  C15 UNL     1     -10.491   7.533  14.836  1.00  0.00     0.031 C 
BRANCH  44  45
HETATM   45  C16 UNL     1     -11.649   8.023  14.017  1.00  0.00    -0.027 C 
HETATM   46  C17 UNL     1     -11.774   9.283  13.566  1.00  0.00     0.006 C 
BRANCH  46  47
HETATM   47  C18 UNL     1     -12.900   9.847  12.733  1.00  0.00     0.068 C 
HETATM   48  C19 UNL     1     -13.399  11.234  13.149  1.00  0.00     0.050 C 
HETATM   49  C20 UNL     1     -14.068   8.863  12.702  1.00  0.00     0.050 C 
BRANCH  47  50
HETATM   50  O3  UNL     1     -12.397   9.954  11.400  1.00  0.00    -0.387 OA
HETATM   51  H30 UNL     1     -11.606  10.522  11.442  1.00  0.00     0.211 HD
ENDBRANCH  47  50
ENDBRANCH  46  47
ENDBRANCH  44  45
ENDBRANCH  42  44
ENDBRANCH  12  42
TORSDOF 13
ENDMDL
MODEL 5
REMARK minimizedAffinity -7.72444773
REMARK CNNscore 0.348437876
REMARK CNNaffinity 7.04159689
REMARK  13 active torsions:
REMARK  status: ('A' for Active; 'I' for Inactive)
REMARK    1  A    between atoms: O1_2  and  C2_3 
REMARK    2  A    between atoms: C12_14  and  C13_15 
REMARK    3  A    between atoms: C13_15  and  C15_17 
REMARK    4  A    between atoms: C15_17  and  C16_18 
REMARK    5  A    between atoms: C17_19  and  C18_20 
REMARK    6  A    between atoms: C18_20  and  O3_23 
REMARK    7  A    between atoms: C28_31  and  O4_32 
REMARK    8  A    between atoms: O4_32  and  C29_33 
REMARK    9  A    between atoms: C30_35  and  C31_36 
REMARK   10  A    between atoms: C31_36  and  O6_37 
REMARK   11  A    between atoms: C32_38  and  O7_39 
REMARK   12  A    between atoms: C33_40  and  O8_41 
REMARK   13  A    between atoms: C34_42  and  O9_43 
ROOT
HETATM    1  C2  UNL     1      -3.034   6.217  12.407  1.00  0.00     0.270 C 
HETATM    2  O2  UNL     1      -1.709   6.077  12.971  1.00  0.00    -0.344 OA
HETATM    3  C3  UNL     1      -1.663   6.810  14.221  1.00  0.00     0.095 C 
HETATM    4  C4  UNL     1      -2.123   5.782  15.245  1.00  0.00     0.008 C 
HETATM    5  C5  UNL     1      -3.415   5.490  15.435  1.00  0.00    -0.021 C 
HETATM    6  C6  UNL     1      -4.490   6.093  14.568  1.00  0.00     0.030 C 
HETATM    7  C7  UNL     1      -3.897   7.043  13.426  1.00  0.00     0.024 C 
HETATM    8  C8  UNL     1      -5.045   7.772  12.658  1.00  0.00     0.016 C 
HETATM    9  C9  UNL     1      -6.228   8.304  13.487  1.00  0.00     0.011 C 
HETATM   10  C10 UNL     1      -6.789   7.215  14.409  1.00  0.00    -0.032 C 
HETATM   11  C11 UNL     1      -7.337   6.067  13.508  1.00  0.00     0.016 C 
HETATM   12  C12 UNL     1      -7.879   7.657  15.426  1.00  0.00    -0.002 C 
HETATM   13  C21 UNL     1      -7.801   6.561  16.525  1.00  0.00     0.006 C 
HETATM   14  C22 UNL     1      -6.441   5.837  16.334  1.00  0.00     0.011 C 
HETATM   15  C23 UNL     1      -5.640   6.759  15.389  1.00  0.00    -0.029 C 
HETATM   16  C24 UNL     1      -5.069   7.897  16.303  1.00  0.00     0.016 C 
HETATM   17  C25 UNL     1      -2.728   7.913  13.984  1.00  0.00     0.039 C 
HETATM   18  C26 UNL     1      -2.245   9.017  13.006  1.00  0.00     0.011 C 
HETATM   19  C27 UNL     1      -0.771   8.950  12.632  1.00  0.00     0.033 C 
HETATM   20  C28 UNL     1       0.077   8.732  13.870  1.00  0.00     0.136 C 
HETATM   21  C35 UNL     1      -0.203   7.338  14.534  1.00  0.00     0.014 C 
HETATM   22  C36 UNL     1       0.025   7.567  16.056  1.00  0.00     0.021 C 
HETATM   23  C37 UNL     1       0.839   6.286  14.075  1.00  0.00     0.021 C 
ENDROOT
BRANCH  20  24
HETATM   24  O4  UNL     1       1.480   8.870  13.597  1.00  0.00    -0.352 OA
BRANCH  24  25
HETATM   25  C29 UNL     1       1.995  10.191  13.748  1.00  0.00     0.292 C 
HETATM   26  O5  UNL     1       3.348  10.167  14.204  1.00  0.00    -0.348 OA
HETATM   27  C30 UNL     1       3.551   9.537  15.481  1.00  0.00     0.179 C 
HETATM   28  C32 UNL     1       2.330   9.608  16.415  1.00  0.00     0.180 C 
HETATM   29  C33 UNL     1       1.614  10.928  16.170  1.00  0.00     0.183 C 
HETATM   30  C34 UNL     1       1.102  10.998  14.725  1.00  0.00     0.204 C 
BRANCH  27  31
HETATM   31  C31 UNL     1       4.043   8.090  15.339  1.00  0.00     0.198 C 
BRANCH  31  32
HETATM   32  O6  UNL     1       5.399   7.932  15.748  1.00  0.00    -0.398 OA
HETATM   33  H48 UNL     1       5.614   8.652  16.380  1.00  0.00     0.209 HD
ENDBRANCH  31  32
ENDBRANCH  27  31
BRANCH  28  34
HETATM   34  O7  UNL     1       2.751   9.508  17.781  1.00  0.00    -0.390 OA
HETATM   35  H50 UNL     1       1.969   9.801  18.300  1.00  0.00     0.210 HD
ENDBRANCH  28  34
BRANCH  29  36
HETATM   36  O8  UNL     1       0.528  11.059  17.101  1.00  0.00    -0.390 OA
HETATM   37  H52 UNL     1       0.047  11.870  16.845  1.00  0.00     0.210 HD
ENDBRANCH  29  36
BRANCH  30  38
HETATM   38  O9  UNL     1       1.047  12.394  14.361  1.00  0.00    -0.388 OA
HETATM   39  H54 UNL     1       1.963  12.700  14.237  1.00  0.00     0.210 HD
ENDBRANCH  30  38
ENDBRANCH  24  25
ENDBRANCH  20  24
BRANCH   1  40
HETATM   40  O1  UNL     1      -3.635   4.970  12.089  1.00  0.00    -0.365 OA
HETATM   41  C1  UNL     1      -2.683   4.025  11.622  1.00  0.00     0.204 C 
ENDBRANCH   1  40
BRANCH  12  42
HETATM   42  C13 UNL     1      -9.290   8.133  14.971  1.00  0.00    -0.010 C 
HETATM   43  C14 UNL     1      -9.838   9.137  16.007  1.00  0.00     0.010 C 
BRANCH  42  44
HETATM   44  C15 UNL     1     -10.410   7.131  14.603  1.00  0.00     0.031 C 
BRANCH  44  45
HETATM   45  C16 UNL     1     -11.781   7.681  14.343  1.00  0.00    -0.027 C 
HETATM   46  C17 UNL     1     -12.087   8.486  13.311  1.00  0.00     0.006 C 
BRANCH  46  47
HETATM   47  C18 UNL     1     -13.438   9.070  12.979  1.00  0.00     0.068 C 
HETATM   48  C19 UNL     1     -14.001  10.060  14.005  1.00  0.00     0.050 C 
HETATM   49  C20 UNL     1     -14.446   7.948  12.735  1.00  0.00     0.050 C 
BRANCH  47  50
HETATM   50  O3  UNL     1     -13.278   9.776  11.747  1.00  0.00    -0.387 OA
HETATM   51  H30 UNL     1     -12.579  10.439  11.891  1.00  0.00     0.211 HD
ENDBRANCH  47  50
ENDBRANCH  46  47
ENDBRANCH  44  45
ENDBRANCH  42  44
ENDBRANCH  12  42
TORSDOF 13
ENDMDL
MODEL 6
REMARK minimizedAffinity -7.95006037
REMARK CNNscore 0.332600772
REMARK CNNaffinity 7.01583242
REMARK  13 active torsions:
REMARK  status: ('A' for Active; 'I' for Inactive)
REMARK    1  A    between atoms: O1_2  and  C2_3 
REMARK    2  A    between atoms: C12_14  and  C13_15 
REMARK    3  A    between atoms: C13_15  and  C15_17 
REMARK    4  A    between atoms: C15_17  and  C16_18 
REMARK    5  A    between atoms: C17_19  and  C18_20 
REMARK    6  A    between atoms: C18_20  and  O3_23 
REMARK    7  A    between atoms: C28_31  and  O4_32 
REMARK    8  A    between atoms: O4_32  and  C29_33 
REMARK    9  A    between atoms: C30_35  and  C31_36 
REMARK   10  A    between atoms: C31_36  and  O6_37 
REMARK   11  A    between atoms: C32_38  and  O7_39 
REMARK   12  A    between atoms: C33_40  and  O8_41 
REMARK   13  A    between atoms: C34_42  and  O9_43 
ROOT
HETATM    1  C2  UNL     1      -1.704   8.620  13.439  1.00  0.00     0.270 C 
HETATM    2  O2  UNL     1      -3.070   8.231  13.162  1.00  0.00    -0.344 OA
HETATM    3  C3  UNL     1      -3.802   8.203  14.413  1.00  0.00     0.095 C 
HETATM    4  C4  UNL     1      -4.317   9.628  14.549  1.00  0.00     0.008 C 
HETATM    5  C5  UNL     1      -3.547  10.628  14.993  1.00  0.00    -0.021 C 
HETATM    6  C6  UNL     1      -2.085  10.418  15.291  1.00  0.00     0.030 C 
HETATM    7  C7  UNL     1      -1.603   8.926  14.977  1.00  0.00     0.024 C 
HETATM    8  C8  UNL     1      -0.130   8.706  15.450  1.00  0.00     0.016 C 
HETATM    9  C9  UNL     1       0.279   9.320  16.801  1.00  0.00     0.011 C 
HETATM   10  C10 UNL     1      -0.104  10.802  16.873  1.00  0.00    -0.032 C 
HETATM   11  C11 UNL     1       0.693  11.553  15.763  1.00  0.00     0.016 C 
HETATM   12  C12 UNL     1       0.098  11.508  18.243  1.00  0.00    -0.002 C 
HETATM   13  C21 UNL     1      -0.873  12.720  18.162  1.00  0.00     0.006 C 
HETATM   14  C22 UNL     1      -1.866  12.417  17.008  1.00  0.00     0.011 C 
HETATM   15  C23 UNL     1      -1.671  10.913  16.713  1.00  0.00    -0.029 C 
HETATM   16  C24 UNL     1      -2.495  10.162  17.814  1.00  0.00     0.016 C 
HETATM   17  C25 UNL     1      -2.676   7.890  15.434  1.00  0.00     0.039 C 
HETATM   18  C26 UNL     1      -2.195   6.416  15.369  1.00  0.00     0.011 C 
HETATM   19  C27 UNL     1      -3.038   5.499  14.495  1.00  0.00     0.033 C 
HETATM   20  C28 UNL     1      -4.513   5.711  14.778  1.00  0.00     0.136 C 
HETATM   21  C35 UNL     1      -4.985   7.151  14.372  1.00  0.00     0.014 C 
HETATM   22  C36 UNL     1      -6.117   7.500  15.381  1.00  0.00     0.021 C 
HETATM   23  C37 UNL     1      -5.626   7.146  12.960  1.00  0.00     0.021 C 
ENDROOT
BRANCH  20  24
HETATM   24  O4  UNL     1      -5.336   4.726  14.133  1.00  0.00    -0.352 OA
BRANCH  24  25
HETATM   25  C29 UNL     1      -5.335   4.782  12.709  1.00  0.00     0.292 C 
HETATM   26  O5  UNL     1      -6.641   5.058  12.203  1.00  0.00    -0.348 OA
HETATM   27  C30 UNL     1      -7.645   4.085  12.539  1.00  0.00     0.179 C 
HETATM   28  C32 UNL     1      -7.091   2.666  12.762  1.00  0.00     0.180 C 
HETATM   29  C33 UNL     1      -5.918   2.455  11.815  1.00  0.00     0.183 C 
HETATM   30  C34 UNL     1      -4.793   3.450  12.128  1.00  0.00     0.204 C 
BRANCH  27  31
HETATM   31  C31 UNL     1      -8.500   4.527  13.736  1.00  0.00     0.198 C 
BRANCH  31  32
HETATM   32  O6  UNL     1      -7.997   4.036  14.976  1.00  0.00    -0.398 OA
HETATM   33  H48 UNL     1      -7.038   3.859  14.869  1.00  0.00     0.209 HD
ENDBRANCH  31  32
ENDBRANCH  27  31
BRANCH  28  34
HETATM   34  O7  UNL     1      -8.117   1.695  12.519  1.00  0.00    -0.390 OA
HETATM   35  H50 UNL     1      -7.634   0.842  12.442  1.00  0.00     0.210 HD
ENDBRANCH  28  34
BRANCH  29  36
HETATM   36  O8  UNL     1      -5.449   1.103  11.935  1.00  0.00    -0.390 OA
HETATM   37  H52 UNL     1      -4.646   1.044  11.383  1.00  0.00     0.210 HD
ENDBRANCH  29  36
BRANCH  30  38
HETATM   38  O9  UNL     1      -4.063   3.666  10.901  1.00  0.00    -0.388 OA
HETATM   39  H54 UNL     1      -4.623   4.212  10.320  1.00  0.00     0.210 HD
ENDBRANCH  30  38
ENDBRANCH  24  25
ENDBRANCH  20  24
BRANCH   1  40
HETATM   40  O1  UNL     1      -1.269   9.717  12.649  1.00  0.00    -0.365 OA
HETATM   41  C1  UNL     1      -0.749   9.296  11.397  1.00  0.00     0.204 C 
ENDBRANCH   1  40
BRANCH  12  42
HETATM   42  C13 UNL     1       1.512  11.748  18.848  1.00  0.00    -0.010 C 
HETATM   43  C14 UNL     1       2.140  12.991  18.179  1.00  0.00     0.010 C 
BRANCH  42  44
HETATM   44  C15 UNL     1       2.574  10.625  18.914  1.00  0.00     0.031 C 
BRANCH  44  45
HETATM   45  C16 UNL     1       3.406  10.523  20.158  1.00  0.00    -0.027 C 
HETATM   46  C17 UNL     1       2.915  10.214  21.370  1.00  0.00     0.006 C 
BRANCH  46  47
HETATM   47  C18 UNL     1       3.686  10.084  22.661  1.00  0.00     0.068 C 
HETATM   48  C19 UNL     1       2.843  10.110  23.940  1.00  0.00     0.050 C 
HETATM   49  C20 UNL     1       4.768  11.160  22.732  1.00  0.00     0.050 C 
BRANCH  47  50
HETATM   50  O3  UNL     1       4.346   8.818  22.609  1.00  0.00    -0.387 OA
HETATM   51  H30 UNL     1       3.654   8.144  22.486  1.00  0.00     0.211 HD
ENDBRANCH  47  50
ENDBRANCH  46  47
ENDBRANCH  44  45
ENDBRANCH  42  44
ENDBRANCH  12  42
TORSDOF 13
ENDMDL
MODEL 7
REMARK minimizedAffinity -8.26875687
REMARK CNNscore 0.315155983
REMARK CNNaffinity 7.40037918
REMARK  13 active torsions:
REMARK  status: ('A' for Active; 'I' for Inactive)
REMARK    1  A    between atoms: O1_2  and  C2_3 
REMARK    2  A    between atoms: C12_14  and  C13_15 
REMARK    3  A    between atoms: C13_15  and  C15_17 
REMARK    4  A    between atoms: C15_17  and  C16_18 
REMARK    5  A    between atoms: C17_19  and  C18_20 
REMARK    6  A    between atoms: C18_20  and  O3_23 
REMARK    7  A    between atoms: C28_31  and  O4_32 
REMARK    8  A    between atoms: O4_32  and  C29_33 
REMARK    9  A    between atoms: C30_35  and  C31_36 
REMARK   10  A    between atoms: C31_36  and  O6_37 
REMARK   11  A    between atoms: C32_38  and  O7_39 
REMARK   12  A    between atoms: C33_40  and  O8_41 
REMARK   13  A    between atoms: C34_42  and  O9_43 
ROOT
HETATM    1  C2  UNL     1      -2.280   4.902  14.682  1.00  0.00     0.270 C 
HETATM    2  O2  UNL     1      -1.086   5.715  14.743  1.00  0.00    -0.344 OA
HETATM    3  C3  UNL     1      -1.316   6.927  13.980  1.00  0.00     0.095 C 
HETATM    4  C4  UNL     1      -1.920   7.876  15.005  1.00  0.00     0.008 C 
HETATM    5  C5  UNL     1      -3.211   7.822  15.357  1.00  0.00    -0.021 C 
HETATM    6  C6  UNL     1      -4.122   6.745  14.828  1.00  0.00     0.030 C 
HETATM    7  C7  UNL     1      -3.361   5.709  13.876  1.00  0.00     0.024 C 
HETATM    8  C8  UNL     1      -4.369   4.710  13.223  1.00  0.00     0.016 C 
HETATM    9  C9  UNL     1      -5.712   5.278  12.732  1.00  0.00     0.011 C 
HETATM   10  C10 UNL     1      -6.394   6.108  13.825  1.00  0.00    -0.032 C 
HETATM   11  C11 UNL     1      -6.705   5.156  15.020  1.00  0.00     0.016 C 
HETATM   12  C12 UNL     1      -7.679   6.881  13.414  1.00  0.00    -0.002 C 
HETATM   13  C21 UNL     1      -7.767   8.010  14.479  1.00  0.00     0.006 C 
HETATM   14  C22 UNL     1      -6.366   8.109  15.140  1.00  0.00     0.011 C 
HETATM   15  C23 UNL     1      -5.437   7.307  14.201  1.00  0.00    -0.029 C 
HETATM   16  C24 UNL     1      -5.106   8.276  13.015  1.00  0.00     0.016 C 
HETATM   17  C25 UNL     1      -2.362   6.453  12.937  1.00  0.00     0.039 C 
HETATM   18  C26 UNL     1      -1.747   5.551  11.834  1.00  0.00     0.011 C 
HETATM   19  C27 UNL     1      -0.228   5.470  11.836  1.00  0.00     0.033 C 
HETATM   20  C28 UNL     1       0.373   6.855  11.983  1.00  0.00     0.136 C 
HETATM   21  C35 UNL     1       0.031   7.497  13.372  1.00  0.00     0.014 C 
HETATM   22  C36 UNL     1      -0.051   9.027  13.097  1.00  0.00     0.021 C 
HETATM   23  C37 UNL     1       1.188   7.283  14.383  1.00  0.00     0.021 C 
ENDROOT
BRANCH  20  24
HETATM   24  O4  UNL     1       1.795   6.854  11.782  1.00  0.00    -0.352 OA
BRANCH  24  25
HETATM   25  C29 UNL     1       2.331   8.072  11.269  1.00  0.00     0.292 C 
HETATM   26  O5  UNL     1       2.704   7.933   9.898  1.00  0.00    -0.348 OA
HETATM   27  C30 UNL     1       3.712   6.941   9.637  1.00  0.00     0.179 C 
HETATM   28  C32 UNL     1       4.667   6.693  10.817  1.00  0.00     0.180 C 
HETATM   29  C33 UNL     1       4.875   8.010  11.551  1.00  0.00     0.183 C 
HETATM   30  C34 UNL     1       3.544   8.517  12.125  1.00  0.00     0.204 C 
BRANCH  27  31
HETATM   31  C31 UNL     1       3.106   5.620   9.143  1.00  0.00     0.198 C 
BRANCH  31  32
HETATM   32  O6  UNL     1       2.949   4.666  10.191  1.00  0.00    -0.398 OA
HETATM   33  H48 UNL     1       2.888   5.153  11.041  1.00  0.00     0.209 HD
ENDBRANCH  31  32
ENDBRANCH  27  31
BRANCH  28  34
HETATM   34  O7  UNL     1       5.917   6.181  10.337  1.00  0.00    -0.390 OA
HETATM   35  H50 UNL     1       6.531   6.282  11.099  1.00  0.00     0.210 HD
ENDBRANCH  28  34
BRANCH  29  36
HETATM   36  O8  UNL     1       5.841   7.823  12.597  1.00  0.00    -0.390 OA
HETATM   37  H52 UNL     1       5.870   8.664  13.094  1.00  0.00     0.210 HD
ENDBRANCH  29  36
BRANCH  30  38
HETATM   38  O9  UNL     1       3.637   9.956  12.205  1.00  0.00    -0.388 OA
HETATM   39  H54 UNL     1       3.579  10.303  11.296  1.00  0.00     0.210 HD
ENDBRANCH  30  38
ENDBRANCH  24  25
ENDBRANCH  20  24
BRANCH   1  40
HETATM   40  O1  UNL     1      -2.753   4.515  15.965  1.00  0.00    -0.365 OA
HETATM   41  C1  UNL     1      -3.439   5.572  16.619  1.00  0.00     0.204 C 
ENDBRANCH   1  40
BRANCH  12  42
HETATM   42  C13 UNL     1      -8.994   6.148  13.020  1.00  0.00    -0.010 C 
HETATM   43  C14 UNL     1      -9.073   6.051  11.481  1.00  0.00     0.010 C 
BRANCH  42  44
HETATM   44  C15 UNL     1     -10.372   6.593  13.566  1.00  0.00     0.031 C 
BRANCH  44  45
HETATM   45  C16 UNL     1     -10.967   7.855  13.013  1.00  0.00    -0.027 C 
HETATM   46  C17 UNL     1     -12.203   8.295  13.303  1.00  0.00     0.006 C 
BRANCH  46  47
HETATM   47  C18 UNL     1     -12.867   9.552  12.797  1.00  0.00     0.068 C 
HETATM   48  C19 UNL     1     -12.685  10.795  13.674  1.00  0.00     0.050 C 
HETATM   49  C20 UNL     1     -14.355   9.296  12.561  1.00  0.00     0.050 C 
BRANCH  47  50
HETATM   50  O3  UNL     1     -12.276   9.833  11.527  1.00  0.00    -0.387 OA
HETATM   51  H30 UNL     1     -11.317   9.919  11.675  1.00  0.00     0.211 HD
ENDBRANCH  47  50
ENDBRANCH  46  47
ENDBRANCH  44  45
ENDBRANCH  42  44
ENDBRANCH  12  42
TORSDOF 13
ENDMDL
MODEL 8
REMARK minimizedAffinity -8.04188633
REMARK CNNscore 0.288006991
REMARK CNNaffinity 6.35232973
REMARK  13 active torsions:
REMARK  status: ('A' for Active; 'I' for Inactive)
REMARK    1  A    between atoms: O1_2  and  C2_3 
REMARK    2  A    between atoms: C12_14  and  C13_15 
REMARK    3  A    between atoms: C13_15  and  C15_17 
REMARK    4  A    between atoms: C15_17  and  C16_18 
REMARK    5  A    between atoms: C17_19  and  C18_20 
REMARK    6  A    between atoms: C18_20  and  O3_23 
REMARK    7  A    between atoms: C28_31  and  O4_32 
REMARK    8  A    between atoms: O4_32  and  C29_33 
REMARK    9  A    between atoms: C30_35  and  C31_36 
REMARK   10  A    between atoms: C31_36  and  O6_37 
REMARK   11  A    between atoms: C32_38  and  O7_39 
REMARK   12  A    between atoms: C33_40  and  O8_41 
REMARK   13  A    between atoms: C34_42  and  O9_43 
ROOT
HETATM    1  C2  UNL     1       3.572  10.463  20.946  1.00  0.00     0.270 C 
HETATM    2  O2  UNL     1       4.674  11.176  21.555  1.00  0.00    -0.344 OA
HETATM    3  C3  UNL     1       4.809  12.461  20.896  1.00  0.00     0.095 C 
HETATM    4  C4  UNL     1       3.885  13.364  21.699  1.00  0.00     0.008 C 
HETATM    5  C5  UNL     1       2.560  13.379  21.512  1.00  0.00    -0.021 C 
HETATM    6  C6  UNL     1       1.893  12.423  20.558  1.00  0.00     0.030 C 
HETATM    7  C7  UNL     1       2.929  11.414  19.874  1.00  0.00     0.024 C 
HETATM    8  C8  UNL     1       2.225  10.553  18.777  1.00  0.00     0.016 C 
HETATM    9  C9  UNL     1       1.208  11.261  17.864  1.00  0.00     0.011 C 
HETATM   10  C10 UNL     1       0.181  12.046  18.687  1.00  0.00    -0.032 C 
HETATM   11  C11 UNL     1      -0.613  11.025  19.557  1.00  0.00     0.016 C 
HETATM   12  C12 UNL     1      -0.807  12.946  17.893  1.00  0.00    -0.002 C 
HETATM   13  C21 UNL     1      -1.268  13.986  18.953  1.00  0.00     0.006 C 
HETATM   14  C22 UNL     1      -0.239  13.922  20.114  1.00  0.00     0.011 C 
HETATM   15  C23 UNL     1       0.954  13.133  19.532  1.00  0.00    -0.029 C 
HETATM   16  C24 UNL     1       1.763  14.170  18.680  1.00  0.00     0.016 C 
HETATM   17  C25 UNL     1       4.245  12.156  19.484  1.00  0.00     0.039 C 
HETATM   18  C26 UNL     1       5.212  11.306  18.618  1.00  0.00     0.011 C 
HETATM   19  C27 UNL     1       6.602  11.109  19.204  1.00  0.00     0.033 C 
HETATM   20  C28 UNL     1       7.147  12.428  19.720  1.00  0.00     0.136 C 
HETATM   21  C35 UNL     1       6.307  12.976  20.926  1.00  0.00     0.014 C 
HETATM   22  C36 UNL     1       6.397  14.524  20.805  1.00  0.00     0.021 C 
HETATM   23  C37 UNL     1       6.961  12.590  22.279  1.00  0.00     0.021 C 
ENDROOT
BRANCH  20  24
HETATM   24  O4  UNL     1       8.531  12.335  20.091  1.00  0.00    -0.352 OA
BRANCH  24  25
HETATM   25  C29 UNL     1       9.411  13.172  19.343  1.00  0.00     0.292 C 
HETATM   26  O5  UNL     1       9.653  12.635  18.043  1.00  0.00    -0.348 OA
HETATM   27  C30 UNL     1      10.266  11.334  18.024  1.00  0.00     0.179 C 
HETATM   28  C32 UNL     1      11.143  11.038  19.253  1.00  0.00     0.180 C 
HETATM   29  C33 UNL     1      11.805  12.335  19.694  1.00  0.00     0.183 C 
HETATM   30  C34 UNL     1      10.743  13.361  20.114  1.00  0.00     0.204 C 
BRANCH  27  31
HETATM   31  C31 UNL     1       9.238  10.214  17.808  1.00  0.00     0.198 C 
BRANCH  31  32
HETATM   32  O6  UNL     1       9.846   8.984  17.419  1.00  0.00    -0.398 OA
HETATM   33  H48 UNL     1      10.774   8.987  17.737  1.00  0.00     0.209 HD
ENDBRANCH  31  32
ENDBRANCH  27  31
BRANCH  28  34
HETATM   34  O7  UNL     1      12.132  10.053  18.924  1.00  0.00    -0.390 OA
HETATM   35  H50 UNL     1      12.781  10.103  19.661  1.00  0.00     0.210 HD
ENDBRANCH  28  34
BRANCH  29  36
HETATM   36  O8  UNL     1      12.706  12.063  20.779  1.00  0.00    -0.390 OA
HETATM   37  H52 UNL     1      13.033  12.931  21.086  1.00  0.00     0.210 HD
ENDBRANCH  29  36
BRANCH  30  38
HETATM   38  O9  UNL     1      11.305  14.671  19.887  1.00  0.00    -0.388 OA
HETATM   39  H54 UNL     1      11.320  14.820  18.925  1.00  0.00     0.210 HD
ENDBRANCH  30  38
ENDBRANCH  24  25
ENDBRANCH  20  24
BRANCH   1  40
HETATM   40  O1  UNL     1       2.616  10.008  21.894  1.00  0.00    -0.365 OA
HETATM   41  C1  UNL     1       3.204   9.759  23.163  1.00  0.00     0.204 C 
ENDBRANCH   1  40
BRANCH  12  42
HETATM   42  C13 UNL     1      -1.885  12.351  16.941  1.00  0.00    -0.010 C 
HETATM   43  C14 UNL     1      -3.208  12.190  17.721  1.00  0.00     0.010 C 
BRANCH  42  44
HETATM   44  C15 UNL     1      -1.629  11.065  16.119  1.00  0.00     0.031 C 
BRANCH  44  45
HETATM   45  C16 UNL     1      -2.823  10.294  15.638  1.00  0.00    -0.027 C 
HETATM   46  C17 UNL     1      -2.883   8.952  15.590  1.00  0.00     0.006 C 
BRANCH  46  47
HETATM   47  C18 UNL     1      -4.046   8.107  15.130  1.00  0.00     0.068 C 
HETATM   48  C19 UNL     1      -3.921   7.522  13.719  1.00  0.00     0.050 C 
HETATM   49  C20 UNL     1      -5.346   8.901  15.248  1.00  0.00     0.050 C 
BRANCH  47  50
HETATM   50  O3  UNL     1      -4.131   7.011  16.042  1.00  0.00    -0.387 OA
HETATM   51  H30 UNL     1      -3.270   6.556  16.016  1.00  0.00     0.211 HD
ENDBRANCH  47  50
ENDBRANCH  46  47
ENDBRANCH  44  45
ENDBRANCH  42  44
ENDBRANCH  12  42
TORSDOF 13
ENDMDL
MODEL 9
REMARK minimizedAffinity -8.08059406
REMARK CNNscore 0.284534693
REMARK CNNaffinity 7.02866125
REMARK  13 active torsions:
REMARK  status: ('A' for Active; 'I' for Inactive)
REMARK    1  A    between atoms: O1_2  and  C2_3 
REMARK    2  A    between atoms: C12_14  and  C13_15 
REMARK    3  A    between atoms: C13_15  and  C15_17 
REMARK    4  A    between atoms: C15_17  and  C16_18 
REMARK    5  A    between atoms: C17_19  and  C18_20 
REMARK    6  A    between atoms: C18_20  and  O3_23 
REMARK    7  A    between atoms: C28_31  and  O4_32 
REMARK    8  A    between atoms: O4_32  and  C29_33 
REMARK    9  A    between atoms: C30_35  and  C31_36 
REMARK   10  A    between atoms: C31_36  and  O6_37 
REMARK   11  A    between atoms: C32_38  and  O7_39 
REMARK   12  A    between atoms: C33_40  and  O8_41 
REMARK   13  A    between atoms: C34_42  and  O9_43 
ROOT
HETATM    1  C2  UNL     1      -3.136   5.567  12.191  1.00  0.00     0.270 C 
HETATM    2  O2  UNL     1      -1.756   5.444  12.608  1.00  0.00    -0.344 OA
HETATM    3  C3  UNL     1      -1.518   6.383  13.687  1.00  0.00     0.095 C 
HETATM    4  C4  UNL     1      -1.883   5.587  14.931  1.00  0.00     0.008 C 
HETATM    5  C5  UNL     1      -3.150   5.417  15.325  1.00  0.00    -0.021 C 
HETATM    6  C6  UNL     1      -4.302   5.925  14.498  1.00  0.00     0.030 C 
HETATM    7  C7  UNL     1      -3.824   6.616  13.137  1.00  0.00     0.024 C 
HETATM    8  C8  UNL     1      -5.032   7.269  12.391  1.00  0.00     0.016 C 
HETATM    9  C9  UNL     1      -6.072   8.016  13.244  1.00  0.00     0.011 C 
HETATM   10  C10 UNL     1      -6.554   7.147  14.412  1.00  0.00    -0.032 C 
HETATM   11  C11 UNL     1      -7.262   5.895  13.811  1.00  0.00     0.016 C 
HETATM   12  C12 UNL     1      -7.483   7.833  15.453  1.00  0.00    -0.002 C 
HETATM   13  C21 UNL     1      -7.308   6.948  16.719  1.00  0.00     0.006 C 
HETATM   14  C22 UNL     1      -6.016   6.114  16.503  1.00  0.00     0.011 C 
HETATM   15  C23 UNL     1      -5.307   6.799  15.314  1.00  0.00    -0.029 C 
HETATM   16  C24 UNL     1      -4.575   8.043  15.926  1.00  0.00     0.016 C 
HETATM   17  C25 UNL     1      -2.557   7.493  13.379  1.00  0.00     0.039 C 
HETATM   18  C26 UNL     1      -2.160   8.371  12.163  1.00  0.00     0.011 C 
HETATM   19  C27 UNL     1      -0.752   8.143  11.632  1.00  0.00     0.033 C 
HETATM   20  C28 UNL     1       0.241   8.095  12.778  1.00  0.00     0.136 C 
HETATM   21  C35 UNL     1      -0.008   6.863  13.717  1.00  0.00     0.014 C 
HETATM   22  C36 UNL     1       0.425   7.345  15.132  1.00  0.00     0.021 C 
HETATM   23  C37 UNL     1       0.920   5.680  13.339  1.00  0.00     0.021 C 
ENDROOT
BRANCH  20  24
HETATM   24  O4  UNL     1       1.601   8.091  12.318  1.00  0.00    -0.352 OA
BRANCH  24  25
HETATM   25  C29 UNL     1       1.961   6.966  11.518  1.00  0.00     0.292 C 
HETATM   26  O5  UNL     1       3.224   6.433  11.917  1.00  0.00    -0.348 OA
HETATM   27  C30 UNL     1       4.333   7.342  11.807  1.00  0.00     0.179 C 
HETATM   28  C32 UNL     1       4.158   8.413  10.717  1.00  0.00     0.180 C 
HETATM   29  C33 UNL     1       3.385   7.798   9.559  1.00  0.00     0.183 C 
HETATM   30  C34 UNL     1       1.985   7.369  10.021  1.00  0.00     0.204 C 
BRANCH  27  31
HETATM   31  C31 UNL     1       4.683   7.991  13.154  1.00  0.00     0.198 C 
BRANCH  31  32
HETATM   32  O6  UNL     1       3.963   7.414  14.241  1.00  0.00    -0.398 OA
HETATM   33  H48 UNL     1       3.703   6.503  13.986  1.00  0.00     0.209 HD
ENDBRANCH  31  32
ENDBRANCH  27  31
BRANCH  28  34
HETATM   34  O7  UNL     1       5.440   8.879  10.276  1.00  0.00    -0.390 OA
HETATM   35  H50 UNL     1       5.252   9.359   9.438  1.00  0.00     0.210 HD
ENDBRANCH  28  34
BRANCH  29  36
HETATM   36  O8  UNL     1       3.296   8.751   8.488  1.00  0.00    -0.390 OA
HETATM   37  H52 UNL     1       2.717   8.348   7.812  1.00  0.00     0.210 HD
ENDBRANCH  29  36
BRANCH  30  38
HETATM   38  O9  UNL     1       1.576   6.275   9.172  1.00  0.00    -0.388 OA
HETATM   39  H54 UNL     1       2.094   5.492   9.433  1.00  0.00     0.210 HD
ENDBRANCH  30  38
ENDBRANCH  24  25
ENDBRANCH  20  24
BRANCH   1  40
HETATM   40  O1  UNL     1      -3.826   4.324  12.185  1.00  0.00    -0.365 OA
HETATM   41  C1  UNL     1      -3.506   3.546  11.041  1.00  0.00     0.204 C 
ENDBRANCH   1  40
BRANCH  12  42
HETATM   42  C13 UNL     1      -8.920   8.310  15.092  1.00  0.00    -0.010 C 
HETATM   43  C14 UNL     1      -9.691   8.611  16.395  1.00  0.00     0.010 C 
BRANCH  42  44
HETATM   44  C15 UNL     1      -9.835   7.500  14.143  1.00  0.00     0.031 C 
BRANCH  44  45
HETATM   45  C16 UNL     1     -11.255   7.270  14.570  1.00  0.00    -0.027 C 
HETATM   46  C17 UNL     1     -12.258   6.980  13.725  1.00  0.00     0.006 C 
BRANCH  46  47
HETATM   47  C18 UNL     1     -13.704   6.728  14.077  1.00  0.00     0.068 C 
HETATM   48  C19 UNL     1     -14.720   7.055  12.977  1.00  0.00     0.050 C 
HETATM   49  C20 UNL     1     -14.067   7.478  15.358  1.00  0.00     0.050 C 
BRANCH  47  50
HETATM   50  O3  UNL     1     -13.811   5.331  14.357  1.00  0.00    -0.387 OA
HETATM   51  H30 UNL     1     -13.505   4.860  13.561  1.00  0.00     0.211 HD
ENDBRANCH  47  50
ENDBRANCH  46  47
ENDBRANCH  44  45
ENDBRANCH  42  44
ENDBRANCH  12  42
TORSDOF 13
ENDMDL
