MODEL 1
REMARK minimizedAffinity -7.89459753
REMARK  21 active torsions:
REMARK  status: ('A' for Active; 'I' for Inactive)
REMARK    1  A    between atoms: C2_2  and  C14_18 
REMARK    2  A    between atoms: C3_3  and  C4_4 
REMARK    3  A    between atoms: C4_4  and  O2_6 
REMARK    4  A    between atoms: O2_6  and  C5_7 
REMARK    5  A    between atoms: C5_7  and  C6_8 
REMARK    6  A    between atoms: C6_8  and  C7_9 
REMARK    7  A    between atoms: C7_9  and  C8_10 
REMARK    8  A    between atoms: C8_10  and  C9_11 
REMARK    9  A    between atoms: C9_11  and  C10_12 
REMARK   10  A    between atoms: C10_12  and  C11_13 
REMARK   11  A    between atoms: C11_13  and  C12_14 
REMARK   12  A    between atoms: C12_14  and  C13_15 
REMARK   13  A    between atoms: C13_15  and  O4_17 
REMARK   14  A    between atoms: C14_18  and  C15_19 
REMARK   15  A    between atoms: C17_22  and  O6_23 
REMARK   16  A    between atoms: C17_22  and  C18_24 
REMARK   17  A    between atoms: C18_24  and  C19_25 
REMARK   18  A    between atoms: C20_26  and  C21_27 
REMARK   19  A    between atoms: C21_27  and  C23_29 
REMARK   20  A    between atoms: C23_29  and  O7_31 
REMARK   21  A    between atoms: C25_32  and  O8_33 
ROOT
HETATM    1  C15 UNL     1      -3.646  50.401 -21.505  1.00  0.00     0.197 C 
HETATM    2  O5  UNL     1      -4.486  49.268 -21.219  1.00  0.00    -0.375 OA
HETATM    3  C16 UNL     1      -5.840  49.487 -21.616  1.00  0.00     0.210 C 
HETATM    4  C17 UNL     1      -5.957  49.632 -23.147  1.00  0.00     0.115 C 
HETATM    5  C25 UNL     1      -5.092  50.834 -23.588  1.00  0.00     0.227 C 
HETATM    6  C26 UNL     1      -3.691  50.683 -23.011  1.00  0.00     0.187 C 
HETATM    7  O9  UNL     1      -2.694  50.789 -23.725  1.00  0.00    -0.292 OA
ENDROOT
BRANCH   1   8
HETATM    8  C14 UNL     1      -2.232  50.068 -20.996  1.00  0.00     0.073 C 
BRANCH   8   9
HETATM    9  C2  UNL     1      -1.891  50.735 -19.671  1.00  0.00    -0.075 C 
HETATM   10  C1  UNL     1      -3.047  51.401 -18.971  1.00  0.00     0.043 C 
HETATM   11  C3  UNL     1      -0.613  50.740 -19.236  1.00  0.00     0.084 C 
BRANCH  11  12
HETATM   12  C4  UNL     1      -0.062  51.307 -17.986  1.00  0.00     0.283 C 
HETATM   13  O1  UNL     1      -0.305  50.821 -16.894  1.00  0.00    -0.260 OA
BRANCH  12  14
HETATM   14  O2  UNL     1       0.653  52.431 -18.225  1.00  0.00    -0.318 OA
BRANCH  14  15
HETATM   15  C5  UNL     1       0.260  53.187 -19.383  1.00  0.00     0.179 C 
BRANCH  15  16
HETATM   16  C6  UNL     1       1.496  53.774 -20.060  1.00  0.00     0.027 C 
BRANCH  16  17
HETATM   17  C7  UNL     1       1.333  54.000 -21.565  1.00  0.00     0.002 C 
BRANCH  17  18
HETATM   18  C8  UNL     1       0.596  52.866 -22.275  1.00  0.00     0.000 C 
BRANCH  18  19
HETATM   19  C9  UNL     1       0.486  53.041 -23.795  1.00  0.00     0.000 C 
BRANCH  19  20
HETATM   20  C10 UNL     1       0.276  51.739 -24.577  1.00  0.00     0.001 C 
BRANCH  20  21
HETATM   21  C11 UNL     1       0.132  51.873 -26.101  1.00  0.00     0.010 C 
BRANCH  21  22
HETATM   22  C12 UNL     1       0.195  53.313 -26.618  1.00  0.00     0.110 C 
BRANCH  22  23
HETATM   23  C13 UNL     1      -0.667  53.565 -27.828  1.00  0.00     0.139 C 
HETATM   24  O3  UNL     1      -1.823  53.945 -27.857  1.00  0.00    -0.650 OA
BRANCH  23  25
HETATM   25  O4  UNL     1      -0.009  53.297 -28.974  1.00  0.00    -0.776 OA
HETATM   26  H21 UNL     1      -0.668  53.483 -29.674  1.00  0.00     0.167 HD
ENDBRANCH  23  25
ENDBRANCH  22  23
ENDBRANCH  21  22
ENDBRANCH  20  21
ENDBRANCH  19  20
ENDBRANCH  18  19
ENDBRANCH  17  18
ENDBRANCH  16  17
ENDBRANCH  15  16
ENDBRANCH  14  15
ENDBRANCH  12  14
ENDBRANCH  11  12
ENDBRANCH   8   9
ENDBRANCH   1   8
BRANCH   5  27
HETATM   27  O8  UNL     1      -5.683  52.050 -23.117  1.00  0.00    -0.385 OA
HETATM   28  H42 UNL     1      -6.634  51.965 -23.334  1.00  0.00     0.210 HD
ENDBRANCH   5  27
BRANCH   4  29
HETATM   29  O6  UNL     1      -7.324  49.956 -23.485  1.00  0.00    -0.384 OA
HETATM   30  H27 UNL     1      -7.853  49.145 -23.370  1.00  0.00     0.210 HD
ENDBRANCH   4  29
BRANCH   4  31
HETATM   31  C18 UNL     1      -5.515  48.362 -23.921  1.00  0.00     0.070 C 
BRANCH  31  32
HETATM   32  C19 UNL     1      -5.307  48.561 -25.405  1.00  0.00    -0.027 C 
HETATM   33  C20 UNL     1      -4.114  48.463 -26.014  1.00  0.00    -0.024 C 
BRANCH  33  34
HETATM   34  C21 UNL     1      -3.822  48.554 -27.507  1.00  0.00     0.032 C 
HETATM   35  C22 UNL     1      -5.041  48.276 -28.399  1.00  0.00     0.017 C 
BRANCH  34  36
HETATM   36  C23 UNL     1      -3.156  49.895 -27.917  1.00  0.00     0.121 C 
HETATM   37  C24 UNL     1      -3.265  50.993 -26.864  1.00  0.00     0.040 C 
BRANCH  36  38
HETATM   38  O7  UNL     1      -3.697  50.390 -29.144  1.00  0.00    -0.395 OA
HETATM   39  H40 UNL     1      -4.663  50.381 -29.061  1.00  0.00     0.210 HD
ENDBRANCH  36  38
ENDBRANCH  34  36
ENDBRANCH  33  34
ENDBRANCH  31  32
ENDBRANCH   4  31
TORSDOF 21
ENDMDL
MODEL 2
REMARK minimizedAffinity -7.72623158
REMARK  21 active torsions:
REMARK  status: ('A' for Active; 'I' for Inactive)
REMARK    1  A    between atoms: C2_2  and  C14_18 
REMARK    2  A    between atoms: C3_3  and  C4_4 
REMARK    3  A    between atoms: C4_4  and  O2_6 
REMARK    4  A    between atoms: O2_6  and  C5_7 
REMARK    5  A    between atoms: C5_7  and  C6_8 
REMARK    6  A    between atoms: C6_8  and  C7_9 
REMARK    7  A    between atoms: C7_9  and  C8_10 
REMARK    8  A    between atoms: C8_10  and  C9_11 
REMARK    9  A    between atoms: C9_11  and  C10_12 
REMARK   10  A    between atoms: C10_12  and  C11_13 
REMARK   11  A    between atoms: C11_13  and  C12_14 
REMARK   12  A    between atoms: C12_14  and  C13_15 
REMARK   13  A    between atoms: C13_15  and  O4_17 
REMARK   14  A    between atoms: C14_18  and  C15_19 
REMARK   15  A    between atoms: C17_22  and  O6_23 
REMARK   16  A    between atoms: C17_22  and  C18_24 
REMARK   17  A    between atoms: C18_24  and  C19_25 
REMARK   18  A    between atoms: C20_26  and  C21_27 
REMARK   19  A    between atoms: C21_27  and  C23_29 
REMARK   20  A    between atoms: C23_29  and  O7_31 
REMARK   21  A    between atoms: C25_32  and  O8_33 
ROOT
HETATM    1  C15 UNL     1      -1.167  51.766 -25.102  1.00  0.00     0.197 C 
HETATM    2  O5  UNL     1      -2.536  51.338 -24.988  1.00  0.00    -0.375 OA
HETATM    3  C16 UNL     1      -3.283  51.594 -26.178  1.00  0.00     0.210 C 
HETATM    4  C17 UNL     1      -2.753  50.756 -27.359  1.00  0.00     0.115 C 
HETATM    5  C25 UNL     1      -1.272  51.129 -27.593  1.00  0.00     0.227 C 
HETATM    6  C26 UNL     1      -0.514  51.026 -26.276  1.00  0.00     0.187 C 
HETATM    7  O9  UNL     1       0.538  50.392 -26.195  1.00  0.00    -0.292 OA
ENDROOT
BRANCH   1   8
HETATM    8  C14 UNL     1      -0.479  51.484 -23.755  1.00  0.00     0.073 C 
BRANCH   8   9
HETATM    9  C2  UNL     1       0.266  52.684 -23.190  1.00  0.00    -0.075 C 
HETATM   10  C1  UNL     1       0.630  53.746 -24.195  1.00  0.00     0.043 C 
HETATM   11  C3  UNL     1       0.595  52.709 -21.881  1.00  0.00     0.084 C 
BRANCH  11  12
HETATM   12  C4  UNL     1       1.296  53.769 -21.122  1.00  0.00     0.283 C 
HETATM   13  O1  UNL     1       1.782  54.744 -21.672  1.00  0.00    -0.260 OA
BRANCH  12  14
HETATM   14  O2  UNL     1       1.374  53.465 -19.806  1.00  0.00    -0.318 OA
BRANCH  14  15
HETATM   15  C5  UNL     1       0.161  52.987 -19.201  1.00  0.00     0.179 C 
BRANCH  15  16
HETATM   16  C6  UNL     1       0.494  52.017 -18.071  1.00  0.00     0.027 C 
BRANCH  16  17
HETATM   17  C7  UNL     1      -0.256  50.686 -18.151  1.00  0.00     0.002 C 
BRANCH  17  18
HETATM   18  C8  UNL     1      -0.475  50.195 -19.582  1.00  0.00     0.000 C 
BRANCH  18  19
HETATM   19  C9  UNL     1      -1.205  48.850 -19.680  1.00  0.00     0.000 C 
BRANCH  19  20
HETATM   20  C10 UNL     1      -0.892  48.043 -20.946  1.00  0.00     0.001 C 
BRANCH  20  21
HETATM   21  C11 UNL     1      -2.100  47.479 -21.712  1.00  0.00     0.010 C 
BRANCH  21  22
HETATM   22  C12 UNL     1      -2.608  48.380 -22.842  1.00  0.00     0.110 C 
BRANCH  22  23
HETATM   23  C13 UNL     1      -3.824  49.190 -22.475  1.00  0.00     0.139 C 
HETATM   24  O3  UNL     1      -4.237  49.457 -21.361  1.00  0.00    -0.650 OA
BRANCH  23  25
HETATM   25  O4  UNL     1      -4.487  49.618 -23.568  1.00  0.00    -0.776 OA
HETATM   26  H21 UNL     1      -5.251  50.111 -23.203  1.00  0.00     0.167 HD
ENDBRANCH  23  25
ENDBRANCH  22  23
ENDBRANCH  21  22
ENDBRANCH  20  21
ENDBRANCH  19  20
ENDBRANCH  18  19
ENDBRANCH  17  18
ENDBRANCH  16  17
ENDBRANCH  15  16
ENDBRANCH  14  15
ENDBRANCH  12  14
ENDBRANCH  11  12
ENDBRANCH   8   9
ENDBRANCH   1   8
BRANCH   5  27
HETATM   27  O8  UNL     1      -1.186  52.465 -28.099  1.00  0.00    -0.385 OA
HETATM   28  H42 UNL     1      -1.867  52.510 -28.801  1.00  0.00     0.210 HD
ENDBRANCH   5  27
BRANCH   4  29
HETATM   29  O6  UNL     1      -3.469  51.128 -28.558  1.00  0.00    -0.384 OA
HETATM   30  H27 UNL     1      -4.365  50.747 -28.493  1.00  0.00     0.210 HD
ENDBRANCH   4  29
BRANCH   4  31
HETATM   31  C18 UNL     1      -2.874  49.226 -27.133  1.00  0.00     0.070 C 
BRANCH  31  32
HETATM   32  C19 UNL     1      -4.290  48.703 -27.054  1.00  0.00    -0.027 C 
HETATM   33  C20 UNL     1      -4.999  48.296 -28.120  1.00  0.00    -0.024 C 
BRANCH  33  34
HETATM   34  C21 UNL     1      -6.390  47.672 -28.128  1.00  0.00     0.032 C 
HETATM   35  C22 UNL     1      -6.501  46.407 -28.993  1.00  0.00     0.017 C 
BRANCH  34  36
HETATM   36  C23 UNL     1      -6.941  47.394 -26.704  1.00  0.00     0.121 C 
HETATM   37  C24 UNL     1      -7.845  46.169 -26.613  1.00  0.00     0.040 C 
BRANCH  36  38
HETATM   38  O7  UNL     1      -7.654  48.522 -26.194  1.00  0.00    -0.395 OA
HETATM   39  H40 UNL     1      -8.293  48.794 -26.872  1.00  0.00     0.210 HD
ENDBRANCH  36  38
ENDBRANCH  34  36
ENDBRANCH  33  34
ENDBRANCH  31  32
ENDBRANCH   4  31
TORSDOF 21
ENDMDL
MODEL 3
REMARK minimizedAffinity -7.59600401
REMARK  21 active torsions:
REMARK  status: ('A' for Active; 'I' for Inactive)
REMARK    1  A    between atoms: C2_2  and  C14_18 
REMARK    2  A    between atoms: C3_3  and  C4_4 
REMARK    3  A    between atoms: C4_4  and  O2_6 
REMARK    4  A    between atoms: O2_6  and  C5_7 
REMARK    5  A    between atoms: C5_7  and  C6_8 
REMARK    6  A    between atoms: C6_8  and  C7_9 
REMARK    7  A    between atoms: C7_9  and  C8_10 
REMARK    8  A    between atoms: C8_10  and  C9_11 
REMARK    9  A    between atoms: C9_11  and  C10_12 
REMARK   10  A    between atoms: C10_12  and  C11_13 
REMARK   11  A    between atoms: C11_13  and  C12_14 
REMARK   12  A    between atoms: C12_14  and  C13_15 
REMARK   13  A    between atoms: C13_15  and  O4_17 
REMARK   14  A    between atoms: C14_18  and  C15_19 
REMARK   15  A    between atoms: C17_22  and  O6_23 
REMARK   16  A    between atoms: C17_22  and  C18_24 
REMARK   17  A    between atoms: C18_24  and  C19_25 
REMARK   18  A    between atoms: C20_26  and  C21_27 
REMARK   19  A    between atoms: C21_27  and  C23_29 
REMARK   20  A    between atoms: C23_29  and  O7_31 
REMARK   21  A    between atoms: C25_32  and  O8_33 
ROOT
HETATM    1  C15 UNL     1      -1.698  51.274 -27.091  1.00  0.00     0.197 C 
HETATM    2  O5  UNL     1      -1.104  50.908 -25.832  1.00  0.00    -0.375 OA
HETATM    3  C16 UNL     1       0.322  50.984 -25.866  1.00  0.00     0.210 C 
HETATM    4  C17 UNL     1       0.798  52.437 -26.067  1.00  0.00     0.115 C 
HETATM    5  C25 UNL     1       0.225  52.954 -27.406  1.00  0.00     0.227 C 
HETATM    6  C26 UNL     1      -1.277  52.707 -27.438  1.00  0.00     0.187 C 
HETATM    7  O9  UNL     1      -2.065  53.608 -27.727  1.00  0.00    -0.292 OA
ENDROOT
BRANCH   1   8
HETATM    8  C14 UNL     1      -3.222  51.111 -26.949  1.00  0.00     0.073 C 
BRANCH   8   9
HETATM    9  C2  UNL     1      -3.629  49.889 -26.138  1.00  0.00    -0.075 C 
HETATM   10  C1  UNL     1      -3.298  48.561 -26.768  1.00  0.00     0.043 C 
HETATM   11  C3  UNL     1      -4.285  50.052 -24.970  1.00  0.00     0.084 C 
BRANCH  11  12
HETATM   12  C4  UNL     1      -4.757  49.021 -24.020  1.00  0.00     0.283 C 
HETATM   13  O1  UNL     1      -3.982  48.294 -23.418  1.00  0.00    -0.260 OA
BRANCH  12  14
HETATM   14  O2  UNL     1      -6.108  48.962 -23.983  1.00  0.00    -0.318 OA
BRANCH  14  15
HETATM   15  C5  UNL     1      -6.690  47.710 -24.382  1.00  0.00     0.179 C 
BRANCH  15  16
HETATM   16  C6  UNL     1      -6.657  47.586 -25.903  1.00  0.00     0.027 C 
BRANCH  16  17
HETATM   17  C7  UNL     1      -8.030  47.360 -26.539  1.00  0.00     0.002 C 
BRANCH  17  18
HETATM   18  C8  UNL     1      -8.153  46.019 -27.262  1.00  0.00     0.000 C 
BRANCH  18  19
HETATM   19  C9  UNL     1      -7.600  46.024 -28.694  1.00  0.00     0.000 C 
BRANCH  19  20
HETATM   20  C10 UNL     1      -6.312  46.834 -28.880  1.00  0.00     0.001 C 
BRANCH  20  21
HETATM   21  C11 UNL     1      -6.382  48.011 -29.866  1.00  0.00     0.010 C 
BRANCH  21  22
HETATM   22  C12 UNL     1      -7.707  48.122 -30.625  1.00  0.00     0.110 C 
BRANCH  22  23
HETATM   23  C13 UNL     1      -8.475  49.384 -30.329  1.00  0.00     0.139 C 
HETATM   24  O3  UNL     1      -8.873  50.220 -31.119  1.00  0.00    -0.650 OA
BRANCH  23  25
HETATM   25  O4  UNL     1      -8.691  49.538 -29.007  1.00  0.00    -0.776 OA
HETATM   26  H21 UNL     1      -9.178  50.386 -28.945  1.00  0.00     0.167 HD
ENDBRANCH  23  25
ENDBRANCH  22  23
ENDBRANCH  21  22
ENDBRANCH  20  21
ENDBRANCH  19  20
ENDBRANCH  18  19
ENDBRANCH  17  18
ENDBRANCH  16  17
ENDBRANCH  15  16
ENDBRANCH  14  15
ENDBRANCH  12  14
ENDBRANCH  11  12
ENDBRANCH   8   9
ENDBRANCH   1   8
BRANCH   5  27
HETATM   27  O8  UNL     1       0.853  52.270 -28.495  1.00  0.00    -0.385 OA
HETATM   28  H42 UNL     1       1.808  52.283 -28.280  1.00  0.00     0.210 HD
ENDBRANCH   5  27
BRANCH   4  29
HETATM   29  O6  UNL     1       2.237  52.446 -26.200  1.00  0.00    -0.384 OA
HETATM   30  H27 UNL     1       2.613  52.285 -25.315  1.00  0.00     0.210 HD
ENDBRANCH   4  29
BRANCH   4  31
HETATM   31  C18 UNL     1       0.375  53.389 -24.918  1.00  0.00     0.070 C 
BRANCH  31  32
HETATM   32  C19 UNL     1       0.028  52.703 -23.617  1.00  0.00    -0.027 C 
HETATM   33  C20 UNL     1       0.560  53.038 -22.429  1.00  0.00    -0.024 C 
BRANCH  33  34
HETATM   34  C21 UNL     1       0.206  52.470 -21.060  1.00  0.00     0.032 C 
HETATM   35  C22 UNL     1       0.074  50.940 -21.034  1.00  0.00     0.017 C 
BRANCH  34  36
HETATM   36  C23 UNL     1       1.169  52.941 -19.937  1.00  0.00     0.121 C 
HETATM   37  C24 UNL     1       0.659  52.673 -18.525  1.00  0.00     0.040 C 
BRANCH  36  38
HETATM   38  O7  UNL     1       1.463  54.334 -20.055  1.00  0.00    -0.395 OA
HETATM   39  H40 UNL     1       0.619  54.804 -20.142  1.00  0.00     0.210 HD
ENDBRANCH  36  38
ENDBRANCH  34  36
ENDBRANCH  33  34
ENDBRANCH  31  32
ENDBRANCH   4  31
TORSDOF 21
ENDMDL
MODEL 4
REMARK minimizedAffinity -7.57540703
REMARK  21 active torsions:
REMARK  status: ('A' for Active; 'I' for Inactive)
REMARK    1  A    between atoms: C2_2  and  C14_18 
REMARK    2  A    between atoms: C3_3  and  C4_4 
REMARK    3  A    between atoms: C4_4  and  O2_6 
REMARK    4  A    between atoms: O2_6  and  C5_7 
REMARK    5  A    between atoms: C5_7  and  C6_8 
REMARK    6  A    between atoms: C6_8  and  C7_9 
REMARK    7  A    between atoms: C7_9  and  C8_10 
REMARK    8  A    between atoms: C8_10  and  C9_11 
REMARK    9  A    between atoms: C9_11  and  C10_12 
REMARK   10  A    between atoms: C10_12  and  C11_13 
REMARK   11  A    between atoms: C11_13  and  C12_14 
REMARK   12  A    between atoms: C12_14  and  C13_15 
REMARK   13  A    between atoms: C13_15  and  O4_17 
REMARK   14  A    between atoms: C14_18  and  C15_19 
REMARK   15  A    between atoms: C17_22  and  O6_23 
REMARK   16  A    between atoms: C17_22  and  C18_24 
REMARK   17  A    between atoms: C18_24  and  C19_25 
REMARK   18  A    between atoms: C20_26  and  C21_27 
REMARK   19  A    between atoms: C21_27  and  C23_29 
REMARK   20  A    between atoms: C23_29  and  O7_31 
REMARK   21  A    between atoms: C25_32  and  O8_33 
ROOT
HETATM    1  C15 UNL     1      -1.568  51.101 -27.140  1.00  0.00     0.197 C 
HETATM    2  O5  UNL     1      -0.898  50.700 -25.931  1.00  0.00    -0.375 OA
HETATM    3  C16 UNL     1       0.522  50.796 -26.044  1.00  0.00     0.210 C 
HETATM    4  C17 UNL     1       0.969  52.262 -26.221  1.00  0.00     0.115 C 
HETATM    5  C25 UNL     1       0.313  52.817 -27.505  1.00  0.00     0.227 C 
HETATM    6  C26 UNL     1      -1.185  52.551 -27.460  1.00  0.00     0.187 C 
HETATM    7  O9  UNL     1      -1.999  53.450 -27.670  1.00  0.00    -0.292 OA
ENDROOT
BRANCH   1   8
HETATM    8  C14 UNL     1      -3.079  50.912 -26.916  1.00  0.00     0.073 C 
BRANCH   8   9
HETATM    9  C2  UNL     1      -3.575  49.515 -27.261  1.00  0.00    -0.075 C 
HETATM   10  C1  UNL     1      -3.087  48.418 -26.349  1.00  0.00     0.043 C 
HETATM   11  C3  UNL     1      -4.349  49.331 -28.350  1.00  0.00     0.084 C 
BRANCH  11  12
HETATM   12  C4  UNL     1      -4.950  48.079 -28.860  1.00  0.00     0.283 C 
HETATM   13  O1  UNL     1      -5.652  47.368 -28.159  1.00  0.00    -0.260 OA
BRANCH  12  14
HETATM   14  O2  UNL     1      -4.560  47.824 -30.130  1.00  0.00    -0.318 OA
BRANCH  14  15
HETATM   15  C5  UNL     1      -5.411  46.942 -30.880  1.00  0.00     0.179 C 
BRANCH  15  16
HETATM   16  C6  UNL     1      -6.548  47.738 -31.516  1.00  0.00     0.027 C 
BRANCH  16  17
HETATM   17  C7  UNL     1      -7.944  47.221 -31.164  1.00  0.00     0.002 C 
BRANCH  17  18
HETATM   18  C8  UNL     1      -9.031  47.702 -32.124  1.00  0.00     0.000 C 
BRANCH  18  19
HETATM   19  C9  UNL     1     -10.268  46.796 -32.177  1.00  0.00     0.000 C 
BRANCH  19  20
HETATM   20  C10 UNL     1     -11.062  46.717 -30.867  1.00  0.00     0.001 C 
BRANCH  20  21
HETATM   21  C11 UNL     1     -11.074  47.985 -29.998  1.00  0.00     0.010 C 
BRANCH  21  22
HETATM   22  C12 UNL     1     -10.982  47.719 -28.493  1.00  0.00     0.110 C 
BRANCH  22  23
HETATM   23  C13 UNL     1     -12.318  47.699 -27.795  1.00  0.00     0.139 C 
HETATM   24  O3  UNL     1     -13.090  46.765 -27.685  1.00  0.00    -0.650 OA
BRANCH  23  25
HETATM   25  O4  UNL     1     -12.626  48.904 -27.273  1.00  0.00    -0.776 OA
HETATM   26  H21 UNL     1     -13.507  48.766 -26.867  1.00  0.00     0.167 HD
ENDBRANCH  23  25
ENDBRANCH  22  23
ENDBRANCH  21  22
ENDBRANCH  20  21
ENDBRANCH  19  20
ENDBRANCH  18  19
ENDBRANCH  17  18
ENDBRANCH  16  17
ENDBRANCH  15  16
ENDBRANCH  14  15
ENDBRANCH  12  14
ENDBRANCH  11  12
ENDBRANCH   8   9
ENDBRANCH   1   8
BRANCH   5  27
HETATM   27  O8  UNL     1       0.885  52.179 -28.653  1.00  0.00    -0.385 OA
HETATM   28  H42 UNL     1       1.851  52.198 -28.492  1.00  0.00     0.210 HD
ENDBRANCH   5  27
BRANCH   4  29
HETATM   29  O6  UNL     1       2.397  52.295 -26.436  1.00  0.00    -0.384 OA
HETATM   30  H27 UNL     1       2.826  52.109 -25.580  1.00  0.00     0.210 HD
ENDBRANCH   4  29
BRANCH   4  31
HETATM   31  C18 UNL     1       0.602  53.168 -25.017  1.00  0.00     0.070 C 
BRANCH  31  32
HETATM   32  C19 UNL     1       0.454  52.445 -23.697  1.00  0.00    -0.027 C 
HETATM   33  C20 UNL     1       0.350  53.067 -22.511  1.00  0.00    -0.024 C 
BRANCH  33  34
HETATM   34  C21 UNL     1       0.106  52.431 -21.147  1.00  0.00     0.032 C 
HETATM   35  C22 UNL     1       0.165  50.896 -21.155  1.00  0.00     0.017 C 
BRANCH  34  36
HETATM   36  C23 UNL     1       1.033  52.995 -20.037  1.00  0.00     0.121 C 
HETATM   37  C24 UNL     1       0.454  52.893 -18.630  1.00  0.00     0.040 C 
BRANCH  36  38
HETATM   38  O7  UNL     1       1.374  54.359 -20.288  1.00  0.00    -0.395 OA
HETATM   39  H40 UNL     1       0.549  54.839 -20.463  1.00  0.00     0.210 HD
ENDBRANCH  36  38
ENDBRANCH  34  36
ENDBRANCH  33  34
ENDBRANCH  31  32
ENDBRANCH   4  31
TORSDOF 21
ENDMDL
MODEL 5
REMARK minimizedAffinity -7.54898787
REMARK  21 active torsions:
REMARK  status: ('A' for Active; 'I' for Inactive)
REMARK    1  A    between atoms: C2_2  and  C14_18 
REMARK    2  A    between atoms: C3_3  and  C4_4 
REMARK    3  A    between atoms: C4_4  and  O2_6 
REMARK    4  A    between atoms: O2_6  and  C5_7 
REMARK    5  A    between atoms: C5_7  and  C6_8 
REMARK    6  A    between atoms: C6_8  and  C7_9 
REMARK    7  A    between atoms: C7_9  and  C8_10 
REMARK    8  A    between atoms: C8_10  and  C9_11 
REMARK    9  A    between atoms: C9_11  and  C10_12 
REMARK   10  A    between atoms: C10_12  and  C11_13 
REMARK   11  A    between atoms: C11_13  and  C12_14 
REMARK   12  A    between atoms: C12_14  and  C13_15 
REMARK   13  A    between atoms: C13_15  and  O4_17 
REMARK   14  A    between atoms: C14_18  and  C15_19 
REMARK   15  A    between atoms: C17_22  and  O6_23 
REMARK   16  A    between atoms: C17_22  and  C18_24 
REMARK   17  A    between atoms: C18_24  and  C19_25 
REMARK   18  A    between atoms: C20_26  and  C21_27 
REMARK   19  A    between atoms: C21_27  and  C23_29 
REMARK   20  A    between atoms: C23_29  and  O7_31 
REMARK   21  A    between atoms: C25_32  and  O8_33 
ROOT
HETATM    1  C15 UNL     1      -1.167  51.799 -25.082  1.00  0.00     0.197 C 
HETATM    2  O5  UNL     1      -2.498  51.268 -24.946  1.00  0.00    -0.375 OA
HETATM    3  C16 UNL     1      -3.285  51.478 -26.118  1.00  0.00     0.210 C 
HETATM    4  C17 UNL     1      -2.718  50.693 -27.318  1.00  0.00     0.115 C 
HETATM    5  C25 UNL     1      -1.274  51.178 -27.577  1.00  0.00     0.227 C 
HETATM    6  C26 UNL     1      -0.484  51.121 -26.276  1.00  0.00     0.187 C 
HETATM    7  O9  UNL     1       0.614  50.567 -26.222  1.00  0.00    -0.292 OA
ENDROOT
BRANCH   1   8
HETATM    8  C14 UNL     1      -0.433  51.557 -23.751  1.00  0.00     0.073 C 
BRANCH   8   9
HETATM    9  C2  UNL     1       0.263  52.796 -23.207  1.00  0.00    -0.075 C 
HETATM   10  C1  UNL     1       0.602  53.845 -24.234  1.00  0.00     0.043 C 
HETATM   11  C3  UNL     1       0.575  52.864 -21.896  1.00  0.00     0.084 C 
BRANCH  11  12
HETATM   12  C4  UNL     1       1.229  53.965 -21.155  1.00  0.00     0.283 C 
HETATM   13  O1  UNL     1       2.096  54.659 -21.662  1.00  0.00    -0.260 OA
BRANCH  12  14
HETATM   14  O2  UNL     1       0.793  54.028 -19.876  1.00  0.00    -0.318 OA
BRANCH  14  15
HETATM   15  C5  UNL     1      -0.153  53.019 -19.487  1.00  0.00     0.179 C 
BRANCH  15  16
HETATM   16  C6  UNL     1       0.395  52.225 -18.304  1.00  0.00     0.027 C 
BRANCH  16  17
HETATM   17  C7  UNL     1      -0.145  50.797 -18.208  1.00  0.00     0.002 C 
BRANCH  17  18
HETATM   18  C8  UNL     1      -0.469  50.176 -19.567  1.00  0.00     0.000 C 
BRANCH  18  19
HETATM   19  C9  UNL     1      -1.698  49.258 -19.562  1.00  0.00     0.000 C 
BRANCH  19  20
HETATM   20  C10 UNL     1      -2.674  49.488 -20.722  1.00  0.00     0.001 C 
BRANCH  20  21
HETATM   21  C11 UNL     1      -3.678  50.640 -20.552  1.00  0.00     0.010 C 
BRANCH  21  22
HETATM   22  C12 UNL     1      -4.098  51.310 -21.863  1.00  0.00     0.110 C 
BRANCH  22  23
HETATM   23  C13 UNL     1      -5.216  50.598 -22.580  1.00  0.00     0.139 C 
HETATM   24  O3  UNL     1      -5.135  49.858 -23.543  1.00  0.00    -0.650 OA
BRANCH  23  25
HETATM   25  O4  UNL     1      -6.418  50.884 -22.039  1.00  0.00    -0.776 OA
HETATM   26  H21 UNL     1      -7.051  50.381 -22.592  1.00  0.00     0.167 HD
ENDBRANCH  23  25
ENDBRANCH  22  23
ENDBRANCH  21  22
ENDBRANCH  20  21
ENDBRANCH  19  20
ENDBRANCH  18  19
ENDBRANCH  17  18
ENDBRANCH  16  17
ENDBRANCH  15  16
ENDBRANCH  14  15
ENDBRANCH  12  14
ENDBRANCH  11  12
ENDBRANCH   8   9
ENDBRANCH   1   8
BRANCH   5  27
HETATM   27  O8  UNL     1      -1.299  52.522 -28.070  1.00  0.00    -0.385 OA
HETATM   28  H42 UNL     1      -1.996  52.522 -28.759  1.00  0.00     0.210 HD
ENDBRANCH   5  27
BRANCH   4  29
HETATM   29  O6  UNL     1      -3.484  51.021 -28.499  1.00  0.00    -0.384 OA
HETATM   30  H27 UNL     1      -4.347  50.574 -28.421  1.00  0.00     0.210 HD
ENDBRANCH   4  29
BRANCH   4  31
HETATM   31  C18 UNL     1      -2.720  49.156 -27.106  1.00  0.00     0.070 C 
BRANCH  31  32
HETATM   32  C19 UNL     1      -4.050  48.572 -26.689  1.00  0.00    -0.027 C 
HETATM   33  C20 UNL     1      -4.979  48.132 -27.555  1.00  0.00    -0.024 C 
BRANCH  33  34
HETATM   34  C21 UNL     1      -6.301  47.447 -27.229  1.00  0.00     0.032 C 
HETATM   35  C22 UNL     1      -6.849  47.779 -25.834  1.00  0.00     0.017 C 
BRANCH  34  36
HETATM   36  C23 UNL     1      -7.394  47.690 -28.304  1.00  0.00     0.121 C 
HETATM   37  C24 UNL     1      -7.777  46.445 -29.097  1.00  0.00     0.040 C 
BRANCH  36  38
HETATM   38  O7  UNL     1      -7.000  48.709 -29.225  1.00  0.00    -0.395 OA
HETATM   39  H40 UNL     1      -6.109  48.489 -29.540  1.00  0.00     0.210 HD
ENDBRANCH  36  38
ENDBRANCH  34  36
ENDBRANCH  33  34
ENDBRANCH  31  32
ENDBRANCH   4  31
TORSDOF 21
ENDMDL
MODEL 6
REMARK minimizedAffinity -7.42255831
REMARK  21 active torsions:
REMARK  status: ('A' for Active; 'I' for Inactive)
REMARK    1  A    between atoms: C2_2  and  C14_18 
REMARK    2  A    between atoms: C3_3  and  C4_4 
REMARK    3  A    between atoms: C4_4  and  O2_6 
REMARK    4  A    between atoms: O2_6  and  C5_7 
REMARK    5  A    between atoms: C5_7  and  C6_8 
REMARK    6  A    between atoms: C6_8  and  C7_9 
REMARK    7  A    between atoms: C7_9  and  C8_10 
REMARK    8  A    between atoms: C8_10  and  C9_11 
REMARK    9  A    between atoms: C9_11  and  C10_12 
REMARK   10  A    between atoms: C10_12  and  C11_13 
REMARK   11  A    between atoms: C11_13  and  C12_14 
REMARK   12  A    between atoms: C12_14  and  C13_15 
REMARK   13  A    between atoms: C13_15  and  O4_17 
REMARK   14  A    between atoms: C14_18  and  C15_19 
REMARK   15  A    between atoms: C17_22  and  O6_23 
REMARK   16  A    between atoms: C17_22  and  C18_24 
REMARK   17  A    between atoms: C18_24  and  C19_25 
REMARK   18  A    between atoms: C20_26  and  C21_27 
REMARK   19  A    between atoms: C21_27  and  C23_29 
REMARK   20  A    between atoms: C23_29  and  O7_31 
REMARK   21  A    between atoms: C25_32  and  O8_33 
ROOT
HETATM    1  C15 UNL     1      -1.749  50.944 -26.790  1.00  0.00     0.197 C 
HETATM    2  O5  UNL     1      -0.830  50.604 -25.735  1.00  0.00    -0.375 OA
HETATM    3  C16 UNL     1       0.532  50.727 -26.146  1.00  0.00     0.210 C 
HETATM    4  C17 UNL     1       0.890  52.193 -26.461  1.00  0.00     0.115 C 
HETATM    5  C25 UNL     1      -0.035  52.684 -27.598  1.00  0.00     0.227 C 
HETATM    6  C26 UNL     1      -1.483  52.388 -27.231  1.00  0.00     0.187 C 
HETATM    7  O9  UNL     1      -2.348  53.262 -27.297  1.00  0.00    -0.292 OA
ENDROOT
BRANCH   1   8
HETATM    8  C14 UNL     1      -3.174  50.732 -26.249  1.00  0.00     0.073 C 
BRANCH   8   9
HETATM    9  C2  UNL     1      -3.803  49.420 -26.692  1.00  0.00    -0.075 C 
HETATM   10  C1  UNL     1      -3.924  48.370 -25.617  1.00  0.00     0.043 C 
HETATM   11  C3  UNL     1      -4.157  49.252 -27.983  1.00  0.00     0.084 C 
BRANCH  11  12
HETATM   12  C4  UNL     1      -4.792  48.080 -28.626  1.00  0.00     0.283 C 
HETATM   13  O1  UNL     1      -4.421  47.658 -29.710  1.00  0.00    -0.260 OA
BRANCH  12  14
HETATM   14  O2  UNL     1      -5.837  47.622 -27.899  1.00  0.00    -0.318 OA
BRANCH  14  15
HETATM   15  C5  UNL     1      -7.111  47.628 -28.564  1.00  0.00     0.179 C 
BRANCH  15  16
HETATM   16  C6  UNL     1      -7.502  46.203 -28.946  1.00  0.00     0.027 C 
BRANCH  16  17
HETATM   17  C7  UNL     1      -8.692  46.118 -29.903  1.00  0.00     0.002 C 
BRANCH  17  18
HETATM   18  C8  UNL     1      -9.009  47.441 -30.599  1.00  0.00     0.000 C 
BRANCH  18  19
HETATM   19  C9  UNL     1      -9.366  47.301 -32.084  1.00  0.00     0.000 C 
BRANCH  19  20
HETATM   20  C10 UNL     1      -8.349  47.922 -33.049  1.00  0.00     0.001 C 
BRANCH  20  21
HETATM   21  C11 UNL     1      -7.224  46.998 -33.543  1.00  0.00     0.010 C 
BRANCH  21  22
HETATM   22  C12 UNL     1      -5.973  46.998 -32.659  1.00  0.00     0.110 C 
BRANCH  22  23
HETATM   23  C13 UNL     1      -4.780  47.666 -33.291  1.00  0.00     0.139 C 
HETATM   24  O3  UNL     1      -4.749  48.339 -34.305  1.00  0.00    -0.650 OA
BRANCH  23  25
HETATM   25  O4  UNL     1      -3.649  47.427 -32.597  1.00  0.00    -0.776 OA
HETATM   26  H21 UNL     1      -2.955  47.895 -33.106  1.00  0.00     0.167 HD
ENDBRANCH  23  25
ENDBRANCH  22  23
ENDBRANCH  21  22
ENDBRANCH  20  21
ENDBRANCH  19  20
ENDBRANCH  18  19
ENDBRANCH  17  18
ENDBRANCH  16  17
ENDBRANCH  15  16
ENDBRANCH  14  15
ENDBRANCH  12  14
ENDBRANCH  11  12
ENDBRANCH   8   9
ENDBRANCH   1   8
BRANCH   5  27
HETATM   27  O8  UNL     1       0.304  52.014 -28.817  1.00  0.00    -0.385 OA
HETATM   28  H42 UNL     1       1.281  52.060 -28.863  1.00  0.00     0.210 HD
ENDBRANCH   5  27
BRANCH   4  29
HETATM   29  O6  UNL     1       2.241  52.248 -26.971  1.00  0.00    -0.384 OA
HETATM   30  H27 UNL     1       2.843  52.104 -26.218  1.00  0.00     0.210 HD
ENDBRANCH   4  29
BRANCH   4  31
HETATM   31  C18 UNL     1       0.755  53.137 -25.238  1.00  0.00     0.070 C 
BRANCH  31  32
HETATM   32  C19 UNL     1       0.542  52.439 -23.914  1.00  0.00    -0.027 C 
HETATM   33  C20 UNL     1       0.303  53.082 -22.759  1.00  0.00    -0.024 C 
BRANCH  33  34
HETATM   34  C21 UNL     1      -0.014  52.465 -21.401  1.00  0.00     0.032 C 
HETATM   35  C22 UNL     1       0.097  50.934 -21.370  1.00  0.00     0.017 C 
BRANCH  34  36
HETATM   36  C23 UNL     1       0.813  53.084 -20.243  1.00  0.00     0.121 C 
HETATM   37  C24 UNL     1       0.005  53.363 -18.980  1.00  0.00     0.040 C 
BRANCH  36  38
HETATM   38  O7  UNL     1       1.451  54.296 -20.649  1.00  0.00    -0.395 OA
HETATM   39  H40 UNL     1       0.775  54.857 -21.061  1.00  0.00     0.210 HD
ENDBRANCH  36  38
ENDBRANCH  34  36
ENDBRANCH  33  34
ENDBRANCH  31  32
ENDBRANCH   4  31
TORSDOF 21
ENDMDL
MODEL 7
REMARK minimizedAffinity -7.40339231
REMARK  21 active torsions:
REMARK  status: ('A' for Active; 'I' for Inactive)
REMARK    1  A    between atoms: C2_2  and  C14_18 
REMARK    2  A    between atoms: C3_3  and  C4_4 
REMARK    3  A    between atoms: C4_4  and  O2_6 
REMARK    4  A    between atoms: O2_6  and  C5_7 
REMARK    5  A    between atoms: C5_7  and  C6_8 
REMARK    6  A    between atoms: C6_8  and  C7_9 
REMARK    7  A    between atoms: C7_9  and  C8_10 
REMARK    8  A    between atoms: C8_10  and  C9_11 
REMARK    9  A    between atoms: C9_11  and  C10_12 
REMARK   10  A    between atoms: C10_12  and  C11_13 
REMARK   11  A    between atoms: C11_13  and  C12_14 
REMARK   12  A    between atoms: C12_14  and  C13_15 
REMARK   13  A    between atoms: C13_15  and  O4_17 
REMARK   14  A    between atoms: C14_18  and  C15_19 
REMARK   15  A    between atoms: C17_22  and  O6_23 
REMARK   16  A    between atoms: C17_22  and  C18_24 
REMARK   17  A    between atoms: C18_24  and  C19_25 
REMARK   18  A    between atoms: C20_26  and  C21_27 
REMARK   19  A    between atoms: C21_27  and  C23_29 
REMARK   20  A    between atoms: C23_29  and  O7_31 
REMARK   21  A    between atoms: C25_32  and  O8_33 
ROOT
HETATM    1  C15 UNL     1      -1.864  50.158 -26.031  1.00  0.00     0.197 C 
HETATM    2  O5  UNL     1      -0.638  50.343 -25.299  1.00  0.00    -0.375 OA
HETATM    3  C16 UNL     1       0.268  51.213 -25.976  1.00  0.00     0.210 C 
HETATM    4  C17 UNL     1      -0.299  52.644 -26.073  1.00  0.00     0.115 C 
HETATM    5  C25 UNL     1      -1.632  52.585 -26.852  1.00  0.00     0.227 C 
HETATM    6  C26 UNL     1      -2.531  51.524 -26.231  1.00  0.00     0.187 C 
HETATM    7  O9  UNL     1      -3.697  51.775 -25.928  1.00  0.00    -0.292 OA
ENDROOT
BRANCH   1   8
HETATM    8  C14 UNL     1      -2.736  49.173 -25.232  1.00  0.00     0.073 C 
BRANCH   8   9
HETATM    9  C2  UNL     1      -3.973  48.707 -25.986  1.00  0.00    -0.075 C 
HETATM   10  C1  UNL     1      -5.197  48.485 -25.135  1.00  0.00     0.043 C 
HETATM   11  C3  UNL     1      -3.898  48.477 -27.313  1.00  0.00     0.084 C 
BRANCH  11  12
HETATM   12  C4  UNL     1      -4.966  48.041 -28.240  1.00  0.00     0.283 C 
HETATM   13  O1  UNL     1      -5.949  47.430 -27.852  1.00  0.00    -0.260 OA
BRANCH  12  14
HETATM   14  O2  UNL     1      -4.661  48.342 -29.523  1.00  0.00    -0.318 OA
BRANCH  14  15
HETATM   15  C5  UNL     1      -5.675  48.038 -30.495  1.00  0.00     0.179 C 
BRANCH  15  16
HETATM   16  C6  UNL     1      -5.139  48.297 -31.900  1.00  0.00     0.027 C 
BRANCH  16  17
HETATM   17  C7  UNL     1      -5.144  47.064 -32.806  1.00  0.00     0.002 C 
BRANCH  17  18
HETATM   18  C8  UNL     1      -4.342  45.891 -32.242  1.00  0.00     0.000 C 
BRANCH  18  19
HETATM   19  C9  UNL     1      -5.000  44.521 -32.453  1.00  0.00     0.000 C 
BRANCH  19  20
HETATM   20  C10 UNL     1      -4.026  43.337 -32.458  1.00  0.00     0.001 C 
BRANCH  20  21
HETATM   21  C11 UNL     1      -4.053  42.435 -33.702  1.00  0.00     0.010 C 
BRANCH  21  22
HETATM   22  C12 UNL     1      -2.946  41.378 -33.740  1.00  0.00     0.110 C 
BRANCH  22  23
HETATM   23  C13 UNL     1      -3.401  40.003 -33.323  1.00  0.00     0.139 C 
HETATM   24  O3  UNL     1      -4.160  39.256 -33.912  1.00  0.00    -0.650 OA
BRANCH  23  25
HETATM   25  O4  UNL     1      -2.872  39.641 -32.137  1.00  0.00    -0.776 OA
HETATM   26  H21 UNL     1      -3.248  38.752 -31.972  1.00  0.00     0.167 HD
ENDBRANCH  23  25
ENDBRANCH  22  23
ENDBRANCH  21  22
ENDBRANCH  20  21
ENDBRANCH  19  20
ENDBRANCH  18  19
ENDBRANCH  17  18
ENDBRANCH  16  17
ENDBRANCH  15  16
ENDBRANCH  14  15
ENDBRANCH  12  14
ENDBRANCH  11  12
ENDBRANCH   8   9
ENDBRANCH   1   8
BRANCH   5  27
HETATM   27  O8  UNL     1      -1.375  52.261 -28.223  1.00  0.00    -0.385 OA
HETATM   28  H42 UNL     1      -0.629  52.841 -28.480  1.00  0.00     0.210 HD
ENDBRANCH   5  27
BRANCH   4  29
HETATM   29  O6  UNL     1       0.604  53.456 -26.856  1.00  0.00    -0.384 OA
HETATM   30  H27 UNL     1       1.385  53.641 -26.302  1.00  0.00     0.210 HD
ENDBRANCH   4  29
BRANCH   4  31
HETATM   31  C18 UNL     1      -0.534  53.309 -24.692  1.00  0.00     0.070 C 
BRANCH  31  32
HETATM   32  C19 UNL     1       0.362  52.807 -23.583  1.00  0.00    -0.027 C 
HETATM   33  C20 UNL     1      -0.024  52.697 -22.300  1.00  0.00    -0.024 C 
BRANCH  33  34
HETATM   34  C21 UNL     1       0.774  52.119 -21.137  1.00  0.00     0.032 C 
HETATM   35  C22 UNL     1       1.476  53.178 -20.274  1.00  0.00     0.017 C 
BRANCH  34  36
HETATM   36  C23 UNL     1      -0.061  51.167 -20.239  1.00  0.00     0.121 C 
HETATM   37  C24 UNL     1      -0.530  49.898 -20.942  1.00  0.00     0.040 C 
BRANCH  36  38
HETATM   38  O7  UNL     1      -1.204  51.833 -19.698  1.00  0.00    -0.395 OA
HETATM   39  H40 UNL     1      -1.664  52.267 -20.433  1.00  0.00     0.210 HD
ENDBRANCH  36  38
ENDBRANCH  34  36
ENDBRANCH  33  34
ENDBRANCH  31  32
ENDBRANCH   4  31
TORSDOF 21
ENDMDL
MODEL 8
REMARK minimizedAffinity -7.40152073
REMARK  21 active torsions:
REMARK  status: ('A' for Active; 'I' for Inactive)
REMARK    1  A    between atoms: C2_2  and  C14_18 
REMARK    2  A    between atoms: C3_3  and  C4_4 
REMARK    3  A    between atoms: C4_4  and  O2_6 
REMARK    4  A    between atoms: O2_6  and  C5_7 
REMARK    5  A    between atoms: C5_7  and  C6_8 
REMARK    6  A    between atoms: C6_8  and  C7_9 
REMARK    7  A    between atoms: C7_9  and  C8_10 
REMARK    8  A    between atoms: C8_10  and  C9_11 
REMARK    9  A    between atoms: C9_11  and  C10_12 
REMARK   10  A    between atoms: C10_12  and  C11_13 
REMARK   11  A    between atoms: C11_13  and  C12_14 
REMARK   12  A    between atoms: C12_14  and  C13_15 
REMARK   13  A    between atoms: C13_15  and  O4_17 
REMARK   14  A    between atoms: C14_18  and  C15_19 
REMARK   15  A    between atoms: C17_22  and  O6_23 
REMARK   16  A    between atoms: C17_22  and  C18_24 
REMARK   17  A    between atoms: C18_24  and  C19_25 
REMARK   18  A    between atoms: C20_26  and  C21_27 
REMARK   19  A    between atoms: C21_27  and  C23_29 
REMARK   20  A    between atoms: C23_29  and  O7_31 
REMARK   21  A    between atoms: C25_32  and  O8_33 
ROOT
HETATM    1  C15 UNL     1      -1.711  50.987 -26.839  1.00  0.00     0.197 C 
HETATM    2  O5  UNL     1      -0.850  50.652 -25.735  1.00  0.00    -0.375 OA
HETATM    3  C16 UNL     1       0.532  50.766 -26.076  1.00  0.00     0.210 C 
HETATM    4  C17 UNL     1       0.912  52.229 -26.383  1.00  0.00     0.115 C 
HETATM    5  C25 UNL     1       0.051  52.714 -27.570  1.00  0.00     0.227 C 
HETATM    6  C26 UNL     1      -1.416  52.426 -27.277  1.00  0.00     0.187 C 
HETATM    7  O9  UNL     1      -2.273  53.302 -27.395  1.00  0.00    -0.292 OA
ENDROOT
BRANCH   1   8
HETATM    8  C14 UNL     1      -3.163  50.784 -26.372  1.00  0.00     0.073 C 
BRANCH   8   9
HETATM    9  C2  UNL     1      -3.779  49.479 -26.852  1.00  0.00    -0.075 C 
HETATM   10  C1  UNL     1      -3.783  48.360 -25.842  1.00  0.00     0.043 C 
HETATM   11  C3  UNL     1      -4.224  49.379 -28.122  1.00  0.00     0.084 C 
BRANCH  11  12
HETATM   12  C4  UNL     1      -4.867  48.226 -28.791  1.00  0.00     0.283 C 
HETATM   13  O1  UNL     1      -5.491  47.383 -28.167  1.00  0.00    -0.260 OA
BRANCH  12  14
HETATM   14  O2  UNL     1      -4.604  48.214 -30.118  1.00  0.00    -0.318 OA
BRANCH  14  15
HETATM   15  C5  UNL     1      -5.740  48.033 -30.979  1.00  0.00     0.179 C 
BRANCH  15  16
HETATM   16  C6  UNL     1      -5.333  47.230 -32.211  1.00  0.00     0.027 C 
BRANCH  16  17
HETATM   17  C7  UNL     1      -4.334  46.108 -31.920  1.00  0.00     0.002 C 
BRANCH  17  18
HETATM   18  C8  UNL     1      -4.533  44.873 -32.799  1.00  0.00     0.000 C 
BRANCH  18  19
HETATM   19  C9  UNL     1      -4.423  43.541 -32.045  1.00  0.00     0.000 C 
BRANCH  19  20
HETATM   20  C10 UNL     1      -4.605  42.294 -32.918  1.00  0.00     0.001 C 
BRANCH  20  21
HETATM   21  C11 UNL     1      -3.375  41.834 -33.717  1.00  0.00     0.010 C 
BRANCH  21  22
HETATM   22  C12 UNL     1      -3.684  40.826 -34.828  1.00  0.00     0.110 C 
BRANCH  22  23
HETATM   23  C13 UNL     1      -4.526  41.389 -35.944  1.00  0.00     0.139 C 
HETATM   24  O3  UNL     1      -5.613  41.000 -36.330  1.00  0.00    -0.650 OA
BRANCH  23  25
HETATM   25  O4  UNL     1      -3.924  42.435 -36.545  1.00  0.00    -0.776 OA
HETATM   26  H21 UNL     1      -4.553  42.697 -37.248  1.00  0.00     0.167 HD
ENDBRANCH  23  25
ENDBRANCH  22  23
ENDBRANCH  21  22
ENDBRANCH  20  21
ENDBRANCH  19  20
ENDBRANCH  18  19
ENDBRANCH  17  18
ENDBRANCH  16  17
ENDBRANCH  15  16
ENDBRANCH  14  15
ENDBRANCH  12  14
ENDBRANCH  11  12
ENDBRANCH   8   9
ENDBRANCH   1   8
BRANCH   5  27
HETATM   27  O8  UNL     1       0.449  52.033 -28.765  1.00  0.00    -0.385 OA
HETATM   28  H42 UNL     1       1.428  52.075 -28.760  1.00  0.00     0.210 HD
ENDBRANCH   5  27
BRANCH   4  29
HETATM   29  O6  UNL     1       2.288  52.274 -26.822  1.00  0.00    -0.384 OA
HETATM   30  H27 UNL     1       2.850  52.135 -26.038  1.00  0.00     0.210 HD
ENDBRANCH   4  29
BRANCH   4  31
HETATM   31  C18 UNL     1       0.718  53.183 -25.176  1.00  0.00     0.070 C 
BRANCH  31  32
HETATM   32  C19 UNL     1       0.472  52.495 -23.853  1.00  0.00    -0.027 C 
HETATM   33  C20 UNL     1       0.438  53.135 -22.671  1.00  0.00    -0.024 C 
BRANCH  33  34
HETATM   34  C21 UNL     1       0.107  52.545 -21.305  1.00  0.00     0.032 C 
HETATM   35  C22 UNL     1      -0.013  51.014 -21.299  1.00  0.00     0.017 C 
BRANCH  34  36
HETATM   36  C23 UNL     1       1.082  53.008 -20.189  1.00  0.00     0.121 C 
HETATM   37  C24 UNL     1       0.636  52.638 -18.779  1.00  0.00     0.040 C 
BRANCH  36  38
HETATM   38  O7  UNL     1       1.297  54.419 -20.240  1.00  0.00    -0.395 OA
HETATM   39  H40 UNL     1       0.426  54.846 -20.274  1.00  0.00     0.210 HD
ENDBRANCH  36  38
ENDBRANCH  34  36
ENDBRANCH  33  34
ENDBRANCH  31  32
ENDBRANCH   4  31
TORSDOF 21
ENDMDL
MODEL 9
REMARK minimizedAffinity -7.36892033
REMARK  21 active torsions:
REMARK  status: ('A' for Active; 'I' for Inactive)
REMARK    1  A    between atoms: C2_2  and  C14_18 
REMARK    2  A    between atoms: C3_3  and  C4_4 
REMARK    3  A    between atoms: C4_4  and  O2_6 
REMARK    4  A    between atoms: O2_6  and  C5_7 
REMARK    5  A    between atoms: C5_7  and  C6_8 
REMARK    6  A    between atoms: C6_8  and  C7_9 
REMARK    7  A    between atoms: C7_9  and  C8_10 
REMARK    8  A    between atoms: C8_10  and  C9_11 
REMARK    9  A    between atoms: C9_11  and  C10_12 
REMARK   10  A    between atoms: C10_12  and  C11_13 
REMARK   11  A    between atoms: C11_13  and  C12_14 
REMARK   12  A    between atoms: C12_14  and  C13_15 
REMARK   13  A    between atoms: C13_15  and  O4_17 
REMARK   14  A    between atoms: C14_18  and  C15_19 
REMARK   15  A    between atoms: C17_22  and  O6_23 
REMARK   16  A    between atoms: C17_22  and  C18_24 
REMARK   17  A    between atoms: C18_24  and  C19_25 
REMARK   18  A    between atoms: C20_26  and  C21_27 
REMARK   19  A    between atoms: C21_27  and  C23_29 
REMARK   20  A    between atoms: C23_29  and  O7_31 
REMARK   21  A    between atoms: C25_32  and  O8_33 
ROOT
HETATM    1  C15 UNL     1       0.067  52.843 -24.327  1.00  0.00     0.197 C 
HETATM    2  O5  UNL     1      -1.138  52.062 -24.424  1.00  0.00    -0.375 OA
HETATM    3  C16 UNL     1      -2.036  52.576 -25.409  1.00  0.00     0.210 C 
HETATM    4  C17 UNL     1      -1.433  52.466 -26.824  1.00  0.00     0.115 C 
HETATM    5  C25 UNL     1      -0.119  53.277 -26.856  1.00  0.00     0.227 C 
HETATM    6  C26 UNL     1       0.765  52.848 -25.692  1.00  0.00     0.187 C 
HETATM    7  O9  UNL     1       1.943  52.538 -25.868  1.00  0.00    -0.292 OA
ENDROOT
BRANCH   1   8
HETATM    8  C14 UNL     1       0.929  52.227 -23.211  1.00  0.00     0.073 C 
BRANCH   8   9
HETATM    9  C2  UNL     1       0.671  52.832 -21.839  1.00  0.00    -0.075 C 
HETATM   10  C1  UNL     1       1.398  54.122 -21.559  1.00  0.00     0.043 C 
HETATM   11  C3  UNL     1      -0.120  52.181 -20.961  1.00  0.00     0.084 C 
BRANCH  11  12
HETATM   12  C4  UNL     1      -0.518  52.585 -19.595  1.00  0.00     0.283 C 
HETATM   13  O1  UNL     1      -0.146  53.637 -19.099  1.00  0.00    -0.260 OA
BRANCH  12  14
HETATM   14  O2  UNL     1      -1.255  51.626 -18.989  1.00  0.00    -0.318 OA
BRANCH  14  15
HETATM   15  C5  UNL     1      -0.576  50.385 -18.732  1.00  0.00     0.179 C 
BRANCH  15  16
HETATM   16  C6  UNL     1      -0.555  49.536 -20.001  1.00  0.00     0.027 C 
BRANCH  16  17
HETATM   17  C7  UNL     1      -1.303  48.208 -19.873  1.00  0.00     0.002 C 
BRANCH  17  18
HETATM   18  C8  UNL     1      -1.568  47.527 -21.216  1.00  0.00     0.000 C 
BRANCH  18  19
HETATM   19  C9  UNL     1      -3.051  47.256 -21.502  1.00  0.00     0.000 C 
BRANCH  19  20
HETATM   20  C10 UNL     1      -3.732  48.302 -22.392  1.00  0.00     0.001 C 
BRANCH  20  21
HETATM   21  C11 UNL     1      -5.200  48.623 -22.069  1.00  0.00     0.010 C 
BRANCH  21  22
HETATM   22  C12 UNL     1      -5.429  50.027 -21.501  1.00  0.00     0.110 C 
BRANCH  22  23
HETATM   23  C13 UNL     1      -4.160  50.753 -21.140  1.00  0.00     0.139 C 
HETATM   24  O3  UNL     1      -3.407  51.358 -21.881  1.00  0.00    -0.650 OA
BRANCH  23  25
HETATM   25  O4  UNL     1      -3.889  50.660 -19.822  1.00  0.00    -0.776 OA
HETATM   26  H21 UNL     1      -3.048  51.151 -19.718  1.00  0.00     0.167 HD
ENDBRANCH  23  25
ENDBRANCH  22  23
ENDBRANCH  21  22
ENDBRANCH  20  21
ENDBRANCH  19  20
ENDBRANCH  18  19
ENDBRANCH  17  18
ENDBRANCH  16  17
ENDBRANCH  15  16
ENDBRANCH  14  15
ENDBRANCH  12  14
ENDBRANCH  11  12
ENDBRANCH   8   9
ENDBRANCH   1   8
BRANCH   5  27
HETATM   27  O8  UNL     1      -0.412  54.674 -26.753  1.00  0.00    -0.385 OA
HETATM   28  H42 UNL     1      -1.148  54.822 -27.382  1.00  0.00     0.210 HD
ENDBRANCH   5  27
BRANCH   4  29
HETATM   29  O6  UNL     1      -2.331  53.093 -27.767  1.00  0.00    -0.384 OA
HETATM   30  H27 UNL     1      -3.096  52.498 -27.882  1.00  0.00     0.210 HD
ENDBRANCH   4  29
BRANCH   4  31
HETATM   31  C18 UNL     1      -1.154  51.005 -27.263  1.00  0.00     0.070 C 
BRANCH  31  32
HETATM   32  C19 UNL     1      -2.176  49.993 -26.799  1.00  0.00    -0.027 C 
HETATM   33  C20 UNL     1      -3.145  49.493 -27.585  1.00  0.00    -0.024 C 
BRANCH  33  34
HETATM   34  C21 UNL     1      -4.157  48.408 -27.235  1.00  0.00     0.032 C 
HETATM   35  C22 UNL     1      -4.761  48.547 -25.830  1.00  0.00     0.017 C 
BRANCH  34  36
HETATM   36  C23 UNL     1      -5.287  48.266 -28.290  1.00  0.00     0.121 C 
HETATM   37  C24 UNL     1      -6.438  47.367 -27.853  1.00  0.00     0.040 C 
BRANCH  36  38
HETATM   38  O7  UNL     1      -4.779  47.779 -29.533  1.00  0.00    -0.395 OA
HETATM   39  H40 UNL     1      -4.248  46.990 -29.343  1.00  0.00     0.210 HD
ENDBRANCH  36  38
ENDBRANCH  34  36
ENDBRANCH  33  34
ENDBRANCH  31  32
ENDBRANCH   4  31
TORSDOF 21
ENDMDL
