MODEL 1
REMARK minimizedAffinity -10.137352
REMARK  6 active torsions:
REMARK  status: ('A' for Active; 'I' for Inactive)
REMARK    1  A    between atoms: C2_2  and  C30_32 
REMARK    2  A    between atoms: C3_3  and  C4_4 
REMARK    3  A    between atoms: C4_4  and  C5_6 
REMARK    4  A    between atoms: C5_6  and  C6_7 
REMARK    5  A    between atoms: C6_7  and  C8_9 
REMARK    6  A    between atoms: C30_32  and  O4_34 
ROOT
HETATM    1  C8  UNL     1      -3.544   7.679  14.485  1.00  0.00    -0.001 C 
HETATM    2  C9  UNL     1      -4.193   8.461  13.302  1.00  0.00     0.007 C 
HETATM    3  C10 UNL     1      -3.085   8.755  12.275  1.00  0.00     0.015 C 
HETATM    4  C11 UNL     1      -1.771   8.490  13.036  1.00  0.00    -0.013 C 
HETATM    5  C12 UNL     1      -1.485   9.785  13.863  1.00  0.00     0.021 C 
HETATM    6  C13 UNL     1      -0.494   8.205  12.248  1.00  0.00    -0.070 C 
HETATM    7  C14 UNL     1      -0.391   8.430  10.928  1.00  0.00    -0.022 C 
HETATM    8  C15 UNL     1       0.869   8.289  10.143  1.00  0.00     0.034 C 
HETATM    9  C16 UNL     1       2.162   8.232  10.998  1.00  0.00     0.013 C 
HETATM   10  C17 UNL     1       3.440   7.922  10.126  1.00  0.00     0.018 C 
HETATM   11  C18 UNL     1       4.635   8.773  10.614  1.00  0.00     0.023 C 
HETATM   12  C19 UNL     1       3.279   8.238   8.624  1.00  0.00     0.023 C 
HETATM   13  C20 UNL     1       3.796   6.434  10.220  1.00  0.00     0.135 C 
HETATM   14  O2  UNL     1       4.941   6.023  10.018  1.00  0.00    -0.297 OA
HETATM   15  C21 UNL     1       2.667   5.460  10.464  1.00  0.00     0.080 C 
HETATM   16  C22 UNL     1       1.798   5.810  11.671  1.00  0.00     0.017 C 
HETATM   17  C23 UNL     1       1.960   7.255  12.217  1.00  0.00    -0.031 C 
HETATM   18  C24 UNL     1       3.185   7.277  13.172  1.00  0.00     0.016 C 
HETATM   19  C25 UNL     1       0.702   7.725  13.077  1.00  0.00     0.024 C 
HETATM   20  C26 UNL     1       0.296   6.689  14.170  1.00  0.00     0.010 C 
HETATM   21  C27 UNL     1      -1.043   6.950  14.885  1.00  0.00     0.011 C 
HETATM   22  C28 UNL     1      -2.175   7.228  13.882  1.00  0.00    -0.029 C 
HETATM   23  C29 UNL     1      -2.392   5.958  13.002  1.00  0.00     0.016 C 
ENDROOT
BRANCH   1  24
HETATM   24  C6  UNL     1      -4.523   6.622  15.082  1.00  0.00    -0.007 C 
HETATM   25  C7  UNL     1      -5.906   7.211  15.385  1.00  0.00     0.011 C 
BRANCH  24  26
HETATM   26  C5  UNL     1      -4.687   5.431  14.105  1.00  0.00     0.087 C 
BRANCH  26  27
HETATM   27  C4  UNL     1      -6.055   5.370  13.440  1.00  0.00     0.150 C 
HETATM   28  O1  UNL     1      -6.745   6.366  13.248  1.00  0.00    -0.293 OA
BRANCH  27  29
HETATM   29  C3  UNL     1      -6.543   4.004  13.091  1.00  0.00     0.063 C 
HETATM   30  C2  UNL     1      -6.000   3.199  12.159  1.00  0.00     0.015 C 
HETATM   31  C1  UNL     1      -4.774   3.462  11.337  1.00  0.00     0.055 C 
BRANCH  30  32
HETATM   32  C30 UNL     1      -6.698   1.906  11.971  1.00  0.00     0.171 C 
HETATM   33  O3  UNL     1      -6.327   0.981  11.270  1.00  0.00    -0.646 OA
BRANCH  32  34
HETATM   34  O4  UNL     1      -7.829   1.824  12.686  1.00  0.00    -0.773 OA
HETATM   35  H44 UNL     1      -8.176   0.930  12.482  1.00  0.00     0.167 HD
ENDBRANCH  32  34
ENDBRANCH  30  32
ENDBRANCH  27  29
ENDBRANCH  26  27
ENDBRANCH  24  26
ENDBRANCH   1  24
TORSDOF 6
ENDMDL
MODEL 2
REMARK minimizedAffinity -9.61897659
REMARK  6 active torsions:
REMARK  status: ('A' for Active; 'I' for Inactive)
REMARK    1  A    between atoms: C2_2  and  C30_32 
REMARK    2  A    between atoms: C3_3  and  C4_4 
REMARK    3  A    between atoms: C4_4  and  C5_6 
REMARK    4  A    between atoms: C5_6  and  C6_7 
REMARK    5  A    between atoms: C6_7  and  C8_9 
REMARK    6  A    between atoms: C30_32  and  O4_34 
ROOT
HETATM    1  C8  UNL     1      -2.908   7.783  15.570  1.00  0.00    -0.001 C 
HETATM    2  C9  UNL     1      -2.312   9.166  15.977  1.00  0.00     0.007 C 
HETATM    3  C10 UNL     1      -1.002   9.356  15.192  1.00  0.00     0.015 C 
HETATM    4  C11 UNL     1      -0.666   7.952  14.652  1.00  0.00    -0.013 C 
HETATM    5  C12 UNL     1       0.033   7.196  15.828  1.00  0.00     0.021 C 
HETATM    6  C13 UNL     1       0.269   7.816  13.452  1.00  0.00    -0.070 C 
HETATM    7  C14 UNL     1       1.023   8.831  13.001  1.00  0.00    -0.022 C 
HETATM    8  C15 UNL     1       2.041   8.711  11.918  1.00  0.00     0.034 C 
HETATM    9  C16 UNL     1       2.464   7.256  11.585  1.00  0.00     0.013 C 
HETATM   10  C17 UNL     1       3.417   7.186  10.329  1.00  0.00     0.018 C 
HETATM   11  C18 UNL     1       4.530   6.138  10.566  1.00  0.00     0.023 C 
HETATM   12  C19 UNL     1       4.141   8.508  10.003  1.00  0.00     0.023 C 
HETATM   13  C20 UNL     1       2.615   6.810   9.077  1.00  0.00     0.135 C 
HETATM   14  O2  UNL     1       3.143   6.272   8.102  1.00  0.00    -0.297 OA
HETATM   15  C21 UNL     1       1.163   7.221   9.029  1.00  0.00     0.080 C 
HETATM   16  C22 UNL     1       0.355   6.783  10.250  1.00  0.00     0.017 C 
HETATM   17  C23 UNL     1       1.191   6.335  11.481  1.00  0.00    -0.031 C 
HETATM   18  C24 UNL     1       1.581   4.844  11.283  1.00  0.00     0.016 C 
HETATM   19  C25 UNL     1       0.361   6.413  12.840  1.00  0.00     0.024 C 
HETATM   20  C26 UNL     1      -1.028   5.711  12.743  1.00  0.00     0.010 C 
HETATM   21  C27 UNL     1      -1.988   5.941  13.925  1.00  0.00     0.011 C 
HETATM   22  C28 UNL     1      -2.102   7.433  14.279  1.00  0.00    -0.029 C 
HETATM   23  C29 UNL     1      -2.719   8.192  13.063  1.00  0.00     0.016 C 
ENDROOT
BRANCH   1  24
HETATM   24  C6  UNL     1      -4.467   7.816  15.535  1.00  0.00    -0.007 C 
HETATM   25  C7  UNL     1      -5.007   8.858  14.547  1.00  0.00     0.011 C 
BRANCH  24  26
HETATM   26  C5  UNL     1      -5.025   6.423  15.151  1.00  0.00     0.087 C 
BRANCH  26  27
HETATM   27  C4  UNL     1      -5.834   6.423  13.861  1.00  0.00     0.150 C 
HETATM   28  O1  UNL     1      -5.735   7.305  13.015  1.00  0.00    -0.293 OA
BRANCH  27  29
HETATM   29  C3  UNL     1      -6.817   5.309  13.716  1.00  0.00     0.063 C 
HETATM   30  C2  UNL     1      -6.565   4.124  13.131  1.00  0.00     0.015 C 
HETATM   31  C1  UNL     1      -5.258   3.646  12.575  1.00  0.00     0.055 C 
BRANCH  30  32
HETATM   32  C30 UNL     1      -7.723   3.201  13.074  1.00  0.00     0.171 C 
HETATM   33  O3  UNL     1      -7.679   1.999  12.878  1.00  0.00    -0.646 OA
BRANCH  32  34
HETATM   34  O4  UNL     1      -8.891   3.828  13.282  1.00  0.00    -0.773 OA
HETATM   35  H44 UNL     1      -9.557   3.112  13.230  1.00  0.00     0.167 HD
ENDBRANCH  32  34
ENDBRANCH  30  32
ENDBRANCH  27  29
ENDBRANCH  26  27
ENDBRANCH  24  26
ENDBRANCH   1  24
TORSDOF 6
ENDMDL
MODEL 3
REMARK minimizedAffinity -9.51549625
REMARK  6 active torsions:
REMARK  status: ('A' for Active; 'I' for Inactive)
REMARK    1  A    between atoms: C2_2  and  C30_32 
REMARK    2  A    between atoms: C3_3  and  C4_4 
REMARK    3  A    between atoms: C4_4  and  C5_6 
REMARK    4  A    between atoms: C5_6  and  C6_7 
REMARK    5  A    between atoms: C6_7  and  C8_9 
REMARK    6  A    between atoms: C30_32  and  O4_34 
ROOT
HETATM    1  C8  UNL     1      -4.947   5.468  14.135  1.00  0.00    -0.001 C 
HETATM    2  C9  UNL     1      -5.507   4.635  12.941  1.00  0.00     0.007 C 
HETATM    3  C10 UNL     1      -7.012   4.934  12.831  1.00  0.00     0.015 C 
HETATM    4  C11 UNL     1      -7.372   5.614  14.167  1.00  0.00    -0.013 C 
HETATM    5  C12 UNL     1      -7.576   4.456  15.197  1.00  0.00     0.021 C 
HETATM    6  C13 UNL     1      -8.628   6.478  14.253  1.00  0.00    -0.070 C 
HETATM    7  C14 UNL     1      -9.580   6.469  13.306  1.00  0.00    -0.022 C 
HETATM    8  C15 UNL     1     -10.879   7.195  13.408  1.00  0.00     0.034 C 
HETATM    9  C16 UNL     1     -11.247   7.667  14.839  1.00  0.00     0.013 C 
HETATM   10  C17 UNL     1     -12.545   8.564  14.855  1.00  0.00     0.018 C 
HETATM   11  C18 UNL     1     -13.416   8.214  16.084  1.00  0.00     0.023 C 
HETATM   12  C19 UNL     1     -13.457   8.388  13.623  1.00  0.00     0.023 C 
HETATM   13  C20 UNL     1     -12.162  10.048  14.902  1.00  0.00     0.135 C 
HETATM   14  O2  UNL     1     -12.925  10.905  15.353  1.00  0.00    -0.297 OA
HETATM   15  C21 UNL     1     -10.850  10.450  14.272  1.00  0.00     0.080 C 
HETATM   16  C22 UNL     1      -9.651   9.642  14.769  1.00  0.00     0.017 C 
HETATM   17  C23 UNL     1      -9.996   8.331  15.527  1.00  0.00    -0.031 C 
HETATM   18  C24 UNL     1     -10.287   8.692  17.010  1.00  0.00     0.016 C 
HETATM   19  C25 UNL     1      -8.780   7.298  15.539  1.00  0.00     0.024 C 
HETATM   20  C26 UNL     1      -7.439   7.948  15.997  1.00  0.00     0.010 C 
HETATM   21  C27 UNL     1      -6.174   7.089  15.813  1.00  0.00     0.011 C 
HETATM   22  C28 UNL     1      -6.092   6.498  14.395  1.00  0.00    -0.029 C 
HETATM   23  C29 UNL     1      -5.978   7.668  13.368  1.00  0.00     0.016 C 
ENDROOT
BRANCH   1  24
HETATM   24  C6  UNL     1      -3.495   5.965  13.859  1.00  0.00    -0.007 C 
HETATM   25  C7  UNL     1      -2.475   5.360  14.833  1.00  0.00     0.011 C 
BRANCH  24  26
HETATM   26  C5  UNL     1      -3.074   5.616  12.410  1.00  0.00     0.087 C 
BRANCH  26  27
HETATM   27  C4  UNL     1      -1.584   5.346  12.254  1.00  0.00     0.150 C 
HETATM   28  O1  UNL     1      -0.737   6.232  12.321  1.00  0.00    -0.293 OA
BRANCH  27  29
HETATM   29  C3  UNL     1      -1.212   3.935  11.944  1.00  0.00     0.063 C 
HETATM   30  C2  UNL     1      -1.848   3.140  11.064  1.00  0.00     0.015 C 
HETATM   31  C1  UNL     1      -2.995   3.509  10.173  1.00  0.00     0.055 C 
BRANCH  30  32
HETATM   32  C30 UNL     1      -1.309   1.763  10.968  1.00  0.00     0.171 C 
HETATM   33  O3  UNL     1      -0.135   1.453  10.867  1.00  0.00    -0.646 OA
BRANCH  32  34
HETATM   34  O4  UNL     1      -2.271   0.830  11.019  1.00  0.00    -0.773 OA
HETATM   35  H44 UNL     1      -1.783  -0.018  10.959  1.00  0.00     0.167 HD
ENDBRANCH  32  34
ENDBRANCH  30  32
ENDBRANCH  27  29
ENDBRANCH  26  27
ENDBRANCH  24  26
ENDBRANCH   1  24
TORSDOF 6
ENDMDL
MODEL 4
REMARK minimizedAffinity -9.41976929
REMARK  6 active torsions:
REMARK  status: ('A' for Active; 'I' for Inactive)
REMARK    1  A    between atoms: C2_2  and  C30_32 
REMARK    2  A    between atoms: C3_3  and  C4_4 
REMARK    3  A    between atoms: C4_4  and  C5_6 
REMARK    4  A    between atoms: C5_6  and  C6_7 
REMARK    5  A    between atoms: C6_7  and  C8_9 
REMARK    6  A    between atoms: C30_32  and  O4_34 
ROOT
HETATM    1  C8  UNL     1      -3.875   7.038  14.583  1.00  0.00    -0.001 C 
HETATM    2  C9  UNL     1      -3.417   5.675  15.189  1.00  0.00     0.007 C 
HETATM    3  C10 UNL     1      -2.148   5.235  14.438  1.00  0.00     0.015 C 
HETATM    4  C11 UNL     1      -2.112   6.128  13.181  1.00  0.00    -0.013 C 
HETATM    5  C12 UNL     1      -3.075   5.456  12.149  1.00  0.00     0.021 C 
HETATM    6  C13 UNL     1      -0.788   6.332  12.447  1.00  0.00    -0.070 C 
HETATM    7  C14 UNL     1       0.294   5.572  12.678  1.00  0.00    -0.022 C 
HETATM    8  C15 UNL     1       1.563   5.652  11.898  1.00  0.00     0.034 C 
HETATM    9  C16 UNL     1       1.447   6.402  10.546  1.00  0.00     0.013 C 
HETATM   10  C17 UNL     1       2.849   6.592   9.847  1.00  0.00     0.018 C 
HETATM   11  C18 UNL     1       2.716   6.374   8.322  1.00  0.00     0.023 C 
HETATM   12  C19 UNL     1       3.937   5.607  10.323  1.00  0.00     0.023 C 
HETATM   13  C20 UNL     1       3.390   8.000  10.120  1.00  0.00     0.135 C 
HETATM   14  O2  UNL     1       4.201   8.544   9.368  1.00  0.00    -0.297 OA
HETATM   15  C21 UNL     1       2.977   8.668  11.410  1.00  0.00     0.080 C 
HETATM   16  C22 UNL     1       1.466   8.696  11.638  1.00  0.00     0.017 C 
HETATM   17  C23 UNL     1       0.636   7.739  10.738  1.00  0.00    -0.031 C 
HETATM   18  C24 UNL     1       0.382   8.451   9.381  1.00  0.00     0.016 C 
HETATM   19  C25 UNL     1      -0.796   7.412  11.359  1.00  0.00     0.024 C 
HETATM   20  C26 UNL     1      -1.575   8.692  11.790  1.00  0.00     0.010 C 
HETATM   21  C27 UNL     1      -2.858   8.459  12.610  1.00  0.00     0.011 C 
HETATM   22  C28 UNL     1      -2.614   7.491  13.780  1.00  0.00    -0.029 C 
HETATM   23  C29 UNL     1      -1.582   8.135  14.758  1.00  0.00     0.016 C 
ENDROOT
BRANCH   1  24
HETATM   24  C6  UNL     1      -4.489   7.973  15.669  1.00  0.00    -0.007 C 
HETATM   25  C7  UNL     1      -3.789   9.336  15.730  1.00  0.00     0.011 C 
BRANCH  24  26
HETATM   26  C5  UNL     1      -5.998   8.194  15.395  1.00  0.00     0.087 C 
BRANCH  26  27
HETATM   27  C4  UNL     1      -6.885   7.072  15.914  1.00  0.00     0.150 C 
HETATM   28  O1  UNL     1      -7.523   7.158  16.959  1.00  0.00    -0.293 OA
BRANCH  27  29
HETATM   29  C3  UNL     1      -6.882   5.818  15.105  1.00  0.00     0.063 C 
HETATM   30  C2  UNL     1      -7.812   5.481  14.193  1.00  0.00     0.015 C 
HETATM   31  C1  UNL     1      -8.987   6.299  13.750  1.00  0.00     0.055 C 
BRANCH  30  32
HETATM   32  C30 UNL     1      -7.605   4.160  13.554  1.00  0.00     0.171 C 
HETATM   33  O3  UNL     1      -6.538   3.590  13.404  1.00  0.00    -0.646 OA
BRANCH  32  34
HETATM   34  O4  UNL     1      -8.753   3.602  13.141  1.00  0.00    -0.773 OA
HETATM   35  H44 UNL     1      -8.476   2.745  12.757  1.00  0.00     0.167 HD
ENDBRANCH  32  34
ENDBRANCH  30  32
ENDBRANCH  27  29
ENDBRANCH  26  27
ENDBRANCH  24  26
ENDBRANCH   1  24
TORSDOF 6
ENDMDL
MODEL 5
REMARK minimizedAffinity -9.27454185
REMARK  6 active torsions:
REMARK  status: ('A' for Active; 'I' for Inactive)
REMARK    1  A    between atoms: C2_2  and  C30_32 
REMARK    2  A    between atoms: C3_3  and  C4_4 
REMARK    3  A    between atoms: C4_4  and  C5_6 
REMARK    4  A    between atoms: C5_6  and  C6_7 
REMARK    5  A    between atoms: C6_7  and  C8_9 
REMARK    6  A    between atoms: C30_32  and  O4_34 
ROOT
HETATM    1  C8  UNL     1      -1.820   6.882  12.780  1.00  0.00    -0.001 C 
HETATM    2  C9  UNL     1      -1.663   5.644  11.843  1.00  0.00     0.007 C 
HETATM    3  C10 UNL     1      -0.213   5.632  11.328  1.00  0.00     0.015 C 
HETATM    4  C11 UNL     1       0.326   7.039  11.652  1.00  0.00    -0.013 C 
HETATM    5  C12 UNL     1      -0.179   7.968  10.501  1.00  0.00     0.021 C 
HETATM    6  C13 UNL     1       1.835   7.261  11.737  1.00  0.00    -0.070 C 
HETATM    7  C14 UNL     1       2.727   6.363  11.290  1.00  0.00    -0.022 C 
HETATM    8  C15 UNL     1       4.200   6.590  11.236  1.00  0.00     0.034 C 
HETATM    9  C16 UNL     1       4.632   8.073  11.371  1.00  0.00     0.013 C 
HETATM   10  C17 UNL     1       6.199   8.231  11.468  1.00  0.00     0.018 C 
HETATM   11  C18 UNL     1       6.660   9.461  10.653  1.00  0.00     0.023 C 
HETATM   12  C19 UNL     1       6.996   7.031  10.914  1.00  0.00     0.023 C 
HETATM   13  C20 UNL     1       6.625   8.394  12.932  1.00  0.00     0.135 C 
HETATM   14  O2  UNL     1       7.676   8.956  13.246  1.00  0.00    -0.297 OA
HETATM   15  C21 UNL     1       5.762   7.743  13.987  1.00  0.00     0.080 C 
HETATM   16  C22 UNL     1       4.281   8.109  13.887  1.00  0.00     0.017 C 
HETATM   17  C23 UNL     1       3.841   8.761  12.547  1.00  0.00    -0.031 C 
HETATM   18  C24 UNL     1       4.146  10.282  12.626  1.00  0.00     0.016 C 
HETATM   19  C25 UNL     1       2.273   8.622  12.291  1.00  0.00     0.024 C 
HETATM   20  C26 UNL     1       1.417   9.075  13.513  1.00  0.00     0.010 C 
HETATM   21  C27 UNL     1      -0.087   8.755  13.442  1.00  0.00     0.011 C 
HETATM   22  C28 UNL     1      -0.336   7.287  13.056  1.00  0.00    -0.029 C 
HETATM   23  C29 UNL     1       0.252   6.367  14.170  1.00  0.00     0.016 C 
ENDROOT
BRANCH   1  24
HETATM   24  C6  UNL     1      -2.784   6.586  13.968  1.00  0.00    -0.007 C 
HETATM   25  C7  UNL     1      -3.862   7.665  14.130  1.00  0.00     0.011 C 
BRANCH  24  26
HETATM   26  C5  UNL     1      -3.474   5.213  13.771  1.00  0.00     0.087 C 
BRANCH  26  27
HETATM   27  C4  UNL     1      -4.863   5.310  13.156  1.00  0.00     0.150 C 
HETATM   28  O1  UNL     1      -5.548   6.325  13.218  1.00  0.00    -0.293 OA
BRANCH  27  29
HETATM   29  C3  UNL     1      -5.378   4.060  12.524  1.00  0.00     0.063 C 
HETATM   30  C2  UNL     1      -6.530   3.443  12.848  1.00  0.00     0.015 C 
HETATM   31  C1  UNL     1      -7.556   3.902  13.838  1.00  0.00     0.055 C 
BRANCH  30  32
HETATM   32  C30 UNL     1      -6.795   2.191  12.102  1.00  0.00     0.171 C 
HETATM   33  O3  UNL     1      -6.187   1.790  11.125  1.00  0.00    -0.646 OA
BRANCH  32  34
HETATM   34  O4  UNL     1      -7.807   1.484  12.626  1.00  0.00    -0.773 OA
HETATM   35  H44 UNL     1      -7.865   0.691  12.054  1.00  0.00     0.167 HD
ENDBRANCH  32  34
ENDBRANCH  30  32
ENDBRANCH  27  29
ENDBRANCH  26  27
ENDBRANCH  24  26
ENDBRANCH   1  24
TORSDOF 6
ENDMDL
MODEL 6
REMARK minimizedAffinity -9.20398045
REMARK  6 active torsions:
REMARK  status: ('A' for Active; 'I' for Inactive)
REMARK    1  A    between atoms: C2_2  and  C30_32 
REMARK    2  A    between atoms: C3_3  and  C4_4 
REMARK    3  A    between atoms: C4_4  and  C5_6 
REMARK    4  A    between atoms: C5_6  and  C6_7 
REMARK    5  A    between atoms: C6_7  and  C8_9 
REMARK    6  A    between atoms: C30_32  and  O4_34 
ROOT
HETATM    1  C8  UNL     1       0.697   6.972  12.335  1.00  0.00    -0.001 C 
HETATM    2  C9  UNL     1       0.662   5.883  11.219  1.00  0.00     0.007 C 
HETATM    3  C10 UNL     1      -0.701   5.174  11.302  1.00  0.00     0.015 C 
HETATM    4  C11 UNL     1      -1.268   5.585  12.676  1.00  0.00    -0.013 C 
HETATM    5  C12 UNL     1      -0.598   4.633  13.719  1.00  0.00     0.021 C 
HETATM    6  C13 UNL     1      -2.772   5.486  12.925  1.00  0.00    -0.070 C 
HETATM    7  C14 UNL     1      -3.600   4.817  12.107  1.00  0.00    -0.022 C 
HETATM    8  C15 UNL     1      -5.048   4.587  12.376  1.00  0.00     0.034 C 
HETATM    9  C16 UNL     1      -5.482   4.836  13.844  1.00  0.00     0.013 C 
HETATM   10  C17 UNL     1      -7.046   4.733  14.028  1.00  0.00     0.018 C 
HETATM   11  C18 UNL     1      -7.377   4.013  15.356  1.00  0.00     0.023 C 
HETATM   12  C19 UNL     1      -7.768   3.936  12.922  1.00  0.00     0.023 C 
HETATM   13  C20 UNL     1      -7.672   6.133  14.032  1.00  0.00     0.135 C 
HETATM   14  O2  UNL     1      -8.751   6.363  14.581  1.00  0.00    -0.297 OA
HETATM   15  C21 UNL     1      -6.971   7.212  13.242  1.00  0.00     0.080 C 
HETATM   16  C22 UNL     1      -5.487   7.363  13.579  1.00  0.00     0.017 C 
HETATM   17  C23 UNL     1      -4.858   6.183  14.370  1.00  0.00    -0.031 C 
HETATM   18  C24 UNL     1      -5.158   6.398  15.879  1.00  0.00     0.016 C 
HETATM   19  C25 UNL     1      -3.271   6.131  14.223  1.00  0.00     0.024 C 
HETATM   20  C26 UNL     1      -2.591   7.505  14.510  1.00  0.00     0.010 C 
HETATM   21  C27 UNL     1      -1.094   7.605  14.162  1.00  0.00     0.011 C 
HETATM   22  C28 UNL     1      -0.806   7.086  12.743  1.00  0.00    -0.029 C 
HETATM   23  C29 UNL     1      -1.553   7.991  11.715  1.00  0.00     0.016 C 
ENDROOT
BRANCH   1  24
HETATM   24  C6  UNL     1       1.483   8.239  11.880  1.00  0.00    -0.007 C 
HETATM   25  C7  UNL     1       2.674   8.549  12.795  1.00  0.00     0.011 C 
BRANCH  24  26
HETATM   26  C5  UNL     1       1.998   8.059  10.430  1.00  0.00     0.087 C 
BRANCH  26  27
HETATM   27  C4  UNL     1       3.485   7.743  10.344  1.00  0.00     0.150 C 
HETATM   28  O1  UNL     1       4.350   8.613  10.358  1.00  0.00    -0.293 OA
BRANCH  27  29
HETATM   29  C3  UNL     1       3.830   6.302  10.170  1.00  0.00     0.063 C 
HETATM   30  C2  UNL     1       3.444   5.530   9.138  1.00  0.00     0.015 C 
HETATM   31  C1  UNL     1       2.661   5.953   7.932  1.00  0.00     0.055 C 
BRANCH  30  32
HETATM   32  C30 UNL     1       3.883   4.117   9.221  1.00  0.00     0.171 C 
HETATM   33  O3  UNL     1       4.901   3.649   8.741  1.00  0.00    -0.646 OA
BRANCH  32  34
HETATM   34  O4  UNL     1       3.029   3.353   9.918  1.00  0.00    -0.773 OA
HETATM   35  H44 UNL     1       3.440   2.464   9.905  1.00  0.00     0.167 HD
ENDBRANCH  32  34
ENDBRANCH  30  32
ENDBRANCH  27  29
ENDBRANCH  26  27
ENDBRANCH  24  26
ENDBRANCH   1  24
TORSDOF 6
ENDMDL
MODEL 7
REMARK minimizedAffinity -9.16855431
REMARK  6 active torsions:
REMARK  status: ('A' for Active; 'I' for Inactive)
REMARK    1  A    between atoms: C2_2  and  C30_32 
REMARK    2  A    between atoms: C3_3  and  C4_4 
REMARK    3  A    between atoms: C4_4  and  C5_6 
REMARK    4  A    between atoms: C5_6  and  C6_7 
REMARK    5  A    between atoms: C6_7  and  C8_9 
REMARK    6  A    between atoms: C30_32  and  O4_34 
ROOT
HETATM    1  C8  UNL     1      -1.656   6.442  12.342  1.00  0.00    -0.001 C 
HETATM    2  C9  UNL     1      -1.301   5.221  11.438  1.00  0.00     0.007 C 
HETATM    3  C10 UNL     1       0.188   5.334  11.066  1.00  0.00     0.015 C 
HETATM    4  C11 UNL     1       0.568   6.784  11.427  1.00  0.00    -0.013 C 
HETATM    5  C12 UNL     1       0.099   7.663  10.222  1.00  0.00     0.021 C 
HETATM    6  C13 UNL     1       2.036   7.138  11.656  1.00  0.00    -0.070 C 
HETATM    7  C14 UNL     1       3.042   6.319  11.307  1.00  0.00    -0.022 C 
HETATM    8  C15 UNL     1       4.488   6.674  11.394  1.00  0.00     0.034 C 
HETATM    9  C16 UNL     1       4.774   8.190  11.556  1.00  0.00     0.013 C 
HETATM   10  C17 UNL     1       6.305   8.484  11.803  1.00  0.00     0.018 C 
HETATM   11  C18 UNL     1       6.734   9.749  11.023  1.00  0.00     0.023 C 
HETATM   12  C19 UNL     1       7.253   7.358  11.341  1.00  0.00     0.023 C 
HETATM   13  C20 UNL     1       6.570   8.688  13.299  1.00  0.00     0.135 C 
HETATM   14  O2  UNL     1       7.532   9.340  13.708  1.00  0.00    -0.297 OA
HETATM   15  C21 UNL     1       5.667   7.966  14.271  1.00  0.00     0.080 C 
HETATM   16  C22 UNL     1       4.177   8.200  14.025  1.00  0.00     0.017 C 
HETATM   17  C23 UNL     1       3.815   8.808  12.641  1.00  0.00    -0.031 C 
HETATM   18  C24 UNL     1       3.978  10.350  12.734  1.00  0.00     0.016 C 
HETATM   19  C25 UNL     1       2.298   8.532  12.235  1.00  0.00     0.024 C 
HETATM   20  C26 UNL     1       1.291   8.911  13.364  1.00  0.00     0.010 C 
HETATM   21  C27 UNL     1      -0.166   8.461  13.150  1.00  0.00     0.011 C 
HETATM   22  C28 UNL     1      -0.248   6.976  12.756  1.00  0.00    -0.029 C 
HETATM   23  C29 UNL     1       0.307   6.113  13.932  1.00  0.00     0.016 C 
ENDROOT
BRANCH   1  24
HETATM   24  C6  UNL     1      -2.703   6.065  13.434  1.00  0.00    -0.007 C 
HETATM   25  C7  UNL     1      -3.982   6.906  13.333  1.00  0.00     0.011 C 
BRANCH  24  26
HETATM   26  C5  UNL     1      -3.077   4.566  13.324  1.00  0.00     0.087 C 
BRANCH  26  27
HETATM   27  C4  UNL     1      -4.177   4.283  12.310  1.00  0.00     0.150 C 
HETATM   28  O1  UNL     1      -3.944   3.925  11.160  1.00  0.00    -0.293 OA
BRANCH  27  29
HETATM   29  C3  UNL     1      -5.570   4.536  12.781  1.00  0.00     0.063 C 
HETATM   30  C2  UNL     1      -6.613   3.704  12.601  1.00  0.00     0.015 C 
HETATM   31  C1  UNL     1      -6.591   2.346  11.969  1.00  0.00     0.055 C 
BRANCH  30  32
HETATM   32  C30 UNL     1      -7.905   4.206  13.126  1.00  0.00     0.171 C 
HETATM   33  O3  UNL     1      -8.134   5.336  13.519  1.00  0.00    -0.646 OA
BRANCH  32  34
HETATM   34  O4  UNL     1      -8.862   3.266  13.120  1.00  0.00    -0.773 OA
HETATM   35  H44 UNL     1      -9.650   3.728  13.474  1.00  0.00     0.167 HD
ENDBRANCH  32  34
ENDBRANCH  30  32
ENDBRANCH  27  29
ENDBRANCH  26  27
ENDBRANCH  24  26
ENDBRANCH   1  24
TORSDOF 6
ENDMDL
MODEL 8
REMARK minimizedAffinity -9.10746861
REMARK  6 active torsions:
REMARK  status: ('A' for Active; 'I' for Inactive)
REMARK    1  A    between atoms: C2_2  and  C30_32 
REMARK    2  A    between atoms: C3_3  and  C4_4 
REMARK    3  A    between atoms: C4_4  and  C5_6 
REMARK    4  A    between atoms: C5_6  and  C6_7 
REMARK    5  A    between atoms: C6_7  and  C8_9 
REMARK    6  A    between atoms: C30_32  and  O4_34 
ROOT
HETATM    1  C8  UNL     1       1.412   6.861  11.531  1.00  0.00    -0.001 C 
HETATM    2  C9  UNL     1       1.244   5.400  11.012  1.00  0.00     0.007 C 
HETATM    3  C10 UNL     1      -0.104   4.873  11.534  1.00  0.00     0.015 C 
HETATM    4  C11 UNL     1      -0.508   5.869  12.639  1.00  0.00    -0.013 C 
HETATM    5  C12 UNL     1       0.272   5.428  13.920  1.00  0.00     0.021 C 
HETATM    6  C13 UNL     1      -1.974   5.971  13.056  1.00  0.00    -0.070 C 
HETATM    7  C14 UNL     1      -2.894   5.060  12.700  1.00  0.00    -0.022 C 
HETATM    8  C15 UNL     1      -4.303   5.048  13.187  1.00  0.00     0.034 C 
HETATM    9  C16 UNL     1      -4.565   5.932  14.434  1.00  0.00     0.013 C 
HETATM   10  C17 UNL     1      -6.098   6.006  14.801  1.00  0.00     0.018 C 
HETATM   11  C18 UNL     1      -6.279   5.952  16.336  1.00  0.00     0.023 C 
HETATM   12  C19 UNL     1      -6.946   4.848  14.233  1.00  0.00     0.023 C 
HETATM   13  C20 UNL     1      -6.712   7.301  14.256  1.00  0.00     0.135 C 
HETATM   14  O2  UNL     1      -7.721   7.805  14.754  1.00  0.00    -0.297 OA
HETATM   15  C21 UNL     1      -6.100   7.890  13.008  1.00  0.00     0.080 C 
HETATM   16  C22 UNL     1      -4.587   8.091  13.094  1.00  0.00     0.017 C 
HETATM   17  C23 UNL     1      -3.878   7.338  14.253  1.00  0.00    -0.031 C 
HETATM   18  C24 UNL     1      -4.002   8.202  15.539  1.00  0.00     0.016 C 
HETATM   19  C25 UNL     1      -2.318   7.140  13.985  1.00  0.00     0.024 C 
HETATM   20  C26 UNL     1      -1.603   8.464  13.572  1.00  0.00     0.010 C 
HETATM   21  C27 UNL     1      -0.155   8.321  13.068  1.00  0.00     0.011 C 
HETATM   22  C28 UNL     1      -0.034   7.223  11.997  1.00  0.00    -0.029 C 
HETATM   23  C29 UNL     1      -0.889   7.633  10.758  1.00  0.00     0.016 C 
ENDROOT
BRANCH   1  24
HETATM   24  C6  UNL     1       2.147   7.761  10.491  1.00  0.00    -0.007 C 
HETATM   25  C7  UNL     1       3.645   7.441  10.396  1.00  0.00     0.011 C 
BRANCH  24  26
HETATM   26  C5  UNL     1       1.508   7.593   9.090  1.00  0.00     0.087 C 
BRANCH  26  27
HETATM   27  C4  UNL     1       2.436   6.953   8.067  1.00  0.00     0.150 C 
HETATM   28  O1  UNL     1       2.528   7.353   6.911  1.00  0.00    -0.293 OA
BRANCH  27  29
HETATM   29  C3  UNL     1       3.188   5.753   8.538  1.00  0.00     0.063 C 
HETATM   30  C2  UNL     1       3.495   4.683   7.782  1.00  0.00     0.015 C 
HETATM   31  C1  UNL     1       3.220   4.496   6.321  1.00  0.00     0.055 C 
BRANCH  30  32
HETATM   32  C30 UNL     1       4.210   3.601   8.498  1.00  0.00     0.171 C 
HETATM   33  O3  UNL     1       5.279   3.109   8.180  1.00  0.00    -0.646 OA
BRANCH  32  34
HETATM   34  O4  UNL     1       3.558   3.192   9.596  1.00  0.00    -0.773 OA
HETATM   35  H44 UNL     1       4.138   2.497   9.972  1.00  0.00     0.167 HD
ENDBRANCH  32  34
ENDBRANCH  30  32
ENDBRANCH  27  29
ENDBRANCH  26  27
ENDBRANCH  24  26
ENDBRANCH   1  24
TORSDOF 6
ENDMDL
MODEL 9
REMARK minimizedAffinity -9.06770897
REMARK  6 active torsions:
REMARK  status: ('A' for Active; 'I' for Inactive)
REMARK    1  A    between atoms: C2_2  and  C30_32 
REMARK    2  A    between atoms: C3_3  and  C4_4 
REMARK    3  A    between atoms: C4_4  and  C5_6 
REMARK    4  A    between atoms: C5_6  and  C6_7 
REMARK    5  A    between atoms: C6_7  and  C8_9 
REMARK    6  A    between atoms: C30_32  and  O4_34 
ROOT
HETATM    1  C8  UNL     1      -3.262   5.849  12.582  1.00  0.00    -0.001 C 
HETATM    2  C9  UNL     1      -1.835   5.293  12.878  1.00  0.00     0.007 C 
HETATM    3  C10 UNL     1      -1.120   6.308  13.788  1.00  0.00     0.015 C 
HETATM    4  C11 UNL     1      -1.975   7.587  13.689  1.00  0.00    -0.013 C 
HETATM    5  C12 UNL     1      -1.529   8.302  12.373  1.00  0.00     0.021 C 
HETATM    6  C13 UNL     1      -1.877   8.639  14.792  1.00  0.00    -0.070 C 
HETATM    7  C14 UNL     1      -0.897   8.639  15.709  1.00  0.00    -0.022 C 
HETATM    8  C15 UNL     1      -0.688   9.713  16.722  1.00  0.00     0.034 C 
HETATM    9  C16 UNL     1      -1.438  11.038  16.425  1.00  0.00     0.013 C 
HETATM   10  C17 UNL     1      -1.308  12.075  17.608  1.00  0.00     0.018 C 
HETATM   11  C18 UNL     1      -1.116  13.502  17.043  1.00  0.00     0.023 C 
HETATM   12  C19 UNL     1      -0.109  11.824  18.546  1.00  0.00     0.023 C 
HETATM   13  C20 UNL     1      -2.563  12.034  18.488  1.00  0.00     0.135 C 
HETATM   14  O2  UNL     1      -2.909  12.997  19.175  1.00  0.00    -0.297 OA
HETATM   15  C21 UNL     1      -3.313  10.726  18.572  1.00  0.00     0.080 C 
HETATM   16  C22 UNL     1      -3.676  10.131  17.212  1.00  0.00     0.017 C 
HETATM   17  C23 UNL     1      -2.922  10.733  15.995  1.00  0.00    -0.031 C 
HETATM   18  C24 UNL     1      -3.665  12.026  15.558  1.00  0.00     0.016 C 
HETATM   19  C25 UNL     1      -2.925   9.756  14.735  1.00  0.00     0.024 C 
HETATM   20  C26 UNL     1      -4.348   9.225  14.384  1.00  0.00     0.010 C 
HETATM   21  C27 UNL     1      -4.411   8.098  13.336  1.00  0.00     0.011 C 
HETATM   22  C28 UNL     1      -3.420   6.968  13.661  1.00  0.00    -0.029 C 
HETATM   23  C29 UNL     1      -3.824   6.320  15.021  1.00  0.00     0.016 C 
ENDROOT
BRANCH   1  24
HETATM   24  C6  UNL     1      -4.316   4.705  12.480  1.00  0.00    -0.007 C 
HETATM   25  C7  UNL     1      -3.716   3.328  12.791  1.00  0.00     0.011 C 
BRANCH  24  26
HETATM   26  C5  UNL     1      -5.492   4.971  13.453  1.00  0.00     0.087 C 
BRANCH  26  27
HETATM   27  C4  UNL     1      -6.840   4.499  12.925  1.00  0.00     0.150 C 
HETATM   28  O1  UNL     1      -6.951   3.617  12.080  1.00  0.00    -0.293 OA
BRANCH  27  29
HETATM   29  C3  UNL     1      -8.031   5.227  13.453  1.00  0.00     0.063 C 
HETATM   30  C2  UNL     1      -8.927   5.896  12.704  1.00  0.00     0.015 C 
HETATM   31  C1  UNL     1      -8.965   5.995  11.209  1.00  0.00     0.055 C 
BRANCH  30  32
HETATM   32  C30 UNL     1      -9.998   6.572  13.472  1.00  0.00     0.171 C 
HETATM   33  O3  UNL     1     -10.921   7.219  13.008  1.00  0.00    -0.646 OA
BRANCH  32  34
HETATM   34  O4  UNL     1      -9.872   6.394  14.796  1.00  0.00    -0.773 OA
HETATM   35  H44 UNL     1     -10.637   6.874  15.174  1.00  0.00     0.167 HD
ENDBRANCH  32  34
ENDBRANCH  30  32
ENDBRANCH  27  29
ENDBRANCH  26  27
ENDBRANCH  24  26
ENDBRANCH   1  24
TORSDOF 6
ENDMDL
