MODEL 1
REMARK minimizedAffinity -8.34746456
REMARK CNNscore 0.773421705
REMARK CNNaffinity 7.10156679
REMARK  10 active torsions:
REMARK  status: ('A' for Active; 'I' for Inactive)
REMARK    1  A    between atoms: C19_21  and  O3_22 
REMARK    2  A    between atoms: C19_21  and  C20_23 
REMARK    3  A    between atoms: C20_23  and  C21_25 
REMARK    4  A    between atoms: C21_25  and  O5_26 
REMARK    5  A    between atoms: O5_26  and  C22_27 
REMARK    6  A    between atoms: C22_27  and  C23_29 
REMARK    7  A    between atoms: C23_29  and  C24_30 
REMARK    8  A    between atoms: C24_30  and  C25_31 
REMARK       I    between atoms: C25_31  and  N1_33 
REMARK    9  A    between atoms: N1_33  and  C26_34 
REMARK   10  A    between atoms: C26_34  and  C27_35 
ROOT
HETATM    1  C1  UNL     1      -4.261  51.200 -24.598  1.00  0.00     0.021 C 
HETATM    2  C2  UNL     1      -3.602  49.803 -24.607  1.00  0.00    -0.009 C 
HETATM    3  C3  UNL     1      -2.380  49.802 -25.576  1.00  0.00     0.022 C 
HETATM    4  C4  UNL     1      -2.762  49.856 -27.049  1.00  0.00     0.084 C 
HETATM    5  C5  UNL     1      -3.698  48.728 -27.390  1.00  0.00     0.149 C 
HETATM    6  O1  UNL     1      -3.738  48.219 -28.508  1.00  0.00    -0.293 OA
HETATM    7  C6  UNL     1      -4.662  48.286 -26.357  1.00  0.00     0.053 C 
HETATM    8  C7  UNL     1      -4.656  48.799 -25.113  1.00  0.00    -0.067 C 
HETATM    9  C8  UNL     1      -5.752  48.415 -24.149  1.00  0.00     0.035 C 
HETATM   10  C9  UNL     1      -5.197  47.970 -22.803  1.00  0.00     0.010 C 
HETATM   11  C10 UNL     1      -4.280  49.042 -22.200  1.00  0.00     0.003 C 
HETATM   12  C11 UNL     1      -3.112  49.357 -23.181  1.00  0.00     0.072 C 
HETATM   13  C12 UNL     1      -2.098  50.302 -22.500  1.00  0.00     0.133 C 
HETATM   14  O2  UNL     1      -1.653  51.316 -23.034  1.00  0.00    -0.297 OA
HETATM   15  C13 UNL     1      -1.597  49.889 -21.121  1.00  0.00     0.091 C 
HETATM   16  C14 UNL     1      -2.790  49.648 -20.189  1.00  0.00     0.005 C 
HETATM   17  C15 UNL     1      -3.512  50.999 -19.933  1.00  0.00     0.019 C 
HETATM   18  C16 UNL     1      -3.695  48.583 -20.858  1.00  0.00     0.002 C 
HETATM   19  C17 UNL     1      -4.659  48.178 -19.747  1.00  0.00     0.009 C 
HETATM   20  C18 UNL     1      -3.842  48.314 -18.445  1.00  0.00     0.047 C 
HETATM   21  C19 UNL     1      -2.481  48.927 -18.845  1.00  0.00     0.128 C 
ENDROOT
BRANCH  21  22
HETATM   22  O3  UNL     1      -1.588  47.826 -19.097  1.00  0.00    -0.381 OA
HETATM   23  H25 UNL     1      -0.677  48.178 -19.019  1.00  0.00     0.211 HD
ENDBRANCH  21  22
BRANCH  21  24
HETATM   24  C20 UNL     1      -1.772  49.810 -17.803  1.00  0.00     0.185 C 
HETATM   25  O4  UNL     1      -2.381  50.779 -17.332  1.00  0.00    -0.292 OA
BRANCH  24  26
HETATM   26  C21 UNL     1      -0.351  49.461 -17.372  1.00  0.00     0.260 C 
BRANCH  26  27
HETATM   27  O5  UNL     1       0.476  50.616 -17.233  1.00  0.00    -0.314 OA
BRANCH  27  28
HETATM   28  C22 UNL     1       0.709  50.975 -15.939  1.00  0.00     0.259 C 
HETATM   29  O6  UNL     1       0.353  50.332 -14.961  1.00  0.00    -0.265 OA
BRANCH  28  30
HETATM   30  C23 UNL     1       1.495  52.262 -15.886  1.00  0.00     0.120 C 
BRANCH  30  31
HETATM   31  C24 UNL     1       2.912  52.006 -15.386  1.00  0.00     0.112 C 
BRANCH  31  32
HETATM   32  C25 UNL     1       2.919  51.614 -13.920  1.00  0.00     0.218 C 
HETATM   33  O7  UNL     1       3.596  50.692 -13.478  1.00  0.00    -0.274 OA
HETATM   34  N1  UNL     1       2.065  52.371 -13.151  1.00  0.00    -0.357 N 
HETATM   35  H32 UNL     1       1.693  53.226 -13.542  1.00  0.00     0.162 HD
BRANCH  34  36
HETATM   36  C26 UNL     1       2.011  52.225 -11.713  1.00  0.00     0.161 C 
BRANCH  36  37
HETATM   37  C27 UNL     1       2.408  53.502 -11.021  1.00  0.00    -0.038 A 
HETATM   38  C28 UNL     1       3.740  53.925 -10.989  1.00  0.00     0.025 A 
HETATM   39  C29 UNL     1       4.046  55.107 -10.331  1.00  0.00     0.088 A 
HETATM   40  N2  UNL     1       3.132  55.881  -9.709  1.00  0.00    -0.375 N 
HETATM   41  C30 UNL     1       1.853  55.452  -9.743  1.00  0.00     0.088 A 
ATOM     42  H2  UNL     1       3.396  56.747  -9.236  1.00  0.00     0.164 HD
HETATM   43  C31 UNL     1       1.447  54.289 -10.378  1.00  0.00     0.025 A 
ENDBRANCH  36  37
ENDBRANCH  34  36
ENDBRANCH  31  32
ENDBRANCH  30  31
ENDBRANCH  28  30
ENDBRANCH  27  28
ENDBRANCH  26  27
ENDBRANCH  24  26
ENDBRANCH  21  24
TORSDOF 10
ENDMDL
MODEL 2
REMARK minimizedAffinity -10.6551504
REMARK CNNscore 0.620138705
REMARK CNNaffinity 7.54159403
REMARK  10 active torsions:
REMARK  status: ('A' for Active; 'I' for Inactive)
REMARK    1  A    between atoms: C19_21  and  O3_22 
REMARK    2  A    between atoms: C19_21  and  C20_23 
REMARK    3  A    between atoms: C20_23  and  C21_25 
REMARK    4  A    between atoms: C21_25  and  O5_26 
REMARK    5  A    between atoms: O5_26  and  C22_27 
REMARK    6  A    between atoms: C22_27  and  C23_29 
REMARK    7  A    between atoms: C23_29  and  C24_30 
REMARK    8  A    between atoms: C24_30  and  C25_31 
REMARK       I    between atoms: C25_31  and  N1_33 
REMARK    9  A    between atoms: N1_33  and  C26_34 
REMARK   10  A    between atoms: C26_34  and  C27_35 
ROOT
HETATM    1  C1  UNL     1      -0.266  49.932 -21.082  1.00  0.00     0.021 C 
HETATM    2  C2  UNL     1      -1.000  51.283 -21.242  1.00  0.00    -0.009 C 
HETATM    3  C3  UNL     1      -0.305  52.133 -22.348  1.00  0.00     0.022 C 
HETATM    4  C4  UNL     1       1.052  52.687 -21.939  1.00  0.00     0.084 C 
HETATM    5  C5  UNL     1       0.932  53.485 -20.669  1.00  0.00     0.149 C 
HETATM    6  O1  UNL     1       1.671  54.432 -20.411  1.00  0.00    -0.293 OA
HETATM    7  C6  UNL     1      -0.060  53.045 -19.661  1.00  0.00     0.053 C 
HETATM    8  C7  UNL     1      -0.903  52.023 -19.893  1.00  0.00    -0.067 C 
HETATM    9  C8  UNL     1      -1.791  51.528 -18.777  1.00  0.00     0.035 C 
HETATM   10  C9  UNL     1      -3.244  51.409 -19.215  1.00  0.00     0.010 C 
HETATM   11  C10 UNL     1      -3.376  50.523 -20.462  1.00  0.00     0.003 C 
HETATM   12  C11 UNL     1      -2.515  51.105 -21.622  1.00  0.00     0.072 C 
HETATM   13  C12 UNL     1      -2.787  50.316 -22.921  1.00  0.00     0.133 C 
HETATM   14  O2  UNL     1      -1.897  49.884 -23.650  1.00  0.00    -0.297 OA
HETATM   15  C13 UNL     1      -4.247  50.138 -23.321  1.00  0.00     0.091 C 
HETATM   16  C14 UNL     1      -5.028  49.511 -22.158  1.00  0.00     0.005 C 
HETATM   17  C15 UNL     1      -4.523  48.060 -21.935  1.00  0.00     0.019 C 
HETATM   18  C16 UNL     1      -4.837  50.427 -20.923  1.00  0.00     0.002 C 
HETATM   19  C17 UNL     1      -5.878  49.919 -19.931  1.00  0.00     0.009 C 
HETATM   20  C18 UNL     1      -7.050  49.427 -20.807  1.00  0.00     0.047 C 
HETATM   21  C19 UNL     1      -6.579  49.543 -22.274  1.00  0.00     0.128 C 
ENDROOT
BRANCH  21  22
HETATM   22  O3  UNL     1      -6.990  50.841 -22.741  1.00  0.00    -0.381 OA
HETATM   23  H25 UNL     1      -7.003  50.797 -23.720  1.00  0.00     0.211 HD
ENDBRANCH  21  22
BRANCH  21  24
HETATM   24  C20 UNL     1      -7.158  48.533 -23.282  1.00  0.00     0.185 C 
HETATM   25  O4  UNL     1      -7.696  47.505 -22.851  1.00  0.00    -0.292 OA
BRANCH  24  26
HETATM   26  C21 UNL     1      -7.065  48.832 -24.774  1.00  0.00     0.260 C 
BRANCH  26  27
HETATM   27  O5  UNL     1      -6.738  47.675 -25.543  1.00  0.00    -0.314 OA
BRANCH  27  28
HETATM   28  C22 UNL     1      -5.798  47.899 -26.505  1.00  0.00     0.259 C 
HETATM   29  O6  UNL     1      -5.954  47.680 -27.698  1.00  0.00    -0.265 OA
BRANCH  28  30
HETATM   30  C23 UNL     1      -4.551  48.487 -25.891  1.00  0.00     0.120 C 
BRANCH  30  31
HETATM   31  C24 UNL     1      -3.366  48.341 -26.839  1.00  0.00     0.112 C 
BRANCH  31  32
HETATM   32  C25 UNL     1      -2.936  49.685 -27.397  1.00  0.00     0.218 C 
HETATM   33  O7  UNL     1      -3.471  50.206 -28.371  1.00  0.00    -0.274 OA
HETATM   34  N1  UNL     1      -1.871  50.239 -26.724  1.00  0.00    -0.357 N 
HETATM   35  H32 UNL     1      -1.614  49.851 -25.826  1.00  0.00     0.162 HD
BRANCH  34  36
HETATM   36  C26 UNL     1      -1.387  51.565 -27.034  1.00  0.00     0.161 C 
BRANCH  36  37
HETATM   37  C27 UNL     1       0.118  51.602 -27.066  1.00  0.00    -0.038 A 
HETATM   38  C28 UNL     1       0.875  51.293 -25.932  1.00  0.00     0.025 A 
HETATM   39  C29 UNL     1       2.257  51.350 -26.019  1.00  0.00     0.088 A 
HETATM   40  N2  UNL     1       2.928  51.694 -27.140  1.00  0.00    -0.375 N 
HETATM   41  C30 UNL     1       2.179  51.997 -28.222  1.00  0.00     0.088 A 
ATOM     42  H2  UNL     1       3.947  51.722 -27.167  1.00  0.00     0.164 HD
HETATM   43  C31 UNL     1       0.795  51.965 -28.235  1.00  0.00     0.025 A 
ENDBRANCH  36  37
ENDBRANCH  34  36
ENDBRANCH  31  32
ENDBRANCH  30  31
ENDBRANCH  28  30
ENDBRANCH  27  28
ENDBRANCH  26  27
ENDBRANCH  24  26
ENDBRANCH  21  24
TORSDOF 10
ENDMDL
MODEL 3
REMARK minimizedAffinity -9.00092125
REMARK CNNscore 0.619248152
REMARK CNNaffinity 7.00246954
REMARK  10 active torsions:
REMARK  status: ('A' for Active; 'I' for Inactive)
REMARK    1  A    between atoms: C19_21  and  O3_22 
REMARK    2  A    between atoms: C19_21  and  C20_23 
REMARK    3  A    between atoms: C20_23  and  C21_25 
REMARK    4  A    between atoms: C21_25  and  O5_26 
REMARK    5  A    between atoms: O5_26  and  C22_27 
REMARK    6  A    between atoms: C22_27  and  C23_29 
REMARK    7  A    between atoms: C23_29  and  C24_30 
REMARK    8  A    between atoms: C24_30  and  C25_31 
REMARK       I    between atoms: C25_31  and  N1_33 
REMARK    9  A    between atoms: N1_33  and  C26_34 
REMARK   10  A    between atoms: C26_34  and  C27_35 
ROOT
HETATM    1  C1  UNL     1      -2.098  52.685 -24.356  1.00  0.00     0.021 C 
HETATM    2  C2  UNL     1      -1.113  51.496 -24.413  1.00  0.00    -0.009 C 
HETATM    3  C3  UNL     1       0.347  52.025 -24.555  1.00  0.00     0.022 C 
HETATM    4  C4  UNL     1       0.659  52.612 -25.924  1.00  0.00     0.084 C 
HETATM    5  C5  UNL     1       0.363  51.608 -27.006  1.00  0.00     0.149 C 
HETATM    6  O1  UNL     1       0.977  51.583 -28.070  1.00  0.00    -0.293 OA
HETATM    7  C6  UNL     1      -0.774  50.682 -26.803  1.00  0.00     0.053 C 
HETATM    8  C7  UNL     1      -1.474  50.656 -25.654  1.00  0.00    -0.067 C 
HETATM    9  C8  UNL     1      -2.709  49.793 -25.559  1.00  0.00     0.035 C 
HETATM   10  C9  UNL     1      -2.700  48.921 -24.312  1.00  0.00     0.010 C 
HETATM   11  C10 UNL     1      -2.518  49.768 -23.045  1.00  0.00     0.003 C 
HETATM   12  C11 UNL     1      -1.194  50.584 -23.135  1.00  0.00     0.072 C 
HETATM   13  C12 UNL     1      -0.926  51.295 -21.792  1.00  0.00     0.133 C 
HETATM   14  O2  UNL     1      -0.623  52.483 -21.703  1.00  0.00    -0.297 OA
HETATM   15  C13 UNL     1      -0.987  50.432 -20.536  1.00  0.00     0.091 C 
HETATM   16  C14 UNL     1      -2.334  49.701 -20.477  1.00  0.00     0.005 C 
HETATM   17  C15 UNL     1      -3.466  50.742 -20.268  1.00  0.00     0.019 C 
HETATM   18  C16 UNL     1      -2.478  48.888 -21.788  1.00  0.00     0.002 C 
HETATM   19  C17 UNL     1      -3.660  47.963 -21.512  1.00  0.00     0.009 C 
HETATM   20  C18 UNL     1      -3.586  47.670 -19.999  1.00  0.00     0.047 C 
HETATM   21  C19 UNL     1      -2.447  48.549 -19.438  1.00  0.00     0.128 C 
ENDROOT
BRANCH  21  22
HETATM   22  O3  UNL     1      -1.247  47.753 -19.483  1.00  0.00    -0.381 OA
HETATM   23  H25 UNL     1      -0.620  48.152 -18.846  1.00  0.00     0.211 HD
ENDBRANCH  21  22
BRANCH  21  24
HETATM   24  C20 UNL     1      -2.577  49.024 -17.979  1.00  0.00     0.185 C 
HETATM   25  O4  UNL     1      -3.703  49.065 -17.465  1.00  0.00    -0.292 OA
BRANCH  24  26
HETATM   26  C21 UNL     1      -1.322  49.419 -17.208  1.00  0.00     0.260 C 
BRANCH  26  27
HETATM   27  O5  UNL     1      -1.531  50.556 -16.371  1.00  0.00    -0.314 OA
BRANCH  27  28
HETATM   28  C22 UNL     1      -1.337  50.308 -15.045  1.00  0.00     0.259 C 
HETATM   29  O6  UNL     1      -0.252  50.079 -14.528  1.00  0.00    -0.265 OA
BRANCH  28  30
HETATM   30  C23 UNL     1      -2.647  50.386 -14.300  1.00  0.00     0.120 C 
BRANCH  30  31
HETATM   31  C24 UNL     1      -3.021  51.838 -14.023  1.00  0.00     0.112 C 
BRANCH  31  32
HETATM   32  C25 UNL     1      -3.437  52.035 -12.577  1.00  0.00     0.218 C 
HETATM   33  O7  UNL     1      -3.670  51.101 -11.815  1.00  0.00    -0.274 OA
HETATM   34  N1  UNL     1      -3.558  53.359 -12.220  1.00  0.00    -0.357 N 
HETATM   35  H32 UNL     1      -3.165  54.061 -12.833  1.00  0.00     0.162 HD
BRANCH  34  36
HETATM   36  C26 UNL     1      -3.835  53.753 -10.857  1.00  0.00     0.161 C 
BRANCH  36  37
HETATM   37  C27 UNL     1      -2.563  53.923 -10.070  1.00  0.00    -0.038 A 
HETATM   38  C28 UNL     1      -2.189  52.999  -9.090  1.00  0.00     0.025 A 
HETATM   39  C29 UNL     1      -1.010  53.211  -8.392  1.00  0.00     0.088 A 
HETATM   40  N2  UNL     1      -0.193  54.266  -8.596  1.00  0.00    -0.375 N 
HETATM   41  C30 UNL     1      -0.575  55.152  -9.541  1.00  0.00     0.088 A 
ATOM     42  H2  UNL     1       0.670  54.387  -8.064  1.00  0.00     0.164 HD
HETATM   43  C31 UNL     1      -1.731  55.025 -10.293  1.00  0.00     0.025 A 
ENDBRANCH  36  37
ENDBRANCH  34  36
ENDBRANCH  31  32
ENDBRANCH  30  31
ENDBRANCH  28  30
ENDBRANCH  27  28
ENDBRANCH  26  27
ENDBRANCH  24  26
ENDBRANCH  21  24
TORSDOF 10
ENDMDL
MODEL 4
REMARK minimizedAffinity -9.29095268
REMARK CNNscore 0.519203901
REMARK CNNaffinity 6.72208929
REMARK  10 active torsions:
REMARK  status: ('A' for Active; 'I' for Inactive)
REMARK    1  A    between atoms: C19_21  and  O3_22 
REMARK    2  A    between atoms: C19_21  and  C20_23 
REMARK    3  A    between atoms: C20_23  and  C21_25 
REMARK    4  A    between atoms: C21_25  and  O5_26 
REMARK    5  A    between atoms: O5_26  and  C22_27 
REMARK    6  A    between atoms: C22_27  and  C23_29 
REMARK    7  A    between atoms: C23_29  and  C24_30 
REMARK    8  A    between atoms: C24_30  and  C25_31 
REMARK       I    between atoms: C25_31  and  N1_33 
REMARK    9  A    between atoms: N1_33  and  C26_34 
REMARK   10  A    between atoms: C26_34  and  C27_35 
ROOT
HETATM    1  C1  UNL     1      -0.271  49.905 -21.093  1.00  0.00     0.021 C 
HETATM    2  C2  UNL     1      -0.967  51.276 -21.235  1.00  0.00    -0.009 C 
HETATM    3  C3  UNL     1      -0.196  52.156 -22.267  1.00  0.00     0.022 C 
HETATM    4  C4  UNL     1       1.147  52.662 -21.762  1.00  0.00     0.084 C 
HETATM    5  C5  UNL     1       0.973  53.411 -20.468  1.00  0.00     0.149 C 
HETATM    6  O1  UNL     1       1.716  54.330 -20.131  1.00  0.00    -0.293 OA
HETATM    7  C6  UNL     1      -0.080  52.952 -19.534  1.00  0.00     0.053 C 
HETATM    8  C7  UNL     1      -0.930  51.959 -19.854  1.00  0.00    -0.067 C 
HETATM    9  C8  UNL     1      -1.888  51.439 -18.809  1.00  0.00     0.035 C 
HETATM   10  C9  UNL     1      -3.316  51.369 -19.329  1.00  0.00     0.010 C 
HETATM   11  C10 UNL     1      -3.398  50.539 -20.617  1.00  0.00     0.003 C 
HETATM   12  C11 UNL     1      -2.462  51.148 -21.704  1.00  0.00     0.072 C 
HETATM   13  C12 UNL     1      -2.679  50.418 -23.047  1.00  0.00     0.133 C 
HETATM   14  O2  UNL     1      -1.759  49.997 -23.745  1.00  0.00    -0.297 OA
HETATM   15  C13 UNL     1      -4.118  50.289 -23.532  1.00  0.00     0.091 C 
HETATM   16  C14 UNL     1      -4.974  49.633 -22.441  1.00  0.00     0.005 C 
HETATM   17  C15 UNL     1      -4.511  48.163 -22.252  1.00  0.00     0.019 C 
HETATM   18  C16 UNL     1      -4.832  50.493 -21.160  1.00  0.00     0.002 C 
HETATM   19  C17 UNL     1      -5.937  49.968 -20.248  1.00  0.00     0.009 C 
HETATM   20  C18 UNL     1      -7.069  49.539 -21.205  1.00  0.00     0.047 C 
HETATM   21  C19 UNL     1      -6.515  49.704 -22.638  1.00  0.00     0.128 C 
ENDROOT
BRANCH  21  22
HETATM   22  O3  UNL     1      -6.875  51.029 -23.073  1.00  0.00    -0.381 OA
HETATM   23  H25 UNL     1      -6.835  51.025 -24.051  1.00  0.00     0.211 HD
ENDBRANCH  21  22
BRANCH  21  24
HETATM   24  C20 UNL     1      -7.059  48.749 -23.717  1.00  0.00     0.185 C 
HETATM   25  O4  UNL     1      -6.417  48.611 -24.766  1.00  0.00    -0.292 OA
BRANCH  24  26
HETATM   26  C21 UNL     1      -8.360  47.996 -23.460  1.00  0.00     0.260 C 
BRANCH  26  27
HETATM   27  O5  UNL     1      -8.794  47.252 -24.599  1.00  0.00    -0.314 OA
BRANCH  27  28
HETATM   28  C22 UNL     1     -10.022  47.620 -25.061  1.00  0.00     0.259 C 
HETATM   29  O6  UNL     1     -11.087  47.246 -24.591  1.00  0.00    -0.265 OA
BRANCH  28  30
HETATM   30  C23 UNL     1      -9.880  48.581 -26.217  1.00  0.00     0.120 C 
BRANCH  30  31
HETATM   31  C24 UNL     1      -8.723  48.169 -27.119  1.00  0.00     0.112 C 
BRANCH  31  32
HETATM   32  C25 UNL     1      -9.131  48.179 -28.581  1.00  0.00     0.218 C 
HETATM   33  O7  UNL     1      -9.974  47.418 -29.045  1.00  0.00    -0.274 OA
HETATM   34  N1  UNL     1      -8.438  49.101 -29.333  1.00  0.00    -0.357 N 
HETATM   35  H32 UNL     1      -7.909  49.816 -28.851  1.00  0.00     0.162 HD
BRANCH  34  36
HETATM   36  C26 UNL     1      -8.761  49.341 -30.721  1.00  0.00     0.161 C 
BRANCH  36  37
HETATM   37  C27 UNL     1      -7.895  48.513 -31.633  1.00  0.00    -0.038 A 
HETATM   38  C28 UNL     1      -8.377  48.038 -32.856  1.00  0.00     0.025 A 
HETATM   39  C29 UNL     1      -7.536  47.275 -33.651  1.00  0.00     0.088 A 
HETATM   40  N2  UNL     1      -6.269  46.951 -33.314  1.00  0.00    -0.375 N 
HETATM   41  C30 UNL     1      -5.824  47.412 -32.125  1.00  0.00     0.088 A 
ATOM     42  H2  UNL     1      -5.678  46.389 -33.927  1.00  0.00     0.164 HD
HETATM   43  C31 UNL     1      -6.586  48.184 -31.264  1.00  0.00     0.025 A 
ENDBRANCH  36  37
ENDBRANCH  34  36
ENDBRANCH  31  32
ENDBRANCH  30  31
ENDBRANCH  28  30
ENDBRANCH  27  28
ENDBRANCH  26  27
ENDBRANCH  24  26
ENDBRANCH  21  24
TORSDOF 10
ENDMDL
MODEL 5
REMARK minimizedAffinity -9.89000702
REMARK CNNscore 0.473895133
REMARK CNNaffinity 7.50253677
REMARK  10 active torsions:
REMARK  status: ('A' for Active; 'I' for Inactive)
REMARK    1  A    between atoms: C19_21  and  O3_22 
REMARK    2  A    between atoms: C19_21  and  C20_23 
REMARK    3  A    between atoms: C20_23  and  C21_25 
REMARK    4  A    between atoms: C21_25  and  O5_26 
REMARK    5  A    between atoms: O5_26  and  C22_27 
REMARK    6  A    between atoms: C22_27  and  C23_29 
REMARK    7  A    between atoms: C23_29  and  C24_30 
REMARK    8  A    between atoms: C24_30  and  C25_31 
REMARK       I    between atoms: C25_31  and  N1_33 
REMARK    9  A    between atoms: N1_33  and  C26_34 
REMARK   10  A    between atoms: C26_34  and  C27_35 
ROOT
HETATM    1  C1  UNL     1      -4.088  51.210 -24.612  1.00  0.00     0.021 C 
HETATM    2  C2  UNL     1      -3.515  49.775 -24.623  1.00  0.00    -0.009 C 
HETATM    3  C3  UNL     1      -2.299  49.699 -25.595  1.00  0.00     0.022 C 
HETATM    4  C4  UNL     1      -2.680  49.777 -27.067  1.00  0.00     0.084 C 
HETATM    5  C5  UNL     1      -3.684  48.708 -27.406  1.00  0.00     0.149 C 
HETATM    6  O1  UNL     1      -3.758  48.203 -28.524  1.00  0.00    -0.293 OA
HETATM    7  C6  UNL     1      -4.671  48.326 -26.370  1.00  0.00     0.053 C 
HETATM    8  C7  UNL     1      -4.630  48.837 -25.127  1.00  0.00    -0.067 C 
HETATM    9  C8  UNL     1      -5.745  48.520 -24.159  1.00  0.00     0.035 C 
HETATM   10  C9  UNL     1      -5.215  48.042 -22.815  1.00  0.00     0.010 C 
HETATM   11  C10 UNL     1      -4.232  49.056 -22.214  1.00  0.00     0.003 C 
HETATM   12  C11 UNL     1      -3.049  49.299 -23.199  1.00  0.00     0.072 C 
HETATM   13  C12 UNL     1      -1.978  50.180 -22.520  1.00  0.00     0.133 C 
HETATM   14  O2  UNL     1      -1.474  51.166 -23.055  1.00  0.00    -0.297 OA
HETATM   15  C13 UNL     1      -1.499  49.737 -21.143  1.00  0.00     0.091 C 
HETATM   16  C14 UNL     1      -2.703  49.570 -20.207  1.00  0.00     0.005 C 
HETATM   17  C15 UNL     1      -3.340  50.961 -19.949  1.00  0.00     0.019 C 
HETATM   18  C16 UNL     1      -3.673  48.561 -20.873  1.00  0.00     0.002 C 
HETATM   19  C17 UNL     1      -4.657  48.216 -19.760  1.00  0.00     0.009 C 
HETATM   20  C18 UNL     1      -3.829  48.302 -18.461  1.00  0.00     0.047 C 
HETATM   21  C19 UNL     1      -2.435  48.830 -18.865  1.00  0.00     0.128 C 
ENDROOT
BRANCH  21  22
HETATM   22  O3  UNL     1      -1.611  47.676 -19.118  1.00  0.00    -0.381 OA
HETATM   23  H25 UNL     1      -0.680  47.973 -19.043  1.00  0.00     0.211 HD
ENDBRANCH  21  22
BRANCH  21  24
HETATM   24  C20 UNL     1      -1.670  49.668 -17.823  1.00  0.00     0.185 C 
HETATM   25  O4  UNL     1      -2.138  49.769 -16.682  1.00  0.00    -0.292 OA
BRANCH  24  26
HETATM   26  C21 UNL     1      -0.359  50.337 -18.221  1.00  0.00     0.260 C 
BRANCH  26  27
HETATM   27  O5  UNL     1      -0.213  51.636 -17.648  1.00  0.00    -0.314 OA
BRANCH  27  28
HETATM   28  C22 UNL     1       0.648  52.445 -18.327  1.00  0.00     0.259 C 
HETATM   29  O6  UNL     1       1.743  52.802 -17.916  1.00  0.00    -0.265 OA
BRANCH  28  30
HETATM   30  C23 UNL     1       0.070  52.812 -19.673  1.00  0.00     0.120 C 
BRANCH  30  31
HETATM   31  C24 UNL     1       1.033  52.432 -20.792  1.00  0.00     0.112 C 
BRANCH  31  32
HETATM   32  C25 UNL     1       1.096  53.512 -21.856  1.00  0.00     0.218 C 
HETATM   33  O7  UNL     1       1.492  54.651 -21.630  1.00  0.00    -0.274 OA
HETATM   34  N1  UNL     1       0.634  53.094 -23.084  1.00  0.00    -0.357 N 
HETATM   35  H32 UNL     1       0.511  52.103 -23.240  1.00  0.00     0.162 HD
BRANCH  34  36
HETATM   36  C26 UNL     1       0.717  53.942 -24.252  1.00  0.00     0.161 C 
BRANCH  36  37
HETATM   37  C27 UNL     1       0.567  53.140 -25.518  1.00  0.00    -0.038 A 
HETATM   38  C28 UNL     1       0.991  51.810 -25.587  1.00  0.00     0.025 A 
HETATM   39  C29 UNL     1       0.834  51.123 -26.781  1.00  0.00     0.088 A 
HETATM   40  N2  UNL     1       0.297  51.664 -27.896  1.00  0.00    -0.375 N 
HETATM   41  C30 UNL     1      -0.098  52.952 -27.812  1.00  0.00     0.088 A 
ATOM     42  H2  UNL     1       0.195  51.126 -28.757  1.00  0.00     0.164 HD
HETATM   43  C31 UNL     1       0.013  53.719 -26.664  1.00  0.00     0.025 A 
ENDBRANCH  36  37
ENDBRANCH  34  36
ENDBRANCH  31  32
ENDBRANCH  30  31
ENDBRANCH  28  30
ENDBRANCH  27  28
ENDBRANCH  26  27
ENDBRANCH  24  26
ENDBRANCH  21  24
TORSDOF 10
ENDMDL
MODEL 6
REMARK minimizedAffinity -7.80005026
REMARK CNNscore 0.469193906
REMARK CNNaffinity 6.38189888
REMARK  10 active torsions:
REMARK  status: ('A' for Active; 'I' for Inactive)
REMARK    1  A    between atoms: C19_21  and  O3_22 
REMARK    2  A    between atoms: C19_21  and  C20_23 
REMARK    3  A    between atoms: C20_23  and  C21_25 
REMARK    4  A    between atoms: C21_25  and  O5_26 
REMARK    5  A    between atoms: O5_26  and  C22_27 
REMARK    6  A    between atoms: C22_27  and  C23_29 
REMARK    7  A    between atoms: C23_29  and  C24_30 
REMARK    8  A    between atoms: C24_30  and  C25_31 
REMARK       I    between atoms: C25_31  and  N1_33 
REMARK    9  A    between atoms: N1_33  and  C26_34 
REMARK   10  A    between atoms: C26_34  and  C27_35 
ROOT
HETATM    1  C1  UNL     1       3.817  69.028 -37.753  1.00  0.00     0.021 C 
HETATM    2  C2  UNL     1       3.348  67.669 -38.320  1.00  0.00    -0.009 C 
HETATM    3  C3  UNL     1       3.591  67.627 -39.859  1.00  0.00     0.022 C 
HETATM    4  C4  UNL     1       2.647  68.516 -40.656  1.00  0.00     0.084 C 
HETATM    5  C5  UNL     1       1.215  68.171 -40.347  1.00  0.00     0.149 C 
HETATM    6  O1  UNL     1       0.309  68.314 -41.165  1.00  0.00    -0.293 OA
HETATM    7  C6  UNL     1       0.887  67.732 -38.971  1.00  0.00     0.053 C 
HETATM    8  C7  UNL     1       1.838  67.548 -38.038  1.00  0.00    -0.067 C 
HETATM    9  C8  UNL     1       1.431  67.239 -36.617  1.00  0.00     0.035 C 
HETATM   10  C9  UNL     1       2.174  66.033 -36.060  1.00  0.00     0.010 C 
HETATM   11  C10 UNL     1       3.693  66.218 -36.173  1.00  0.00     0.003 C 
HETATM   12  C11 UNL     1       4.093  66.451 -37.661  1.00  0.00     0.072 C 
HETATM   13  C12 UNL     1       5.631  66.460 -37.793  1.00  0.00     0.133 C 
HETATM   14  O2  UNL     1       6.253  67.325 -38.407  1.00  0.00    -0.297 OA
HETATM   15  C13 UNL     1       6.379  65.285 -37.174  1.00  0.00     0.091 C 
HETATM   16  C14 UNL     1       5.985  65.144 -35.698  1.00  0.00     0.005 C 
HETATM   17  C15 UNL     1       6.512  66.376 -34.914  1.00  0.00     0.019 C 
HETATM   18  C16 UNL     1       4.444  64.990 -35.640  1.00  0.00     0.002 C 
HETATM   19  C17 UNL     1       4.178  64.543 -34.206  1.00  0.00     0.009 C 
HETATM   20  C18 UNL     1       5.416  63.707 -33.818  1.00  0.00     0.047 C 
HETATM   21  C19 UNL     1       6.409  63.822 -34.995  1.00  0.00     0.128 C 
ENDROOT
BRANCH  21  22
HETATM   22  O3  UNL     1       6.142  62.714 -35.875  1.00  0.00    -0.381 OA
HETATM   23  H25 UNL     1       6.946  62.584 -36.418  1.00  0.00     0.211 HD
ENDBRANCH  21  22
BRANCH  21  24
HETATM   24  C20 UNL     1       7.910  63.737 -34.662  1.00  0.00     0.185 C 
HETATM   25  O4  UNL     1       8.282  64.023 -33.516  1.00  0.00    -0.292 OA
BRANCH  24  26
HETATM   26  C21 UNL     1       8.890  63.294 -35.742  1.00  0.00     0.260 C 
BRANCH  26  27
HETATM   27  O5  UNL     1       9.981  64.202 -35.896  1.00  0.00    -0.314 OA
BRANCH  27  28
HETATM   28  C22 UNL     1      11.193  63.667 -35.577  1.00  0.00     0.259 C 
HETATM   29  O6  UNL     1      11.421  63.000 -34.577  1.00  0.00    -0.265 OA
BRANCH  28  30
HETATM   30  C23 UNL     1      12.205  63.987 -36.650  1.00  0.00     0.120 C 
BRANCH  30  31
HETATM   31  C24 UNL     1      13.624  63.799 -36.123  1.00  0.00     0.112 C 
BRANCH  31  32
HETATM   32  C25 UNL     1      14.301  62.608 -36.775  1.00  0.00     0.218 C 
HETATM   33  O7  UNL     1      14.765  61.669 -36.135  1.00  0.00    -0.274 OA
HETATM   34  N1  UNL     1      14.373  62.706 -38.147  1.00  0.00    -0.357 N 
HETATM   35  H32 UNL     1      13.804  63.402 -38.610  1.00  0.00     0.162 HD
BRANCH  34  36
HETATM   36  C26 UNL     1      14.881  61.622 -38.957  1.00  0.00     0.161 C 
BRANCH  36  37
HETATM   37  C27 UNL     1      13.813  61.073 -39.864  1.00  0.00    -0.038 A 
HETATM   38  C28 UNL     1      12.583  61.721 -40.010  1.00  0.00     0.025 A 
HETATM   39  C29 UNL     1      11.634  61.165 -40.855  1.00  0.00     0.088 A 
HETATM   40  N2  UNL     1      11.822  60.023 -41.550  1.00  0.00    -0.375 N 
HETATM   41  C30 UNL     1      13.013  59.407 -41.390  1.00  0.00     0.088 A 
ATOM     42  H2  UNL     1      11.100  59.645 -42.165  1.00  0.00     0.164 HD
HETATM   43  C31 UNL     1      14.024  59.886 -40.573  1.00  0.00     0.025 A 
ENDBRANCH  36  37
ENDBRANCH  34  36
ENDBRANCH  31  32
ENDBRANCH  30  31
ENDBRANCH  28  30
ENDBRANCH  27  28
ENDBRANCH  26  27
ENDBRANCH  24  26
ENDBRANCH  21  24
TORSDOF 10
ENDMDL
MODEL 7
REMARK minimizedAffinity -8.69463444
REMARK CNNscore 0.45650053
REMARK CNNaffinity 6.38547277
REMARK  10 active torsions:
REMARK  status: ('A' for Active; 'I' for Inactive)
REMARK    1  A    between atoms: C19_21  and  O3_22 
REMARK    2  A    between atoms: C19_21  and  C20_23 
REMARK    3  A    between atoms: C20_23  and  C21_25 
REMARK    4  A    between atoms: C21_25  and  O5_26 
REMARK    5  A    between atoms: O5_26  and  C22_27 
REMARK    6  A    between atoms: C22_27  and  C23_29 
REMARK    7  A    between atoms: C23_29  and  C24_30 
REMARK    8  A    between atoms: C24_30  and  C25_31 
REMARK       I    between atoms: C25_31  and  N1_33 
REMARK    9  A    between atoms: N1_33  and  C26_34 
REMARK   10  A    between atoms: C26_34  and  C27_35 
ROOT
HETATM    1  C1  UNL     1      -0.158  49.927 -21.014  1.00  0.00     0.021 C 
HETATM    2  C2  UNL     1      -0.912  51.257 -21.242  1.00  0.00    -0.009 C 
HETATM    3  C3  UNL     1      -0.213  52.072 -22.373  1.00  0.00     0.022 C 
HETATM    4  C4  UNL     1       1.128  52.666 -21.965  1.00  0.00     0.084 C 
HETATM    5  C5  UNL     1       0.973  53.515 -20.732  1.00  0.00     0.149 C 
HETATM    6  O1  UNL     1       1.692  54.485 -20.503  1.00  0.00    -0.293 OA
HETATM    7  C6  UNL     1      -0.028  53.100 -19.723  1.00  0.00     0.053 C 
HETATM    8  C7  UNL     1      -0.850  52.054 -19.925  1.00  0.00    -0.067 C 
HETATM    9  C8  UNL     1      -1.748  51.591 -18.803  1.00  0.00     0.035 C 
HETATM   10  C9  UNL     1      -3.191  51.428 -19.259  1.00  0.00     0.010 C 
HETATM   11  C10 UNL     1      -3.287  50.489 -20.468  1.00  0.00     0.003 C 
HETATM   12  C11 UNL     1      -2.417  51.037 -21.639  1.00  0.00     0.072 C 
HETATM   13  C12 UNL     1      -2.654  50.190 -22.907  1.00  0.00     0.133 C 
HETATM   14  O2  UNL     1      -1.745  49.743 -23.604  1.00  0.00    -0.297 OA
HETATM   15  C13 UNL     1      -4.105  49.969 -23.322  1.00  0.00     0.091 C 
HETATM   16  C14 UNL     1      -4.893  49.378 -22.147  1.00  0.00     0.005 C 
HETATM   17  C15 UNL     1      -4.368  47.947 -21.855  1.00  0.00     0.019 C 
HETATM   18  C16 UNL     1      -4.738  50.348 -20.948  1.00  0.00     0.002 C 
HETATM   19  C17 UNL     1      -5.788  49.863 -19.953  1.00  0.00     0.009 C 
HETATM   20  C18 UNL     1      -6.937  49.315 -20.826  1.00  0.00     0.047 C 
HETATM   21  C19 UNL     1      -6.443  49.378 -22.288  1.00  0.00     0.128 C 
ENDROOT
BRANCH  21  22
HETATM   22  O3  UNL     1      -6.869  50.648 -22.816  1.00  0.00    -0.381 OA
HETATM   23  H25 UNL     1      -6.864  50.563 -23.792  1.00  0.00     0.211 HD
ENDBRANCH  21  22
BRANCH  21  24
HETATM   24  C20 UNL     1      -6.989  48.317 -23.262  1.00  0.00     0.185 C 
HETATM   25  O4  UNL     1      -7.685  47.399 -22.811  1.00  0.00    -0.292 OA
BRANCH  24  26
HETATM   26  C21 UNL     1      -6.667  48.433 -24.748  1.00  0.00     0.260 C 
BRANCH  26  27
HETATM   27  O5  UNL     1      -7.761  48.038 -25.576  1.00  0.00    -0.314 OA
BRANCH  27  28
HETATM   28  C22 UNL     1      -7.388  47.356 -26.695  1.00  0.00     0.259 C 
HETATM   29  O6  UNL     1      -6.455  47.666 -27.423  1.00  0.00    -0.265 OA
BRANCH  28  30
HETATM   30  C23 UNL     1      -8.269  46.146 -26.888  1.00  0.00     0.120 C 
BRANCH  30  31
HETATM   31  C24 UNL     1      -7.867  45.384 -28.147  1.00  0.00     0.112 C 
BRANCH  31  32
HETATM   32  C25 UNL     1      -8.682  45.830 -29.346  1.00  0.00     0.218 C 
HETATM   33  O7  UNL     1      -9.694  45.247 -29.720  1.00  0.00    -0.274 OA
HETATM   34  N1  UNL     1      -8.153  46.928 -29.986  1.00  0.00    -0.357 N 
HETATM   35  H32 UNL     1      -7.438  47.464 -29.513  1.00  0.00     0.162 HD
BRANCH  34  36
HETATM   36  C26 UNL     1      -8.843  47.570 -31.082  1.00  0.00     0.161 C 
BRANCH  36  37
HETATM   37  C27 UNL     1      -7.995  47.586 -32.326  1.00  0.00    -0.038 A 
HETATM   38  C28 UNL     1      -6.616  47.811 -32.260  1.00  0.00     0.025 A 
HETATM   39  C29 UNL     1      -5.887  47.820 -33.439  1.00  0.00     0.088 A 
HETATM   40  N2  UNL     1      -6.428  47.629 -34.661  1.00  0.00    -0.375 N 
HETATM   41  C30 UNL     1      -7.761  47.421 -34.705  1.00  0.00     0.088 A 
ATOM     42  H2  UNL     1      -5.858  47.640 -35.507  1.00  0.00     0.164 HD
HETATM   43  C31 UNL     1      -8.574  47.389 -33.584  1.00  0.00     0.025 A 
ENDBRANCH  36  37
ENDBRANCH  34  36
ENDBRANCH  31  32
ENDBRANCH  30  31
ENDBRANCH  28  30
ENDBRANCH  27  28
ENDBRANCH  26  27
ENDBRANCH  24  26
ENDBRANCH  21  24
TORSDOF 10
ENDMDL
MODEL 8
REMARK minimizedAffinity -8.56418324
REMARK CNNscore 0.426066905
REMARK CNNaffinity 7.16161728
REMARK  10 active torsions:
REMARK  status: ('A' for Active; 'I' for Inactive)
REMARK    1  A    between atoms: C19_21  and  O3_22 
REMARK    2  A    between atoms: C19_21  and  C20_23 
REMARK    3  A    between atoms: C20_23  and  C21_25 
REMARK    4  A    between atoms: C21_25  and  O5_26 
REMARK    5  A    between atoms: O5_26  and  C22_27 
REMARK    6  A    between atoms: C22_27  and  C23_29 
REMARK    7  A    between atoms: C23_29  and  C24_30 
REMARK    8  A    between atoms: C24_30  and  C25_31 
REMARK       I    between atoms: C25_31  and  N1_33 
REMARK    9  A    between atoms: N1_33  and  C26_34 
REMARK   10  A    between atoms: C26_34  and  C27_35 
ROOT
HETATM    1  C1  UNL     1      -8.034  46.135 -25.538  1.00  0.00     0.021 C 
HETATM    2  C2  UNL     1      -7.939  47.622 -25.947  1.00  0.00    -0.009 C 
HETATM    3  C3  UNL     1      -9.357  48.270 -25.917  1.00  0.00     0.022 C 
HETATM    4  C4  UNL     1     -10.269  47.807 -27.045  1.00  0.00     0.084 C 
HETATM    5  C5  UNL     1      -9.617  48.047 -28.380  1.00  0.00     0.149 C 
HETATM    6  O1  UNL     1     -10.263  48.275 -29.399  1.00  0.00    -0.293 OA
HETATM    7  C6  UNL     1      -8.145  47.908 -28.470  1.00  0.00     0.053 C 
HETATM    8  C7  UNL     1      -7.386  47.671 -27.385  1.00  0.00    -0.067 C 
HETATM    9  C8  UNL     1      -5.911  47.397 -27.559  1.00  0.00     0.035 C 
HETATM   10  C9  UNL     1      -5.060  48.253 -26.632  1.00  0.00     0.010 C 
HETATM   11  C10 UNL     1      -5.486  48.078 -25.169  1.00  0.00     0.003 C 
HETATM   12  C11 UNL     1      -6.991  48.447 -25.004  1.00  0.00     0.072 C 
HETATM   13  C12 UNL     1      -7.369  48.440 -23.508  1.00  0.00     0.133 C 
HETATM   14  O2  UNL     1      -8.365  47.874 -23.063  1.00  0.00    -0.297 OA
HETATM   15  C13 UNL     1      -6.473  49.242 -22.571  1.00  0.00     0.091 C 
HETATM   16  C14 UNL     1      -5.016  48.793 -22.740  1.00  0.00     0.005 C 
HETATM   17  C15 UNL     1      -4.875  47.333 -22.231  1.00  0.00     0.019 C 
HETATM   18  C16 UNL     1      -4.648  48.963 -24.236  1.00  0.00     0.002 C 
HETATM   19  C17 UNL     1      -3.131  48.806 -24.256  1.00  0.00     0.009 C 
HETATM   20  C18 UNL     1      -2.658  49.374 -22.901  1.00  0.00     0.047 C 
HETATM   21  C19 UNL     1      -3.934  49.707 -22.096  1.00  0.00     0.128 C 
ENDROOT
BRANCH  21  22
HETATM   22  O3  UNL     1      -4.253  51.084 -22.375  1.00  0.00    -0.381 OA
HETATM   23  H25 UNL     1      -4.828  51.393 -21.644  1.00  0.00     0.211 HD
ENDBRANCH  21  22
BRANCH  21  24
HETATM   24  C20 UNL     1      -3.848  49.601 -20.563  1.00  0.00     0.185 C 
HETATM   25  O4  UNL     1      -4.636  50.263 -19.876  1.00  0.00    -0.292 OA
BRANCH  24  26
HETATM   26  C21 UNL     1      -2.806  48.680 -19.936  1.00  0.00     0.260 C 
BRANCH  26  27
HETATM   27  O5  UNL     1      -1.479  49.192 -20.061  1.00  0.00    -0.314 OA
BRANCH  27  28
HETATM   28  C22 UNL     1      -1.200  50.215 -19.206  1.00  0.00     0.259 C 
HETATM   29  O6  UNL     1      -1.630  50.308 -18.064  1.00  0.00    -0.265 OA
BRANCH  28  30
HETATM   30  C23 UNL     1      -0.261  51.201 -19.857  1.00  0.00     0.120 C 
BRANCH  30  31
HETATM   31  C24 UNL     1      -0.374  51.128 -21.376  1.00  0.00     0.112 C 
BRANCH  31  32
HETATM   32  C25 UNL     1       0.393  52.255 -22.041  1.00  0.00     0.218 C 
HETATM   33  O7  UNL     1       1.249  52.915 -21.461  1.00  0.00    -0.274 OA
HETATM   34  N1  UNL     1       0.009  52.480 -23.344  1.00  0.00    -0.357 N 
HETATM   35  H32 UNL     1      -0.554  51.781 -23.808  1.00  0.00     0.162 HD
BRANCH  34  36
HETATM   36  C26 UNL     1       0.698  53.436 -24.181  1.00  0.00     0.161 C 
BRANCH  36  37
HETATM   37  C27 UNL     1       0.700  52.996 -25.621  1.00  0.00    -0.038 A 
HETATM   38  C28 UNL     1       1.445  51.889 -26.039  1.00  0.00     0.025 A 
HETATM   39  C29 UNL     1       1.414  51.534 -27.378  1.00  0.00     0.088 A 
HETATM   40  N2  UNL     1       0.708  52.199 -28.318  1.00  0.00    -0.375 N 
HETATM   41  C30 UNL     1       0.002  53.270 -27.897  1.00  0.00     0.088 A 
ATOM     42  H2  UNL     1       0.707  51.906 -29.295  1.00  0.00     0.164 HD
HETATM   43  C31 UNL     1      -0.034  53.700 -26.581  1.00  0.00     0.025 A 
ENDBRANCH  36  37
ENDBRANCH  34  36
ENDBRANCH  31  32
ENDBRANCH  30  31
ENDBRANCH  28  30
ENDBRANCH  27  28
ENDBRANCH  26  27
ENDBRANCH  24  26
ENDBRANCH  21  24
TORSDOF 10
ENDMDL
MODEL 9
REMARK minimizedAffinity -7.80071783
REMARK CNNscore 0.420999825
REMARK CNNaffinity 5.9901104
REMARK  10 active torsions:
REMARK  status: ('A' for Active; 'I' for Inactive)
REMARK    1  A    between atoms: C19_21  and  O3_22 
REMARK    2  A    between atoms: C19_21  and  C20_23 
REMARK    3  A    between atoms: C20_23  and  C21_25 
REMARK    4  A    between atoms: C21_25  and  O5_26 
REMARK    5  A    between atoms: O5_26  and  C22_27 
REMARK    6  A    between atoms: C22_27  and  C23_29 
REMARK    7  A    between atoms: C23_29  and  C24_30 
REMARK    8  A    between atoms: C24_30  and  C25_31 
REMARK       I    between atoms: C25_31  and  N1_33 
REMARK    9  A    between atoms: N1_33  and  C26_34 
REMARK   10  A    between atoms: C26_34  and  C27_35 
ROOT
HETATM    1  C1  UNL     1       3.344  69.354 -37.420  1.00  0.00     0.021 C 
HETATM    2  C2  UNL     1       3.042  68.012 -38.124  1.00  0.00    -0.009 C 
HETATM    3  C3  UNL     1       3.321  68.143 -39.652  1.00  0.00     0.022 C 
HETATM    4  C4  UNL     1       2.301  68.995 -40.394  1.00  0.00     0.084 C 
HETATM    5  C5  UNL     1       0.911  68.468 -40.163  1.00  0.00     0.149 C 
HETATM    6  O1  UNL     1       0.013  68.587 -40.993  1.00  0.00    -0.293 OA
HETATM    7  C6  UNL     1       0.604  67.867 -38.845  1.00  0.00     0.053 C 
HETATM    8  C7  UNL     1       1.549  67.700 -37.902  1.00  0.00    -0.067 C 
HETATM    9  C8  UNL     1       1.149  67.216 -36.530  1.00  0.00     0.035 C 
HETATM   10  C9  UNL     1       2.010  66.052 -36.063  1.00  0.00     0.010 C 
HETATM   11  C10 UNL     1       3.501  66.411 -36.109  1.00  0.00     0.003 C 
HETATM   12  C11 UNL     1       3.904  66.826 -37.556  1.00  0.00     0.072 C 
HETATM   13  C12 UNL     1       5.434  67.016 -37.638  1.00  0.00     0.133 C 
HETATM   14  O2  UNL     1       5.968  67.998 -38.149  1.00  0.00    -0.297 OA
HETATM   15  C13 UNL     1       6.295  65.877 -37.105  1.00  0.00     0.091 C 
HETATM   16  C14 UNL     1       5.888  65.554 -35.661  1.00  0.00     0.005 C 
HETATM   17  C15 UNL     1       6.257  66.756 -34.751  1.00  0.00     0.019 C 
HETATM   18  C16 UNL     1       4.373  65.228 -35.668  1.00  0.00     0.002 C 
HETATM   19  C17 UNL     1       4.128  64.620 -34.290  1.00  0.00     0.009 C 
HETATM   20  C18 UNL     1       5.443  63.891 -33.940  1.00  0.00     0.047 C 
HETATM   21  C19 UNL     1       6.442  64.226 -35.070  1.00  0.00     0.128 C 
ENDROOT
BRANCH  21  22
HETATM   22  O3  UNL     1       6.319  63.183 -36.056  1.00  0.00    -0.381 OA
HETATM   23  H25 UNL     1       7.145  63.194 -36.582  1.00  0.00     0.211 HD
ENDBRANCH  21  22
BRANCH  21  24
HETATM   24  C20 UNL     1       7.935  64.274 -34.698  1.00  0.00     0.185 C 
HETATM   25  O4  UNL     1       8.248  64.365 -33.504  1.00  0.00    -0.292 OA
BRANCH  24  26
HETATM   26  C21 UNL     1       8.982  64.198 -35.804  1.00  0.00     0.260 C 
BRANCH  26  27
HETATM   27  O5  UNL     1      10.086  63.362 -35.454  1.00  0.00    -0.314 OA
BRANCH  27  28
HETATM   28  C22 UNL     1      11.295  63.852 -35.849  1.00  0.00     0.259 C 
HETATM   29  O6  UNL     1      11.452  64.758 -36.656  1.00  0.00    -0.265 OA
BRANCH  28  30
HETATM   30  C23 UNL     1      12.411  63.139 -35.125  1.00  0.00     0.120 C 
BRANCH  30  31
HETATM   31  C24 UNL     1      13.720  63.268 -35.896  1.00  0.00     0.112 C 
BRANCH  31  32
HETATM   32  C25 UNL     1      14.058  61.983 -36.628  1.00  0.00     0.218 C 
HETATM   33  O7  UNL     1      13.282  61.428 -37.399  1.00  0.00    -0.274 OA
HETATM   34  N1  UNL     1      15.304  61.489 -36.313  1.00  0.00    -0.357 N 
HETATM   35  H32 UNL     1      15.954  62.093 -35.828  1.00  0.00     0.162 HD
BRANCH  34  36
HETATM   36  C26 UNL     1      15.854  60.335 -36.989  1.00  0.00     0.161 C 
BRANCH  36  37
HETATM   37  C27 UNL     1      16.767  59.556 -36.081  1.00  0.00    -0.038 A 
HETATM   38  C28 UNL     1      16.494  58.226 -35.746  1.00  0.00     0.025 A 
HETATM   39  C29 UNL     1      17.368  57.561 -34.900  1.00  0.00     0.088 A 
HETATM   40  N2  UNL     1      18.475  58.121 -34.369  1.00  0.00    -0.375 N 
HETATM   41  C30 UNL     1      18.718  59.408 -34.697  1.00  0.00     0.088 A 
ATOM     42  H2  UNL     1      19.097  57.598 -33.751  1.00  0.00     0.164 HD
HETATM   43  C31 UNL     1      17.908  60.155 -35.537  1.00  0.00     0.025 A 
ENDBRANCH  36  37
ENDBRANCH  34  36
ENDBRANCH  31  32
ENDBRANCH  30  31
ENDBRANCH  28  30
ENDBRANCH  27  28
ENDBRANCH  26  27
ENDBRANCH  24  26
ENDBRANCH  21  24
TORSDOF 10
ENDMDL
