MODEL 1
REMARK minimizedAffinity -8.2195816
REMARK CNNscore 0.556179345
REMARK CNNaffinity 7.27776861
REMARK  8 active torsions:
REMARK  status: ('A' for Active; 'I' for Inactive)
REMARK    1  A    between atoms: C4_4  and  C5_5 
REMARK    2  A    between atoms: C5_5  and  C6_6 
REMARK    3  A    between atoms: C12_14  and  O3_15 
REMARK    4  A    between atoms: C20_24  and  O5_25 
REMARK    5  A    between atoms: C27_33  and  C28_34 
REMARK    6  A    between atoms: C28_34  and  C29_35 
REMARK    7  A    between atoms: C30_36  and  C32_38 
REMARK    8  A    between atoms: C32_38  and  O8_40 
ROOT
HETATM    1  C6  UNL     1      -4.158   6.179  13.504  1.00  0.00     0.014 A 
HETATM    2  C7  UNL     1      -2.875   6.442  12.991  1.00  0.00     0.096 A 
HETATM    3  O1  UNL     1      -2.214   7.545  13.474  1.00  0.00    -0.333 OA
HETATM    4  C8  UNL     1      -0.798   7.609  13.233  1.00  0.00     0.126 C 
HETATM    5  C9  UNL     1      -0.531   7.368  11.738  1.00  0.00     0.129 C 
HETATM    6  C10 UNL     1      -1.037   5.979  11.418  1.00  0.00     0.174 C 
HETATM    7  O2  UNL     1      -0.467   5.191  10.669  1.00  0.00    -0.292 OA
HETATM    8  C11 UNL     1      -2.325   5.597  12.025  1.00  0.00     0.078 A 
HETATM    9  C12 UNL     1      -3.002   4.437  11.620  1.00  0.00     0.095 A 
HETATM   10  C13 UNL     1      -4.258   4.131  12.156  1.00  0.00     0.032 A 
HETATM   11  C14 UNL     1      -4.834   5.011  13.084  1.00  0.00     0.092 A 
HETATM   12  O4  UNL     1      -6.057   4.778  13.660  1.00  0.00    -0.335 OA
HETATM   13  C15 UNL     1      -6.912   3.752  13.122  1.00  0.00     0.078 C 
HETATM   14  C16 UNL     1      -7.492   3.015  14.335  1.00  0.00     0.051 C 
HETATM   15  C17 UNL     1      -8.039   4.455  12.355  1.00  0.00     0.051 C 
HETATM   16  C18 UNL     1      -6.226   2.758  12.218  1.00  0.00     0.012 C 
HETATM   17  C19 UNL     1      -4.982   2.926  11.767  1.00  0.00     0.016 C 
HETATM   18  C20 UNL     1       0.956   7.530  11.395  1.00  0.00     0.144 C 
HETATM   19  C21 UNL     1       1.767   7.680  12.681  1.00  0.00     0.089 C 
HETATM   20  C22 UNL     1       1.430   6.518  13.626  1.00  0.00     0.025 C 
HETATM   21  C23 UNL     1      -0.001   6.688  14.207  1.00  0.00     0.060 C 
HETATM   22  C24 UNL     1      -0.061   7.492  15.546  1.00  0.00     0.062 C 
HETATM   23  C25 UNL     1      -1.293   7.134  16.389  1.00  0.00     0.046 C 
HETATM   24  C26 UNL     1       1.170   7.369  16.451  1.00  0.00     0.046 C 
HETATM   25  O6  UNL     1      -0.188   8.878  15.168  1.00  0.00    -0.358 OA
HETATM   26  C27 UNL     1      -0.201   8.964  13.723  1.00  0.00     0.158 C 
HETATM   27  C33 UNL     1       1.294   8.971  13.320  1.00  0.00     0.171 C 
HETATM   28  O9  UNL     1       2.069   9.905  13.512  1.00  0.00    -0.294 OA
ENDROOT
BRANCH  26  29
HETATM   29  C28 UNL     1      -0.856  10.272  13.253  1.00  0.00     0.077 C 
BRANCH  29  30
HETATM   30  C29 UNL     1      -1.756  10.962  14.251  1.00  0.00    -0.010 C 
HETATM   31  C30 UNL     1      -1.563  12.148  14.860  1.00  0.00     0.008 C 
HETATM   32  C31 UNL     1      -2.557  12.720  15.828  1.00  0.00     0.055 C 
BRANCH  31  33
HETATM   33  C32 UNL     1      -0.363  12.977  14.600  1.00  0.00     0.171 C 
HETATM   34  O7  UNL     1      -0.330  14.135  14.229  1.00  0.00    -0.646 OA
BRANCH  33  35
HETATM   35  O8  UNL     1       0.767  12.298  14.864  1.00  0.00    -0.773 OA
HETATM   36  H38 UNL     1       1.464  12.946  14.626  1.00  0.00     0.167 HD
ENDBRANCH  33  35
ENDBRANCH  31  33
ENDBRANCH  29  30
ENDBRANCH  26  29
BRANCH  18  37
HETATM   37  O5  UNL     1       1.104   8.687  10.573  1.00  0.00    -0.394 OA
HETATM   38  H21 UNL     1       2.049   8.797  10.358  1.00  0.00     0.210 HD
ENDBRANCH  18  37
BRANCH   1  39
HETATM   39  C5  UNL     1      -4.848   7.149  14.445  1.00  0.00     0.072 C 
BRANCH  39  40
HETATM   40  C4  UNL     1      -6.311   7.308  14.112  1.00  0.00    -0.020 C 
HETATM   41  C2  UNL     1      -7.374   7.200  14.933  1.00  0.00    -0.091 C 
HETATM   42  C1  UNL     1      -7.311   6.891  16.402  1.00  0.00     0.042 C 
HETATM   43  C3  UNL     1      -8.771   7.398  14.403  1.00  0.00     0.042 C 
ENDBRANCH  39  40
ENDBRANCH   1  39
BRANCH   9  44
HETATM   44  O3  UNL     1      -2.462   3.575  10.693  1.00  0.00    -0.359 OA
HETATM   45  H11 UNL     1      -1.591   3.924  10.403  1.00  0.00     0.217 HD
ENDBRANCH   9  44
TORSDOF 8
ENDMDL
MODEL 2
REMARK minimizedAffinity -9.75370884
REMARK CNNscore 0.4850021
REMARK CNNaffinity 7.21717787
REMARK  8 active torsions:
REMARK  status: ('A' for Active; 'I' for Inactive)
REMARK    1  A    between atoms: C4_4  and  C5_5 
REMARK    2  A    between atoms: C5_5  and  C6_6 
REMARK    3  A    between atoms: C12_14  and  O3_15 
REMARK    4  A    between atoms: C20_24  and  O5_25 
REMARK    5  A    between atoms: C27_33  and  C28_34 
REMARK    6  A    between atoms: C28_34  and  C29_35 
REMARK    7  A    between atoms: C30_36  and  C32_38 
REMARK    8  A    between atoms: C32_38  and  O8_40 
ROOT
HETATM    1  C6  UNL     1      -4.642   6.992  13.215  1.00  0.00     0.014 A 
HETATM    2  C7  UNL     1      -3.417   6.398  12.862  1.00  0.00     0.096 A 
HETATM    3  O1  UNL     1      -2.312   7.212  12.804  1.00  0.00    -0.333 OA
HETATM    4  C8  UNL     1      -1.029   6.563  12.804  1.00  0.00     0.126 C 
HETATM    5  C9  UNL     1      -1.017   5.473  11.719  1.00  0.00     0.129 C 
HETATM    6  C10 UNL     1      -2.091   4.473  12.088  1.00  0.00     0.174 C 
HETATM    7  O2  UNL     1      -1.975   3.257  11.962  1.00  0.00    -0.292 OA
HETATM    8  C11 UNL     1      -3.363   5.031  12.581  1.00  0.00     0.078 A 
HETATM    9  C12 UNL     1      -4.499   4.224  12.730  1.00  0.00     0.095 A 
HETATM   10  C13 UNL     1      -5.716   4.788  13.129  1.00  0.00     0.032 A 
HETATM   11  C14 UNL     1      -5.783   6.171  13.356  1.00  0.00     0.092 A 
HETATM   12  O4  UNL     1      -6.936   6.797  13.758  1.00  0.00    -0.335 OA
HETATM   13  C15 UNL     1      -8.188   6.089  13.695  1.00  0.00     0.078 C 
HETATM   14  C16 UNL     1      -8.922   6.427  14.999  1.00  0.00     0.051 C 
HETATM   15  C17 UNL     1      -8.969   6.649  12.501  1.00  0.00     0.051 C 
HETATM   16  C18 UNL     1      -8.069   4.591  13.567  1.00  0.00     0.012 C 
HETATM   17  C19 UNL     1      -6.914   3.974  13.308  1.00  0.00     0.016 C 
HETATM   18  C20 UNL     1       0.363   4.814  11.595  1.00  0.00     0.144 C 
HETATM   19  C21 UNL     1       1.266   5.292  12.730  1.00  0.00     0.089 C 
HETATM   20  C22 UNL     1       0.548   5.073  14.069  1.00  0.00     0.025 C 
HETATM   21  C23 UNL     1      -0.620   6.085  14.231  1.00  0.00     0.060 C 
HETATM   22  C24 UNL     1      -0.219   7.425  14.928  1.00  0.00     0.062 C 
HETATM   23  C25 UNL     1      -1.411   8.106  15.616  1.00  0.00     0.046 C 
HETATM   24  C26 UNL     1       0.914   7.328  15.955  1.00  0.00     0.046 C 
HETATM   25  O6  UNL     1       0.224   8.300  13.871  1.00  0.00    -0.358 OA
HETATM   26  C27 UNL     1       0.127   7.593  12.612  1.00  0.00     0.158 C 
HETATM   27  C33 UNL     1       1.443   6.783  12.518  1.00  0.00     0.171 C 
HETATM   28  O9  UNL     1       2.554   7.269  12.324  1.00  0.00    -0.294 OA
ENDROOT
BRANCH  26  29
HETATM   29  C28 UNL     1       0.053   8.573  11.431  1.00  0.00     0.077 C 
BRANCH  29  30
HETATM   30  C29 UNL     1       1.141   8.446  10.391  1.00  0.00    -0.010 C 
HETATM   31  C30 UNL     1       1.008   8.430   9.050  1.00  0.00     0.008 C 
HETATM   32  C31 UNL     1       2.189   8.309   8.132  1.00  0.00     0.055 C 
BRANCH  31  33
HETATM   33  C32 UNL     1      -0.313   8.551   8.392  1.00  0.00     0.171 C 
HETATM   34  O7  UNL     1      -0.698   7.975   7.392  1.00  0.00    -0.646 OA
BRANCH  33  35
HETATM   35  O8  UNL     1      -1.121   9.388   9.066  1.00  0.00    -0.773 OA
HETATM   36  H38 UNL     1      -1.931   9.394   8.513  1.00  0.00     0.167 HD
ENDBRANCH  33  35
ENDBRANCH  31  33
ENDBRANCH  29  30
ENDBRANCH  26  29
BRANCH  18  37
HETATM   37  O5  UNL     1       0.919   5.170  10.330  1.00  0.00    -0.394 OA
HETATM   38  H21 UNL     1       1.799   4.758  10.249  1.00  0.00     0.210 HD
ENDBRANCH  18  37
BRANCH   1  39
HETATM   39  C5  UNL     1      -4.772   8.495  13.387  1.00  0.00     0.072 C 
BRANCH  39  40
HETATM   40  C4  UNL     1      -4.734   8.898  14.840  1.00  0.00    -0.020 C 
HETATM   41  C2  UNL     1      -4.142   9.974  15.395  1.00  0.00    -0.091 C 
HETATM   42  C1  UNL     1      -3.377  11.030  14.648  1.00  0.00     0.042 C 
HETATM   43  C3  UNL     1      -4.218  10.204  16.883  1.00  0.00     0.042 C 
ENDBRANCH  39  40
ENDBRANCH   1  39
BRANCH   9  44
HETATM   44  O3  UNL     1      -4.458   2.870  12.489  1.00  0.00    -0.359 OA
HETATM   45  H11 UNL     1      -3.548   2.624  12.210  1.00  0.00     0.217 HD
ENDBRANCH   9  44
TORSDOF 8
ENDMDL
MODEL 3
REMARK minimizedAffinity -7.84757376
REMARK CNNscore 0.390767068
REMARK CNNaffinity 6.67846918
REMARK  8 active torsions:
REMARK  status: ('A' for Active; 'I' for Inactive)
REMARK    1  A    between atoms: C4_4  and  C5_5 
REMARK    2  A    between atoms: C5_5  and  C6_6 
REMARK    3  A    between atoms: C12_14  and  O3_15 
REMARK    4  A    between atoms: C20_24  and  O5_25 
REMARK    5  A    between atoms: C27_33  and  C28_34 
REMARK    6  A    between atoms: C28_34  and  C29_35 
REMARK    7  A    between atoms: C30_36  and  C32_38 
REMARK    8  A    between atoms: C32_38  and  O8_40 
ROOT
HETATM    1  C6  UNL     1      -1.490   8.727  14.242  1.00  0.00     0.014 A 
HETATM    2  C7  UNL     1      -0.850   9.484  15.240  1.00  0.00     0.096 A 
HETATM    3  O1  UNL     1      -1.379  10.716  15.537  1.00  0.00    -0.333 OA
HETATM    4  C8  UNL     1      -0.963  11.319  16.773  1.00  0.00     0.126 C 
HETATM    5  C9  UNL     1       0.573  11.303  16.848  1.00  0.00     0.129 C 
HETATM    6  C10 UNL     1       0.999   9.852  16.823  1.00  0.00     0.174 C 
HETATM    7  O2  UNL     1       1.914   9.389  17.499  1.00  0.00    -0.292 OA
HETATM    8  C11 UNL     1       0.282   8.975  15.880  1.00  0.00     0.078 A 
HETATM    9  C12 UNL     1       0.741   7.679  15.602  1.00  0.00     0.095 A 
HETATM   10  C13 UNL     1       0.087   6.891  14.648  1.00  0.00     0.032 A 
HETATM   11  C14 UNL     1      -1.016   7.424  13.964  1.00  0.00     0.092 A 
HETATM   12  O4  UNL     1      -1.714   6.712  13.023  1.00  0.00    -0.335 OA
HETATM   13  C15 UNL     1      -1.165   5.484  12.510  1.00  0.00     0.078 C 
HETATM   14  C16 UNL     1      -2.339   4.499  12.447  1.00  0.00     0.051 C 
HETATM   15  C17 UNL     1      -0.652   5.771  11.094  1.00  0.00     0.051 C 
HETATM   16  C18 UNL     1      -0.058   4.883  13.339  1.00  0.00     0.012 C 
HETATM   17  C19 UNL     1       0.529   5.534  14.346  1.00  0.00     0.016 C 
HETATM   18  C20 UNL     1       1.085  12.031  18.098  1.00  0.00     0.144 C 
HETATM   19  C21 UNL     1      -0.090  12.378  19.011  1.00  0.00     0.089 C 
HETATM   20  C22 UNL     1      -0.912  11.110  19.276  1.00  0.00     0.025 C 
HETATM   21  C23 UNL     1      -1.695  10.693  18.000  1.00  0.00     0.060 C 
HETATM   22  C24 UNL     1      -3.123  11.319  17.888  1.00  0.00     0.062 C 
HETATM   23  C25 UNL     1      -4.069  10.468  17.028  1.00  0.00     0.046 C 
HETATM   24  C26 UNL     1      -3.833  11.597  19.217  1.00  0.00     0.046 C 
HETATM   25  O6  UNL     1      -2.948  12.581  17.214  1.00  0.00    -0.358 OA
HETATM   26  C27 UNL     1      -1.542  12.760  16.924  1.00  0.00     0.158 C 
HETATM   27  C33 UNL     1      -0.947  13.352  18.226  1.00  0.00     0.171 C 
HETATM   28  O9  UNL     1      -1.154  14.490  18.638  1.00  0.00    -0.294 OA
ENDROOT
BRANCH  26  29
HETATM   29  C28 UNL     1      -1.336  13.761  15.776  1.00  0.00     0.077 C 
BRANCH  29  30
HETATM   30  C29 UNL     1      -2.549  14.562  15.366  1.00  0.00    -0.010 C 
HETATM   31  C30 UNL     1      -2.655  15.448  14.357  1.00  0.00     0.008 C 
HETATM   32  C31 UNL     1      -3.937  16.167  14.056  1.00  0.00     0.055 C 
BRANCH  31  33
HETATM   33  C32 UNL     1      -1.515  15.757  13.463  1.00  0.00     0.171 C 
HETATM   34  O7  UNL     1      -0.620  16.558  13.654  1.00  0.00    -0.646 OA
BRANCH  33  35
HETATM   35  O8  UNL     1      -1.539  14.993  12.357  1.00  0.00    -0.773 OA
HETATM   36  H38 UNL     1      -0.761  15.318  11.857  1.00  0.00     0.167 HD
ENDBRANCH  33  35
ENDBRANCH  31  33
ENDBRANCH  29  30
ENDBRANCH  26  29
BRANCH  18  37
HETATM   37  O5  UNL     1       1.763  13.216  17.682  1.00  0.00    -0.394 OA
HETATM   38  H21 UNL     1       2.086  13.684  18.474  1.00  0.00     0.210 HD
ENDBRANCH  18  37
BRANCH   1  39
HETATM   39  C5  UNL     1      -2.632   9.300  13.424  1.00  0.00     0.072 C 
BRANCH  39  40
HETATM   40  C4  UNL     1      -3.942   9.239  14.169  1.00  0.00    -0.020 C 
HETATM   41  C2  UNL     1      -4.927   8.326  14.058  1.00  0.00    -0.091 C 
HETATM   42  C1  UNL     1      -4.915   7.139  13.137  1.00  0.00     0.042 C 
HETATM   43  C3  UNL     1      -6.171   8.440  14.901  1.00  0.00     0.042 C 
ENDBRANCH  39  40
ENDBRANCH   1  39
BRANCH   9  44
HETATM   44  O3  UNL     1       1.835   7.149  16.246  1.00  0.00    -0.359 OA
HETATM   45  H11 UNL     1       2.190   7.818  16.873  1.00  0.00     0.217 HD
ENDBRANCH   9  44
TORSDOF 8
ENDMDL
MODEL 4
REMARK minimizedAffinity -7.04793453
REMARK CNNscore 0.298234373
REMARK CNNaffinity 7.03622484
REMARK  8 active torsions:
REMARK  status: ('A' for Active; 'I' for Inactive)
REMARK    1  A    between atoms: C4_4  and  C5_5 
REMARK    2  A    between atoms: C5_5  and  C6_6 
REMARK    3  A    between atoms: C12_14  and  O3_15 
REMARK    4  A    between atoms: C20_24  and  O5_25 
REMARK    5  A    between atoms: C27_33  and  C28_34 
REMARK    6  A    between atoms: C28_34  and  C29_35 
REMARK    7  A    between atoms: C30_36  and  C32_38 
REMARK    8  A    between atoms: C32_38  and  O8_40 
ROOT
HETATM    1  C6  UNL     1      -2.384   6.103  13.328  1.00  0.00     0.014 A 
HETATM    2  C7  UNL     1      -2.732   7.012  14.343  1.00  0.00     0.096 A 
HETATM    3  O1  UNL     1      -1.747   7.848  14.809  1.00  0.00    -0.333 OA
HETATM    4  C8  UNL     1      -2.174   8.996  15.562  1.00  0.00     0.126 C 
HETATM    5  C9  UNL     1      -3.136   8.539  16.672  1.00  0.00     0.129 C 
HETATM    6  C10 UNL     1      -4.329   7.909  15.989  1.00  0.00     0.174 C 
HETATM    7  O2  UNL     1      -5.492   8.050  16.358  1.00  0.00    -0.292 OA
HETATM    8  C11 UNL     1      -4.038   7.035  14.838  1.00  0.00     0.078 A 
HETATM    9  C12 UNL     1      -5.031   6.220  14.277  1.00  0.00     0.095 A 
HETATM   10  C13 UNL     1      -4.715   5.343  13.232  1.00  0.00     0.032 A 
HETATM   11  C14 UNL     1      -3.391   5.280  12.773  1.00  0.00     0.092 A 
HETATM   12  O4  UNL     1      -3.004   4.454  11.749  1.00  0.00    -0.335 OA
HETATM   13  C15 UNL     1      -3.898   3.422  11.293  1.00  0.00     0.078 C 
HETATM   14  C16 UNL     1      -3.814   3.446   9.762  1.00  0.00     0.051 C 
HETATM   15  C17 UNL     1      -3.359   2.087  11.820  1.00  0.00     0.051 C 
HETATM   16  C18 UNL     1      -5.337   3.590  11.713  1.00  0.00     0.012 C 
HETATM   17  C19 UNL     1      -5.727   4.492  12.616  1.00  0.00     0.016 C 
HETATM   18  C20 UNL     1      -3.545   9.706  17.581  1.00  0.00     0.144 C 
HETATM   19  C21 UNL     1      -3.040  11.021  16.991  1.00  0.00     0.089 C 
HETATM   20  C22 UNL     1      -3.503  11.127  15.531  1.00  0.00     0.025 C 
HETATM   21  C23 UNL     1      -2.717  10.128  14.637  1.00  0.00     0.060 C 
HETATM   22  C24 UNL     1      -1.403  10.711  14.022  1.00  0.00     0.062 C 
HETATM   23  C25 UNL     1      -0.997   9.996  12.726  1.00  0.00     0.046 C 
HETATM   24  C26 UNL     1      -1.415  12.216  13.735  1.00  0.00     0.046 C 
HETATM   25  O6  UNL     1      -0.368  10.459  14.994  1.00  0.00    -0.358 OA
HETATM   26  C27 UNL     1      -0.955   9.785  16.132  1.00  0.00     0.158 C 
HETATM   27  C33 UNL     1      -1.526  10.927  17.009  1.00  0.00     0.171 C 
HETATM   28  O9  UNL     1      -0.848  11.726  17.650  1.00  0.00    -0.294 OA
ENDROOT
BRANCH  26  29
HETATM   29  C28 UNL     1       0.110   9.020  16.932  1.00  0.00     0.077 C 
BRANCH  29  30
HETATM   30  C29 UNL     1       1.539   9.469  16.736  1.00  0.00    -0.010 C 
HETATM   31  C30 UNL     1       2.508   8.862  16.023  1.00  0.00     0.008 C 
HETATM   32  C31 UNL     1       3.890   9.433  15.906  1.00  0.00     0.055 C 
BRANCH  31  33
HETATM   33  C32 UNL     1       2.266   7.599  15.288  1.00  0.00     0.171 C 
HETATM   34  O7  UNL     1       1.554   7.433  14.315  1.00  0.00    -0.646 OA
BRANCH  33  35
HETATM   35  O8  UNL     1       2.982   6.586  15.806  1.00  0.00    -0.773 OA
HETATM   36  H38 UNL     1       2.707   5.826  15.250  1.00  0.00     0.167 HD
ENDBRANCH  33  35
ENDBRANCH  31  33
ENDBRANCH  29  30
ENDBRANCH  26  29
BRANCH  18  37
HETATM   37  O5  UNL     1      -2.980   9.488  18.874  1.00  0.00    -0.394 OA
HETATM   38  H21 UNL     1      -3.233  10.230  19.453  1.00  0.00     0.210 HD
ENDBRANCH  18  37
BRANCH   1  39
HETATM   39  C5  UNL     1      -0.948   5.947  12.864  1.00  0.00     0.072 C 
BRANCH  39  40
HETATM   40  C4  UNL     1      -0.657   6.790  11.647  1.00  0.00    -0.020 C 
HETATM   41  C2  UNL     1       0.382   6.699  10.794  1.00  0.00    -0.091 C 
HETATM   42  C1  UNL     1       1.499   5.697  10.885  1.00  0.00     0.042 C 
HETATM   43  C3  UNL     1       0.495   7.644   9.625  1.00  0.00     0.042 C 
ENDBRANCH  39  40
ENDBRANCH   1  39
BRANCH   9  44
HETATM   44  O3  UNL     1      -6.330   6.250  14.730  1.00  0.00    -0.359 OA
HETATM   45  H11 UNL     1      -6.395   6.900  15.465  1.00  0.00     0.217 HD
ENDBRANCH   9  44
TORSDOF 8
ENDMDL
MODEL 5
REMARK minimizedAffinity -6.95941019
REMARK CNNscore 0.288769364
REMARK CNNaffinity 6.04873037
REMARK  8 active torsions:
REMARK  status: ('A' for Active; 'I' for Inactive)
REMARK    1  A    between atoms: C4_4  and  C5_5 
REMARK    2  A    between atoms: C5_5  and  C6_6 
REMARK    3  A    between atoms: C12_14  and  O3_15 
REMARK    4  A    between atoms: C20_24  and  O5_25 
REMARK    5  A    between atoms: C27_33  and  C28_34 
REMARK    6  A    between atoms: C28_34  and  C29_35 
REMARK    7  A    between atoms: C30_36  and  C32_38 
REMARK    8  A    between atoms: C32_38  and  O8_40 
ROOT
HETATM    1  C6  UNL     1     -12.229  -8.125  12.891  1.00  0.00     0.014 A 
HETATM    2  C7  UNL     1     -12.843  -6.873  13.072  1.00  0.00     0.096 A 
HETATM    3  O1  UNL     1     -13.503  -6.330  11.997  1.00  0.00    -0.333 OA
HETATM    4  C8  UNL     1     -14.418  -5.256  12.273  1.00  0.00     0.126 C 
HETATM    5  C9  UNL     1     -13.704  -4.194  13.126  1.00  0.00     0.129 C 
HETATM    6  C10 UNL     1     -13.304  -4.865  14.421  1.00  0.00     0.174 C 
HETATM    7  O2  UNL     1     -13.368  -4.331  15.525  1.00  0.00    -0.292 OA
HETATM    8  C11 UNL     1     -12.762  -6.231  14.310  1.00  0.00     0.078 A 
HETATM    9  C12 UNL     1     -12.147  -6.859  15.403  1.00  0.00     0.095 A 
HETATM   10  C13 UNL     1     -11.573  -8.127  15.255  1.00  0.00     0.032 A 
HETATM   11  C14 UNL     1     -11.605  -8.746  13.997  1.00  0.00     0.092 A 
HETATM   12  O4  UNL     1     -11.073  -9.990  13.774  1.00  0.00    -0.335 OA
HETATM   13  C15 UNL     1     -10.220 -10.586  14.768  1.00  0.00     0.078 C 
HETATM   14  C16 UNL     1     -10.648 -12.056  14.857  1.00  0.00     0.051 C 
HETATM   15  C17 UNL     1      -8.781 -10.497  14.245  1.00  0.00     0.051 C 
HETATM   16  C18 UNL     1     -10.302  -9.962  16.138  1.00  0.00     0.012 C 
HETATM   17  C19 UNL     1     -10.939  -8.814  16.375  1.00  0.00     0.016 C 
HETATM   18  C20 UNL     1     -14.596  -2.969  13.366  1.00  0.00     0.144 C 
HETATM   19  C21 UNL     1     -16.009  -3.253  12.861  1.00  0.00     0.089 C 
HETATM   20  C22 UNL     1     -16.509  -4.565  13.480  1.00  0.00     0.025 C 
HETATM   21  C23 UNL     1     -15.768  -5.779  12.855  1.00  0.00     0.060 C 
HETATM   22  C24 UNL     1     -16.464  -6.378  11.591  1.00  0.00     0.062 C 
HETATM   23  C25 UNL     1     -16.110  -7.856  11.373  1.00  0.00     0.046 C 
HETATM   24  C26 UNL     1     -17.991  -6.257  11.553  1.00  0.00     0.046 C 
HETATM   25  O6  UNL     1     -15.940  -5.641  10.467  1.00  0.00    -0.358 OA
HETATM   26  C27 UNL     1     -15.001  -4.655  10.957  1.00  0.00     0.158 C 
HETATM   27  C33 UNL     1     -15.880  -3.447  11.362  1.00  0.00     0.171 C 
HETATM   28  O9  UNL     1     -16.465  -2.708  10.574  1.00  0.00    -0.294 OA
ENDROOT
BRANCH  26  29
HETATM   29  C28 UNL     1     -14.027  -4.221   9.851  1.00  0.00     0.077 C 
BRANCH  29  30
HETATM   30  C29 UNL     1     -14.646  -3.878   8.516  1.00  0.00    -0.010 C 
HETATM   31  C30 UNL     1     -14.586  -4.584   7.369  1.00  0.00     0.008 C 
HETATM   32  C31 UNL     1     -15.265  -4.123   6.112  1.00  0.00     0.055 C 
BRANCH  31  33
HETATM   33  C32 UNL     1     -13.862  -5.872   7.278  1.00  0.00     0.171 C 
HETATM   34  O7  UNL     1     -14.324  -6.991   7.396  1.00  0.00    -0.646 OA
BRANCH  33  35
HETATM   35  O8  UNL     1     -12.561  -5.684   6.996  1.00  0.00    -0.773 OA
HETATM   36  H38 UNL     1     -12.209  -6.599   6.994  1.00  0.00     0.167 HD
ENDBRANCH  33  35
ENDBRANCH  31  33
ENDBRANCH  29  30
ENDBRANCH  26  29
BRANCH  18  37
HETATM   37  O5  UNL     1     -14.030  -1.858  12.671  1.00  0.00    -0.394 OA
HETATM   38  H21 UNL     1     -14.597  -1.078  12.816  1.00  0.00     0.210 HD
ENDBRANCH  18  37
BRANCH   1  39
HETATM   39  C5  UNL     1     -12.170  -8.788  11.527  1.00  0.00     0.072 C 
BRANCH  39  40
HETATM   40  C4  UNL     1     -10.762  -8.837  10.987  1.00  0.00    -0.020 C 
HETATM   41  C2  UNL     1     -10.351  -8.740   9.708  1.00  0.00    -0.091 C 
HETATM   42  C1  UNL     1     -11.249  -8.552   8.517  1.00  0.00     0.042 C 
HETATM   43  C3  UNL     1      -8.885  -8.813   9.369  1.00  0.00     0.042 C 
ENDBRANCH  39  40
ENDBRANCH   1  39
BRANCH   9  44
HETATM   44  O3  UNL     1     -12.085  -6.256  16.638  1.00  0.00    -0.359 OA
HETATM   45  H11 UNL     1     -12.517  -5.375  16.584  1.00  0.00     0.217 HD
ENDBRANCH   9  44
TORSDOF 8
ENDMDL
MODEL 6
REMARK minimizedAffinity -7.56450224
REMARK CNNscore 0.279246688
REMARK CNNaffinity 6.57376146
REMARK  8 active torsions:
REMARK  status: ('A' for Active; 'I' for Inactive)
REMARK    1  A    between atoms: C4_4  and  C5_5 
REMARK    2  A    between atoms: C5_5  and  C6_6 
REMARK    3  A    between atoms: C12_14  and  O3_15 
REMARK    4  A    between atoms: C20_24  and  O5_25 
REMARK    5  A    between atoms: C27_33  and  C28_34 
REMARK    6  A    between atoms: C28_34  and  C29_35 
REMARK    7  A    between atoms: C30_36  and  C32_38 
REMARK    8  A    between atoms: C32_38  and  O8_40 
ROOT
HETATM    1  C6  UNL     1     -11.285   7.944  14.712  1.00  0.00     0.014 A 
HETATM    2  C7  UNL     1     -11.911   9.202  14.773  1.00  0.00     0.096 A 
HETATM    3  O1  UNL     1     -13.281   9.233  14.688  1.00  0.00    -0.333 OA
HETATM    4  C8  UNL     1     -13.929  10.446  15.107  1.00  0.00     0.126 C 
HETATM    5  C9  UNL     1     -13.266  11.640  14.399  1.00  0.00     0.129 C 
HETATM    6  C10 UNL     1     -11.818  11.662  14.836  1.00  0.00     0.174 C 
HETATM    7  O2  UNL     1     -11.187  12.686  15.086  1.00  0.00    -0.292 OA
HETATM    8  C11 UNL     1     -11.137  10.357  14.909  1.00  0.00     0.078 A 
HETATM    9  C12 UNL     1      -9.747  10.273  15.072  1.00  0.00     0.095 A 
HETATM   10  C13 UNL     1      -9.111   9.026  15.064  1.00  0.00     0.032 A 
HETATM   11  C14 UNL     1      -9.883   7.870  14.871  1.00  0.00     0.092 A 
HETATM   12  O4  UNL     1      -9.336   6.612  14.860  1.00  0.00    -0.335 OA
HETATM   13  C15 UNL     1      -7.907   6.459  14.775  1.00  0.00     0.078 C 
HETATM   14  C16 UNL     1      -7.548   5.350  15.771  1.00  0.00     0.051 C 
HETATM   15  C17 UNL     1      -7.582   6.000  13.348  1.00  0.00     0.051 C 
HETATM   16  C18 UNL     1      -7.111   7.698  15.104  1.00  0.00     0.012 C 
HETATM   17  C19 UNL     1      -7.670   8.902  15.247  1.00  0.00     0.016 C 
HETATM   18  C20 UNL     1     -13.984  12.957  14.723  1.00  0.00     0.144 C 
HETATM   19  C21 UNL     1     -15.021  12.724  15.820  1.00  0.00     0.089 C 
HETATM   20  C22 UNL     1     -14.345  12.031  17.010  1.00  0.00     0.025 C 
HETATM   21  C23 UNL     1     -14.008  10.555  16.661  1.00  0.00     0.060 C 
HETATM   22  C24 UNL     1     -15.142   9.537  17.007  1.00  0.00     0.062 C 
HETATM   23  C25 UNL     1     -14.603   8.118  17.242  1.00  0.00     0.046 C 
HETATM   24  C26 UNL     1     -16.021   9.903  18.208  1.00  0.00     0.046 C 
HETATM   25  O6  UNL     1     -15.993   9.485  15.843  1.00  0.00    -0.358 OA
HETATM   26  C27 UNL     1     -15.465  10.388  14.843  1.00  0.00     0.158 C 
HETATM   27  C33 UNL     1     -16.042  11.773  15.226  1.00  0.00     0.171 C 
HETATM   28  O9  UNL     1     -17.220  12.101  15.107  1.00  0.00    -0.294 OA
ENDROOT
BRANCH  26  29
HETATM   29  C28 UNL     1     -15.958  10.008  13.439  1.00  0.00     0.077 C 
BRANCH  29  30
HETATM   30  C29 UNL     1     -16.848  11.015  12.750  1.00  0.00    -0.010 C 
HETATM   31  C30 UNL     1     -17.546  10.860  11.608  1.00  0.00     0.008 C 
HETATM   32  C31 UNL     1     -18.406  11.953  11.043  1.00  0.00     0.055 C 
BRANCH  31  33
HETATM   33  C32 UNL     1     -17.528   9.592  10.844  1.00  0.00     0.171 C 
HETATM   34  O7  UNL     1     -18.453   8.822  10.665  1.00  0.00    -0.646 OA
BRANCH  33  35
HETATM   35  O8  UNL     1     -16.321   9.367  10.296  1.00  0.00    -0.773 OA
HETATM   36  H38 UNL     1     -16.446   8.500   9.854  1.00  0.00     0.167 HD
ENDBRANCH  33  35
ENDBRANCH  31  33
ENDBRANCH  29  30
ENDBRANCH  26  29
BRANCH  18  37
HETATM   37  O5  UNL     1     -14.612  13.431  13.532  1.00  0.00    -0.394 OA
HETATM   38  H21 UNL     1     -15.074  14.265  13.734  1.00  0.00     0.210 HD
ENDBRANCH  18  37
BRANCH   1  39
HETATM   39  C5  UNL     1     -12.075   6.681  14.421  1.00  0.00     0.072 C 
BRANCH  39  40
HETATM   40  C4  UNL     1     -13.122   6.907  13.359  1.00  0.00    -0.020 C 
HETATM   41  C2  UNL     1     -14.404   6.490  13.344  1.00  0.00    -0.091 C 
HETATM   42  C1  UNL     1     -15.072   5.689  14.427  1.00  0.00     0.042 C 
HETATM   43  C3  UNL     1     -15.301   6.822  12.180  1.00  0.00     0.042 C 
ENDBRANCH  39  40
ENDBRANCH   1  39
BRANCH   9  44
HETATM   44  O3  UNL     1      -8.972  11.397  15.239  1.00  0.00    -0.359 OA
HETATM   45  H11 UNL     1      -9.552  12.190  15.212  1.00  0.00     0.217 HD
ENDBRANCH   9  44
TORSDOF 8
ENDMDL
MODEL 7
REMARK minimizedAffinity -7.52087641
REMARK CNNscore 0.245218426
REMARK CNNaffinity 6.29483414
REMARK  8 active torsions:
REMARK  status: ('A' for Active; 'I' for Inactive)
REMARK    1  A    between atoms: C4_4  and  C5_5 
REMARK    2  A    between atoms: C5_5  and  C6_6 
REMARK    3  A    between atoms: C12_14  and  O3_15 
REMARK    4  A    between atoms: C20_24  and  O5_25 
REMARK    5  A    between atoms: C27_33  and  C28_34 
REMARK    6  A    between atoms: C28_34  and  C29_35 
REMARK    7  A    between atoms: C30_36  and  C32_38 
REMARK    8  A    between atoms: C32_38  and  O8_40 
ROOT
HETATM    1  C6  UNL     1     -13.231  -9.327  27.841  1.00  0.00     0.014 A 
HETATM    2  C7  UNL     1     -13.631  -9.463  26.500  1.00  0.00     0.096 A 
HETATM    3  O1  UNL     1     -13.235 -10.596  25.833  1.00  0.00    -0.333 OA
HETATM    4  C8  UNL     1     -13.929 -10.906  24.613  1.00  0.00     0.126 C 
HETATM    5  C9  UNL     1     -13.938  -9.662  23.710  1.00  0.00     0.129 C 
HETATM    6  C10 UNL     1     -14.686  -8.580  24.458  1.00  0.00     0.174 C 
HETATM    7  O2  UNL     1     -15.467  -7.791  23.933  1.00  0.00    -0.292 OA
HETATM    8  C11 UNL     1     -14.398  -8.463  25.898  1.00  0.00     0.078 A 
HETATM    9  C12 UNL     1     -14.849  -7.361  26.641  1.00  0.00     0.095 A 
HETATM   10  C13 UNL     1     -14.501  -7.233  27.990  1.00  0.00     0.032 A 
HETATM   11  C14 UNL     1     -13.684  -8.209  28.579  1.00  0.00     0.092 A 
HETATM   12  O4  UNL     1     -13.308  -8.159  29.897  1.00  0.00    -0.335 OA
HETATM   13  C15 UNL     1     -13.520  -6.951  30.651  1.00  0.00     0.078 C 
HETATM   14  C16 UNL     1     -14.049  -7.402  32.018  1.00  0.00     0.051 C 
HETATM   15  C17 UNL     1     -12.155  -6.274  30.821  1.00  0.00     0.051 C 
HETATM   16  C18 UNL     1     -14.497  -5.979  30.038  1.00  0.00     0.012 C 
HETATM   17  C19 UNL     1     -14.965  -6.108  28.794  1.00  0.00     0.016 C 
HETATM   18  C20 UNL     1     -14.572  -9.959  22.344  1.00  0.00     0.144 C 
HETATM   19  C21 UNL     1     -15.198 -11.352  22.359  1.00  0.00     0.089 C 
HETATM   20  C22 UNL     1     -16.141 -11.467  23.564  1.00  0.00     0.025 C 
HETATM   21  C23 UNL     1     -15.328 -11.539  24.886  1.00  0.00     0.060 C 
HETATM   22  C24 UNL     1     -14.954 -12.990  25.333  1.00  0.00     0.062 C 
HETATM   23  C25 UNL     1     -14.731 -13.096  26.848  1.00  0.00     0.046 C 
HETATM   24  C26 UNL     1     -15.948 -14.086  24.934  1.00  0.00     0.046 C 
HETATM   25  O6  UNL     1     -13.696 -13.286  24.692  1.00  0.00    -0.358 OA
HETATM   26  C27 UNL     1     -13.298 -12.142  23.900  1.00  0.00     0.158 C 
HETATM   27  C33 UNL     1     -14.046 -12.319  22.556  1.00  0.00     0.171 C 
HETATM   28  O9  UNL     1     -13.784 -13.174  21.714  1.00  0.00    -0.294 OA
ENDROOT
BRANCH  26  29
HETATM   29  C28 UNL     1     -11.785 -12.150  23.639  1.00  0.00     0.077 C 
BRANCH  29  30
HETATM   30  C29 UNL     1     -10.910 -12.552  24.804  1.00  0.00    -0.010 C 
HETATM   31  C30 UNL     1      -9.578 -12.392  24.933  1.00  0.00     0.008 C 
HETATM   32  C31 UNL     1      -8.837 -12.832  26.162  1.00  0.00     0.055 C 
BRANCH  31  33
HETATM   33  C32 UNL     1      -8.759 -11.753  23.879  1.00  0.00     0.171 C 
HETATM   34  O7  UNL     1      -8.688 -10.568  23.613  1.00  0.00    -0.646 OA
BRANCH  33  35
HETATM   35  O8  UNL     1      -8.019 -12.659  23.217  1.00  0.00    -0.773 OA
HETATM   36  H38 UNL     1      -7.559 -12.110  22.546  1.00  0.00     0.167 HD
ENDBRANCH  33  35
ENDBRANCH  31  33
ENDBRANCH  29  30
ENDBRANCH  26  29
BRANCH  18  37
HETATM   37  O5  UNL     1     -13.553  -9.878  21.348  1.00  0.00    -0.394 OA
HETATM   38  H21 UNL     1     -13.951 -10.072  20.480  1.00  0.00     0.210 HD
ENDBRANCH  18  37
BRANCH   1  39
HETATM   39  C5  UNL     1     -12.280 -10.317  28.488  1.00  0.00     0.072 C 
BRANCH  39  40
HETATM   40  C4  UNL     1     -13.002 -11.545  28.985  1.00  0.00    -0.020 C 
HETATM   41  C2  UNL     1     -13.335 -11.866  30.250  1.00  0.00    -0.091 C 
HETATM   42  C1  UNL     1     -13.047 -11.031  31.466  1.00  0.00     0.042 C 
HETATM   43  C3  UNL     1     -14.063 -13.152  30.545  1.00  0.00     0.042 C 
ENDBRANCH  39  40
ENDBRANCH   1  39
BRANCH   9  44
HETATM   44  O3  UNL     1     -15.631  -6.382  26.074  1.00  0.00    -0.359 OA
HETATM   45  H11 UNL     1     -15.781  -6.603  25.128  1.00  0.00     0.217 HD
ENDBRANCH   9  44
TORSDOF 8
ENDMDL
MODEL 8
REMARK minimizedAffinity -7.92461681
REMARK CNNscore 0.242036015
REMARK CNNaffinity 5.95572281
REMARK  8 active torsions:
REMARK  status: ('A' for Active; 'I' for Inactive)
REMARK    1  A    between atoms: C4_4  and  C5_5 
REMARK    2  A    between atoms: C5_5  and  C6_6 
REMARK    3  A    between atoms: C12_14  and  O3_15 
REMARK    4  A    between atoms: C20_24  and  O5_25 
REMARK    5  A    between atoms: C27_33  and  C28_34 
REMARK    6  A    between atoms: C28_34  and  C29_35 
REMARK    7  A    between atoms: C30_36  and  C32_38 
REMARK    8  A    between atoms: C32_38  and  O8_40 
ROOT
HETATM    1  C6  UNL     1       6.121  11.782  19.002  1.00  0.00     0.014 A 
HETATM    2  C7  UNL     1       7.177  11.299  18.208  1.00  0.00     0.096 A 
HETATM    3  O1  UNL     1       6.893  10.981  16.902  1.00  0.00    -0.333 OA
HETATM    4  C8  UNL     1       8.013  10.842  16.011  1.00  0.00     0.126 C 
HETATM    5  C9  UNL     1       9.041   9.888  16.642  1.00  0.00     0.129 C 
HETATM    6  C10 UNL     1       9.498  10.525  17.934  1.00  0.00     0.174 C 
HETATM    7  O2  UNL     1      10.657  10.509  18.341  1.00  0.00    -0.292 OA
HETATM    8  C11 UNL     1       8.452  11.156  18.759  1.00  0.00     0.078 A 
HETATM    9  C12 UNL     1       8.715  11.570  20.073  1.00  0.00     0.095 A 
HETATM   10  C13 UNL     1       7.688  12.098  20.863  1.00  0.00     0.032 A 
HETATM   11  C14 UNL     1       6.394  12.189  20.327  1.00  0.00     0.092 A 
HETATM   12  O4  UNL     1       5.338  12.703  21.034  1.00  0.00    -0.335 OA
HETATM   13  C15 UNL     1       5.468  12.917  22.452  1.00  0.00     0.078 C 
HETATM   14  C16 UNL     1       4.821  14.279  22.729  1.00  0.00     0.051 C 
HETATM   15  C17 UNL     1       4.670  11.812  23.155  1.00  0.00     0.051 C 
HETATM   16  C18 UNL     1       6.885  12.927  22.969  1.00  0.00     0.012 C 
HETATM   17  C19 UNL     1       7.930  12.551  22.228  1.00  0.00     0.016 C 
HETATM   18  C20 UNL     1      10.213   9.612  15.691  1.00  0.00     0.144 C 
HETATM   19  C21 UNL     1      10.118  10.532  14.475  1.00  0.00     0.089 C 
HETATM   20  C22 UNL     1       9.983  11.984  14.953  1.00  0.00     0.025 C 
HETATM   21  C23 UNL     1       8.576  12.226  15.566  1.00  0.00     0.060 C 
HETATM   22  C24 UNL     1       7.501  12.707  14.538  1.00  0.00     0.062 C 
HETATM   23  C25 UNL     1       6.370  13.503  15.205  1.00  0.00     0.046 C 
HETATM   24  C26 UNL     1       8.027  13.543  13.367  1.00  0.00     0.046 C 
HETATM   25  O6  UNL     1       6.916  11.507  13.991  1.00  0.00    -0.358 OA
HETATM   26  C27 UNL     1       7.556  10.361  14.599  1.00  0.00     0.158 C 
HETATM   27  C33 UNL     1       8.840  10.141  13.760  1.00  0.00     0.171 C 
HETATM   28  O9  UNL     1       8.860   9.721  12.606  1.00  0.00    -0.294 OA
ENDROOT
BRANCH  26  29
HETATM   29  C28 UNL     1       6.667   9.112  14.497  1.00  0.00     0.077 C 
BRANCH  29  30
HETATM   30  C29 UNL     1       5.546   9.174  13.487  1.00  0.00    -0.010 C 
HETATM   31  C30 UNL     1       5.357   8.388  12.409  1.00  0.00     0.008 C 
HETATM   32  C31 UNL     1       4.180   8.558  11.493  1.00  0.00     0.055 C 
BRANCH  31  33
HETATM   33  C32 UNL     1       6.289   7.290  12.067  1.00  0.00     0.171 C 
HETATM   34  O7  UNL     1       7.218   7.323  11.282  1.00  0.00    -0.646 OA
BRANCH  33  35
HETATM   35  O8  UNL     1       6.021   6.181  12.779  1.00  0.00    -0.773 OA
HETATM   36  H38 UNL     1       6.682   5.543  12.436  1.00  0.00     0.167 HD
ENDBRANCH  33  35
ENDBRANCH  31  33
ENDBRANCH  29  30
ENDBRANCH  26  29
BRANCH  18  37
HETATM   37  O5  UNL     1      10.154   8.244  15.289  1.00  0.00    -0.394 OA
HETATM   38  H21 UNL     1      10.894   8.066  14.680  1.00  0.00     0.210 HD
ENDBRANCH  18  37
BRANCH   1  39
HETATM   39  C5  UNL     1       4.694  11.816  18.485  1.00  0.00     0.072 C 
BRANCH  39  40
HETATM   40  C4  UNL     1       3.705  11.391  19.542  1.00  0.00    -0.020 C 
HETATM   41  C2  UNL     1       2.492  10.827  19.376  1.00  0.00    -0.091 C 
HETATM   42  C1  UNL     1       1.860  10.493  18.054  1.00  0.00     0.042 C 
HETATM   43  C3  UNL     1       1.646  10.471  20.572  1.00  0.00     0.042 C 
ENDBRANCH  39  40
ENDBRANCH   1  39
BRANCH   9  44
HETATM   44  O3  UNL     1       9.972  11.466  20.623  1.00  0.00    -0.359 OA
HETATM   45  H11 UNL     1      10.578  11.071  19.958  1.00  0.00     0.217 HD
ENDBRANCH   9  44
TORSDOF 8
ENDMDL
MODEL 9
REMARK minimizedAffinity -8.11350632
REMARK CNNscore 0.180921525
REMARK CNNaffinity 5.79753304
REMARK  8 active torsions:
REMARK  status: ('A' for Active; 'I' for Inactive)
REMARK    1  A    between atoms: C4_4  and  C5_5 
REMARK    2  A    between atoms: C5_5  and  C6_6 
REMARK    3  A    between atoms: C12_14  and  O3_15 
REMARK    4  A    between atoms: C20_24  and  O5_25 
REMARK    5  A    between atoms: C27_33  and  C28_34 
REMARK    6  A    between atoms: C28_34  and  C29_35 
REMARK    7  A    between atoms: C30_36  and  C32_38 
REMARK    8  A    between atoms: C32_38  and  O8_40 
ROOT
HETATM    1  C6  UNL     1      -7.506  -9.756   3.145  1.00  0.00     0.014 A 
HETATM    2  C7  UNL     1      -8.720  -9.096   2.880  1.00  0.00     0.096 A 
HETATM    3  O1  UNL     1      -9.076  -8.928   1.564  1.00  0.00    -0.333 OA
HETATM    4  C8  UNL     1     -10.449  -8.594   1.302  1.00  0.00     0.126 C 
HETATM    5  C9  UNL     1     -10.851  -7.397   2.179  1.00  0.00     0.129 C 
HETATM    6  C10 UNL     1     -10.703  -7.837   3.619  1.00  0.00     0.174 C 
HETATM    7  O2  UNL     1     -11.484  -7.536   4.517  1.00  0.00    -0.292 OA
HETATM    8  C11 UNL     1      -9.507  -8.637   3.938  1.00  0.00     0.078 A 
HETATM    9  C12 UNL     1      -9.145  -8.901   5.267  1.00  0.00     0.095 A 
HETATM   10  C13 UNL     1      -7.965  -9.599   5.550  1.00  0.00     0.032 A 
HETATM   11  C14 UNL     1      -7.147 -10.011   4.488  1.00  0.00     0.092 A 
HETATM   12  O4  UNL     1      -5.981 -10.707   4.682  1.00  0.00    -0.335 OA
HETATM   13  C15 UNL     1      -5.422 -10.800   6.005  1.00  0.00     0.078 C 
HETATM   14  C16 UNL     1      -4.960 -12.255   6.160  1.00  0.00     0.051 C 
HETATM   15  C17 UNL     1      -4.209  -9.864   6.054  1.00  0.00     0.051 C 
HETATM   16  C18 UNL     1      -6.372 -10.460   7.126  1.00  0.00     0.012 C 
HETATM   17  C19 UNL     1      -7.567  -9.903   6.920  1.00  0.00     0.016 C 
HETATM   18  C20 UNL     1     -12.276  -6.921   1.868  1.00  0.00     0.144 C 
HETATM   19  C21 UNL     1     -12.955  -7.910   0.921  1.00  0.00     0.089 C 
HETATM   20  C22 UNL     1     -12.843  -9.324   1.508  1.00  0.00     0.025 C 
HETATM   21  C23 UNL     1     -11.381  -9.840   1.410  1.00  0.00     0.060 C 
HETATM   22  C24 UNL     1     -11.057 -10.611   0.089  1.00  0.00     0.062 C 
HETATM   23  C25 UNL     1      -9.896 -11.600   0.259  1.00  0.00     0.046 C 
HETATM   24  C26 UNL     1     -12.228 -11.375  -0.539  1.00  0.00     0.046 C 
HETATM   25  O6  UNL     1     -10.633  -9.609  -0.857  1.00  0.00    -0.358 OA
HETATM   26  C27 UNL     1     -10.684  -8.313  -0.215  1.00  0.00     0.158 C 
HETATM   27  C33 UNL     1     -12.157  -7.860  -0.368  1.00  0.00     0.171 C 
HETATM   28  O9  UNL     1     -12.680  -7.516  -1.425  1.00  0.00    -0.294 OA
ENDROOT
BRANCH  26  29
HETATM   29  C28 UNL     1      -9.770  -7.305  -0.928  1.00  0.00     0.077 C 
BRANCH  29  30
HETATM   30  C29 UNL     1      -8.813  -7.879  -1.946  1.00  0.00    -0.010 C 
HETATM   31  C30 UNL     1      -8.583  -7.449  -3.202  1.00  0.00     0.008 C 
HETATM   32  C31 UNL     1      -7.585  -8.114  -4.104  1.00  0.00     0.055 C 
BRANCH  31  33
HETATM   33  C32 UNL     1      -9.287  -6.276  -3.771  1.00  0.00     0.171 C 
HETATM   34  O7  UNL     1     -10.480  -6.157  -3.977  1.00  0.00    -0.646 OA
BRANCH  33  35
HETATM   35  O8  UNL     1      -8.434  -5.268  -4.022  1.00  0.00    -0.773 OA
HETATM   36  H38 UNL     1      -9.020  -4.585  -4.412  1.00  0.00     0.167 HD
ENDBRANCH  33  35
ENDBRANCH  31  33
ENDBRANCH  29  30
ENDBRANCH  26  29
BRANCH  18  37
HETATM   37  O5  UNL     1     -12.198  -5.628   1.269  1.00  0.00    -0.394 OA
HETATM   38  H21 UNL     1     -13.102  -5.325   1.065  1.00  0.00     0.210 HD
ENDBRANCH  18  37
BRANCH   1  39
HETATM   39  C5  UNL     1      -6.555 -10.141   2.027  1.00  0.00     0.072 C 
BRANCH  39  40
HETATM   40  C4  UNL     1      -5.122  -9.824   2.376  1.00  0.00    -0.020 C 
HETATM   41  C2  UNL     1      -3.997 -10.379   1.883  1.00  0.00    -0.091 C 
HETATM   42  C1  UNL     1      -3.944 -11.463   0.843  1.00  0.00     0.042 C 
HETATM   43  C3  UNL     1      -2.645  -9.919   2.364  1.00  0.00     0.042 C 
ENDBRANCH  39  40
ENDBRANCH   1  39
BRANCH   9  44
HETATM   44  O3  UNL     1      -9.923  -8.484   6.322  1.00  0.00    -0.359 OA
HETATM   45  H11 UNL     1     -10.705  -8.003   5.970  1.00  0.00     0.217 HD
ENDBRANCH   9  44
TORSDOF 8
ENDMDL
