MODEL 1
REMARK minimizedAffinity -9.1461916
REMARK  5 active torsions:
REMARK  status: ('A' for Active; 'I' for Inactive)
REMARK    1  A    between atoms: C2_2  and  C4_4 
REMARK    2  A    between atoms: C7_7  and  C8_8 
REMARK    3  A    between atoms: C8_8  and  O2_10 
REMARK    4  A    between atoms: C11_13  and  C12_14 
REMARK    5  A    between atoms: C12_14  and  O4_16 
ROOT
HETATM    1  C4  UNL     1      -7.672   5.550  13.654  1.00  0.00     0.019 C 
HETATM    2  C5  UNL     1      -8.937   6.248  14.221  1.00  0.00     0.011 C 
HETATM    3  C6  UNL     1      -8.469   7.561  14.869  1.00  0.00     0.021 C 
HETATM    4  C7  UNL     1      -6.993   7.307  15.195  1.00  0.00     0.050 C 
HETATM    5  C9  UNL     1      -6.137   8.568  15.370  1.00  0.00     0.022 C 
HETATM    6  C10 UNL     1      -4.636   8.207  15.421  1.00  0.00     0.023 C 
HETATM    7  C11 UNL     1      -4.124   7.420  14.160  1.00  0.00     0.057 C 
HETATM    8  C13 UNL     1      -5.059   6.152  13.970  1.00  0.00     0.011 C 
HETATM    9  C14 UNL     1      -4.618   5.240  12.817  1.00  0.00     0.007 C 
HETATM   10  C15 UNL     1      -3.134   4.870  12.872  1.00  0.00     0.006 C 
HETATM   11  C16 UNL     1      -2.209   6.100  13.015  1.00  0.00     0.003 C 
HETATM   12  C17 UNL     1      -0.676   5.783  12.748  1.00  0.00    -0.035 C 
HETATM   13  C18 UNL     1      -0.167   4.580  13.594  1.00  0.00     0.016 C 
HETATM   14  C19 UNL     1      -0.524   5.335  11.253  1.00  0.00     0.017 C 
HETATM   15  C20 UNL     1       0.865   5.556  10.686  1.00  0.00     0.080 C 
HETATM   16  C21 UNL     1       1.282   7.009  10.747  1.00  0.00     0.135 C 
HETATM   17  O5  UNL     1       2.166   7.413   9.984  1.00  0.00    -0.297 OA
HETATM   18  C22 UNL     1       0.615   7.917  11.801  1.00  0.00     0.017 C 
HETATM   19  C23 UNL     1      -0.555   8.648  11.129  1.00  0.00     0.023 C 
HETATM   20  C24 UNL     1       1.653   8.997  12.194  1.00  0.00     0.023 C 
HETATM   21  C25 UNL     1       0.264   7.015  13.043  1.00  0.00     0.009 C 
HETATM   22  C26 UNL     1      -0.144   7.765  14.327  1.00  0.00     0.007 C 
HETATM   23  C27 UNL     1      -1.617   8.143  14.403  1.00  0.00     0.011 C 
HETATM   24  C28 UNL     1      -2.583   6.938  14.296  1.00  0.00    -0.022 C 
HETATM   25  C29 UNL     1      -2.415   6.109  15.606  1.00  0.00     0.017 C 
HETATM   26  C30 UNL     1      -6.545   6.579  13.906  1.00  0.00     0.018 C 
ENDROOT
BRANCH   4  27
HETATM   27  C8  UNL     1      -6.975   6.548  16.534  1.00  0.00     0.149 C 
HETATM   28  O1  UNL     1      -6.496   5.437  16.705  1.00  0.00    -0.649 OA
BRANCH  27  29
HETATM   29  O2  UNL     1      -7.506   7.196  17.580  1.00  0.00    -0.776 OA
HETATM   30  H11 UNL     1      -7.352   6.591  18.335  1.00  0.00     0.167 HD
ENDBRANCH  27  29
ENDBRANCH   4  27
BRANCH   1  31
HETATM   31  C2  UNL     1      -7.894   5.094  12.221  1.00  0.00    -0.088 C 
HETATM   32  C1  UNL     1      -7.357   3.948  11.770  1.00  0.00     0.014 C 
HETATM   33  C3  UNL     1      -8.761   5.930  11.318  1.00  0.00     0.043 C 
ENDBRANCH   1  31
BRANCH   7  34
HETATM   34  C12 UNL     1      -4.270   8.371  12.937  1.00  0.00     0.149 C 
HETATM   35  O3  UNL     1      -5.254   8.520  12.229  1.00  0.00    -0.649 OA
BRANCH  34  36
HETATM   36  O4  UNL     1      -3.168   9.095  12.658  1.00  0.00    -0.776 OA
HETATM   37  H16 UNL     1      -3.428   9.637  11.884  1.00  0.00     0.167 HD
ENDBRANCH  34  36
ENDBRANCH   7  34
TORSDOF 5
ENDMDL
MODEL 2
REMARK minimizedAffinity -8.17953396
REMARK  5 active torsions:
REMARK  status: ('A' for Active; 'I' for Inactive)
REMARK    1  A    between atoms: C2_2  and  C4_4 
REMARK    2  A    between atoms: C7_7  and  C8_8 
REMARK    3  A    between atoms: C8_8  and  O2_10 
REMARK    4  A    between atoms: C11_13  and  C12_14 
REMARK    5  A    between atoms: C12_14  and  O4_16 
ROOT
HETATM    1  C4  UNL     1       2.265   8.421   9.219  1.00  0.00     0.019 C 
HETATM    2  C5  UNL     1       3.720   7.969   8.924  1.00  0.00     0.011 C 
HETATM    3  C6  UNL     1       4.208   7.199  10.162  1.00  0.00     0.021 C 
HETATM    4  C7  UNL     1       3.324   7.728  11.298  1.00  0.00     0.050 C 
HETATM    5  C9  UNL     1       3.215   6.809  12.522  1.00  0.00     0.022 C 
HETATM    6  C10 UNL     1       2.102   7.297  13.475  1.00  0.00     0.023 C 
HETATM    7  C11 UNL     1       0.687   7.409  12.801  1.00  0.00     0.057 C 
HETATM    8  C13 UNL     1       0.837   8.318  11.509  1.00  0.00     0.011 C 
HETATM    9  C14 UNL     1      -0.495   8.585  10.795  1.00  0.00     0.007 C 
HETATM   10  C15 UNL     1      -1.597   9.081  11.734  1.00  0.00     0.006 C 
HETATM   11  C16 UNL     1      -1.782   8.181  12.977  1.00  0.00     0.003 C 
HETATM   12  C17 UNL     1      -3.114   8.478  13.789  1.00  0.00    -0.035 C 
HETATM   13  C18 UNL     1      -3.264   9.985  14.145  1.00  0.00     0.016 C 
HETATM   14  C19 UNL     1      -4.334   8.145  12.863  1.00  0.00     0.017 C 
HETATM   15  C20 UNL     1      -5.606   7.815  13.621  1.00  0.00     0.080 C 
HETATM   16  C21 UNL     1      -5.428   6.630  14.545  1.00  0.00     0.135 C 
HETATM   17  O5  UNL     1      -6.425   5.994  14.905  1.00  0.00    -0.297 OA
HETATM   18  C22 UNL     1      -4.006   6.295  15.040  1.00  0.00     0.017 C 
HETATM   19  C23 UNL     1      -3.422   5.216  14.119  1.00  0.00     0.023 C 
HETATM   20  C24 UNL     1      -4.150   5.660  16.444  1.00  0.00     0.023 C 
HETATM   21  C25 UNL     1      -3.211   7.651  15.130  1.00  0.00     0.009 C 
HETATM   22  C26 UNL     1      -1.862   7.594  15.877  1.00  0.00     0.007 C 
HETATM   23  C27 UNL     1      -0.679   7.156  15.023  1.00  0.00     0.011 C 
HETATM   24  C28 UNL     1      -0.434   8.048  13.782  1.00  0.00    -0.022 C 
HETATM   25  C29 UNL     1       0.068   9.426  14.311  1.00  0.00     0.017 C 
HETATM   26  C30 UNL     1       1.951   7.768  10.586  1.00  0.00     0.018 C 
ENDROOT
BRANCH   4  27
HETATM   27  C8  UNL     1       3.969   9.044  11.765  1.00  0.00     0.149 C 
HETATM   28  O1  UNL     1       5.070   9.448  11.420  1.00  0.00    -0.649 OA
BRANCH  27  29
HETATM   29  O2  UNL     1       3.229   9.797  12.590  1.00  0.00    -0.776 OA
HETATM   30  H11 UNL     1       3.772  10.602  12.725  1.00  0.00     0.167 HD
ENDBRANCH  27  29
ENDBRANCH   4  27
BRANCH   1  31
HETATM   31  C2  UNL     1       1.342   8.088   8.058  1.00  0.00    -0.088 C 
HETATM   32  C1  UNL     1       0.035   8.395   8.106  1.00  0.00     0.014 C 
HETATM   33  C3  UNL     1       1.923   7.439   6.830  1.00  0.00     0.043 C 
ENDBRANCH   1  31
BRANCH   7  34
HETATM   34  C12 UNL     1       0.262   5.970  12.386  1.00  0.00     0.149 C 
HETATM   35  O3  UNL     1       0.351   4.951  13.054  1.00  0.00    -0.649 OA
BRANCH  34  36
HETATM   36  O4  UNL     1      -0.256   5.877  11.146  1.00  0.00    -0.776 OA
HETATM   37  H16 UNL     1      -0.476   4.927  11.050  1.00  0.00     0.167 HD
ENDBRANCH  34  36
ENDBRANCH   7  34
TORSDOF 5
ENDMDL
MODEL 3
REMARK minimizedAffinity -7.77334547
REMARK  5 active torsions:
REMARK  status: ('A' for Active; 'I' for Inactive)
REMARK    1  A    between atoms: C2_2  and  C4_4 
REMARK    2  A    between atoms: C7_7  and  C8_8 
REMARK    3  A    between atoms: C8_8  and  O2_10 
REMARK    4  A    between atoms: C11_13  and  C12_14 
REMARK    5  A    between atoms: C12_14  and  O4_16 
ROOT
HETATM    1  C4  UNL     1       0.911   7.952  10.616  1.00  0.00     0.019 C 
HETATM    2  C5  UNL     1       2.224   7.229  10.213  1.00  0.00     0.011 C 
HETATM    3  C6  UNL     1       2.294   5.935  11.041  1.00  0.00     0.021 C 
HETATM    4  C7  UNL     1       1.414   6.230  12.261  1.00  0.00     0.050 C 
HETATM    5  C9  UNL     1       0.879   4.993  12.994  1.00  0.00     0.022 C 
HETATM    6  C10 UNL     1      -0.200   5.392  14.024  1.00  0.00     0.023 C 
HETATM    7  C11 UNL     1      -1.415   6.177  13.406  1.00  0.00     0.057 C 
HETATM    8  C13 UNL     1      -0.832   7.418  12.609  1.00  0.00     0.011 C 
HETATM    9  C14 UNL     1      -1.919   8.328  12.021  1.00  0.00     0.007 C 
HETATM   10  C15 UNL     1      -2.984   8.736  13.041  1.00  0.00     0.006 C 
HETATM   11  C16 UNL     1      -3.591   7.531  13.796  1.00  0.00     0.003 C 
HETATM   12  C17 UNL     1      -4.908   7.883  14.611  1.00  0.00    -0.035 C 
HETATM   13  C18 UNL     1      -4.710   9.107  15.550  1.00  0.00     0.016 C 
HETATM   14  C19 UNL     1      -6.013   8.316  13.587  1.00  0.00     0.017 C 
HETATM   15  C20 UNL     1      -7.429   8.123  14.097  1.00  0.00     0.080 C 
HETATM   16  C21 UNL     1      -7.714   6.682  14.457  1.00  0.00     0.135 C 
HETATM   17  O5  UNL     1      -8.886   6.291  14.487  1.00  0.00    -0.297 OA
HETATM   18  C22 UNL     1      -6.524   5.770  14.820  1.00  0.00     0.017 C 
HETATM   19  C23 UNL     1      -6.108   5.003  13.558  1.00  0.00     0.023 C 
HETATM   20  C24 UNL     1      -7.047   4.721  15.832  1.00  0.00     0.023 C 
HETATM   21  C25 UNL     1      -5.425   6.678  15.488  1.00  0.00     0.009 C 
HETATM   22  C26 UNL     1      -4.272   5.933  16.192  1.00  0.00     0.007 C 
HETATM   23  C27 UNL     1      -3.128   5.519  15.277  1.00  0.00     0.011 C 
HETATM   24  C28 UNL     1      -2.467   6.699  14.522  1.00  0.00    -0.022 C 
HETATM   25  C29 UNL     1      -1.709   7.547  15.589  1.00  0.00     0.017 C 
HETATM   26  C30 UNL     1       0.228   6.954  11.581  1.00  0.00     0.018 C 
ENDROOT
BRANCH   4  27
HETATM   27  C8  UNL     1       2.302   7.005  13.251  1.00  0.00     0.149 C 
HETATM   28  O1  UNL     1       2.915   8.029  12.992  1.00  0.00    -0.649 OA
BRANCH  27  29
HETATM   29  O2  UNL     1       2.362   6.508  14.495  1.00  0.00    -0.776 OA
HETATM   30  H11 UNL     1       2.913   7.156  14.981  1.00  0.00     0.167 HD
ENDBRANCH  27  29
ENDBRANCH   4  27
BRANCH   1  31
HETATM   31  C2  UNL     1       0.125   8.385   9.389  1.00  0.00    -0.088 C 
HETATM   32  C1  UNL     1       0.539   8.059   8.153  1.00  0.00     0.014 C 
HETATM   33  C3  UNL     1      -1.153   9.157   9.580  1.00  0.00     0.043 C 
ENDBRANCH   1  31
BRANCH   7  34
HETATM   34  C12 UNL     1      -2.132   5.208  12.421  1.00  0.00     0.149 C 
HETATM   35  O3  UNL     1      -1.700   4.159  11.969  1.00  0.00    -0.649 OA
BRANCH  34  36
HETATM   36  O4  UNL     1      -3.364   5.604  12.047  1.00  0.00    -0.776 OA
HETATM   37  H16 UNL     1      -3.672   4.892  11.448  1.00  0.00     0.167 HD
ENDBRANCH  34  36
ENDBRANCH   7  34
TORSDOF 5
ENDMDL
MODEL 4
REMARK minimizedAffinity -7.68334198
REMARK  5 active torsions:
REMARK  status: ('A' for Active; 'I' for Inactive)
REMARK    1  A    between atoms: C2_2  and  C4_4 
REMARK    2  A    between atoms: C7_7  and  C8_8 
REMARK    3  A    between atoms: C8_8  and  O2_10 
REMARK    4  A    between atoms: C11_13  and  C12_14 
REMARK    5  A    between atoms: C12_14  and  O4_16 
ROOT
HETATM    1  C4  UNL     1      -2.584   5.120  12.014  1.00  0.00     0.019 C 
HETATM    2  C5  UNL     1      -1.776   3.852  11.630  1.00  0.00     0.011 C 
HETATM    3  C6  UNL     1      -0.402   3.976  12.307  1.00  0.00     0.021 C 
HETATM    4  C7  UNL     1      -0.233   5.484  12.526  1.00  0.00     0.050 C 
HETATM    5  C9  UNL     1       0.774   5.876  13.616  1.00  0.00     0.022 C 
HETATM    6  C10 UNL     1       0.667   7.382  13.941  1.00  0.00     0.023 C 
HETATM    7  C11 UNL     1      -0.768   7.839  14.391  1.00  0.00     0.057 C 
HETATM    8  C13 UNL     1      -1.795   7.374  13.275  1.00  0.00     0.011 C 
HETATM    9  C14 UNL     1      -3.235   7.833  13.545  1.00  0.00     0.007 C 
HETATM   10  C15 UNL     1      -3.346   9.327  13.855  1.00  0.00     0.006 C 
HETATM   11  C16 UNL     1      -2.380   9.786  14.971  1.00  0.00     0.003 C 
HETATM   12  C17 UNL     1      -2.696  11.236  15.535  1.00  0.00    -0.035 C 
HETATM   13  C18 UNL     1      -2.811  12.297  14.404  1.00  0.00     0.016 C 
HETATM   14  C19 UNL     1      -4.108  11.197  16.215  1.00  0.00     0.017 C 
HETATM   15  C20 UNL     1      -4.309  12.267  17.272  1.00  0.00     0.080 C 
HETATM   16  C21 UNL     1      -3.290  12.167  18.385  1.00  0.00     0.135 C 
HETATM   17  O5  UNL     1      -3.550  12.669  19.484  1.00  0.00    -0.297 OA
HETATM   18  C22 UNL     1      -1.942  11.481  18.084  1.00  0.00     0.017 C 
HETATM   19  C23 UNL     1      -2.043  10.015  18.523  1.00  0.00     0.023 C 
HETATM   20  C24 UNL     1      -0.878  12.150  18.988  1.00  0.00     0.023 C 
HETATM   21  C25 UNL     1      -1.613  11.742  16.566  1.00  0.00     0.009 C 
HETATM   22  C26 UNL     1      -0.178  11.398  16.117  1.00  0.00     0.007 C 
HETATM   23  C27 UNL     1       0.038   9.939  15.736  1.00  0.00     0.011 C 
HETATM   24  C28 UNL     1      -0.887   9.442  14.598  1.00  0.00    -0.022 C 
HETATM   25  C29 UNL     1      -0.429  10.167  13.296  1.00  0.00     0.017 C 
HETATM   26  C30 UNL     1      -1.655   5.856  13.008  1.00  0.00     0.018 C 
ENDROOT
BRANCH   4  27
HETATM   27  C8  UNL     1       0.285   6.054  11.194  1.00  0.00     0.149 C 
HETATM   28  O1  UNL     1      -0.080   7.106  10.691  1.00  0.00    -0.649 OA
BRANCH  27  29
HETATM   29  O2  UNL     1       1.230   5.331  10.577  1.00  0.00    -0.776 OA
HETATM   30  H11 UNL     1       1.469   5.873   9.796  1.00  0.00     0.167 HD
ENDBRANCH  27  29
ENDBRANCH   4  27
BRANCH   1  31
HETATM   31  C2  UNL     1      -3.977   4.756  12.500  1.00  0.00    -0.088 C 
HETATM   32  C1  UNL     1      -4.709   5.627  13.215  1.00  0.00     0.014 C 
HETATM   33  C3  UNL     1      -4.546   3.411  12.135  1.00  0.00     0.043 C 
ENDBRANCH   1  31
BRANCH   7  34
HETATM   34  C12 UNL     1      -1.081   7.112  15.731  1.00  0.00     0.149 C 
HETATM   35  O3  UNL     1      -2.181   6.871  16.203  1.00  0.00    -0.649 OA
BRANCH  34  36
HETATM   36  O4  UNL     1       0.009   6.719  16.420  1.00  0.00    -0.776 OA
HETATM   37  H16 UNL     1      -0.357   6.278  17.215  1.00  0.00     0.167 HD
ENDBRANCH  34  36
ENDBRANCH   7  34
TORSDOF 5
ENDMDL
MODEL 5
REMARK minimizedAffinity -7.52511835
REMARK  5 active torsions:
REMARK  status: ('A' for Active; 'I' for Inactive)
REMARK    1  A    between atoms: C2_2  and  C4_4 
REMARK    2  A    between atoms: C7_7  and  C8_8 
REMARK    3  A    between atoms: C8_8  and  O2_10 
REMARK    4  A    between atoms: C11_13  and  C12_14 
REMARK    5  A    between atoms: C12_14  and  O4_16 
ROOT
HETATM    1  C4  UNL     1      -1.452   6.971  13.877  1.00  0.00     0.019 C 
HETATM    2  C5  UNL     1      -2.496   6.325  12.928  1.00  0.00     0.011 C 
HETATM    3  C6  UNL     1      -3.772   7.178  13.022  1.00  0.00     0.021 C 
HETATM    4  C7  UNL     1      -3.657   7.864  14.388  1.00  0.00     0.050 C 
HETATM    5  C9  UNL     1      -4.494   9.140  14.548  1.00  0.00     0.022 C 
HETATM    6  C10 UNL     1      -4.100   9.892  15.839  1.00  0.00     0.023 C 
HETATM    7  C11 UNL     1      -2.577  10.273  15.919  1.00  0.00     0.057 C 
HETATM    8  C13 UNL     1      -1.736   8.947  15.695  1.00  0.00     0.011 C 
HETATM    9  C14 UNL     1      -0.221   9.158  15.834  1.00  0.00     0.007 C 
HETATM   10  C15 UNL     1       0.173   9.891  17.117  1.00  0.00     0.006 C 
HETATM   11  C16 UNL     1      -0.611  11.207  17.327  1.00  0.00     0.003 C 
HETATM   12  C17 UNL     1      -0.003  12.141  18.459  1.00  0.00    -0.035 C 
HETATM   13  C18 UNL     1       0.209  11.380  19.799  1.00  0.00     0.016 C 
HETATM   14  C19 UNL     1       1.428  12.590  18.003  1.00  0.00     0.017 C 
HETATM   15  C20 UNL     1       1.892  13.888  18.637  1.00  0.00     0.080 C 
HETATM   16  C21 UNL     1       0.960  15.039  18.332  1.00  0.00     0.135 C 
HETATM   17  O5  UNL     1       1.387  16.196  18.412  1.00  0.00    -0.297 OA
HETATM   18  C22 UNL     1      -0.507  14.717  17.978  1.00  0.00     0.017 C 
HETATM   19  C23 UNL     1      -0.630  14.673  16.449  1.00  0.00     0.023 C 
HETATM   20  C24 UNL     1      -1.365  15.910  18.465  1.00  0.00     0.023 C 
HETATM   21  C25 UNL     1      -0.899  13.405  18.756  1.00  0.00     0.009 C 
HETATM   22  C26 UNL     1      -2.402  13.060  18.781  1.00  0.00     0.007 C 
HETATM   23  C27 UNL     1      -2.899  12.284  17.568  1.00  0.00     0.011 C 
HETATM   24  C28 UNL     1      -2.164  10.941  17.336  1.00  0.00    -0.022 C 
HETATM   25  C29 UNL     1      -2.586   9.991  18.498  1.00  0.00     0.017 C 
HETATM   26  C30 UNL     1      -2.160   8.251  14.380  1.00  0.00     0.018 C 
ENDROOT
BRANCH   4  27
HETATM   27  C8  UNL     1      -4.167   6.846  15.422  1.00  0.00     0.149 C 
HETATM   28  O1  UNL     1      -5.253   6.288  15.383  1.00  0.00    -0.649 OA
BRANCH  27  29
HETATM   29  O2  UNL     1      -3.317   6.545  16.414  1.00  0.00    -0.776 OA
HETATM   30  H11 UNL     1      -3.786   5.853  16.925  1.00  0.00     0.167 HD
ENDBRANCH  27  29
ENDBRANCH   4  27
BRANCH   1  31
HETATM   31  C2  UNL     1      -0.111   7.141  13.182  1.00  0.00    -0.088 C 
HETATM   32  C1  UNL     1       0.036   8.010  12.168  1.00  0.00     0.014 C 
HETATM   33  C3  UNL     1       1.069   6.346  13.673  1.00  0.00     0.043 C 
ENDBRANCH   1  31
BRANCH   7  34
HETATM   34  C12 UNL     1      -2.296  11.277  14.764  1.00  0.00     0.149 C 
HETATM   35  O3  UNL     1      -2.728  12.414  14.649  1.00  0.00    -0.649 OA
BRANCH  34  36
HETATM   36  O4  UNL     1      -1.482  10.805  13.799  1.00  0.00    -0.776 OA
HETATM   37  H16 UNL     1      -1.401  11.550  13.168  1.00  0.00     0.167 HD
ENDBRANCH  34  36
ENDBRANCH   7  34
TORSDOF 5
ENDMDL
MODEL 6
REMARK minimizedAffinity -7.43428946
REMARK  5 active torsions:
REMARK  status: ('A' for Active; 'I' for Inactive)
REMARK    1  A    between atoms: C2_2  and  C4_4 
REMARK    2  A    between atoms: C7_7  and  C8_8 
REMARK    3  A    between atoms: C8_8  and  O2_10 
REMARK    4  A    between atoms: C11_13  and  C12_14 
REMARK    5  A    between atoms: C12_14  and  O4_16 
ROOT
HETATM    1  C4  UNL     1      -3.526   4.488  13.090  1.00  0.00     0.019 C 
HETATM    2  C5  UNL     1      -5.054   4.620  12.854  1.00  0.00     0.011 C 
HETATM    3  C6  UNL     1      -5.394   6.115  12.956  1.00  0.00     0.021 C 
HETATM    4  C7  UNL     1      -4.259   6.695  13.809  1.00  0.00     0.050 C 
HETATM    5  C9  UNL     1      -4.039   8.206  13.662  1.00  0.00     0.022 C 
HETATM    6  C10 UNL     1      -2.719   8.634  14.340  1.00  0.00     0.023 C 
HETATM    7  C11 UNL     1      -1.448   7.883  13.799  1.00  0.00     0.057 C 
HETATM    8  C13 UNL     1      -1.724   6.325  13.911  1.00  0.00     0.011 C 
HETATM    9  C14 UNL     1      -0.524   5.464  13.493  1.00  0.00     0.007 C 
HETATM   10  C15 UNL     1       0.783   5.877  14.173  1.00  0.00     0.006 C 
HETATM   11  C16 UNL     1       1.085   7.387  14.036  1.00  0.00     0.003 C 
HETATM   12  C17 UNL     1       2.570   7.782  14.438  1.00  0.00    -0.035 C 
HETATM   13  C18 UNL     1       2.962   7.245  15.844  1.00  0.00     0.016 C 
HETATM   14  C19 UNL     1       3.550   7.081  13.435  1.00  0.00     0.017 C 
HETATM   15  C20 UNL     1       4.890   7.779  13.301  1.00  0.00     0.080 C 
HETATM   16  C21 UNL     1       4.744   9.210  12.834  1.00  0.00     0.135 C 
HETATM   17  O5  UNL     1       5.707   9.767  12.293  1.00  0.00    -0.297 OA
HETATM   18  C22 UNL     1       3.408   9.933  13.098  1.00  0.00     0.017 C 
HETATM   19  C23 UNL     1       2.539   9.806  11.840  1.00  0.00     0.023 C 
HETATM   20  C24 UNL     1       3.730  11.437  13.273  1.00  0.00     0.023 C 
HETATM   21  C25 UNL     1       2.811   9.342  14.430  1.00  0.00     0.009 C 
HETATM   22  C26 UNL     1       1.626  10.117  15.041  1.00  0.00     0.007 C 
HETATM   23  C27 UNL     1       0.263   9.751  14.471  1.00  0.00     0.011 C 
HETATM   24  C28 UNL     1      -0.098   8.252  14.615  1.00  0.00    -0.022 C 
HETATM   25  C29 UNL     1      -0.324   7.988  16.135  1.00  0.00     0.017 C 
HETATM   26  C30 UNL     1      -3.046   5.955  13.197  1.00  0.00     0.018 C 
ENDROOT
BRANCH   4  27
HETATM   27  C8  UNL     1      -4.645   6.425  15.274  1.00  0.00     0.149 C 
HETATM   28  O1  UNL     1      -5.781   6.474  15.722  1.00  0.00    -0.649 OA
BRANCH  27  29
HETATM   29  O2  UNL     1      -3.638   6.084  16.090  1.00  0.00    -0.776 OA
HETATM   30  H11 UNL     1      -4.080   5.899  16.945  1.00  0.00     0.167 HD
ENDBRANCH  27  29
ENDBRANCH   4  27
BRANCH   1  31
HETATM   31  C2  UNL     1      -2.879   3.618  12.025  1.00  0.00    -0.088 C 
HETATM   32  C1  UNL     1      -3.067   2.288  12.012  1.00  0.00     0.014 C 
HETATM   33  C3  UNL     1      -2.049   4.276  10.955  1.00  0.00     0.043 C 
ENDBRANCH   1  31
BRANCH   7  34
HETATM   34  C12 UNL     1      -1.284   8.283  12.304  1.00  0.00     0.149 C 
HETATM   35  O3  UNL     1      -1.674   9.307  11.764  1.00  0.00    -0.649 OA
BRANCH  34  36
HETATM   36  O4  UNL     1      -0.634   7.373  11.551  1.00  0.00    -0.776 OA
HETATM   37  H16 UNL     1      -0.607   7.777  10.658  1.00  0.00     0.167 HD
ENDBRANCH  34  36
ENDBRANCH   7  34
TORSDOF 5
ENDMDL
MODEL 7
REMARK minimizedAffinity -7.36684084
REMARK  5 active torsions:
REMARK  status: ('A' for Active; 'I' for Inactive)
REMARK    1  A    between atoms: C2_2  and  C4_4 
REMARK    2  A    between atoms: C7_7  and  C8_8 
REMARK    3  A    between atoms: C8_8  and  O2_10 
REMARK    4  A    between atoms: C11_13  and  C12_14 
REMARK    5  A    between atoms: C12_14  and  O4_16 
ROOT
HETATM    1  C4  UNL     1       2.166   7.051  12.983  1.00  0.00     0.019 C 
HETATM    2  C5  UNL     1       2.234   6.130  11.736  1.00  0.00     0.011 C 
HETATM    3  C6  UNL     1       0.799   5.990  11.204  1.00  0.00     0.021 C 
HETATM    4  C7  UNL     1      -0.078   6.290  12.426  1.00  0.00     0.050 C 
HETATM    5  C9  UNL     1      -1.514   6.727  12.107  1.00  0.00     0.022 C 
HETATM    6  C10 UNL     1      -2.216   7.261  13.374  1.00  0.00     0.023 C 
HETATM    7  C11 UNL     1      -1.466   8.457  14.066  1.00  0.00     0.057 C 
HETATM    8  C13 UNL     1       0.028   7.999  14.334  1.00  0.00     0.011 C 
HETATM    9  C14 UNL     1       0.859   9.048  15.088  1.00  0.00     0.007 C 
HETATM   10  C15 UNL     1       0.171   9.570  16.351  1.00  0.00     0.006 C 
HETATM   11  C16 UNL     1      -1.273  10.058  16.096  1.00  0.00     0.003 C 
HETATM   12  C17 UNL     1      -1.887  10.896  17.297  1.00  0.00    -0.035 C 
HETATM   13  C18 UNL     1      -1.766  10.152  18.657  1.00  0.00     0.016 C 
HETATM   14  C19 UNL     1      -1.041  12.206  17.461  1.00  0.00     0.017 C 
HETATM   15  C20 UNL     1      -1.796  13.343  18.122  1.00  0.00     0.080 C 
HETATM   16  C21 UNL     1      -3.040  13.726  17.352  1.00  0.00     0.135 C 
HETATM   17  O5  UNL     1      -3.521  14.854  17.511  1.00  0.00    -0.297 OA
HETATM   18  C22 UNL     1      -3.686  12.669  16.434  1.00  0.00     0.017 C 
HETATM   19  C23 UNL     1      -3.164  12.892  15.008  1.00  0.00     0.023 C 
HETATM   20  C24 UNL     1      -5.207  12.958  16.406  1.00  0.00     0.023 C 
HETATM   21  C25 UNL     1      -3.407  11.258  17.075  1.00  0.00     0.009 C 
HETATM   22  C26 UNL     1      -4.207  10.079  16.485  1.00  0.00     0.007 C 
HETATM   23  C27 UNL     1      -3.587   9.446  15.245  1.00  0.00     0.011 C 
HETATM   24  C28 UNL     1      -2.150   8.912  15.463  1.00  0.00    -0.022 C 
HETATM   25  C29 UNL     1      -2.267   7.677  16.407  1.00  0.00     0.017 C 
HETATM   26  C30 UNL     1       0.684   7.495  13.026  1.00  0.00     0.018 C 
ENDROOT
BRANCH   4  27
HETATM   27  C8  UNL     1      -0.162   4.977  13.224  1.00  0.00     0.149 C 
HETATM   28  O1  UNL     1      -0.318   3.868  12.738  1.00  0.00    -0.649 OA
BRANCH  27  29
HETATM   29  O2  UNL     1      -0.018   5.091  14.552  1.00  0.00    -0.776 OA
HETATM   30  H11 UNL     1      -0.040   4.165  14.872  1.00  0.00     0.167 HD
ENDBRANCH  27  29
ENDBRANCH   4  27
BRANCH   1  31
HETATM   31  C2  UNL     1       3.220   8.144  12.916  1.00  0.00    -0.088 C 
HETATM   32  C1  UNL     1       3.180   9.085  11.958  1.00  0.00     0.014 C 
HETATM   33  C3  UNL     1       4.296   8.181  13.968  1.00  0.00     0.043 C 
ENDBRANCH   1  31
BRANCH   7  34
HETATM   34  C12 UNL     1      -1.481   9.647  13.062  1.00  0.00     0.149 C 
HETATM   35  O3  UNL     1      -1.856   9.630  11.900  1.00  0.00    -0.649 OA
BRANCH  34  36
HETATM   36  O4  UNL     1      -1.021  10.809  13.567  1.00  0.00    -0.776 OA
HETATM   37  H16 UNL     1      -1.107  11.442  12.824  1.00  0.00     0.167 HD
ENDBRANCH  34  36
ENDBRANCH   7  34
TORSDOF 5
ENDMDL
MODEL 8
REMARK minimizedAffinity -7.33393574
REMARK  5 active torsions:
REMARK  status: ('A' for Active; 'I' for Inactive)
REMARK    1  A    between atoms: C2_2  and  C4_4 
REMARK    2  A    between atoms: C7_7  and  C8_8 
REMARK    3  A    between atoms: C8_8  and  O2_10 
REMARK    4  A    between atoms: C11_13  and  C12_14 
REMARK    5  A    between atoms: C12_14  and  O4_16 
ROOT
HETATM    1  C4  UNL     1       2.489   7.144  12.104  1.00  0.00     0.019 C 
HETATM    2  C5  UNL     1       2.421   6.082  10.974  1.00  0.00     0.011 C 
HETATM    3  C6  UNL     1       3.855   5.892  10.453  1.00  0.00     0.021 C 
HETATM    4  C7  UNL     1       4.560   7.202  10.827  1.00  0.00     0.050 C 
HETATM    5  C9  UNL     1       6.090   7.120  10.903  1.00  0.00     0.022 C 
HETATM    6  C10 UNL     1       6.674   8.398  11.545  1.00  0.00     0.023 C 
HETATM    7  C11 UNL     1       6.113   8.707  12.980  1.00  0.00     0.057 C 
HETATM    8  C13 UNL     1       4.530   8.731  12.885  1.00  0.00     0.011 C 
HETATM    9  C14 UNL     1       3.847   9.109  14.206  1.00  0.00     0.007 C 
HETATM   10  C15 UNL     1       4.414  10.382  14.839  1.00  0.00     0.006 C 
HETATM   11  C16 UNL     1       5.954  10.354  14.976  1.00  0.00     0.003 C 
HETATM   12  C17 UNL     1       6.534  11.498  15.912  1.00  0.00    -0.035 C 
HETATM   13  C18 UNL     1       6.020  12.909  15.505  1.00  0.00     0.016 C 
HETATM   14  C19 UNL     1       5.994  11.260  17.364  1.00  0.00     0.017 C 
HETATM   15  C20 UNL     1       6.867  11.864  18.448  1.00  0.00     0.080 C 
HETATM   16  C21 UNL     1       8.277  11.317  18.416  1.00  0.00     0.135 C 
HETATM   17  O5  UNL     1       8.970  11.380  19.438  1.00  0.00    -0.297 OA
HETATM   18  C22 UNL     1       8.809  10.744  17.087  1.00  0.00     0.017 C 
HETATM   19  C23 UNL     1       8.597   9.224  17.103  1.00  0.00     0.023 C 
HETATM   20  C24 UNL     1      10.338  10.985  17.066  1.00  0.00     0.023 C 
HETATM   21  C25 UNL     1       8.111  11.541  15.921  1.00  0.00     0.009 C 
HETATM   22  C26 UNL     1       8.707  11.336  14.513  1.00  0.00     0.007 C 
HETATM   23  C27 UNL     1       8.175  10.119  13.767  1.00  0.00     0.011 C 
HETATM   24  C28 UNL     1       6.639  10.119  13.577  1.00  0.00    -0.022 C 
HETATM   25  C29 UNL     1       6.311  11.260  12.567  1.00  0.00     0.017 C 
HETATM   26  C30 UNL     1       4.004   7.420  12.254  1.00  0.00     0.018 C 
ENDROOT
BRANCH   4  27
HETATM   27  C8  UNL     1       4.207   8.209   9.718  1.00  0.00     0.149 C 
HETATM   28  O1  UNL     1       3.417   8.004   8.809  1.00  0.00    -0.649 OA
BRANCH  27  29
HETATM   29  O2  UNL     1       4.806   9.405   9.803  1.00  0.00    -0.776 OA
HETATM   30  H11 UNL     1       4.418   9.916   9.062  1.00  0.00     0.167 HD
ENDBRANCH  27  29
ENDBRANCH   4  27
BRANCH   1  31
HETATM   31  C2  UNL     1       1.739   6.677  13.341  1.00  0.00    -0.088 C 
HETATM   32  C1  UNL     1       0.822   5.698  13.263  1.00  0.00     0.014 C 
HETATM   33  C3  UNL     1       2.067   7.304  14.669  1.00  0.00     0.043 C 
ENDBRANCH   1  31
BRANCH   7  34
HETATM   34  C12 UNL     1       6.567   7.543  13.909  1.00  0.00     0.149 C 
HETATM   35  O3  UNL     1       7.683   7.054  13.991  1.00  0.00    -0.649 OA
BRANCH  34  36
HETATM   36  O4  UNL     1       5.593   7.044  14.696  1.00  0.00    -0.776 OA
HETATM   37  H16 UNL     1       6.039   6.342  15.213  1.00  0.00     0.167 HD
ENDBRANCH  34  36
ENDBRANCH   7  34
TORSDOF 5
ENDMDL
MODEL 9
REMARK minimizedAffinity -7.30900526
REMARK  5 active torsions:
REMARK  status: ('A' for Active; 'I' for Inactive)
REMARK    1  A    between atoms: C2_2  and  C4_4 
REMARK    2  A    between atoms: C7_7  and  C8_8 
REMARK    3  A    between atoms: C8_8  and  O2_10 
REMARK    4  A    between atoms: C11_13  and  C12_14 
REMARK    5  A    between atoms: C12_14  and  O4_16 
ROOT
HETATM    1  C4  UNL     1       8.918  13.070  20.470  1.00  0.00     0.019 C 
HETATM    2  C5  UNL     1       9.871  12.605  21.603  1.00  0.00     0.011 C 
HETATM    3  C6  UNL     1       8.986  12.045  22.729  1.00  0.00     0.021 C 
HETATM    4  C7  UNL     1       7.631  12.727  22.507  1.00  0.00     0.050 C 
HETATM    5  C9  UNL     1       6.429  12.007  23.132  1.00  0.00     0.022 C 
HETATM    6  C10 UNL     1       5.103  12.617  22.624  1.00  0.00     0.023 C 
HETATM    7  C11 UNL     1       4.947  12.597  21.060  1.00  0.00     0.057 C 
HETATM    8  C13 UNL     1       6.227  13.297  20.438  1.00  0.00     0.011 C 
HETATM    9  C14 UNL     1       6.167  13.426  18.910  1.00  0.00     0.007 C 
HETATM   10  C15 UNL     1       4.861  14.041  18.404  1.00  0.00     0.006 C 
HETATM   11  C16 UNL     1       3.604  13.341  18.971  1.00  0.00     0.003 C 
HETATM   12  C17 UNL     1       2.260  13.736  18.223  1.00  0.00    -0.035 C 
HETATM   13  C18 UNL     1       2.066  15.277  18.133  1.00  0.00     0.016 C 
HETATM   14  C19 UNL     1       2.364  13.241  16.739  1.00  0.00     0.017 C 
HETATM   15  C20 UNL     1       1.020  13.009  16.076  1.00  0.00     0.080 C 
HETATM   16  C21 UNL     1       0.187  11.985  16.816  1.00  0.00     0.135 C 
HETATM   17  O5  UNL     1      -0.715  11.394  16.212  1.00  0.00    -0.297 OA
HETATM   18  C22 UNL     1       0.471  11.757  18.315  1.00  0.00     0.017 C 
HETATM   19  C23 UNL     1       1.421  10.559  18.444  1.00  0.00     0.023 C 
HETATM   20  C24 UNL     1      -0.867  11.344  18.974  1.00  0.00     0.023 C 
HETATM   21  C25 UNL     1       0.976  13.125  18.909  1.00  0.00     0.009 C 
HETATM   22  C26 UNL     1       1.043  13.209  20.448  1.00  0.00     0.007 C 
HETATM   23  C27 UNL     1       2.327  12.666  21.060  1.00  0.00     0.011 C 
HETATM   24  C28 UNL     1       3.612  13.360  20.547  1.00  0.00    -0.022 C 
HETATM   25  C29 UNL     1       3.597  14.812  21.113  1.00  0.00     0.017 C 
HETATM   26  C30 UNL     1       7.520  12.632  20.967  1.00  0.00     0.018 C 
ENDROOT
BRANCH   4  27
HETATM   27  C8  UNL     1       7.735  14.111  23.170  1.00  0.00     0.149 C 
HETATM   28  O1  UNL     1       6.998  15.058  22.941  1.00  0.00    -0.649 OA
BRANCH  27  29
HETATM   29  O2  UNL     1       8.701  14.248  24.089  1.00  0.00    -0.776 OA
HETATM   30  H11 UNL     1       8.573  15.157  24.433  1.00  0.00     0.167 HD
ENDBRANCH  27  29
ENDBRANCH   4  27
BRANCH   1  31
HETATM   31  C2  UNL     1       9.375  12.545  19.119  1.00  0.00    -0.088 C 
HETATM   32  C1  UNL     1       9.984  13.352  18.234  1.00  0.00     0.014 C 
HETATM   33  C3  UNL     1       9.170  11.088  18.799  1.00  0.00     0.043 C 
ENDBRANCH   1  31
BRANCH   7  34
HETATM   34  C12 UNL     1       4.899  11.104  20.624  1.00  0.00     0.149 C 
HETATM   35  O3  UNL     1       4.258  10.202  21.142  1.00  0.00    -0.649 OA
BRANCH  34  36
HETATM   36  O4  UNL     1       5.663  10.810  19.554  1.00  0.00    -0.776 OA
HETATM   37  H16 UNL     1       5.513   9.853  19.409  1.00  0.00     0.167 HD
ENDBRANCH  34  36
ENDBRANCH   7  34
TORSDOF 5
ENDMDL
