MODEL 1
REMARK minimizedAffinity -7.09292984
REMARK CNNscore 0.540150404
REMARK CNNaffinity 6.87392044
REMARK  13 active torsions:
REMARK  status: ('A' for Active; 'I' for Inactive)
REMARK    1  A    between atoms: C2_2  and  C3_3 
REMARK    2  A    between atoms: C3_3  and  C5_5 
REMARK    3  A    between atoms: C5_5  and  N1_6 
REMARK    4  A    between atoms: C5_5  and  C31_39 
REMARK       I    between atoms: N1_6  and  C6_7 
REMARK    5  A    between atoms: C6_7  and  C7_9 
REMARK    6  A    between atoms: C7_9  and  C8_10 
REMARK    7  A    between atoms: C8_10  and  C9_11 
REMARK    8  A    between atoms: C9_11  and  O3_13 
REMARK    9  A    between atoms: O3_13  and  C10_14 
REMARK   10  A    between atoms: C10_14  and  C11_15 
REMARK   11  A    between atoms: C11_15  and  C12_17 
REMARK   12  A    between atoms: C12_17  and  O5_18 
REMARK   13  A    between atoms: C31_39  and  O9_41 
ROOT
HETATM    1  C12 UNL     1     -11.770   9.864  16.693  1.00  0.00     0.128 C 
HETATM    2  C13 UNL     1     -12.548  10.335  15.445  1.00  0.00     0.047 C 
HETATM    3  C14 UNL     1     -12.029   9.489  14.259  1.00  0.00     0.009 C 
HETATM    4  C15 UNL     1     -11.053   8.496  14.889  1.00  0.00     0.002 C 
HETATM    5  C16 UNL     1      -9.990   7.838  13.995  1.00  0.00     0.003 C 
HETATM    6  C17 UNL     1     -10.636   7.104  12.812  1.00  0.00     0.010 C 
HETATM    7  C18 UNL     1      -9.594   6.379  11.970  1.00  0.00     0.035 C 
HETATM    8  C19 UNL     1      -8.754   5.442  12.804  1.00  0.00    -0.067 C 
HETATM    9  C20 UNL     1      -8.636   4.152  12.447  1.00  0.00     0.053 C 
HETATM   10  C21 UNL     1      -7.749   3.222  13.184  1.00  0.00     0.149 C 
HETATM   11  O6  UNL     1      -7.791   2.022  12.940  1.00  0.00    -0.293 OA
HETATM   12  C22 UNL     1      -6.791   3.820  14.177  1.00  0.00     0.084 C 
HETATM   13  C23 UNL     1      -7.490   4.930  14.949  1.00  0.00     0.022 C 
HETATM   14  C24 UNL     1      -8.072   6.056  14.041  1.00  0.00    -0.009 C 
HETATM   15  C25 UNL     1      -6.917   6.956  13.540  1.00  0.00     0.021 C 
HETATM   16  C26 UNL     1      -9.158   6.842  14.857  1.00  0.00     0.072 C 
HETATM   17  C27 UNL     1      -8.646   7.567  16.117  1.00  0.00     0.133 C 
HETATM   18  O7  UNL     1      -7.467   7.599  16.458  1.00  0.00    -0.297 OA
HETATM   19  C28 UNL     1      -9.708   8.258  16.965  1.00  0.00     0.091 C 
HETATM   20  C29 UNL     1     -10.461   9.273  16.093  1.00  0.00     0.005 C 
HETATM   21  C30 UNL     1      -9.483  10.401  15.673  1.00  0.00     0.019 C 
ENDROOT
BRANCH   1  22
HETATM   22  C11 UNL     1     -11.549  10.882  17.827  1.00  0.00     0.185 C 
HETATM   23  O4  UNL     1     -11.503  12.086  17.540  1.00  0.00    -0.292 OA
BRANCH  22  24
HETATM   24  C10 UNL     1     -11.397  10.407  19.263  1.00  0.00     0.260 C 
BRANCH  24  25
HETATM   25  O3  UNL     1     -11.432  11.467  20.214  1.00  0.00    -0.314 OA
BRANCH  25  26
HETATM   26  C9  UNL     1     -10.883  11.187  21.427  1.00  0.00     0.259 C 
HETATM   27  O2  UNL     1      -9.986  11.825  21.951  1.00  0.00    -0.265 OA
BRANCH  26  28
HETATM   28  C8  UNL     1     -11.544   9.969  22.017  1.00  0.00     0.120 C 
BRANCH  28  29
HETATM   29  C7  UNL     1     -10.728   9.398  23.174  1.00  0.00     0.112 C 
BRANCH  29  30
HETATM   30  C6  UNL     1     -11.573   9.250  24.420  1.00  0.00     0.218 C 
HETATM   31  N1  UNL     1     -12.832   8.745  24.166  1.00  0.00    -0.346 N 
HETATM   32  H11 UNL     1     -12.921   8.190  23.321  1.00  0.00     0.163 HD
HETATM   33  O1  UNL     1     -11.180   9.569  25.534  1.00  0.00    -0.274 OA
BRANCH  31  34
HETATM   34  C5  UNL     1     -13.739   8.363  25.262  1.00  0.00     0.186 C 
BRANCH  34  35
HETATM   35  C3  UNL     1     -14.341   6.931  25.150  1.00  0.00     0.014 C 
HETATM   36  C4  UNL     1     -14.377   6.246  26.527  1.00  0.00     0.012 C 
BRANCH  35  37
HETATM   37  C2  UNL     1     -13.542   6.053  24.151  1.00  0.00     0.002 C 
HETATM   38  C1  UNL     1     -13.731   4.552  24.352  1.00  0.00     0.005 C 
ENDBRANCH  35  37
ENDBRANCH  34  35
BRANCH  34  39
HETATM   39  C31 UNL     1     -14.789   9.481  25.479  1.00  0.00     0.163 C 
HETATM   40  O8  UNL     1     -14.833  10.287  26.396  1.00  0.00    -0.648 OA
BRANCH  39  41
HETATM   41  O9  UNL     1     -15.667   9.617  24.454  1.00  0.00    -0.775 OA
HETATM   42  H43 UNL     1     -16.240  10.358  24.750  1.00  0.00     0.167 HD
ENDBRANCH  39  41
ENDBRANCH  34  39
ENDBRANCH  31  34
ENDBRANCH  29  30
ENDBRANCH  28  29
ENDBRANCH  26  28
ENDBRANCH  25  26
ENDBRANCH  24  25
ENDBRANCH  22  24
ENDBRANCH   1  22
BRANCH   1  43
HETATM   43  O5  UNL     1     -12.534   8.786  17.274  1.00  0.00    -0.381 OA
HETATM   44  H18 UNL     1     -12.395   8.818  18.244  1.00  0.00     0.211 HD
ENDBRANCH   1  43
TORSDOF 13
ENDMDL
MODEL 2
REMARK minimizedAffinity -9.60101414
REMARK CNNscore 0.375257879
REMARK CNNaffinity 7.01366234
REMARK  13 active torsions:
REMARK  status: ('A' for Active; 'I' for Inactive)
REMARK    1  A    between atoms: C2_2  and  C3_3 
REMARK    2  A    between atoms: C3_3  and  C5_5 
REMARK    3  A    between atoms: C5_5  and  N1_6 
REMARK    4  A    between atoms: C5_5  and  C31_39 
REMARK       I    between atoms: N1_6  and  C6_7 
REMARK    5  A    between atoms: C6_7  and  C7_9 
REMARK    6  A    between atoms: C7_9  and  C8_10 
REMARK    7  A    between atoms: C8_10  and  C9_11 
REMARK    8  A    between atoms: C9_11  and  O3_13 
REMARK    9  A    between atoms: O3_13  and  C10_14 
REMARK   10  A    between atoms: C10_14  and  C11_15 
REMARK   11  A    between atoms: C11_15  and  C12_17 
REMARK   12  A    between atoms: C12_17  and  O5_18 
REMARK   13  A    between atoms: C31_39  and  O9_41 
ROOT
HETATM    1  C12 UNL     1      -1.131   6.910  12.914  1.00  0.00     0.128 C 
HETATM    2  C13 UNL     1      -0.916   5.466  12.410  1.00  0.00     0.047 C 
HETATM    3  C14 UNL     1      -2.288   4.759  12.503  1.00  0.00     0.009 C 
HETATM    4  C15 UNL     1      -3.257   5.851  12.954  1.00  0.00     0.002 C 
HETATM    5  C16 UNL     1      -4.579   5.436  13.621  1.00  0.00     0.003 C 
HETATM    6  C17 UNL     1      -5.389   4.501  12.712  1.00  0.00     0.010 C 
HETATM    7  C18 UNL     1      -6.736   4.154  13.330  1.00  0.00     0.035 C 
HETATM    8  C19 UNL     1      -7.524   5.391  13.686  1.00  0.00    -0.067 C 
HETATM    9  C20 UNL     1      -8.780   5.539  13.230  1.00  0.00     0.053 C 
HETATM   10  C21 UNL     1      -9.619   6.693  13.629  1.00  0.00     0.149 C 
HETATM   11  O6  UNL     1     -10.691   6.886  13.068  1.00  0.00    -0.293 OA
HETATM   12  C22 UNL     1      -9.121   7.553  14.758  1.00  0.00     0.084 C 
HETATM   13  C23 UNL     1      -7.620   7.756  14.615  1.00  0.00     0.022 C 
HETATM   14  C24 UNL     1      -6.807   6.425  14.575  1.00  0.00    -0.009 C 
HETATM   15  C25 UNL     1      -6.722   5.835  16.003  1.00  0.00     0.021 C 
HETATM   16  C26 UNL     1      -5.402   6.719  13.943  1.00  0.00     0.072 C 
HETATM   17  C27 UNL     1      -4.514   7.707  14.727  1.00  0.00     0.133 C 
HETATM   18  O7  UNL     1      -4.829   8.203  15.805  1.00  0.00    -0.297 OA
HETATM   19  C28 UNL     1      -3.184   8.068  14.076  1.00  0.00     0.091 C 
HETATM   20  C29 UNL     1      -2.382   6.782  13.833  1.00  0.00     0.005 C 
HETATM   21  C30 UNL     1      -2.004   6.156  15.201  1.00  0.00     0.019 C 
ENDROOT
BRANCH   1  22
HETATM   22  C11 UNL     1       0.066   7.630  13.562  1.00  0.00     0.185 C 
HETATM   23  O4  UNL     1      -0.012   8.851  13.754  1.00  0.00    -0.292 OA
BRANCH  22  24
HETATM   24  C10 UNL     1       1.308   6.848  13.956  1.00  0.00     0.260 C 
BRANCH  24  25
HETATM   25  O3  UNL     1       2.486   7.286  13.287  1.00  0.00    -0.314 OA
BRANCH  25  26
HETATM   26  C9  UNL     1       3.426   7.873  14.076  1.00  0.00     0.259 C 
HETATM   27  O2  UNL     1       3.388   7.915  15.294  1.00  0.00    -0.265 OA
BRANCH  26  28
HETATM   28  C8  UNL     1       4.513   8.468  13.219  1.00  0.00     0.120 C 
BRANCH  28  29
HETATM   29  C7  UNL     1       5.493   7.399  12.742  1.00  0.00     0.112 C 
BRANCH  29  30
HETATM   30  C6  UNL     1       5.298   7.094  11.273  1.00  0.00     0.218 C 
HETATM   31  N1  UNL     1       3.977   6.877  10.934  1.00  0.00    -0.346 N 
HETATM   32  H11 UNL     1       3.290   7.304  11.547  1.00  0.00     0.163 HD
HETATM   33  O1  UNL     1       6.224   7.027  10.477  1.00  0.00    -0.274 OA
BRANCH  31  34
HETATM   34  C5  UNL     1       3.561   6.740   9.527  1.00  0.00     0.186 C 
BRANCH  34  35
HETATM   35  C3  UNL     1       2.448   7.730   9.071  1.00  0.00     0.014 C 
HETATM   36  C4  UNL     1       1.053   7.130   9.315  1.00  0.00     0.012 C 
BRANCH  35  37
HETATM   37  C2  UNL     1       2.599   8.108   7.574  1.00  0.00     0.002 C 
HETATM   38  C1  UNL     1       1.779   7.237   6.626  1.00  0.00     0.005 C 
ENDBRANCH  35  37
ENDBRANCH  34  35
BRANCH  34  39
HETATM   39  C31 UNL     1       3.257   5.253   9.219  1.00  0.00     0.163 C 
HETATM   40  O8  UNL     1       3.454   4.659   8.170  1.00  0.00    -0.648 OA
BRANCH  39  41
HETATM   41  O9  UNL     1       2.836   4.544  10.296  1.00  0.00    -0.775 OA
HETATM   42  H43 UNL     1       2.702   3.642   9.929  1.00  0.00     0.167 HD
ENDBRANCH  39  41
ENDBRANCH  34  39
ENDBRANCH  31  34
ENDBRANCH  29  30
ENDBRANCH  28  29
ENDBRANCH  26  28
ENDBRANCH  25  26
ENDBRANCH  24  25
ENDBRANCH  22  24
ENDBRANCH   1  22
BRANCH   1  43
HETATM   43  O5  UNL     1      -1.489   7.701  11.762  1.00  0.00    -0.381 OA
HETATM   44  H18 UNL     1      -1.141   8.606  11.906  1.00  0.00     0.211 HD
ENDBRANCH   1  43
TORSDOF 13
ENDMDL
MODEL 3
REMARK minimizedAffinity -7.06903267
REMARK CNNscore 0.357901692
REMARK CNNaffinity 5.97482538
REMARK  13 active torsions:
REMARK  status: ('A' for Active; 'I' for Inactive)
REMARK    1  A    between atoms: C2_2  and  C3_3 
REMARK    2  A    between atoms: C3_3  and  C5_5 
REMARK    3  A    between atoms: C5_5  and  N1_6 
REMARK    4  A    between atoms: C5_5  and  C31_39 
REMARK       I    between atoms: N1_6  and  C6_7 
REMARK    5  A    between atoms: C6_7  and  C7_9 
REMARK    6  A    between atoms: C7_9  and  C8_10 
REMARK    7  A    between atoms: C8_10  and  C9_11 
REMARK    8  A    between atoms: C9_11  and  O3_13 
REMARK    9  A    between atoms: O3_13  and  C10_14 
REMARK   10  A    between atoms: C10_14  and  C11_15 
REMARK   11  A    between atoms: C11_15  and  C12_17 
REMARK   12  A    between atoms: C12_17  and  O5_18 
REMARK   13  A    between atoms: C31_39  and  O9_41 
ROOT
HETATM    1  C12 UNL     1      -4.146 -10.535   5.202  1.00  0.00     0.128 C 
HETATM    2  C13 UNL     1      -2.930 -11.373   4.751  1.00  0.00     0.047 C 
HETATM    3  C14 UNL     1      -3.081 -11.581   3.226  1.00  0.00     0.009 C 
HETATM    4  C15 UNL     1      -4.317 -10.767   2.844  1.00  0.00     0.002 C 
HETATM    5  C16 UNL     1      -5.057 -11.115   1.542  1.00  0.00     0.003 C 
HETATM    6  C17 UNL     1      -4.115 -11.046   0.333  1.00  0.00     0.010 C 
HETATM    7  C18 UNL     1      -4.861 -11.306  -0.969  1.00  0.00     0.035 C 
HETATM    8  C19 UNL     1      -6.037 -10.375  -1.136  1.00  0.00    -0.067 C 
HETATM    9  C20 UNL     1      -6.158  -9.644  -2.257  1.00  0.00     0.053 C 
HETATM   10  C21 UNL     1      -7.342  -8.788  -2.500  1.00  0.00     0.149 C 
HETATM   11  O6  UNL     1      -7.345  -8.010  -3.447  1.00  0.00    -0.293 OA
HETATM   12  C22 UNL     1      -8.521  -8.960  -1.582  1.00  0.00     0.084 C 
HETATM   13  C23 UNL     1      -8.028  -9.136  -0.154  1.00  0.00     0.022 C 
HETATM   14  C24 UNL     1      -7.045 -10.333   0.028  1.00  0.00    -0.009 C 
HETATM   15  C25 UNL     1      -7.844 -11.658   0.004  1.00  0.00     0.021 C 
HETATM   16  C26 UNL     1      -6.242 -10.120   1.359  1.00  0.00     0.072 C 
HETATM   17  C27 UNL     1      -7.088 -10.096   2.648  1.00  0.00     0.133 C 
HETATM   18  O7  UNL     1      -8.300 -10.286   2.676  1.00  0.00    -0.297 OA
HETATM   19  C28 UNL     1      -6.329  -9.800   3.937  1.00  0.00     0.091 C 
HETATM   20  C29 UNL     1      -5.212 -10.839   4.108  1.00  0.00     0.005 C 
HETATM   21  C30 UNL     1      -5.850 -12.236   4.328  1.00  0.00     0.019 C 
ENDROOT
BRANCH   1  22
HETATM   22  C11 UNL     1      -4.645 -10.716   6.647  1.00  0.00     0.185 C 
HETATM   23  O4  UNL     1      -5.586 -11.495   6.855  1.00  0.00    -0.292 OA
BRANCH  22  24
HETATM   24  C10 UNL     1      -3.988  -9.952   7.785  1.00  0.00     0.260 C 
BRANCH  24  25
HETATM   25  O3  UNL     1      -4.110 -10.603   9.045  1.00  0.00    -0.314 OA
BRANCH  25  26
HETATM   26  C9  UNL     1      -4.379  -9.792  10.103  1.00  0.00     0.259 C 
HETATM   27  O2  UNL     1      -3.642  -9.625  11.061  1.00  0.00    -0.265 OA
BRANCH  26  28
HETATM   28  C8  UNL     1      -5.723  -9.139   9.917  1.00  0.00     0.120 C 
BRANCH  28  29
HETATM   29  C7  UNL     1      -6.367  -8.798  11.259  1.00  0.00     0.112 C 
BRANCH  29  30
HETATM   30  C6  UNL     1      -7.326  -9.883  11.696  1.00  0.00     0.218 C 
HETATM   31  N1  UNL     1      -7.029 -10.401  12.942  1.00  0.00    -0.346 N 
HETATM   32  H11 UNL     1      -6.506  -9.788  13.559  1.00  0.00     0.163 HD
HETATM   33  O1  UNL     1      -8.255 -10.273  11.003  1.00  0.00    -0.274 OA
BRANCH  31  34
HETATM   34  C5  UNL     1      -7.943 -11.338  13.619  1.00  0.00     0.186 C 
BRANCH  34  35
HETATM   35  C3  UNL     1      -8.188 -12.678  12.863  1.00  0.00     0.014 C 
HETATM   36  C4  UNL     1      -8.921 -13.685  13.766  1.00  0.00     0.012 C 
BRANCH  35  37
HETATM   37  C2  UNL     1      -6.859 -13.301  12.360  1.00  0.00     0.002 C 
HETATM   38  C1  UNL     1      -6.032 -13.973  13.452  1.00  0.00     0.005 C 
ENDBRANCH  35  37
ENDBRANCH  34  35
BRANCH  34  39
HETATM   39  C31 UNL     1      -9.236 -10.594  14.033  1.00  0.00     0.163 C 
HETATM   40  O8  UNL     1     -10.171 -11.038  14.681  1.00  0.00    -0.648 OA
BRANCH  39  41
HETATM   41  O9  UNL     1      -9.234  -9.273  13.721  1.00  0.00    -0.775 OA
HETATM   42  H43 UNL     1     -10.105  -8.965  14.056  1.00  0.00     0.167 HD
ENDBRANCH  39  41
ENDBRANCH  34  39
ENDBRANCH  31  34
ENDBRANCH  29  30
ENDBRANCH  28  29
ENDBRANCH  26  28
ENDBRANCH  25  26
ENDBRANCH  24  25
ENDBRANCH  22  24
ENDBRANCH   1  22
BRANCH   1  43
HETATM   43  O5  UNL     1      -3.757  -9.150   5.089  1.00  0.00    -0.381 OA
HETATM   44  H18 UNL     1      -4.227  -8.655   5.793  1.00  0.00     0.211 HD
ENDBRANCH   1  43
TORSDOF 13
ENDMDL
MODEL 4
REMARK minimizedAffinity -8.97473812
REMARK CNNscore 0.345891088
REMARK CNNaffinity 6.83772469
REMARK  13 active torsions:
REMARK  status: ('A' for Active; 'I' for Inactive)
REMARK    1  A    between atoms: C2_2  and  C3_3 
REMARK    2  A    between atoms: C3_3  and  C5_5 
REMARK    3  A    between atoms: C5_5  and  N1_6 
REMARK    4  A    between atoms: C5_5  and  C31_39 
REMARK       I    between atoms: N1_6  and  C6_7 
REMARK    5  A    between atoms: C6_7  and  C7_9 
REMARK    6  A    between atoms: C7_9  and  C8_10 
REMARK    7  A    between atoms: C8_10  and  C9_11 
REMARK    8  A    between atoms: C9_11  and  O3_13 
REMARK    9  A    between atoms: O3_13  and  C10_14 
REMARK   10  A    between atoms: C10_14  and  C11_15 
REMARK   11  A    between atoms: C11_15  and  C12_17 
REMARK   12  A    between atoms: C12_17  and  O5_18 
REMARK   13  A    between atoms: C31_39  and  O9_41 
ROOT
HETATM    1  C12 UNL     1      -1.664   7.747  13.165  1.00  0.00     0.128 C 
HETATM    2  C13 UNL     1      -1.364   6.324  12.644  1.00  0.00     0.047 C 
HETATM    3  C14 UNL     1      -2.697   5.543  12.708  1.00  0.00     0.009 C 
HETATM    4  C15 UNL     1      -3.730   6.575  13.161  1.00  0.00     0.002 C 
HETATM    5  C16 UNL     1      -5.036   6.079  13.804  1.00  0.00     0.003 C 
HETATM    6  C17 UNL     1      -5.782   5.115  12.871  1.00  0.00     0.010 C 
HETATM    7  C18 UNL     1      -7.117   4.686  13.466  1.00  0.00     0.035 C 
HETATM    8  C19 UNL     1      -7.975   5.874  13.828  1.00  0.00    -0.067 C 
HETATM    9  C20 UNL     1      -9.231   5.961  13.357  1.00  0.00     0.053 C 
HETATM   10  C21 UNL     1     -10.136   7.061  13.761  1.00  0.00     0.149 C 
HETATM   11  O6  UNL     1     -11.210   7.205  13.188  1.00  0.00    -0.293 OA
HETATM   12  C22 UNL     1      -9.700   7.930  14.908  1.00  0.00     0.084 C 
HETATM   13  C23 UNL     1      -8.210   8.216  14.789  1.00  0.00     0.022 C 
HETATM   14  C24 UNL     1      -7.327   6.932  14.741  1.00  0.00    -0.009 C 
HETATM   15  C25 UNL     1      -7.228   6.326  16.162  1.00  0.00     0.021 C 
HETATM   16  C26 UNL     1      -5.931   7.311  14.133  1.00  0.00     0.072 C 
HETATM   17  C27 UNL     1      -5.109   8.333  14.943  1.00  0.00     0.133 C 
HETATM   18  O7  UNL     1      -5.464   8.796  16.023  1.00  0.00    -0.297 OA
HETATM   19  C28 UNL     1      -3.792   8.775  14.315  1.00  0.00     0.091 C 
HETATM   20  C29 UNL     1      -2.918   7.538  14.065  1.00  0.00     0.005 C 
HETATM   21  C30 UNL     1      -2.525   6.913  15.429  1.00  0.00     0.019 C 
ENDROOT
BRANCH   1  22
HETATM   22  C11 UNL     1      -0.517   8.521  13.840  1.00  0.00     0.185 C 
HETATM   23  O4  UNL     1      -0.687   9.719  14.106  1.00  0.00    -0.292 OA
BRANCH  22  24
HETATM   24  C10 UNL     1       0.790   7.819  14.169  1.00  0.00     0.260 C 
BRANCH  24  25
HETATM   25  O3  UNL     1       1.025   7.692  15.567  1.00  0.00    -0.314 OA
BRANCH  25  26
HETATM   26  C9  UNL     1       2.048   8.441  16.062  1.00  0.00     0.259 C 
HETATM   27  O2  UNL     1       2.282   8.606  17.248  1.00  0.00    -0.265 OA
BRANCH  26  28
HETATM   28  C8  UNL     1       2.837   9.040  14.928  1.00  0.00     0.120 C 
BRANCH  28  29
HETATM   29  C7  UNL     1       4.149   8.292  14.707  1.00  0.00     0.112 C 
BRANCH  29  30
HETATM   30  C6  UNL     1       4.560   8.326  13.251  1.00  0.00     0.218 C 
HETATM   31  N1  UNL     1       3.906   7.385  12.480  1.00  0.00    -0.346 N 
HETATM   32  H11 UNL     1       3.009   7.073  12.835  1.00  0.00     0.163 HD
HETATM   33  O1  UNL     1       5.402   9.098  12.813  1.00  0.00    -0.274 OA
BRANCH  31  34
HETATM   34  C5  UNL     1       4.035   7.375  11.012  1.00  0.00     0.186 C 
BRANCH  34  35
HETATM   35  C3  UNL     1       2.735   7.004  10.240  1.00  0.00     0.014 C 
HETATM   36  C4  UNL     1       2.163   5.668  10.747  1.00  0.00     0.012 C 
BRANCH  35  37
HETATM   37  C2  UNL     1       2.984   6.917   8.711  1.00  0.00     0.002 C 
HETATM   38  C1  UNL     1       2.796   8.239   7.973  1.00  0.00     0.005 C 
ENDBRANCH  35  37
ENDBRANCH  34  35
BRANCH  34  39
HETATM   39  C31 UNL     1       5.277   6.543  10.607  1.00  0.00     0.163 C 
HETATM   40  O8  UNL     1       6.425   6.940  10.481  1.00  0.00    -0.648 OA
BRANCH  39  41
HETATM   41  O9  UNL     1       5.037   5.211  10.507  1.00  0.00    -0.775 OA
HETATM   42  H43 UNL     1       5.915   4.847  10.257  1.00  0.00     0.167 HD
ENDBRANCH  39  41
ENDBRANCH  34  39
ENDBRANCH  31  34
ENDBRANCH  29  30
ENDBRANCH  28  29
ENDBRANCH  26  28
ENDBRANCH  25  26
ENDBRANCH  24  25
ENDBRANCH  22  24
ENDBRANCH   1  22
BRANCH   1  43
HETATM   43  O5  UNL     1      -2.050   8.534  12.019  1.00  0.00    -0.381 OA
HETATM   44  H18 UNL     1      -1.753   9.454  12.181  1.00  0.00     0.211 HD
ENDBRANCH   1  43
TORSDOF 13
ENDMDL
MODEL 5
REMARK minimizedAffinity -7.46702623
REMARK CNNscore 0.333245486
REMARK CNNaffinity 6.54908895
REMARK  13 active torsions:
REMARK  status: ('A' for Active; 'I' for Inactive)
REMARK    1  A    between atoms: C2_2  and  C3_3 
REMARK    2  A    between atoms: C3_3  and  C5_5 
REMARK    3  A    between atoms: C5_5  and  N1_6 
REMARK    4  A    between atoms: C5_5  and  C31_39 
REMARK       I    between atoms: N1_6  and  C6_7 
REMARK    5  A    between atoms: C6_7  and  C7_9 
REMARK    6  A    between atoms: C7_9  and  C8_10 
REMARK    7  A    between atoms: C8_10  and  C9_11 
REMARK    8  A    between atoms: C9_11  and  O3_13 
REMARK    9  A    between atoms: O3_13  and  C10_14 
REMARK   10  A    between atoms: C10_14  and  C11_15 
REMARK   11  A    between atoms: C11_15  and  C12_17 
REMARK   12  A    between atoms: C12_17  and  O5_18 
REMARK   13  A    between atoms: C31_39  and  O9_41 
ROOT
HETATM    1  C12 UNL     1      -2.683   6.703  13.425  1.00  0.00     0.128 C 
HETATM    2  C13 UNL     1      -1.720   7.197  12.323  1.00  0.00     0.047 C 
HETATM    3  C14 UNL     1      -1.330   8.646  12.698  1.00  0.00     0.009 C 
HETATM    4  C15 UNL     1      -1.997   8.890  14.051  1.00  0.00     0.002 C 
HETATM    5  C16 UNL     1      -2.248  10.338  14.501  1.00  0.00     0.003 C 
HETATM    6  C17 UNL     1      -0.944  11.147  14.520  1.00  0.00     0.010 C 
HETATM    7  C18 UNL     1      -1.172  12.559  15.045  1.00  0.00     0.035 C 
HETATM    8  C19 UNL     1      -1.833  12.551  16.402  1.00  0.00    -0.067 C 
HETATM    9  C20 UNL     1      -1.275  13.224  17.422  1.00  0.00     0.053 C 
HETATM   10  C21 UNL     1      -1.938  13.318  18.744  1.00  0.00     0.149 C 
HETATM   11  O6  UNL     1      -1.329  13.793  19.696  1.00  0.00    -0.293 OA
HETATM   12  C22 UNL     1      -3.367  12.860  18.836  1.00  0.00     0.084 C 
HETATM   13  C23 UNL     1      -3.545  11.589  18.017  1.00  0.00     0.022 C 
HETATM   14  C24 UNL     1      -3.142  11.746  16.519  1.00  0.00    -0.009 C 
HETATM   15  C25 UNL     1      -4.244  12.535  15.773  1.00  0.00     0.021 C 
HETATM   16  C26 UNL     1      -2.891  10.318  15.920  1.00  0.00     0.072 C 
HETATM   17  C27 UNL     1      -4.112   9.377  15.910  1.00  0.00     0.133 C 
HETATM   18  O7  UNL     1      -5.234   9.708  16.283  1.00  0.00    -0.297 OA
HETATM   19  C28 UNL     1      -3.856   7.959  15.413  1.00  0.00     0.091 C 
HETATM   20  C29 UNL     1      -3.282   8.024  13.990  1.00  0.00     0.005 C 
HETATM   21  C30 UNL     1      -4.362   8.598  13.036  1.00  0.00     0.019 C 
ENDROOT
BRANCH   1  22
HETATM   22  C11 UNL     1      -3.729   5.641  13.040  1.00  0.00     0.185 C 
HETATM   23  O4  UNL     1      -4.902   5.810  13.399  1.00  0.00    -0.292 OA
BRANCH  22  24
HETATM   24  C10 UNL     1      -3.319   4.419  12.235  1.00  0.00     0.260 C 
BRANCH  24  25
HETATM   25  O3  UNL     1      -1.996   4.505  11.714  1.00  0.00    -0.314 OA
BRANCH  25  26
HETATM   26  C9  UNL     1      -1.362   3.317  11.520  1.00  0.00     0.259 C 
HETATM   27  O2  UNL     1      -1.921   2.256  11.300  1.00  0.00    -0.265 OA
BRANCH  26  28
HETATM   28  C8  UNL     1       0.128   3.511  11.625  1.00  0.00     0.120 C 
BRANCH  28  29
HETATM   29  C7  UNL     1       0.471   4.785  12.393  1.00  0.00     0.112 C 
BRANCH  29  30
HETATM   30  C6  UNL     1       1.657   5.493  11.777  1.00  0.00     0.218 C 
HETATM   31  N1  UNL     1       2.087   4.909  10.601  1.00  0.00    -0.346 N 
HETATM   32  H11 UNL     1       1.390   4.372  10.097  1.00  0.00     0.163 HD
HETATM   33  O1  UNL     1       2.190   6.470  12.285  1.00  0.00    -0.274 OA
BRANCH  31  34
HETATM   34  C5  UNL     1       3.113   5.550   9.759  1.00  0.00     0.186 C 
BRANCH  34  35
HETATM   35  C3  UNL     1       2.601   6.730   8.882  1.00  0.00     0.014 C 
HETATM   36  C4  UNL     1       3.304   8.042   9.271  1.00  0.00     0.012 C 
BRANCH  35  37
HETATM   37  C2  UNL     1       1.064   6.907   9.004  1.00  0.00     0.002 C 
HETATM   38  C1  UNL     1       0.628   8.312   9.408  1.00  0.00     0.005 C 
ENDBRANCH  35  37
ENDBRANCH  34  35
BRANCH  34  39
HETATM   39  C31 UNL     1       3.892   4.465   8.976  1.00  0.00     0.163 C 
HETATM   40  O8  UNL     1       3.707   4.108   7.823  1.00  0.00    -0.648 OA
BRANCH  39  41
HETATM   41  O9  UNL     1       4.963   3.966   9.644  1.00  0.00    -0.775 OA
HETATM   42  H43 UNL     1       5.335   3.314   9.011  1.00  0.00     0.167 HD
ENDBRANCH  39  41
ENDBRANCH  34  39
ENDBRANCH  31  34
ENDBRANCH  29  30
ENDBRANCH  28  29
ENDBRANCH  26  28
ENDBRANCH  25  26
ENDBRANCH  24  25
ENDBRANCH  22  24
ENDBRANCH   1  22
BRANCH   1  43
HETATM   43  O5  UNL     1      -1.864   6.098  14.447  1.00  0.00    -0.381 OA
HETATM   44  H18 UNL     1      -2.386   5.372  14.849  1.00  0.00     0.211 HD
ENDBRANCH   1  43
TORSDOF 13
ENDMDL
MODEL 6
REMARK minimizedAffinity -8.50235176
REMARK CNNscore 0.276403248
REMARK CNNaffinity 6.55181265
REMARK  13 active torsions:
REMARK  status: ('A' for Active; 'I' for Inactive)
REMARK    1  A    between atoms: C2_2  and  C3_3 
REMARK    2  A    between atoms: C3_3  and  C5_5 
REMARK    3  A    between atoms: C5_5  and  N1_6 
REMARK    4  A    between atoms: C5_5  and  C31_39 
REMARK       I    between atoms: N1_6  and  C6_7 
REMARK    5  A    between atoms: C6_7  and  C7_9 
REMARK    6  A    between atoms: C7_9  and  C8_10 
REMARK    7  A    between atoms: C8_10  and  C9_11 
REMARK    8  A    between atoms: C9_11  and  O3_13 
REMARK    9  A    between atoms: O3_13  and  C10_14 
REMARK   10  A    between atoms: C10_14  and  C11_15 
REMARK   11  A    between atoms: C11_15  and  C12_17 
REMARK   12  A    between atoms: C12_17  and  O5_18 
REMARK   13  A    between atoms: C31_39  and  O9_41 
ROOT
HETATM    1  C12 UNL     1      -1.381   7.955  13.391  1.00  0.00     0.128 C 
HETATM    2  C13 UNL     1      -0.986   6.572  12.828  1.00  0.00     0.047 C 
HETATM    3  C14 UNL     1      -2.273   5.715  12.827  1.00  0.00     0.009 C 
HETATM    4  C15 UNL     1      -3.375   6.669  13.287  1.00  0.00     0.002 C 
HETATM    5  C16 UNL     1      -4.667   6.077  13.874  1.00  0.00     0.003 C 
HETATM    6  C17 UNL     1      -5.332   5.108  12.887  1.00  0.00     0.010 C 
HETATM    7  C18 UNL     1      -6.655   4.583  13.429  1.00  0.00     0.035 C 
HETATM    8  C19 UNL     1      -7.589   5.707  13.808  1.00  0.00    -0.067 C 
HETATM    9  C20 UNL     1      -8.835   5.739  13.305  1.00  0.00     0.053 C 
HETATM   10  C21 UNL     1      -9.812   6.771  13.722  1.00  0.00     0.149 C 
HETATM   11  O6  UNL     1     -10.877   6.875  13.125  1.00  0.00    -0.293 OA
HETATM   12  C22 UNL     1      -9.457   7.621  14.911  1.00  0.00     0.084 C 
HETATM   13  C23 UNL     1      -7.983   7.994  14.844  1.00  0.00     0.022 C 
HETATM   14  C24 UNL     1      -7.026   6.764  14.776  1.00  0.00    -0.009 C 
HETATM   15  C25 UNL     1      -6.931   6.113  16.176  1.00  0.00     0.021 C 
HETATM   16  C26 UNL     1      -5.639   7.244  14.221  1.00  0.00     0.072 C 
HETATM   17  C27 UNL     1      -4.899   8.280  15.090  1.00  0.00     0.133 C 
HETATM   18  O7  UNL     1      -5.308   8.682  16.175  1.00  0.00    -0.297 OA
HETATM   19  C28 UNL     1      -3.593   8.819  14.516  1.00  0.00     0.091 C 
HETATM   20  C29 UNL     1      -2.643   7.643  14.246  1.00  0.00     0.005 C 
HETATM   21  C30 UNL     1      -2.251   6.991  15.598  1.00  0.00     0.019 C 
ENDROOT
BRANCH   1  22
HETATM   22  C11 UNL     1      -0.297   8.767  14.124  1.00  0.00     0.185 C 
HETATM   23  O4  UNL     1       0.890   8.453  13.960  1.00  0.00    -0.292 OA
BRANCH  22  24
HETATM   24  C10 UNL     1      -0.688   9.927  15.024  1.00  0.00     0.260 C 
BRANCH  24  25
HETATM   25  O3  UNL     1      -0.101   9.858  16.320  1.00  0.00    -0.314 OA
BRANCH  25  26
HETATM   26  C9  UNL     1      -0.849  10.373  17.333  1.00  0.00     0.259 C 
HETATM   27  O2  UNL     1      -2.000  10.056  17.581  1.00  0.00    -0.265 OA
BRANCH  26  28
HETATM   28  C8  UNL     1      -0.045  11.396  18.092  1.00  0.00     0.120 C 
BRANCH  28  29
HETATM   29  C7  UNL     1       0.243  10.931  19.517  1.00  0.00     0.112 C 
BRANCH  29  30
HETATM   30  C6  UNL     1       1.706  10.589  19.695  1.00  0.00     0.218 C 
HETATM   31  N1  UNL     1       2.294  11.250  20.756  1.00  0.00    -0.346 N 
HETATM   32  H11 UNL     1       1.662  11.551  21.490  1.00  0.00     0.163 HD
HETATM   33  O1  UNL     1       2.306   9.819  18.958  1.00  0.00    -0.274 OA
BRANCH  31  34
HETATM   34  C5  UNL     1       3.659  10.921  21.201  1.00  0.00     0.186 C 
BRANCH  34  35
HETATM   35  C3  UNL     1       3.879  10.973  22.742  1.00  0.00     0.014 C 
HETATM   36  C4  UNL     1       5.302  10.514  23.104  1.00  0.00     0.012 C 
BRANCH  35  37
HETATM   37  C2  UNL     1       2.843  10.098  23.496  1.00  0.00     0.002 C 
HETATM   38  C1  UNL     1       2.836   8.633  23.069  1.00  0.00     0.005 C 
ENDBRANCH  35  37
ENDBRANCH  34  35
BRANCH  34  39
HETATM   39  C31 UNL     1       4.684  11.746  20.383  1.00  0.00     0.163 C 
HETATM   40  O8  UNL     1       5.258  12.767  20.729  1.00  0.00    -0.648 OA
BRANCH  39  41
HETATM   41  O9  UNL     1       5.040  11.169  19.208  1.00  0.00    -0.775 OA
HETATM   42  H43 UNL     1       5.687  11.808  18.834  1.00  0.00     0.167 HD
ENDBRANCH  39  41
ENDBRANCH  34  39
ENDBRANCH  31  34
ENDBRANCH  29  30
ENDBRANCH  28  29
ENDBRANCH  26  28
ENDBRANCH  25  26
ENDBRANCH  24  25
ENDBRANCH  22  24
ENDBRANCH   1  22
BRANCH   1  43
HETATM   43  O5  UNL     1      -1.781   8.761  12.263  1.00  0.00    -0.381 OA
HETATM   44  H18 UNL     1      -1.541   9.690  12.466  1.00  0.00     0.211 HD
ENDBRANCH   1  43
TORSDOF 13
ENDMDL
MODEL 7
REMARK minimizedAffinity -8.09805012
REMARK CNNscore 0.249778166
REMARK CNNaffinity 7.05182505
REMARK  13 active torsions:
REMARK  status: ('A' for Active; 'I' for Inactive)
REMARK    1  A    between atoms: C2_2  and  C3_3 
REMARK    2  A    between atoms: C3_3  and  C5_5 
REMARK    3  A    between atoms: C5_5  and  N1_6 
REMARK    4  A    between atoms: C5_5  and  C31_39 
REMARK       I    between atoms: N1_6  and  C6_7 
REMARK    5  A    between atoms: C6_7  and  C7_9 
REMARK    6  A    between atoms: C7_9  and  C8_10 
REMARK    7  A    between atoms: C8_10  and  C9_11 
REMARK    8  A    between atoms: C9_11  and  O3_13 
REMARK    9  A    between atoms: O3_13  and  C10_14 
REMARK   10  A    between atoms: C10_14  and  C11_15 
REMARK   11  A    between atoms: C11_15  and  C12_17 
REMARK   12  A    between atoms: C12_17  and  O5_18 
REMARK   13  A    between atoms: C31_39  and  O9_41 
ROOT
HETATM    1  C12 UNL     1      -2.860   8.158  15.395  1.00  0.00     0.128 C 
HETATM    2  C13 UNL     1      -4.116   9.049  15.512  1.00  0.00     0.047 C 
HETATM    3  C14 UNL     1      -5.270   8.271  14.837  1.00  0.00     0.009 C 
HETATM    4  C15 UNL     1      -4.658   6.924  14.455  1.00  0.00     0.002 C 
HETATM    5  C16 UNL     1      -5.333   6.093  13.350  1.00  0.00     0.003 C 
HETATM    6  C17 UNL     1      -6.803   5.810  13.689  1.00  0.00     0.010 C 
HETATM    7  C18 UNL     1      -7.453   4.917  12.641  1.00  0.00     0.035 C 
HETATM    8  C19 UNL     1      -6.679   3.636  12.439  1.00  0.00    -0.067 C 
HETATM    9  C20 UNL     1      -7.307   2.452  12.541  1.00  0.00     0.053 C 
HETATM   10  C21 UNL     1      -6.607   1.177  12.261  1.00  0.00     0.149 C 
HETATM   11  O6  UNL     1      -7.156   0.113  12.524  1.00  0.00    -0.293 OA
HETATM   12  C22 UNL     1      -5.254   1.259  11.611  1.00  0.00     0.084 C 
HETATM   13  C23 UNL     1      -4.465   2.405  12.227  1.00  0.00     0.022 C 
HETATM   14  C24 UNL     1      -5.180   3.787  12.120  1.00  0.00    -0.009 C 
HETATM   15  C25 UNL     1      -5.061   4.314  10.670  1.00  0.00     0.021 C 
HETATM   16  C26 UNL     1      -4.551   4.756  13.182  1.00  0.00     0.072 C 
HETATM   17  C27 UNL     1      -3.052   5.065  12.995  1.00  0.00     0.133 C 
HETATM   18  O7  UNL     1      -2.379   4.647  12.057  1.00  0.00    -0.297 OA
HETATM   19  C28 UNL     1      -2.411   5.932  14.072  1.00  0.00     0.091 C 
HETATM   20  C29 UNL     1      -3.174   7.262  14.161  1.00  0.00     0.005 C 
HETATM   21  C30 UNL     1      -2.974   8.048  12.839  1.00  0.00     0.019 C 
ENDROOT
BRANCH   1  22
HETATM   22  C11 UNL     1      -1.488   8.855  15.345  1.00  0.00     0.185 C 
HETATM   23  O4  UNL     1      -1.297   9.723  14.482  1.00  0.00    -0.292 OA
BRANCH  22  24
HETATM   24  C10 UNL     1      -0.402   8.481  16.340  1.00  0.00     0.260 C 
BRANCH  24  25
HETATM   25  O3  UNL     1       0.287   7.282  15.997  1.00  0.00    -0.314 OA
BRANCH  25  26
HETATM   26  C9  UNL     1       1.608   7.426  15.705  1.00  0.00     0.259 C 
HETATM   27  O2  UNL     1       2.494   7.569  16.531  1.00  0.00    -0.265 OA
BRANCH  26  28
HETATM   28  C8  UNL     1       1.808   7.392  14.213  1.00  0.00     0.120 C 
BRANCH  28  29
HETATM   29  C7  UNL     1       2.966   8.290  13.785  1.00  0.00     0.112 C 
BRANCH  29  30
HETATM   30  C6  UNL     1       3.607   7.786  12.510  1.00  0.00     0.218 C 
HETATM   31  N1  UNL     1       2.704   7.209  11.640  1.00  0.00    -0.346 N 
HETATM   32  H11 UNL     1       1.741   7.514  11.739  1.00  0.00     0.163 HD
HETATM   33  O1  UNL     1       4.808   7.867  12.290  1.00  0.00    -0.274 OA
BRANCH  31  34
HETATM   34  C5  UNL     1       3.099   6.818  10.275  1.00  0.00     0.186 C 
BRANCH  34  35
HETATM   35  C3  UNL     1       2.227   7.429   9.138  1.00  0.00     0.014 C 
HETATM   36  C4  UNL     1       0.762   7.562   9.587  1.00  0.00     0.012 C 
BRANCH  35  37
HETATM   37  C2  UNL     1       2.300   6.576   7.843  1.00  0.00     0.002 C 
HETATM   38  C1  UNL     1       1.831   7.308   6.589  1.00  0.00     0.005 C 
ENDBRANCH  35  37
ENDBRANCH  34  35
BRANCH  34  39
HETATM   39  C31 UNL     1       3.257   5.279  10.201  1.00  0.00     0.163 C 
HETATM   40  O8  UNL     1       2.377   4.439  10.307  1.00  0.00    -0.648 OA
BRANCH  39  41
HETATM   41  O9  UNL     1       4.506   4.871   9.865  1.00  0.00    -0.775 OA
HETATM   42  H43 UNL     1       4.423   3.891   9.857  1.00  0.00     0.167 HD
ENDBRANCH  39  41
ENDBRANCH  34  39
ENDBRANCH  31  34
ENDBRANCH  29  30
ENDBRANCH  28  29
ENDBRANCH  26  28
ENDBRANCH  25  26
ENDBRANCH  24  25
ENDBRANCH  22  24
ENDBRANCH   1  22
BRANCH   1  43
HETATM   43  O5  UNL     1      -2.835   7.323  16.572  1.00  0.00    -0.381 OA
HETATM   44  H18 UNL     1      -1.894   7.156  16.794  1.00  0.00     0.211 HD
ENDBRANCH   1  43
TORSDOF 13
ENDMDL
MODEL 8
REMARK minimizedAffinity -7.13976955
REMARK CNNscore 0.221036598
REMARK CNNaffinity 5.7862258
REMARK  13 active torsions:
REMARK  status: ('A' for Active; 'I' for Inactive)
REMARK    1  A    between atoms: C2_2  and  C3_3 
REMARK    2  A    between atoms: C3_3  and  C5_5 
REMARK    3  A    between atoms: C5_5  and  N1_6 
REMARK    4  A    between atoms: C5_5  and  C31_39 
REMARK       I    between atoms: N1_6  and  C6_7 
REMARK    5  A    between atoms: C6_7  and  C7_9 
REMARK    6  A    between atoms: C7_9  and  C8_10 
REMARK    7  A    between atoms: C8_10  and  C9_11 
REMARK    8  A    between atoms: C9_11  and  O3_13 
REMARK    9  A    between atoms: O3_13  and  C10_14 
REMARK   10  A    between atoms: C10_14  and  C11_15 
REMARK   11  A    between atoms: C11_15  and  C12_17 
REMARK   12  A    between atoms: C12_17  and  O5_18 
REMARK   13  A    between atoms: C31_39  and  O9_41 
ROOT
HETATM    1  C12 UNL     1     -13.189  -6.307  13.286  1.00  0.00     0.128 C 
HETATM    2  C13 UNL     1     -13.461  -6.293  11.766  1.00  0.00     0.047 C 
HETATM    3  C14 UNL     1     -14.135  -4.936  11.454  1.00  0.00     0.009 C 
HETATM    4  C15 UNL     1     -14.127  -4.184  12.784  1.00  0.00     0.002 C 
HETATM    5  C16 UNL     1     -15.128  -3.035  12.988  1.00  0.00     0.003 C 
HETATM    6  C17 UNL     1     -14.977  -1.966  11.896  1.00  0.00     0.010 C 
HETATM    7  C18 UNL     1     -15.907  -0.785  12.141  1.00  0.00     0.035 C 
HETATM    8  C19 UNL     1     -15.713  -0.195  13.517  1.00  0.00    -0.067 C 
HETATM    9  C20 UNL     1     -15.469   1.119  13.653  1.00  0.00     0.053 C 
HETATM   10  C21 UNL     1     -15.363   1.754  14.987  1.00  0.00     0.149 C 
HETATM   11  O6  UNL     1     -14.977   2.913  15.079  1.00  0.00    -0.293 OA
HETATM   12  C22 UNL     1     -15.792   0.940  16.177  1.00  0.00     0.084 C 
HETATM   13  C23 UNL     1     -15.311  -0.494  16.009  1.00  0.00     0.022 C 
HETATM   14  C24 UNL     1     -15.814  -1.176  14.700  1.00  0.00    -0.009 C 
HETATM   15  C25 UNL     1     -17.304  -1.560  14.864  1.00  0.00     0.021 C 
HETATM   16  C26 UNL     1     -14.889  -2.406  14.394  1.00  0.00     0.072 C 
HETATM   17  C27 UNL     1     -14.895  -3.524  15.456  1.00  0.00     0.133 C 
HETATM   18  O7  UNL     1     -15.607  -3.513  16.457  1.00  0.00    -0.297 OA
HETATM   19  C28 UNL     1     -13.934  -4.680  15.212  1.00  0.00     0.091 C 
HETATM   20  C29 UNL     1     -14.244  -5.308  13.845  1.00  0.00     0.005 C 
HETATM   21  C30 UNL     1     -15.652  -5.958  13.896  1.00  0.00     0.019 C 
ENDROOT
BRANCH   1  22
HETATM   22  C11 UNL     1     -13.164  -7.673  13.998  1.00  0.00     0.185 C 
HETATM   23  O4  UNL     1     -14.210  -8.090  14.514  1.00  0.00    -0.292 OA
BRANCH  22  24
HETATM   24  C10 UNL     1     -11.879  -8.482  14.055  1.00  0.00     0.260 C 
BRANCH  24  25
HETATM   25  O3  UNL     1     -12.027  -9.810  13.561  1.00  0.00    -0.314 OA
BRANCH  25  26
HETATM   26  C9  UNL     1     -10.974 -10.642  13.787  1.00  0.00     0.259 C 
HETATM   27  O2  UNL     1     -10.416 -10.786  14.861  1.00  0.00    -0.265 OA
BRANCH  26  28
HETATM   28  C8  UNL     1     -10.600 -11.348  12.510  1.00  0.00     0.120 C 
BRANCH  28  29
HETATM   29  C7  UNL     1     -10.264 -10.354  11.401  1.00  0.00     0.112 C 
BRANCH  29  30
HETATM   30  C6  UNL     1      -8.802  -9.967  11.438  1.00  0.00     0.218 C 
HETATM   31  N1  UNL     1      -8.509  -8.873  10.648  1.00  0.00    -0.346 N 
HETATM   32  H11 UNL     1      -9.284  -8.245  10.463  1.00  0.00     0.163 HD
HETATM   33  O1  UNL     1      -7.965 -10.579  12.088  1.00  0.00    -0.274 OA
BRANCH  31  34
HETATM   34  C5  UNL     1      -7.181  -8.235  10.685  1.00  0.00     0.186 C 
BRANCH  34  35
HETATM   35  C3  UNL     1      -6.044  -9.042   9.993  1.00  0.00     0.014 C 
HETATM   36  C4  UNL     1      -6.629 -10.125   9.070  1.00  0.00     0.012 C 
BRANCH  35  37
HETATM   37  C2  UNL     1      -5.096  -9.699  11.031  1.00  0.00     0.002 C 
HETATM   38  C1  UNL     1      -3.616  -9.425  10.785  1.00  0.00     0.005 C 
ENDBRANCH  35  37
ENDBRANCH  34  35
BRANCH  34  39
HETATM   39  C31 UNL     1      -6.859  -7.794  12.135  1.00  0.00     0.163 C 
HETATM   40  O8  UNL     1      -6.690  -8.514  13.107  1.00  0.00    -0.648 OA
BRANCH  39  41
HETATM   41  O9  UNL     1      -6.633  -6.463  12.267  1.00  0.00    -0.775 OA
HETATM   42  H43 UNL     1      -6.440  -6.366  13.226  1.00  0.00     0.167 HD
ENDBRANCH  39  41
ENDBRANCH  34  39
ENDBRANCH  31  34
ENDBRANCH  29  30
ENDBRANCH  28  29
ENDBRANCH  26  28
ENDBRANCH  25  26
ENDBRANCH  24  25
ENDBRANCH  22  24
ENDBRANCH   1  22
BRANCH   1  43
HETATM   43  O5  UNL     1     -11.876  -5.739  13.477  1.00  0.00    -0.381 OA
HETATM   44  H18 UNL     1     -11.478  -6.176  14.259  1.00  0.00     0.211 HD
ENDBRANCH   1  43
TORSDOF 13
ENDMDL
MODEL 9
REMARK minimizedAffinity -9.16096401
REMARK CNNscore 0.211461782
REMARK CNNaffinity 6.78580236
REMARK  13 active torsions:
REMARK  status: ('A' for Active; 'I' for Inactive)
REMARK    1  A    between atoms: C2_2  and  C3_3 
REMARK    2  A    between atoms: C3_3  and  C5_5 
REMARK    3  A    between atoms: C5_5  and  N1_6 
REMARK    4  A    between atoms: C5_5  and  C31_39 
REMARK       I    between atoms: N1_6  and  C6_7 
REMARK    5  A    between atoms: C6_7  and  C7_9 
REMARK    6  A    between atoms: C7_9  and  C8_10 
REMARK    7  A    between atoms: C8_10  and  C9_11 
REMARK    8  A    between atoms: C9_11  and  O3_13 
REMARK    9  A    between atoms: O3_13  and  C10_14 
REMARK   10  A    between atoms: C10_14  and  C11_15 
REMARK   11  A    between atoms: C11_15  and  C12_17 
REMARK   12  A    between atoms: C12_17  and  O5_18 
REMARK   13  A    between atoms: C31_39  and  O9_41 
ROOT
HETATM    1  C12 UNL     1      -1.052   5.991  12.132  1.00  0.00     0.128 C 
HETATM    2  C13 UNL     1      -1.095   4.493  11.760  1.00  0.00     0.047 C 
HETATM    3  C14 UNL     1      -2.517   3.994  12.110  1.00  0.00     0.009 C 
HETATM    4  C15 UNL     1      -3.265   5.245  12.568  1.00  0.00     0.002 C 
HETATM    5  C16 UNL     1      -4.516   5.078  13.446  1.00  0.00     0.003 C 
HETATM    6  C17 UNL     1      -5.561   4.188  12.758  1.00  0.00     0.010 C 
HETATM    7  C18 UNL     1      -6.837   4.088  13.584  1.00  0.00     0.035 C 
HETATM    8  C19 UNL     1      -7.403   5.449  13.908  1.00  0.00    -0.067 C 
HETATM    9  C20 UNL     1      -8.683   5.729  13.610  1.00  0.00     0.053 C 
HETATM   10  C21 UNL     1      -9.303   7.019  13.993  1.00  0.00     0.149 C 
HETATM   11  O6  UNL     1     -10.413   7.310  13.563  1.00  0.00    -0.293 OA
HETATM   12  C22 UNL     1      -8.542   7.897  14.947  1.00  0.00     0.084 C 
HETATM   13  C23 UNL     1      -7.064   7.876  14.584  1.00  0.00     0.022 C 
HETATM   14  C24 UNL     1      -6.439   6.447  14.578  1.00  0.00    -0.009 C 
HETATM   15  C25 UNL     1      -6.221   5.978  16.036  1.00  0.00     0.021 C 
HETATM   16  C26 UNL     1      -5.116   6.486  13.737  1.00  0.00     0.072 C 
HETATM   17  C27 UNL     1      -4.007   7.406  14.285  1.00  0.00     0.133 C 
HETATM   18  O7  UNL     1      -4.095   8.034  15.337  1.00  0.00    -0.297 OA
HETATM   19  C28 UNL     1      -2.752   7.520  13.428  1.00  0.00     0.091 C 
HETATM   20  C29 UNL     1      -2.161   6.119  13.218  1.00  0.00     0.005 C 
HETATM   21  C30 UNL     1      -1.668   5.569  14.582  1.00  0.00     0.019 C 
ENDROOT
BRANCH   1  22
HETATM   22  C11 UNL     1       0.307   6.591  12.534  1.00  0.00     0.185 C 
HETATM   23  O4  UNL     1       0.853   6.181  13.568  1.00  0.00    -0.292 OA
BRANCH  22  24
HETATM   24  C10 UNL     1       0.957   7.661  11.672  1.00  0.00     0.260 C 
BRANCH  24  25
HETATM   25  O3  UNL     1       1.187   7.241  10.331  1.00  0.00    -0.314 OA
BRANCH  25  26
HETATM   26  C9  UNL     1       0.980   8.187   9.375  1.00  0.00     0.259 C 
HETATM   27  O2  UNL     1      -0.006   8.900   9.302  1.00  0.00    -0.265 OA
BRANCH  26  28
HETATM   28  C8  UNL     1       2.145   8.212   8.421  1.00  0.00     0.120 C 
BRANCH  28  29
HETATM   29  C7  UNL     1       2.601   6.800   8.061  1.00  0.00     0.112 C 
BRANCH  29  30
HETATM   30  C6  UNL     1       3.512   6.231   9.127  1.00  0.00     0.218 C 
HETATM   31  N1  UNL     1       4.110   7.202   9.906  1.00  0.00    -0.346 N 
HETATM   32  H11 UNL     1       3.618   8.088   9.959  1.00  0.00     0.163 HD
HETATM   33  O1  UNL     1       3.711   5.032   9.265  1.00  0.00    -0.274 OA
BRANCH  31  34
HETATM   34  C5  UNL     1       4.890   6.848  11.105  1.00  0.00     0.186 C 
BRANCH  34  35
HETATM   35  C3  UNL     1       4.925   7.942  12.214  1.00  0.00     0.014 C 
HETATM   36  C4  UNL     1       5.425   9.280  11.643  1.00  0.00     0.012 C 
BRANCH  35  37
HETATM   37  C2  UNL     1       5.821   7.516  13.406  1.00  0.00     0.002 C 
HETATM   38  C1  UNL     1       7.049   8.400  13.609  1.00  0.00     0.005 C 
ENDBRANCH  35  37
ENDBRANCH  34  35
BRANCH  34  39
HETATM   39  C31 UNL     1       6.285   6.327  10.680  1.00  0.00     0.163 C 
HETATM   40  O8  UNL     1       7.283   6.990  10.444  1.00  0.00    -0.648 OA
BRANCH  39  41
HETATM   41  O9  UNL     1       6.395   4.975  10.698  1.00  0.00    -0.775 OA
HETATM   42  H43 UNL     1       7.325   4.825  10.416  1.00  0.00     0.167 HD
ENDBRANCH  39  41
ENDBRANCH  34  39
ENDBRANCH  31  34
ENDBRANCH  29  30
ENDBRANCH  28  29
ENDBRANCH  26  28
ENDBRANCH  25  26
ENDBRANCH  24  25
ENDBRANCH  22  24
ENDBRANCH   1  22
BRANCH   1  43
HETATM   43  O5  UNL     1      -1.474   6.720  10.960  1.00  0.00    -0.381 OA
HETATM   44  H18 UNL     1      -0.997   7.577  10.960  1.00  0.00     0.211 HD
ENDBRANCH   1  43
TORSDOF 13
ENDMDL
