MODEL 1
REMARK minimizedAffinity -9.12374496
REMARK  7 active torsions:
REMARK  status: ('A' for Active; 'I' for Inactive)
REMARK    1  A    between atoms: C2_2  and  C3_3 
REMARK    2  A    between atoms: C2_2  and  C9_10 
REMARK    3  A    between atoms: C3_3  and  C4_4 
REMARK    4  A    between atoms: C5_5  and  C6_6 
REMARK    5  A    between atoms: C6_6  and  O1_9 
REMARK    6  A    between atoms: C17_18  and  C18_19 
REMARK    7  A    between atoms: C18_19  and  O2_22 
ROOT
HETATM    1  C9  UNL     1      -5.615   6.449  14.487  1.00  0.00    -0.002 C 
HETATM    2  C10 UNL     1      -6.066   7.530  13.451  1.00  0.00     0.006 C 
HETATM    3  C11 UNL     1      -4.801   8.283  12.984  1.00  0.00     0.011 C 
HETATM    4  C12 UNL     1      -3.713   7.846  13.982  1.00  0.00    -0.032 C 
HETATM    5  C13 UNL     1      -3.940   8.730  15.256  1.00  0.00     0.016 C 
HETATM    6  C14 UNL     1      -2.250   7.954  13.468  1.00  0.00     0.003 C 
HETATM    7  C15 UNL     1      -1.852   9.342  12.937  1.00  0.00     0.009 C 
HETATM    8  C16 UNL     1      -0.349   9.600  12.909  1.00  0.00     0.042 C 
HETATM    9  C17 UNL     1       0.564   8.373  12.647  1.00  0.00     0.095 C 
HETATM   10  O3  UNL     1       1.925   8.781  12.944  1.00  0.00    -0.377 OA
HETATM   11  C21 UNL     1       2.275   8.794  14.318  1.00  0.00     0.169 C 
HETATM   12  C22 UNL     1       2.340   7.385  14.865  1.00  0.00     0.027 C 
HETATM   13  C23 UNL     1       1.334   6.444  14.218  1.00  0.00     0.010 C 
HETATM   14  C24 UNL     1       0.133   7.118  13.518  1.00  0.00     0.032 C 
HETATM   15  C25 UNL     1      -1.177   7.296  14.412  1.00  0.00    -0.033 C 
HETATM   16  C26 UNL     1      -0.895   8.105  15.698  1.00  0.00     0.016 C 
HETATM   17  C27 UNL     1      -1.669   5.877  14.890  1.00  0.00     0.011 C 
HETATM   18  C28 UNL     1      -3.164   5.743  15.266  1.00  0.00     0.011 C 
HETATM   19  C29 UNL     1      -4.089   6.323  14.179  1.00  0.00    -0.032 C 
HETATM   20  C30 UNL     1      -3.922   5.434  12.902  1.00  0.00     0.016 C 
ENDROOT
BRANCH   1  21
HETATM   21  C2  UNL     1      -6.526   5.188  14.447  1.00  0.00    -0.010 C 
HETATM   22  C1  UNL     1      -7.399   5.049  15.699  1.00  0.00     0.010 C 
BRANCH  21  23
HETATM   23  C3  UNL     1      -7.417   5.137  13.174  1.00  0.00     0.031 C 
BRANCH  23  24
HETATM   24  C4  UNL     1      -6.964   4.161  12.121  1.00  0.00    -0.027 C 
HETATM   25  C5  UNL     1      -5.967   3.278  12.309  1.00  0.00     0.006 C 
BRANCH  25  26
HETATM   26  C6  UNL     1      -5.415   2.281  11.322  1.00  0.00     0.068 C 
HETATM   27  C7  UNL     1      -6.239   0.998  11.170  1.00  0.00     0.050 C 
HETATM   28  C8  UNL     1      -3.966   1.942  11.681  1.00  0.00     0.050 C 
BRANCH  26  29
HETATM   29  O1  UNL     1      -5.411   2.955  10.059  1.00  0.00    -0.387 OA
HETATM   30  H15 UNL     1      -5.122   2.319   9.386  1.00  0.00     0.211 HD
ENDBRANCH  26  29
ENDBRANCH  25  26
ENDBRANCH  23  24
ENDBRANCH  21  23
ENDBRANCH   1  21
BRANCH   9  31
HETATM   31  C18 UNL     1       0.594   8.011  11.083  1.00  0.00     0.082 C 
HETATM   32  C19 UNL     1      -0.062   6.646  10.790  1.00  0.00     0.049 C 
HETATM   33  C20 UNL     1       2.026   7.958  10.510  1.00  0.00     0.049 C 
BRANCH  31  34
HETATM   34  O2  UNL     1      -0.123   8.993  10.323  1.00  0.00    -0.388 OA
HETATM   35  H35 UNL     1      -0.067   8.745   9.385  1.00  0.00     0.210 HD
ENDBRANCH  31  34
ENDBRANCH   9  31
TORSDOF 7
ENDMDL
MODEL 2
REMARK minimizedAffinity -8.49659061
REMARK  7 active torsions:
REMARK  status: ('A' for Active; 'I' for Inactive)
REMARK    1  A    between atoms: C2_2  and  C3_3 
REMARK    2  A    between atoms: C2_2  and  C9_10 
REMARK    3  A    between atoms: C3_3  and  C4_4 
REMARK    4  A    between atoms: C5_5  and  C6_6 
REMARK    5  A    between atoms: C6_6  and  O1_9 
REMARK    6  A    between atoms: C17_18  and  C18_19 
REMARK    7  A    between atoms: C18_19  and  O2_22 
ROOT
HETATM    1  C9  UNL     1      -5.251   6.480  13.985  1.00  0.00    -0.002 C 
HETATM    2  C10 UNL     1      -4.447   5.706  12.890  1.00  0.00     0.006 C 
HETATM    3  C11 UNL     1      -3.038   6.334  12.817  1.00  0.00     0.011 C 
HETATM    4  C12 UNL     1      -3.165   7.639  13.625  1.00  0.00    -0.032 C 
HETATM    5  C13 UNL     1      -3.829   8.668  12.647  1.00  0.00     0.016 C 
HETATM    6  C14 UNL     1      -1.839   8.192  14.218  1.00  0.00     0.003 C 
HETATM    7  C15 UNL     1      -0.708   8.396  13.195  1.00  0.00     0.009 C 
HETATM    8  C16 UNL     1       0.376   9.372  13.639  1.00  0.00     0.042 C 
HETATM    9  C17 UNL     1       0.679   9.433  15.160  1.00  0.00     0.095 C 
HETATM   10  O3  UNL     1       1.512  10.600  15.385  1.00  0.00    -0.377 OA
HETATM   11  C21 UNL     1       0.826  11.841  15.435  1.00  0.00     0.169 C 
HETATM   12  C22 UNL     1      -0.024  11.930  16.683  1.00  0.00     0.027 C 
HETATM   13  C23 UNL     1      -0.594  10.586  17.117  1.00  0.00     0.010 C 
HETATM   14  C24 UNL     1      -0.650   9.494  16.027  1.00  0.00     0.032 C 
HETATM   15  C25 UNL     1      -2.023   9.391  15.220  1.00  0.00    -0.033 C 
HETATM   16  C26 UNL     1      -2.394  10.725  14.537  1.00  0.00     0.016 C 
HETATM   17  C27 UNL     1      -3.190   9.080  16.233  1.00  0.00     0.011 C 
HETATM   18  C28 UNL     1      -4.455   8.399  15.657  1.00  0.00     0.011 C 
HETATM   19  C29 UNL     1      -4.110   7.165  14.801  1.00  0.00    -0.032 C 
HETATM   20  C30 UNL     1      -3.484   6.095  15.756  1.00  0.00     0.016 C 
ENDROOT
BRANCH   1  21
HETATM   21  C2  UNL     1      -6.284   5.565  14.704  1.00  0.00    -0.010 C 
HETATM   22  C1  UNL     1      -7.130   6.324  15.733  1.00  0.00     0.010 C 
BRANCH  21  23
HETATM   23  C3  UNL     1      -7.212   4.816  13.708  1.00  0.00     0.031 C 
BRANCH  23  24
HETATM   24  C4  UNL     1      -6.622   3.568  13.107  1.00  0.00    -0.027 C 
HETATM   25  C5  UNL     1      -6.052   3.530  11.889  1.00  0.00     0.006 C 
BRANCH  25  26
HETATM   26  C6  UNL     1      -5.458   2.338  11.182  1.00  0.00     0.068 C 
HETATM   27  C7  UNL     1      -6.250   1.034  11.335  1.00  0.00     0.050 C 
HETATM   28  C8  UNL     1      -4.010   2.133  11.635  1.00  0.00     0.050 C 
BRANCH  26  29
HETATM   29  O1  UNL     1      -5.442   2.685   9.794  1.00  0.00    -0.387 OA
HETATM   30  H15 UNL     1      -5.126   1.912   9.300  1.00  0.00     0.211 HD
ENDBRANCH  26  29
ENDBRANCH  25  26
ENDBRANCH  23  24
ENDBRANCH  21  23
ENDBRANCH   1  21
BRANCH   9  31
HETATM   31  C18 UNL     1       1.605   8.199  15.604  1.00  0.00     0.082 C 
HETATM   32  C19 UNL     1       2.777   8.645  16.502  1.00  0.00     0.049 C 
HETATM   33  C20 UNL     1       2.216   7.447  14.403  1.00  0.00     0.049 C 
BRANCH  31  34
HETATM   34  O2  UNL     1       0.845   7.240  16.353  1.00  0.00    -0.388 OA
HETATM   35  H35 UNL     1       1.437   6.506  16.587  1.00  0.00     0.210 HD
ENDBRANCH  31  34
ENDBRANCH   9  31
TORSDOF 7
ENDMDL
MODEL 3
REMARK minimizedAffinity -8.31451702
REMARK  7 active torsions:
REMARK  status: ('A' for Active; 'I' for Inactive)
REMARK    1  A    between atoms: C2_2  and  C3_3 
REMARK    2  A    between atoms: C2_2  and  C9_10 
REMARK    3  A    between atoms: C3_3  and  C4_4 
REMARK    4  A    between atoms: C5_5  and  C6_6 
REMARK    5  A    between atoms: C6_6  and  O1_9 
REMARK    6  A    between atoms: C17_18  and  C18_19 
REMARK    7  A    between atoms: C18_19  and  O2_22 
ROOT
HETATM    1  C9  UNL     1      -2.255   8.067  14.302  1.00  0.00    -0.002 C 
HETATM    2  C10 UNL     1      -1.539   7.080  15.282  1.00  0.00     0.006 C 
HETATM    3  C11 UNL     1      -0.355   6.446  14.519  1.00  0.00     0.011 C 
HETATM    4  C12 UNL     1      -0.605   6.828  13.049  1.00  0.00    -0.032 C 
HETATM    5  C13 UNL     1      -1.672   5.804  12.530  1.00  0.00     0.016 C 
HETATM    6  C14 UNL     1       0.654   6.849  12.138  1.00  0.00     0.003 C 
HETATM    7  C15 UNL     1       1.474   5.546  12.139  1.00  0.00     0.009 C 
HETATM    8  C16 UNL     1       2.377   5.369  10.923  1.00  0.00     0.042 C 
HETATM    9  C17 UNL     1       2.965   6.661  10.297  1.00  0.00     0.095 C 
HETATM   10  O3  UNL     1       3.540   6.292   9.016  1.00  0.00    -0.377 OA
HETATM   11  C21 UNL     1       2.617   6.151   7.948  1.00  0.00     0.169 C 
HETATM   12  C22 UNL     1       2.044   7.496   7.557  1.00  0.00     0.027 C 
HETATM   13  C23 UNL     1       1.895   8.449   8.735  1.00  0.00     0.010 C 
HETATM   14  C24 UNL     1       1.865   7.794  10.133  1.00  0.00     0.032 C 
HETATM   15  C25 UNL     1       0.415   7.456  10.707  1.00  0.00    -0.033 C 
HETATM   16  C26 UNL     1      -0.382   6.531   9.761  1.00  0.00     0.016 C 
HETATM   17  C27 UNL     1      -0.417   8.791  10.815  1.00  0.00     0.011 C 
HETATM   18  C28 UNL     1      -1.586   8.809  11.830  1.00  0.00     0.011 C 
HETATM   19  C29 UNL     1      -1.155   8.302  13.219  1.00  0.00    -0.032 C 
HETATM   20  C30 UNL     1      -0.120   9.327  13.790  1.00  0.00     0.016 C 
ENDROOT
BRANCH   1  21
HETATM   21  C2  UNL     1      -2.883   9.278  15.052  1.00  0.00    -0.010 C 
HETATM   22  C1  UNL     1      -2.431  10.626  14.479  1.00  0.00     0.010 C 
BRANCH  21  23
HETATM   23  C3  UNL     1      -4.435   9.215  15.090  1.00  0.00     0.031 C 
BRANCH  23  24
HETATM   24  C4  UNL     1      -5.015   7.826  15.043  1.00  0.00    -0.027 C 
HETATM   25  C5  UNL     1      -5.734   7.358  14.008  1.00  0.00     0.006 C 
BRANCH  25  26
HETATM   26  C6  UNL     1      -6.382   6.004  13.868  1.00  0.00     0.068 C 
HETATM   27  C7  UNL     1      -7.048   5.471  15.141  1.00  0.00     0.050 C 
HETATM   28  C8  UNL     1      -5.361   4.992  13.340  1.00  0.00     0.050 C 
BRANCH  26  29
HETATM   29  O1  UNL     1      -7.397   6.166  12.872  1.00  0.00    -0.387 OA
HETATM   30  H15 UNL     1      -7.880   5.327  12.803  1.00  0.00     0.211 HD
ENDBRANCH  26  29
ENDBRANCH  25  26
ENDBRANCH  23  24
ENDBRANCH  21  23
ENDBRANCH   1  21
BRANCH   9  31
HETATM   31  C18 UNL     1       4.217   7.187  11.152  1.00  0.00     0.082 C 
HETATM   32  C19 UNL     1       3.777   7.939  12.425  1.00  0.00     0.049 C 
HETATM   33  C20 UNL     1       5.128   8.142  10.354  1.00  0.00     0.049 C 
BRANCH  31  34
HETATM   34  O2  UNL     1       5.036   6.088  11.577  1.00  0.00    -0.388 OA
HETATM   35  H35 UNL     1       5.787   6.451  12.076  1.00  0.00     0.210 HD
ENDBRANCH  31  34
ENDBRANCH   9  31
TORSDOF 7
ENDMDL
MODEL 4
REMARK minimizedAffinity -8.2147007
REMARK  7 active torsions:
REMARK  status: ('A' for Active; 'I' for Inactive)
REMARK    1  A    between atoms: C2_2  and  C3_3 
REMARK    2  A    between atoms: C2_2  and  C9_10 
REMARK    3  A    between atoms: C3_3  and  C4_4 
REMARK    4  A    between atoms: C5_5  and  C6_6 
REMARK    5  A    between atoms: C6_6  and  O1_9 
REMARK    6  A    between atoms: C17_18  and  C18_19 
REMARK    7  A    between atoms: C18_19  and  O2_22 
ROOT
HETATM    1  C9  UNL     1      -1.776   5.773  11.695  1.00  0.00    -0.002 C 
HETATM    2  C10 UNL     1      -0.366   5.701  11.022  1.00  0.00     0.006 C 
HETATM    3  C11 UNL     1       0.521   6.777  11.685  1.00  0.00     0.011 C 
HETATM    4  C12 UNL     1      -0.470   7.645  12.482  1.00  0.00    -0.032 C 
HETATM    5  C13 UNL     1      -1.108   8.616  11.431  1.00  0.00     0.016 C 
HETATM    6  C14 UNL     1       0.135   8.423  13.683  1.00  0.00     0.003 C 
HETATM    7  C15 UNL     1       1.343   9.312  13.334  1.00  0.00     0.009 C 
HETATM    8  C16 UNL     1       1.617  10.425  14.339  1.00  0.00     0.042 C 
HETATM    9  C17 UNL     1       1.269  10.128  15.822  1.00  0.00     0.095 C 
HETATM   10  O3  UNL     1       1.336  11.388  16.539  1.00  0.00    -0.377 OA
HETATM   11  C21 UNL     1       0.202  12.230  16.404  1.00  0.00     0.169 C 
HETATM   12  C22 UNL     1      -0.994  11.633  17.113  1.00  0.00     0.027 C 
HETATM   13  C23 UNL     1      -1.012  10.111  17.077  1.00  0.00     0.010 C 
HETATM   14  C24 UNL     1      -0.159   9.452  15.971  1.00  0.00     0.032 C 
HETATM   15  C25 UNL     1      -0.927   9.119  14.612  1.00  0.00    -0.033 C 
HETATM   16  C26 UNL     1      -1.574  10.375  13.989  1.00  0.00     0.016 C 
HETATM   17  C27 UNL     1      -2.111   8.126  14.922  1.00  0.00     0.011 C 
HETATM   18  C28 UNL     1      -2.616   7.249  13.750  1.00  0.00     0.011 C 
HETATM   19  C29 UNL     1      -1.462   6.537  13.021  1.00  0.00    -0.032 C 
HETATM   20  C30 UNL     1      -0.828   5.521  14.029  1.00  0.00     0.016 C 
ENDROOT
BRANCH   1  21
HETATM   21  C2  UNL     1      -2.470   4.381  11.742  1.00  0.00    -0.010 C 
HETATM   22  C1  UNL     1      -1.480   3.221  11.584  1.00  0.00     0.010 C 
BRANCH  21  23
HETATM   23  C3  UNL     1      -3.316   4.180  13.031  1.00  0.00     0.031 C 
BRANCH  23  24
HETATM   24  C4  UNL     1      -4.730   3.718  12.795  1.00  0.00    -0.027 C 
HETATM   25  C5  UNL     1      -5.804   4.308  13.349  1.00  0.00     0.006 C 
BRANCH  25  26
HETATM   26  C6  UNL     1      -7.252   3.915  13.206  1.00  0.00     0.068 C 
HETATM   27  C7  UNL     1      -7.489   2.503  12.660  1.00  0.00     0.050 C 
HETATM   28  C8  UNL     1      -7.988   4.946  12.345  1.00  0.00     0.050 C 
BRANCH  26  29
HETATM   29  O1  UNL     1      -7.798   3.975  14.528  1.00  0.00    -0.387 OA
HETATM   30  H15 UNL     1      -8.716   3.664  14.483  1.00  0.00     0.211 HD
ENDBRANCH  26  29
ENDBRANCH  25  26
ENDBRANCH  23  24
ENDBRANCH  21  23
ENDBRANCH   1  21
BRANCH   9  31
HETATM   31  C18 UNL     1       2.411   9.228  16.503  1.00  0.00     0.082 C 
HETATM   32  C19 UNL     1       3.812   9.541  15.938  1.00  0.00     0.049 C 
HETATM   33  C20 UNL     1       2.173   7.716  16.313  1.00  0.00     0.049 C 
BRANCH  31  34
HETATM   34  O2  UNL     1       2.466   9.467  17.917  1.00  0.00    -0.388 OA
HETATM   35  H35 UNL     1       3.156   8.893  18.290  1.00  0.00     0.210 HD
ENDBRANCH  31  34
ENDBRANCH   9  31
TORSDOF 7
ENDMDL
MODEL 5
REMARK minimizedAffinity -8.19454288
REMARK  7 active torsions:
REMARK  status: ('A' for Active; 'I' for Inactive)
REMARK    1  A    between atoms: C2_2  and  C3_3 
REMARK    2  A    between atoms: C2_2  and  C9_10 
REMARK    3  A    between atoms: C3_3  and  C4_4 
REMARK    4  A    between atoms: C5_5  and  C6_6 
REMARK    5  A    between atoms: C6_6  and  O1_9 
REMARK    6  A    between atoms: C17_18  and  C18_19 
REMARK    7  A    between atoms: C18_19  and  O2_22 
ROOT
HETATM    1  C9  UNL     1      -1.654   7.079  13.959  1.00  0.00    -0.002 C 
HETATM    2  C10 UNL     1      -1.795   7.290  12.416  1.00  0.00     0.006 C 
HETATM    3  C11 UNL     1      -0.431   7.786  11.889  1.00  0.00     0.011 C 
HETATM    4  C12 UNL     1       0.355   8.153  13.161  1.00  0.00    -0.032 C 
HETATM    5  C13 UNL     1      -0.163   9.573  13.573  1.00  0.00     0.016 C 
HETATM    6  C14 UNL     1       1.903   8.128  13.024  1.00  0.00     0.003 C 
HETATM    7  C15 UNL     1       2.464   8.987  11.877  1.00  0.00     0.009 C 
HETATM    8  C16 UNL     1       3.931   9.370  12.036  1.00  0.00     0.042 C 
HETATM    9  C17 UNL     1       4.844   8.347  12.763  1.00  0.00     0.095 C 
HETATM   10  O3  UNL     1       6.097   9.021  13.053  1.00  0.00    -0.377 OA
HETATM   11  C21 UNL     1       6.086   9.874  14.186  1.00  0.00     0.169 C 
HETATM   12  C22 UNL     1       5.968   9.065  15.460  1.00  0.00     0.027 C 
HETATM   13  C23 UNL     1       5.132   7.804  15.294  1.00  0.00     0.010 C 
HETATM   14  C24 UNL     1       4.169   7.787  14.086  1.00  0.00     0.032 C 
HETATM   15  C25 UNL     1       2.681   8.283  14.382  1.00  0.00    -0.033 C 
HETATM   16  C26 UNL     1       2.651   9.715  14.960  1.00  0.00     0.016 C 
HETATM   17  C27 UNL     1       2.041   7.355  15.484  1.00  0.00     0.011 C 
HETATM   18  C28 UNL     1       0.496   7.275  15.524  1.00  0.00     0.011 C 
HETATM   19  C29 UNL     1      -0.105   6.993  14.134  1.00  0.00    -0.032 C 
HETATM   20  C30 UNL     1       0.354   5.558  13.709  1.00  0.00     0.016 C 
ENDROOT
BRANCH   1  21
HETATM   21  C2  UNL     1      -2.563   5.924  14.473  1.00  0.00    -0.010 C 
HETATM   22  C1  UNL     1      -3.518   6.374  15.584  1.00  0.00     0.010 C 
BRANCH  21  23
HETATM   23  C3  UNL     1      -3.367   5.244  13.330  1.00  0.00     0.031 C 
BRANCH  23  24
HETATM   24  C4  UNL     1      -4.847   5.122  13.582  1.00  0.00    -0.027 C 
HETATM   25  C5  UNL     1      -5.616   4.170  13.024  1.00  0.00     0.006 C 
BRANCH  25  26
HETATM   26  C6  UNL     1      -7.103   3.973  13.182  1.00  0.00     0.068 C 
HETATM   27  C7  UNL     1      -7.604   2.558  12.872  1.00  0.00     0.050 C 
HETATM   28  C8  UNL     1      -7.857   5.000  12.334  1.00  0.00     0.050 C 
BRANCH  26  29
HETATM   29  O1  UNL     1      -7.381   4.247  14.559  1.00  0.00    -0.387 OA
HETATM   30  H15 UNL     1      -8.322   4.065  14.712  1.00  0.00     0.211 HD
ENDBRANCH  26  29
ENDBRANCH  25  26
ENDBRANCH  23  24
ENDBRANCH  21  23
ENDBRANCH   1  21
BRANCH   9  31
HETATM   31  C18 UNL     1       5.260   7.153  11.774  1.00  0.00     0.082 C 
HETATM   32  C19 UNL     1       6.202   7.631  10.650  1.00  0.00     0.049 C 
HETATM   33  C20 UNL     1       4.044   6.489  11.094  1.00  0.00     0.049 C 
BRANCH  31  34
HETATM   34  O2  UNL     1       5.952   6.121  12.491  1.00  0.00    -0.388 OA
HETATM   35  H35 UNL     1       6.170   5.415  11.860  1.00  0.00     0.210 HD
ENDBRANCH  31  34
ENDBRANCH   9  31
TORSDOF 7
ENDMDL
MODEL 6
REMARK minimizedAffinity -8.17587757
REMARK  7 active torsions:
REMARK  status: ('A' for Active; 'I' for Inactive)
REMARK    1  A    between atoms: C2_2  and  C3_3 
REMARK    2  A    between atoms: C2_2  and  C9_10 
REMARK    3  A    between atoms: C3_3  and  C4_4 
REMARK    4  A    between atoms: C5_5  and  C6_6 
REMARK    5  A    between atoms: C6_6  and  O1_9 
REMARK    6  A    between atoms: C17_18  and  C18_19 
REMARK    7  A    between atoms: C18_19  and  O2_22 
ROOT
HETATM    1  C9  UNL     1      -1.141  11.912  17.140  1.00  0.00    -0.002 C 
HETATM    2  C10 UNL     1      -2.413  12.726  16.735  1.00  0.00     0.006 C 
HETATM    3  C11 UNL     1      -3.267  11.826  15.814  1.00  0.00     0.011 C 
HETATM    4  C12 UNL     1      -2.330  10.659  15.454  1.00  0.00    -0.032 C 
HETATM    5  C13 UNL     1      -1.411  11.203  14.308  1.00  0.00     0.016 C 
HETATM    6  C14 UNL     1      -3.035   9.337  15.040  1.00  0.00     0.003 C 
HETATM    7  C15 UNL     1      -4.050   9.478  13.892  1.00  0.00     0.009 C 
HETATM    8  C16 UNL     1      -4.358   8.177  13.159  1.00  0.00     0.042 C 
HETATM    9  C17 UNL     1      -4.306   6.873  14.000  1.00  0.00     0.095 C 
HETATM   10  O3  UNL     1      -4.344   5.761  13.068  1.00  0.00    -0.377 OA
HETATM   11  C21 UNL     1      -3.112   5.447  12.439  1.00  0.00     0.169 C 
HETATM   12  C22 UNL     1      -2.134   4.869  13.439  1.00  0.00     0.027 C 
HETATM   13  C23 UNL     1      -2.291   5.452  14.836  1.00  0.00     0.010 C 
HETATM   14  C24 UNL     1      -3.015   6.814  14.921  1.00  0.00     0.032 C 
HETATM   15  C25 UNL     1      -2.072   8.101  14.897  1.00  0.00    -0.033 C 
HETATM   16  C26 UNL     1      -1.182   8.144  13.635  1.00  0.00     0.016 C 
HETATM   17  C27 UNL     1      -1.084   8.036  16.124  1.00  0.00     0.011 C 
HETATM   18  C28 UNL     1      -0.494   9.378  16.622  1.00  0.00     0.011 C 
HETATM   19  C29 UNL     1      -1.584  10.446  16.833  1.00  0.00    -0.032 C 
HETATM   20  C30 UNL     1      -2.497   9.957  18.006  1.00  0.00     0.016 C 
ENDROOT
BRANCH   1  21
HETATM   21  C2  UNL     1      -0.636  12.293  18.562  1.00  0.00    -0.010 C 
HETATM   22  C1  UNL     1      -1.633  13.169  19.328  1.00  0.00     0.010 C 
BRANCH  21  23
HETATM   23  C3  UNL     1      -0.264  11.048  19.415  1.00  0.00     0.031 C 
BRANCH  23  24
HETATM   24  C4  UNL     1       1.033  11.163  20.172  1.00  0.00    -0.027 C 
HETATM   25  C5  UNL     1       1.545  10.168  20.919  1.00  0.00     0.006 C 
BRANCH  25  26
HETATM   26  C6  UNL     1       2.813  10.183  21.735  1.00  0.00     0.068 C 
HETATM   27  C7  UNL     1       2.922   9.067  22.780  1.00  0.00     0.050 C 
HETATM   28  C8  UNL     1       2.986  11.551  22.401  1.00  0.00     0.050 C 
BRANCH  26  29
HETATM   29  O1  UNL     1       3.877  10.013  20.794  1.00  0.00    -0.387 OA
HETATM   30  H15 UNL     1       4.707   9.952  21.294  1.00  0.00     0.211 HD
ENDBRANCH  26  29
ENDBRANCH  25  26
ENDBRANCH  23  24
ENDBRANCH  21  23
ENDBRANCH   1  21
BRANCH   9  31
HETATM   31  C18 UNL     1      -5.646   6.704  14.867  1.00  0.00     0.082 C 
HETATM   32  C19 UNL     1      -6.501   5.512  14.390  1.00  0.00     0.049 C 
HETATM   33  C20 UNL     1      -6.549   7.954  14.823  1.00  0.00     0.049 C 
BRANCH  31  34
HETATM   34  O2  UNL     1      -5.329   6.468  16.246  1.00  0.00    -0.388 OA
HETATM   35  H35 UNL     1      -6.165   6.387  16.735  1.00  0.00     0.210 HD
ENDBRANCH  31  34
ENDBRANCH   9  31
TORSDOF 7
ENDMDL
MODEL 7
REMARK minimizedAffinity -8.16673088
REMARK  7 active torsions:
REMARK  status: ('A' for Active; 'I' for Inactive)
REMARK    1  A    between atoms: C2_2  and  C3_3 
REMARK    2  A    between atoms: C2_2  and  C9_10 
REMARK    3  A    between atoms: C3_3  and  C4_4 
REMARK    4  A    between atoms: C5_5  and  C6_6 
REMARK    5  A    between atoms: C6_6  and  O1_9 
REMARK    6  A    between atoms: C17_18  and  C18_19 
REMARK    7  A    between atoms: C18_19  and  O2_22 
ROOT
HETATM    1  C9  UNL     1      -2.841   7.510  14.602  1.00  0.00    -0.002 C 
HETATM    2  C10 UNL     1      -2.309   7.818  16.040  1.00  0.00     0.006 C 
HETATM    3  C11 UNL     1      -0.770   7.922  15.954  1.00  0.00     0.011 C 
HETATM    4  C12 UNL     1      -0.432   7.361  14.560  1.00  0.00    -0.032 C 
HETATM    5  C13 UNL     1      -0.460   5.803  14.723  1.00  0.00     0.016 C 
HETATM    6  C14 UNL     1       0.913   7.846  13.951  1.00  0.00     0.003 C 
HETATM    7  C15 UNL     1       2.146   7.623  14.845  1.00  0.00     0.009 C 
HETATM    8  C16 UNL     1       3.474   7.617  14.097  1.00  0.00     0.042 C 
HETATM    9  C17 UNL     1       3.573   8.528  12.844  1.00  0.00     0.095 C 
HETATM   10  O3  UNL     1       4.787   8.158  12.140  1.00  0.00    -0.377 OA
HETATM   11  C21 UNL     1       4.697   6.996  11.333  1.00  0.00     0.169 C 
HETATM   12  C22 UNL     1       3.811   7.248  10.132  1.00  0.00     0.027 C 
HETATM   13  C23 UNL     1       2.671   8.215  10.422  1.00  0.00     0.010 C 
HETATM   14  C24 UNL     1       2.297   8.391  11.910  1.00  0.00     0.032 C 
HETATM   15  C25 UNL     1       1.130   7.444  12.446  1.00  0.00    -0.033 C 
HETATM   16  C26 UNL     1       1.456   5.948  12.239  1.00  0.00     0.016 C 
HETATM   17  C27 UNL     1      -0.179   7.723  11.613  1.00  0.00     0.011 C 
HETATM   18  C28 UNL     1      -1.527   7.367  12.286  1.00  0.00     0.011 C 
HETATM   19  C29 UNL     1      -1.633   7.942  13.711  1.00  0.00    -0.032 C 
HETATM   20  C30 UNL     1      -1.655   9.502  13.585  1.00  0.00     0.016 C 
ENDROOT
BRANCH   1  21
HETATM   21  C2  UNL     1      -4.250   8.125  14.359  1.00  0.00    -0.010 C 
HETATM   22  C1  UNL     1      -4.489   8.491  12.890  1.00  0.00     0.010 C 
BRANCH  21  23
HETATM   23  C3  UNL     1      -5.397   7.208  14.867  1.00  0.00     0.031 C 
BRANCH  23  24
HETATM   24  C4  UNL     1      -6.124   6.446  13.791  1.00  0.00    -0.027 C 
HETATM   25  C5  UNL     1      -6.762   5.283  14.009  1.00  0.00     0.006 C 
BRANCH  25  26
HETATM   26  C6  UNL     1      -7.493   4.426  13.006  1.00  0.00     0.068 C 
HETATM   27  C7  UNL     1      -6.593   3.568  12.110  1.00  0.00     0.050 C 
HETATM   28  C8  UNL     1      -8.415   5.300  12.151  1.00  0.00     0.050 C 
BRANCH  26  29
HETATM   29  O1  UNL     1      -8.314   3.546  13.781  1.00  0.00    -0.387 OA
HETATM   30  H15 UNL     1      -8.751   2.934  13.168  1.00  0.00     0.211 HD
ENDBRANCH  26  29
ENDBRANCH  25  26
ENDBRANCH  23  24
ENDBRANCH  21  23
ENDBRANCH   1  21
BRANCH   9  31
HETATM   31  C18 UNL     1       3.817  10.056  13.272  1.00  0.00     0.082 C 
HETATM   32  C19 UNL     1       4.826  10.765  12.344  1.00  0.00     0.049 C 
HETATM   33  C20 UNL     1       4.352  10.196  14.712  1.00  0.00     0.049 C 
BRANCH  31  34
HETATM   34  O2  UNL     1       2.593  10.801  13.207  1.00  0.00    -0.388 OA
HETATM   35  H35 UNL     1       2.783  11.712  13.487  1.00  0.00     0.210 HD
ENDBRANCH  31  34
ENDBRANCH   9  31
TORSDOF 7
ENDMDL
MODEL 8
REMARK minimizedAffinity -8.14941025
REMARK  7 active torsions:
REMARK  status: ('A' for Active; 'I' for Inactive)
REMARK    1  A    between atoms: C2_2  and  C3_3 
REMARK    2  A    between atoms: C2_2  and  C9_10 
REMARK    3  A    between atoms: C3_3  and  C4_4 
REMARK    4  A    between atoms: C5_5  and  C6_6 
REMARK    5  A    between atoms: C6_6  and  O1_9 
REMARK    6  A    between atoms: C17_18  and  C18_19 
REMARK    7  A    between atoms: C18_19  and  O2_22 
ROOT
HETATM    1  C9  UNL     1      -2.857   6.781  14.184  1.00  0.00    -0.002 C 
HETATM    2  C10 UNL     1      -2.423   7.059  15.660  1.00  0.00     0.006 C 
HETATM    3  C11 UNL     1      -0.903   7.328  15.655  1.00  0.00     0.011 C 
HETATM    4  C12 UNL     1      -0.446   6.888  14.252  1.00  0.00    -0.032 C 
HETATM    5  C13 UNL     1      -0.313   5.329  14.330  1.00  0.00     0.016 C 
HETATM    6  C14 UNL     1       0.863   7.546  13.736  1.00  0.00     0.003 C 
HETATM    7  C15 UNL     1       2.073   7.402  14.676  1.00  0.00     0.009 C 
HETATM    8  C16 UNL     1       3.426   7.580  13.994  1.00  0.00     0.042 C 
HETATM    9  C17 UNL     1       3.480   8.567  12.798  1.00  0.00     0.095 C 
HETATM   10  O3  UNL     1       4.756   8.368  12.136  1.00  0.00    -0.377 OA
HETATM   11  C21 UNL     1       4.827   7.251  11.264  1.00  0.00     0.169 C 
HETATM   12  C22 UNL     1       3.971   7.478  10.037  1.00  0.00     0.027 C 
HETATM   13  C23 UNL     1       2.722   8.302  10.321  1.00  0.00     0.010 C 
HETATM   14  C24 UNL     1       2.268   8.351  11.796  1.00  0.00     0.032 C 
HETATM   15  C25 UNL     1       1.187   7.257  12.224  1.00  0.00    -0.033 C 
HETATM   16  C26 UNL     1       1.681   5.818  11.954  1.00  0.00     0.016 C 
HETATM   17  C27 UNL     1      -0.108   7.445  11.344  1.00  0.00     0.011 C 
HETATM   18  C28 UNL     1      -1.437   6.911  11.930  1.00  0.00     0.011 C 
HETATM   19  C29 UNL     1      -1.666   7.388  13.377  1.00  0.00    -0.032 C 
HETATM   20  C30 UNL     1      -1.850   8.942  13.333  1.00  0.00     0.016 C 
ENDROOT
BRANCH   1  21
HETATM   21  C2  UNL     1      -4.312   7.257  13.905  1.00  0.00    -0.010 C 
HETATM   22  C1  UNL     1      -4.380   8.350  12.832  1.00  0.00     0.010 C 
BRANCH  21  23
HETATM   23  C3  UNL     1      -5.261   6.086  13.526  1.00  0.00     0.031 C 
BRANCH  23  24
HETATM   24  C4  UNL     1      -4.601   4.946  12.796  1.00  0.00    -0.027 C 
HETATM   25  C5  UNL     1      -5.285   3.989  12.145  1.00  0.00     0.006 C 
BRANCH  25  26
HETATM   26  C6  UNL     1      -4.732   2.795  11.409  1.00  0.00     0.068 C 
HETATM   27  C7  UNL     1      -5.647   1.565  11.391  1.00  0.00     0.050 C 
HETATM   28  C8  UNL     1      -3.359   2.425  11.976  1.00  0.00     0.050 C 
BRANCH  26  29
HETATM   29  O1  UNL     1      -4.549   3.228  10.057  1.00  0.00    -0.387 OA
HETATM   30  H15 UNL     1      -4.254   2.463   9.538  1.00  0.00     0.211 HD
ENDBRANCH  26  29
ENDBRANCH  25  26
ENDBRANCH  23  24
ENDBRANCH  21  23
ENDBRANCH   1  21
BRANCH   9  31
HETATM   31  C18 UNL     1       3.540  10.085  13.318  1.00  0.00     0.082 C 
HETATM   32  C19 UNL     1       4.545  10.935  12.514  1.00  0.00     0.049 C 
HETATM   33  C20 UNL     1       3.942  10.193  14.803  1.00  0.00     0.049 C 
BRANCH  31  34
HETATM   34  O2  UNL     1       2.258  10.715  13.186  1.00  0.00    -0.388 OA
HETATM   35  H35 UNL     1       2.335  11.623  13.524  1.00  0.00     0.210 HD
ENDBRANCH  31  34
ENDBRANCH   9  31
TORSDOF 7
ENDMDL
MODEL 9
REMARK minimizedAffinity -8.04332066
REMARK  7 active torsions:
REMARK  status: ('A' for Active; 'I' for Inactive)
REMARK    1  A    between atoms: C2_2  and  C3_3 
REMARK    2  A    between atoms: C2_2  and  C9_10 
REMARK    3  A    between atoms: C3_3  and  C4_4 
REMARK    4  A    between atoms: C5_5  and  C6_6 
REMARK    5  A    between atoms: C6_6  and  O1_9 
REMARK    6  A    between atoms: C17_18  and  C18_19 
REMARK    7  A    between atoms: C18_19  and  O2_22 
ROOT
HETATM    1  C9  UNL     1      -2.339   5.999  13.643  1.00  0.00    -0.002 C 
HETATM    2  C10 UNL     1      -2.997   5.561  14.992  1.00  0.00     0.006 C 
HETATM    3  C11 UNL     1      -2.951   6.773  15.948  1.00  0.00     0.011 C 
HETATM    4  C12 UNL     1      -1.995   7.762  15.256  1.00  0.00    -0.032 C 
HETATM    5  C13 UNL     1      -0.553   7.255  15.601  1.00  0.00     0.016 C 
HETATM    6  C14 UNL     1      -2.181   9.256  15.643  1.00  0.00     0.003 C 
HETATM    7  C15 UNL     1      -2.123   9.545  17.153  1.00  0.00     0.009 C 
HETATM    8  C16 UNL     1      -1.803  10.994  17.506  1.00  0.00     0.042 C 
HETATM    9  C17 UNL     1      -2.312  12.080  16.523  1.00  0.00     0.095 C 
HETATM   10  O3  UNL     1      -1.665  13.327  16.888  1.00  0.00    -0.377 OA
HETATM   11  C21 UNL     1      -0.332  13.483  16.428  1.00  0.00     0.169 C 
HETATM   12  C22 UNL     1      -0.304  13.649  14.924  1.00  0.00     0.027 C 
HETATM   13  C23 UNL     1      -1.400  12.866  14.214  1.00  0.00     0.010 C 
HETATM   14  C24 UNL     1      -2.017  11.696  15.011  1.00  0.00     0.032 C 
HETATM   15  C25 UNL     1      -1.355  10.265  14.763  1.00  0.00    -0.033 C 
HETATM   16  C26 UNL     1       0.159  10.267  15.070  1.00  0.00     0.016 C 
HETATM   17  C27 UNL     1      -1.490   9.895  13.237  1.00  0.00     0.011 C 
HETATM   18  C28 UNL     1      -1.445   8.391  12.874  1.00  0.00     0.011 C 
HETATM   19  C29 UNL     1      -2.405   7.557  13.742  1.00  0.00    -0.032 C 
HETATM   20  C30 UNL     1      -3.863   8.005  13.390  1.00  0.00     0.016 C 
ENDROOT
BRANCH   1  21
HETATM   21  C2  UNL     1      -2.969   5.267  12.423  1.00  0.00    -0.010 C 
HETATM   22  C1  UNL     1      -1.918   4.615  11.518  1.00  0.00     0.010 C 
BRANCH  21  23
HETATM   23  C3  UNL     1      -4.030   4.213  12.844  1.00  0.00     0.031 C 
BRANCH  23  24
HETATM   24  C4  UNL     1      -5.384   4.777  13.185  1.00  0.00    -0.027 C 
HETATM   25  C5  UNL     1      -6.539   4.253  12.737  1.00  0.00     0.006 C 
BRANCH  25  26
HETATM   26  C6  UNL     1      -7.940   4.749  12.991  1.00  0.00     0.068 C 
HETATM   27  C7  UNL     1      -8.570   5.528  11.831  1.00  0.00     0.050 C 
HETATM   28  C8  UNL     1      -7.970   5.589  14.271  1.00  0.00     0.050 C 
BRANCH  26  29
HETATM   29  O1  UNL     1      -8.728   3.575  13.214  1.00  0.00    -0.387 OA
HETATM   30  H15 UNL     1      -9.651   3.855  13.317  1.00  0.00     0.211 HD
ENDBRANCH  26  29
ENDBRANCH  25  26
ENDBRANCH  23  24
ENDBRANCH  21  23
ENDBRANCH   1  21
BRANCH   9  31
HETATM   31  C18 UNL     1      -3.875  12.367  16.754  1.00  0.00     0.082 C 
HETATM   32  C19 UNL     1      -4.267  13.804  16.352  1.00  0.00     0.049 C 
HETATM   33  C20 UNL     1      -4.307  12.174  18.222  1.00  0.00     0.049 C 
BRANCH  31  34
HETATM   34  O2  UNL     1      -4.675  11.477  15.963  1.00  0.00    -0.388 OA
HETATM   35  H35 UNL     1      -5.609  11.674  16.145  1.00  0.00     0.210 HD
ENDBRANCH  31  34
ENDBRANCH   9  31
TORSDOF 7
ENDMDL
