MODEL 1
REMARK minimizedAffinity -9.7357235
REMARK  4 active torsions:
REMARK  status: ('A' for Active; 'I' for Inactive)
REMARK    1  A    between atoms: C4_4  and  C5_5 
REMARK    2  A    between atoms: C5_5  and  C6_7 
REMARK    3  A    between atoms: C6_7  and  C7_8 
REMARK    4  A    between atoms: C7_8  and  C9_10 
ROOT
HETATM    1  C9  UNL     1      -1.194  50.414 -22.535  1.00  0.00    -0.001 C 
HETATM    2  C10 UNL     1      -1.388  50.360 -20.989  1.00  0.00     0.007 C 
HETATM    3  C11 UNL     1      -2.742  49.669 -20.717  1.00  0.00     0.015 C 
HETATM    4  C12 UNL     1      -3.147  49.064 -22.073  1.00  0.00    -0.013 C 
HETATM    5  C13 UNL     1      -2.366  47.704 -22.188  1.00  0.00     0.021 C 
HETATM    6  C14 UNL     1      -4.615  48.703 -22.310  1.00  0.00    -0.070 C 
HETATM    7  C15 UNL     1      -5.331  48.079 -21.356  1.00  0.00    -0.022 C 
HETATM    8  C16 UNL     1      -6.617  47.361 -21.622  1.00  0.00     0.034 C 
HETATM    9  C17 UNL     1      -6.701  46.925 -23.103  1.00  0.00     0.013 C 
HETATM   10  C18 UNL     1      -7.885  45.934 -23.399  1.00  0.00     0.018 C 
HETATM   11  C19 UNL     1      -7.584  44.574 -22.714  1.00  0.00     0.023 C 
HETATM   12  C20 UNL     1      -9.270  46.385 -22.906  1.00  0.00     0.023 C 
HETATM   13  C21 UNL     1      -7.979  45.692 -24.913  1.00  0.00     0.135 C 
HETATM   14  O2  UNL     1      -8.200  44.577 -25.392  1.00  0.00    -0.297 OA
HETATM   15  C22 UNL     1      -7.890  46.895 -25.820  1.00  0.00     0.080 C 
HETATM   16  C23 UNL     1      -6.634  47.694 -25.513  1.00  0.00     0.017 C 
HETATM   17  C24 UNL     1      -6.544  48.172 -24.043  1.00  0.00    -0.031 C 
HETATM   18  C25 UNL     1      -7.654  49.238 -23.810  1.00  0.00     0.016 C 
HETATM   19  C26 UNL     1      -5.159  48.916 -23.733  1.00  0.00     0.024 C 
HETATM   20  C27 UNL     1      -4.027  48.764 -24.777  1.00  0.00     0.010 C 
HETATM   21  C28 UNL     1      -2.770  49.639 -24.507  1.00  0.00     0.011 C 
HETATM   22  C29 UNL     1      -2.649  50.178 -23.061  1.00  0.00    -0.029 C 
HETATM   23  C30 UNL     1      -3.418  51.532 -22.935  1.00  0.00     0.016 C 
ENDROOT
BRANCH   1  24
HETATM   24  C7  UNL     1      -0.395  51.670 -22.986  1.00  0.00    -0.007 C 
HETATM   25  C8  UNL     1       0.178  52.464 -21.808  1.00  0.00     0.011 C 
BRANCH  24  26
HETATM   26  C6  UNL     1      -1.214  52.612 -23.901  1.00  0.00     0.087 C 
BRANCH  26  27
HETATM   27  C5  UNL     1      -0.745  52.648 -25.347  1.00  0.00     0.149 C 
HETATM   28  O1  UNL     1      -1.507  52.923 -26.272  1.00  0.00    -0.293 OA
BRANCH  27  29
HETATM   29  C4  UNL     1       0.690  52.313 -25.600  1.00  0.00     0.052 C 
HETATM   30  C2  UNL     1       1.191  51.905 -26.780  1.00  0.00    -0.084 C 
HETATM   31  C1  UNL     1       0.402  51.777 -28.054  1.00  0.00     0.043 C 
HETATM   32  C3  UNL     1       2.645  51.533 -26.903  1.00  0.00     0.043 C 
ENDBRANCH  27  29
ENDBRANCH  26  27
ENDBRANCH  24  26
ENDBRANCH   1  24
TORSDOF 4
ENDMDL
MODEL 2
REMARK minimizedAffinity -9.43960381
REMARK  4 active torsions:
REMARK  status: ('A' for Active; 'I' for Inactive)
REMARK    1  A    between atoms: C4_4  and  C5_5 
REMARK    2  A    between atoms: C5_5  and  C6_7 
REMARK    3  A    between atoms: C6_7  and  C7_8 
REMARK    4  A    between atoms: C7_8  and  C9_10 
ROOT
HETATM    1  C9  UNL     1      -1.388  48.957 -18.085  1.00  0.00    -0.001 C 
HETATM    2  C10 UNL     1      -2.745  48.192 -18.149  1.00  0.00     0.007 C 
HETATM    3  C11 UNL     1      -3.331  48.406 -19.562  1.00  0.00     0.015 C 
HETATM    4  C12 UNL     1      -2.173  49.014 -20.373  1.00  0.00    -0.013 C 
HETATM    5  C13 UNL     1      -1.280  47.801 -20.823  1.00  0.00     0.021 C 
HETATM    6  C14 UNL     1      -2.495  49.772 -21.663  1.00  0.00    -0.070 C 
HETATM    7  C15 UNL     1      -3.394  49.286 -22.539  1.00  0.00    -0.022 C 
HETATM    8  C16 UNL     1      -3.492  49.738 -23.962  1.00  0.00     0.034 C 
HETATM    9  C17 UNL     1      -2.147  50.332 -24.438  1.00  0.00     0.013 C 
HETATM   10  C18 UNL     1      -2.084  50.577 -25.990  1.00  0.00     0.018 C 
HETATM   11  C19 UNL     1      -2.066  49.204 -26.714  1.00  0.00     0.023 C 
HETATM   12  C20 UNL     1      -3.251  51.381 -26.586  1.00  0.00     0.023 C 
HETATM   13  C21 UNL     1      -0.779  51.311 -26.336  1.00  0.00     0.135 C 
HETATM   14  O2  UNL     1      -0.101  51.024 -27.326  1.00  0.00    -0.297 OA
HETATM   15  C22 UNL     1      -0.387  52.485 -25.472  1.00  0.00     0.080 C 
HETATM   16  C23 UNL     1      -0.364  52.077 -24.009  1.00  0.00     0.017 C 
HETATM   17  C24 UNL     1      -1.712  51.512 -23.498  1.00  0.00    -0.031 C 
HETATM   18  C25 UNL     1      -2.749  52.672 -23.479  1.00  0.00     0.016 C 
HETATM   19  C26 UNL     1      -1.616  50.993 -21.985  1.00  0.00     0.024 C 
HETATM   20  C27 UNL     1      -0.200  50.818 -21.387  1.00  0.00     0.010 C 
HETATM   21  C28 UNL     1      -0.170  50.475 -19.870  1.00  0.00     0.011 C 
HETATM   22  C29 UNL     1      -1.505  49.942 -19.296  1.00  0.00    -0.029 C 
HETATM   23  C30 UNL     1      -2.401  51.139 -18.843  1.00  0.00     0.016 C 
ENDROOT
BRANCH   1  24
HETATM   24  C7  UNL     1      -1.085  49.504 -16.661  1.00  0.00    -0.007 C 
HETATM   25  C8  UNL     1      -1.953  50.711 -16.291  1.00  0.00     0.011 C 
BRANCH  24  26
HETATM   26  C6  UNL     1       0.409  49.852 -16.453  1.00  0.00     0.087 C 
BRANCH  26  27
HETATM   27  C5  UNL     1       0.652  51.131 -15.667  1.00  0.00     0.149 C 
HETATM   28  O1  UNL     1      -0.027  51.432 -14.687  1.00  0.00    -0.293 OA
BRANCH  27  29
HETATM   29  C4  UNL     1       1.747  52.025 -16.153  1.00  0.00     0.052 C 
HETATM   30  C2  UNL     1       2.995  52.060 -15.652  1.00  0.00    -0.084 C 
HETATM   31  C1  UNL     1       3.511  51.164 -14.560  1.00  0.00     0.043 C 
HETATM   32  C3  UNL     1       4.001  53.049 -16.180  1.00  0.00     0.043 C 
ENDBRANCH  27  29
ENDBRANCH  26  27
ENDBRANCH  24  26
ENDBRANCH   1  24
TORSDOF 4
ENDMDL
MODEL 3
REMARK minimizedAffinity -9.33682632
REMARK  4 active torsions:
REMARK  status: ('A' for Active; 'I' for Inactive)
REMARK    1  A    between atoms: C4_4  and  C5_5 
REMARK    2  A    between atoms: C5_5  and  C6_7 
REMARK    3  A    between atoms: C6_7  and  C7_8 
REMARK    4  A    between atoms: C7_8  and  C9_10 
ROOT
HETATM    1  C9  UNL     1      -0.418  50.434 -21.945  1.00  0.00    -0.001 C 
HETATM    2  C10 UNL     1      -0.313  50.240 -20.402  1.00  0.00     0.007 C 
HETATM    3  C11 UNL     1      -1.585  49.493 -19.941  1.00  0.00     0.015 C 
HETATM    4  C12 UNL     1      -2.236  49.000 -21.245  1.00  0.00    -0.013 C 
HETATM    5  C13 UNL     1      -1.481  47.675 -21.629  1.00  0.00     0.021 C 
HETATM    6  C14 UNL     1      -3.720  48.624 -21.231  1.00  0.00    -0.070 C 
HETATM    7  C15 UNL     1      -4.235  47.901 -20.219  1.00  0.00    -0.022 C 
HETATM    8  C16 UNL     1      -5.542  47.177 -20.301  1.00  0.00     0.034 C 
HETATM    9  C17 UNL     1      -5.905  46.871 -21.771  1.00  0.00     0.013 C 
HETATM   10  C18 UNL     1      -7.116  45.880 -21.926  1.00  0.00     0.018 C 
HETATM   11  C19 UNL     1      -6.679  44.474 -21.437  1.00  0.00     0.023 C 
HETATM   12  C20 UNL     1      -8.384  46.251 -21.141  1.00  0.00     0.023 C 
HETATM   13  C21 UNL     1      -7.495  45.769 -23.411  1.00  0.00     0.135 C 
HETATM   14  O2  UNL     1      -7.795  44.695 -23.938  1.00  0.00    -0.297 OA
HETATM   15  C22 UNL     1      -7.591  47.048 -24.206  1.00  0.00     0.080 C 
HETATM   16  C23 UNL     1      -6.306  47.849 -24.071  1.00  0.00     0.017 C 
HETATM   17  C24 UNL     1      -5.940  48.199 -22.608  1.00  0.00    -0.031 C 
HETATM   18  C25 UNL     1      -6.993  49.212 -22.073  1.00  0.00     0.016 C 
HETATM   19  C26 UNL     1      -4.527  48.947 -22.500  1.00  0.00     0.024 C 
HETATM   20  C27 UNL     1      -3.615  48.915 -23.749  1.00  0.00     0.010 C 
HETATM   21  C28 UNL     1      -2.336  49.795 -23.644  1.00  0.00     0.011 C 
HETATM   22  C29 UNL     1      -1.945  50.208 -22.205  1.00  0.00    -0.029 C 
HETATM   23  C30 UNL     1      -2.687  51.526 -21.814  1.00  0.00     0.016 C 
ENDROOT
BRANCH   1  24
HETATM   24  C7  UNL     1       0.270  51.744 -22.425  1.00  0.00    -0.007 C 
HETATM   25  C8  UNL     1       0.529  52.730 -21.282  1.00  0.00     0.011 C 
BRANCH  24  26
HETATM   26  C6  UNL     1      -0.505  52.453 -23.561  1.00  0.00     0.087 C 
BRANCH  26  27
HETATM   27  C5  UNL     1       0.379  53.102 -24.614  1.00  0.00     0.149 C 
HETATM   28  O1  UNL     1       1.235  53.934 -24.322  1.00  0.00    -0.293 OA
BRANCH  27  29
HETATM   29  C4  UNL     1       0.149  52.696 -26.034  1.00  0.00     0.052 C 
HETATM   30  C2  UNL     1       0.957  51.891 -26.748  1.00  0.00    -0.084 C 
HETATM   31  C1  UNL     1       2.194  51.221 -26.217  1.00  0.00     0.043 C 
HETATM   32  C3  UNL     1       0.657  51.600 -28.195  1.00  0.00     0.043 C 
ENDBRANCH  27  29
ENDBRANCH  26  27
ENDBRANCH  24  26
ENDBRANCH   1  24
TORSDOF 4
ENDMDL
MODEL 4
REMARK minimizedAffinity -9.04587078
REMARK  4 active torsions:
REMARK  status: ('A' for Active; 'I' for Inactive)
REMARK    1  A    between atoms: C4_4  and  C5_5 
REMARK    2  A    between atoms: C5_5  and  C6_7 
REMARK    3  A    between atoms: C6_7  and  C7_8 
REMARK    4  A    between atoms: C7_8  and  C9_10 
ROOT
HETATM    1  C9  UNL     1      -1.028  52.504 -24.251  1.00  0.00    -0.001 C 
HETATM    2  C10 UNL     1      -0.225  51.628 -25.259  1.00  0.00     0.007 C 
HETATM    3  C11 UNL     1      -1.133  50.449 -25.674  1.00  0.00     0.015 C 
HETATM    4  C12 UNL     1      -2.528  50.834 -25.152  1.00  0.00    -0.013 C 
HETATM    5  C13 UNL     1      -3.137  51.806 -26.227  1.00  0.00     0.021 C 
HETATM    6  C14 UNL     1      -3.576  49.733 -24.970  1.00  0.00    -0.070 C 
HETATM    7  C15 UNL     1      -3.740  48.780 -25.905  1.00  0.00    -0.022 C 
HETATM    8  C16 UNL     1      -4.957  47.915 -26.002  1.00  0.00     0.034 C 
HETATM    9  C17 UNL     1      -6.170  48.605 -25.338  1.00  0.00     0.013 C 
HETATM   10  C18 UNL     1      -7.539  47.890 -25.635  1.00  0.00     0.018 C 
HETATM   11  C19 UNL     1      -7.886  48.075 -27.136  1.00  0.00     0.023 C 
HETATM   12  C20 UNL     1      -7.577  46.379 -25.351  1.00  0.00     0.023 C 
HETATM   13  C21 UNL     1      -8.649  48.554 -24.806  1.00  0.00     0.135 C 
HETATM   14  O2  UNL     1      -9.771  48.782 -25.265  1.00  0.00    -0.297 OA
HETATM   15  C22 UNL     1      -8.361  48.839 -23.352  1.00  0.00     0.080 C 
HETATM   16  C23 UNL     1      -7.080  49.644 -23.217  1.00  0.00     0.017 C 
HETATM   17  C24 UNL     1      -5.842  48.956 -23.844  1.00  0.00    -0.031 C 
HETATM   18  C25 UNL     1      -5.506  47.696 -22.995  1.00  0.00     0.016 C 
HETATM   19  C26 UNL     1      -4.537  49.883 -23.778  1.00  0.00     0.024 C 
HETATM   20  C27 UNL     1      -4.748  51.376 -23.433  1.00  0.00     0.010 C 
HETATM   21  C28 UNL     1      -3.438  52.188 -23.219  1.00  0.00     0.011 C 
HETATM   22  C29 UNL     1      -2.161  51.527 -23.791  1.00  0.00    -0.029 C 
HETATM   23  C30 UNL     1      -1.545  50.561 -22.730  1.00  0.00     0.016 C 
ENDROOT
BRANCH   1  24
HETATM   24  C7  UNL     1      -0.109  53.185 -23.196  1.00  0.00    -0.007 C 
HETATM   25  C8  UNL     1       1.013  54.011 -23.833  1.00  0.00     0.011 C 
BRANCH  24  26
HETATM   26  C6  UNL     1       0.491  52.183 -22.181  1.00  0.00     0.087 C 
BRANCH  26  27
HETATM   27  C5  UNL     1       0.443  52.651 -20.735  1.00  0.00     0.149 C 
HETATM   28  O1  UNL     1       0.940  53.718 -20.380  1.00  0.00    -0.293 OA
BRANCH  27  29
HETATM   29  C4  UNL     1      -0.221  51.742 -19.752  1.00  0.00     0.052 C 
HETATM   30  C2  UNL     1       0.106  51.640 -18.450  1.00  0.00    -0.084 C 
HETATM   31  C1  UNL     1       1.154  52.468 -17.757  1.00  0.00     0.043 C 
HETATM   32  C3  UNL     1      -0.591  50.641 -17.565  1.00  0.00     0.043 C 
ENDBRANCH  27  29
ENDBRANCH  26  27
ENDBRANCH  24  26
ENDBRANCH   1  24
TORSDOF 4
ENDMDL
MODEL 5
REMARK minimizedAffinity -9.03593254
REMARK  4 active torsions:
REMARK  status: ('A' for Active; 'I' for Inactive)
REMARK    1  A    between atoms: C4_4  and  C5_5 
REMARK    2  A    between atoms: C5_5  and  C6_7 
REMARK    3  A    between atoms: C6_7  and  C7_8 
REMARK    4  A    between atoms: C7_8  and  C9_10 
ROOT
HETATM    1  C9  UNL     1      -0.958  51.029 -22.670  1.00  0.00    -0.001 C 
HETATM    2  C10 UNL     1      -0.647  52.556 -22.708  1.00  0.00     0.007 C 
HETATM    3  C11 UNL     1      -0.239  52.981 -21.280  1.00  0.00     0.015 C 
HETATM    4  C12 UNL     1      -0.018  51.655 -20.531  1.00  0.00    -0.013 C 
HETATM    5  C13 UNL     1       1.433  51.184 -20.909  1.00  0.00     0.021 C 
HETATM    6  C14 UNL     1      -0.050  51.660 -19.001  1.00  0.00    -0.070 C 
HETATM    7  C15 UNL     1       0.571  52.630 -18.303  1.00  0.00    -0.022 C 
HETATM    8  C16 UNL     1       0.915  52.516 -16.852  1.00  0.00     0.034 C 
HETATM    9  C17 UNL     1       1.021  51.032 -16.432  1.00  0.00     0.013 C 
HETATM   10  C18 UNL     1       1.643  50.828 -15.003  1.00  0.00     0.018 C 
HETATM   11  C19 UNL     1       3.143  51.224 -15.046  1.00  0.00     0.023 C 
HETATM   12  C20 UNL     1       0.997  51.646 -13.872  1.00  0.00     0.023 C 
HETATM   13  C21 UNL     1       1.556  49.343 -14.618  1.00  0.00     0.135 C 
HETATM   14  O2  UNL     1       2.477  48.752 -14.048  1.00  0.00    -0.297 OA
HETATM   15  C22 UNL     1       0.251  48.629 -14.873  1.00  0.00     0.080 C 
HETATM   16  C23 UNL     1      -0.169  48.801 -16.323  1.00  0.00     0.017 C 
HETATM   17  C24 UNL     1      -0.318  50.280 -16.757  1.00  0.00    -0.031 C 
HETATM   18  C25 UNL     1      -1.539  50.887 -16.008  1.00  0.00     0.016 C 
HETATM   19  C26 UNL     1      -0.655  50.421 -18.318  1.00  0.00     0.024 C 
HETATM   20  C27 UNL     1      -0.460  49.164 -19.198  1.00  0.00     0.010 C 
HETATM   21  C28 UNL     1      -0.959  49.311 -20.664  1.00  0.00     0.011 C 
HETATM   22  C29 UNL     1      -1.163  50.769 -21.140  1.00  0.00    -0.029 C 
HETATM   23  C30 UNL     1      -2.603  51.249 -20.772  1.00  0.00     0.016 C 
ENDROOT
BRANCH   1  24
HETATM   24  C7  UNL     1      -2.065  50.625 -23.685  1.00  0.00    -0.007 C 
HETATM   25  C8  UNL     1      -2.781  49.328 -23.297  1.00  0.00     0.011 C 
BRANCH  24  26
HETATM   26  C6  UNL     1      -1.544  50.519 -25.139  1.00  0.00     0.087 C 
BRANCH  26  27
HETATM   27  C5  UNL     1      -0.911  51.794 -25.673  1.00  0.00     0.149 C 
HETATM   28  O1  UNL     1      -1.581  52.788 -25.946  1.00  0.00    -0.293 OA
BRANCH  27  29
HETATM   29  C4  UNL     1       0.571  51.781 -25.872  1.00  0.00     0.052 C 
HETATM   30  C2  UNL     1       1.189  51.738 -27.067  1.00  0.00    -0.084 C 
HETATM   31  C1  UNL     1       0.492  51.756 -28.399  1.00  0.00     0.043 C 
HETATM   32  C3  UNL     1       2.691  51.664 -27.145  1.00  0.00     0.043 C 
ENDBRANCH  27  29
ENDBRANCH  26  27
ENDBRANCH  24  26
ENDBRANCH   1  24
TORSDOF 4
ENDMDL
MODEL 6
REMARK minimizedAffinity -9.03189468
REMARK  4 active torsions:
REMARK  status: ('A' for Active; 'I' for Inactive)
REMARK    1  A    between atoms: C4_4  and  C5_5 
REMARK    2  A    between atoms: C5_5  and  C6_7 
REMARK    3  A    between atoms: C6_7  and  C7_8 
REMARK    4  A    between atoms: C7_8  and  C9_10 
ROOT
HETATM    1  C9  UNL     1      -1.164  50.898 -23.412  1.00  0.00    -0.001 C 
HETATM    2  C10 UNL     1      -0.850  52.423 -23.501  1.00  0.00     0.007 C 
HETATM    3  C11 UNL     1      -0.498  52.907 -22.076  1.00  0.00     0.015 C 
HETATM    4  C12 UNL     1      -0.310  51.613 -21.265  1.00  0.00    -0.013 C 
HETATM    5  C13 UNL     1       1.154  51.126 -21.564  1.00  0.00     0.021 C 
HETATM    6  C14 UNL     1      -0.403  51.681 -19.739  1.00  0.00    -0.070 C 
HETATM    7  C15 UNL     1       0.191  52.678 -19.058  1.00  0.00    -0.022 C 
HETATM    8  C16 UNL     1       0.476  52.624 -17.590  1.00  0.00     0.034 C 
HETATM    9  C17 UNL     1       0.563  51.160 -17.105  1.00  0.00     0.013 C 
HETATM   10  C18 UNL     1       1.127  51.015 -15.645  1.00  0.00     0.018 C 
HETATM   11  C19 UNL     1       2.628  51.409 -15.645  1.00  0.00     0.023 C 
HETATM   12  C20 UNL     1       0.438  51.879 -14.576  1.00  0.00     0.023 C 
HETATM   13  C21 UNL     1       1.023  49.546 -15.203  1.00  0.00     0.135 C 
HETATM   14  O2  UNL     1       1.919  48.980 -14.573  1.00  0.00    -0.297 OA
HETATM   15  C22 UNL     1      -0.273  48.823 -15.480  1.00  0.00     0.080 C 
HETATM   16  C23 UNL     1      -0.634  48.935 -16.952  1.00  0.00     0.017 C 
HETATM   17  C24 UNL     1      -0.763  50.394 -17.453  1.00  0.00    -0.031 C 
HETATM   18  C25 UNL     1      -2.012  51.031 -16.778  1.00  0.00     0.016 C 
HETATM   19  C26 UNL     1      -1.037  50.471 -19.030  1.00  0.00     0.024 C 
HETATM   20  C27 UNL     1      -0.808  49.179 -19.849  1.00  0.00     0.010 C 
HETATM   21  C28 UNL     1      -1.248  49.265 -21.339  1.00  0.00     0.011 C 
HETATM   22  C29 UNL     1      -1.431  50.703 -21.882  1.00  0.00    -0.029 C 
HETATM   23  C30 UNL     1      -2.884  51.197 -21.593  1.00  0.00     0.016 C 
ENDROOT
BRANCH   1  24
HETATM   24  C7  UNL     1      -2.230  50.453 -24.454  1.00  0.00    -0.007 C 
HETATM   25  C8  UNL     1      -3.468  51.356 -24.459  1.00  0.00     0.011 C 
BRANCH  24  26
HETATM   26  C6  UNL     1      -2.662  48.977 -24.284  1.00  0.00     0.087 C 
BRANCH  26  27
HETATM   27  C5  UNL     1      -4.165  48.771 -24.174  1.00  0.00     0.149 C 
HETATM   28  O1  UNL     1      -4.755  48.852 -23.098  1.00  0.00    -0.293 OA
BRANCH  27  29
HETATM   29  C4  UNL     1      -4.896  48.444 -25.435  1.00  0.00     0.052 C 
HETATM   30  C2  UNL     1      -4.329  48.332 -26.650  1.00  0.00    -0.084 C 
HETATM   31  C1  UNL     1      -2.856  48.458 -26.929  1.00  0.00     0.043 C 
HETATM   32  C3  UNL     1      -5.176  48.060 -27.865  1.00  0.00     0.043 C 
ENDBRANCH  27  29
ENDBRANCH  26  27
ENDBRANCH  24  26
ENDBRANCH   1  24
TORSDOF 4
ENDMDL
MODEL 7
REMARK minimizedAffinity -8.96623135
REMARK  4 active torsions:
REMARK  status: ('A' for Active; 'I' for Inactive)
REMARK    1  A    between atoms: C4_4  and  C5_5 
REMARK    2  A    between atoms: C5_5  and  C6_7 
REMARK    3  A    between atoms: C6_7  and  C7_8 
REMARK    4  A    between atoms: C7_8  and  C9_10 
ROOT
HETATM    1  C9  UNL     1      -2.306  50.794 -23.976  1.00  0.00    -0.001 C 
HETATM    2  C10 UNL     1      -2.396  50.990 -22.432  1.00  0.00     0.007 C 
HETATM    3  C11 UNL     1      -3.602  50.164 -21.930  1.00  0.00     0.015 C 
HETATM    4  C12 UNL     1      -3.984  49.273 -23.125  1.00  0.00    -0.013 C 
HETATM    5  C13 UNL     1      -3.002  48.046 -23.078  1.00  0.00     0.021 C 
HETATM    6  C14 UNL     1      -5.385  48.661 -23.169  1.00  0.00    -0.070 C 
HETATM    7  C15 UNL     1      -5.933  48.118 -22.065  1.00  0.00    -0.022 C 
HETATM    8  C16 UNL     1      -7.098  47.181 -22.093  1.00  0.00     0.034 C 
HETATM    9  C17 UNL     1      -7.200  46.480 -23.467  1.00  0.00     0.013 C 
HETATM   10  C18 UNL     1      -8.224  45.287 -23.488  1.00  0.00     0.018 C 
HETATM   11  C19 UNL     1      -7.666  44.131 -22.615  1.00  0.00     0.023 C 
HETATM   12  C20 UNL     1      -9.631  45.607 -22.959  1.00  0.00     0.023 C 
HETATM   13  C21 UNL     1      -8.368  44.766 -24.926  1.00  0.00     0.135 C 
HETATM   14  O2  UNL     1      -8.434  43.563 -25.191  1.00  0.00    -0.297 OA
HETATM   15  C22 UNL     1      -8.529  45.786 -26.027  1.00  0.00     0.080 C 
HETATM   16  C23 UNL     1      -7.404  46.806 -25.969  1.00  0.00     0.017 C 
HETATM   17  C24 UNL     1      -7.304  47.548 -24.613  1.00  0.00    -0.031 C 
HETATM   18  C25 UNL     1      -8.556  48.461 -24.465  1.00  0.00     0.016 C 
HETATM   19  C26 UNL     1      -6.041  48.532 -24.554  1.00  0.00     0.024 C 
HETATM   20  C27 UNL     1      -4.965  48.366 -25.653  1.00  0.00     0.010 C 
HETATM   21  C28 UNL     1      -3.852  49.453 -25.644  1.00  0.00     0.011 C 
HETATM   22  C29 UNL     1      -3.733  50.254 -24.326  1.00  0.00    -0.029 C 
HETATM   23  C30 UNL     1      -4.703  51.478 -24.361  1.00  0.00     0.016 C 
ENDROOT
BRANCH   1  24
HETATM   24  C7  UNL     1      -1.750  52.054 -24.699  1.00  0.00    -0.007 C 
HETATM   25  C8  UNL     1      -2.439  52.321 -26.041  1.00  0.00     0.011 C 
BRANCH  24  26
HETATM   26  C6  UNL     1      -0.216  52.008 -24.901  1.00  0.00     0.087 C 
BRANCH  26  27
HETATM   27  C5  UNL     1       0.566  52.932 -23.981  1.00  0.00     0.149 C 
HETATM   28  O1  UNL     1       1.198  53.895 -24.410  1.00  0.00    -0.293 OA
BRANCH  27  29
HETATM   29  C4  UNL     1       0.550  52.605 -22.522  1.00  0.00     0.052 C 
HETATM   30  C2  UNL     1       1.065  53.382 -21.551  1.00  0.00    -0.084 C 
HETATM   31  C1  UNL     1       1.687  54.734 -21.768  1.00  0.00     0.043 C 
HETATM   32  C3  UNL     1       1.048  52.921 -20.118  1.00  0.00     0.043 C 
ENDBRANCH  27  29
ENDBRANCH  26  27
ENDBRANCH  24  26
ENDBRANCH   1  24
TORSDOF 4
ENDMDL
MODEL 8
REMARK minimizedAffinity -8.93296719
REMARK  4 active torsions:
REMARK  status: ('A' for Active; 'I' for Inactive)
REMARK    1  A    between atoms: C4_4  and  C5_5 
REMARK    2  A    between atoms: C5_5  and  C6_7 
REMARK    3  A    between atoms: C6_7  and  C7_8 
REMARK    4  A    between atoms: C7_8  and  C9_10 
ROOT
HETATM    1  C9  UNL     1      -2.681  47.531 -19.116  1.00  0.00    -0.001 C 
HETATM    2  C10 UNL     1      -3.708  46.725 -19.968  1.00  0.00     0.007 C 
HETATM    3  C11 UNL     1      -3.721  47.343 -21.384  1.00  0.00     0.015 C 
HETATM    4  C12 UNL     1      -2.494  48.271 -21.411  1.00  0.00    -0.013 C 
HETATM    5  C13 UNL     1      -1.262  47.346 -21.722  1.00  0.00     0.021 C 
HETATM    6  C14 UNL     1      -2.435  49.382 -22.462  1.00  0.00    -0.070 C 
HETATM    7  C15 UNL     1      -2.791  49.141 -23.738  1.00  0.00    -0.022 C 
HETATM    8  C16 UNL     1      -2.414  50.024 -24.885  1.00  0.00     0.034 C 
HETATM    9  C17 UNL     1      -1.149  50.845 -24.547  1.00  0.00     0.013 C 
HETATM   10  C18 UNL     1      -0.533  51.587 -25.789  1.00  0.00     0.018 C 
HETATM   11  C19 UNL     1       0.057  50.533 -26.762  1.00  0.00     0.023 C 
HETATM   12  C20 UNL     1      -1.513  52.448 -26.603  1.00  0.00     0.023 C 
HETATM   13  C21 UNL     1       0.615  52.495 -25.320  1.00  0.00     0.135 C 
HETATM   14  O2  UNL     1       1.672  52.601 -25.947  1.00  0.00    -0.297 OA
HETATM   15  C22 UNL     1       0.378  53.348 -24.098  1.00  0.00     0.080 C 
HETATM   16  C23 UNL     1      -0.092  52.487 -22.937  1.00  0.00     0.017 C 
HETATM   17  C24 UNL     1      -1.379  51.682 -23.239  1.00  0.00    -0.031 C 
HETATM   18  C25 UNL     1      -2.560  52.687 -23.376  1.00  0.00     0.016 C 
HETATM   19  C26 UNL     1      -1.779  50.706 -22.033  1.00  0.00     0.024 C 
HETATM   20  C27 UNL     1      -0.711  50.457 -20.943  1.00  0.00     0.010 C 
HETATM   21  C28 UNL     1      -1.209  49.640 -19.716  1.00  0.00     0.011 C 
HETATM   22  C29 UNL     1      -2.517  48.846 -19.950  1.00  0.00    -0.029 C 
HETATM   23  C30 UNL     1      -3.749  49.754 -19.641  1.00  0.00     0.016 C 
ENDROOT
BRANCH   1  24
HETATM   24  C7  UNL     1      -3.085  47.604 -17.616  1.00  0.00    -0.007 C 
HETATM   25  C8  UNL     1      -4.603  47.574 -17.408  1.00  0.00     0.011 C 
BRANCH  24  26
HETATM   26  C6  UNL     1      -2.482  48.828 -16.885  1.00  0.00     0.087 C 
BRANCH  26  27
HETATM   27  C5  UNL     1      -1.178  48.546 -16.157  1.00  0.00     0.149 C 
HETATM   28  O1  UNL     1      -1.084  47.657 -15.313  1.00  0.00    -0.293 OA
BRANCH  27  29
HETATM   29  C4  UNL     1      -0.010  49.413 -16.500  1.00  0.00     0.052 C 
HETATM   30  C2  UNL     1       0.290  50.578 -15.897  1.00  0.00    -0.084 C 
HETATM   31  C1  UNL     1      -0.464  51.168 -14.738  1.00  0.00     0.043 C 
HETATM   32  C3  UNL     1       1.459  51.402 -16.370  1.00  0.00     0.043 C 
ENDBRANCH  27  29
ENDBRANCH  26  27
ENDBRANCH  24  26
ENDBRANCH   1  24
TORSDOF 4
ENDMDL
MODEL 9
REMARK minimizedAffinity -8.87001801
REMARK  4 active torsions:
REMARK  status: ('A' for Active; 'I' for Inactive)
REMARK    1  A    between atoms: C4_4  and  C5_5 
REMARK    2  A    between atoms: C5_5  and  C6_7 
REMARK    3  A    between atoms: C6_7  and  C7_8 
REMARK    4  A    between atoms: C7_8  and  C9_10 
ROOT
HETATM    1  C9  UNL     1      -1.557  51.508 -22.221  1.00  0.00    -0.001 C 
HETATM    2  C10 UNL     1      -2.681  50.434 -22.336  1.00  0.00     0.007 C 
HETATM    3  C11 UNL     1      -2.911  49.851 -20.924  1.00  0.00     0.015 C 
HETATM    4  C12 UNL     1      -2.153  50.805 -19.985  1.00  0.00    -0.013 C 
HETATM    5  C13 UNL     1      -3.115  52.025 -19.742  1.00  0.00     0.021 C 
HETATM    6  C14 UNL     1      -1.772  50.313 -18.586  1.00  0.00    -0.070 C 
HETATM    7  C15 UNL     1      -2.651  49.619 -17.839  1.00  0.00    -0.022 C 
HETATM    8  C16 UNL     1      -2.516  49.434 -16.361  1.00  0.00     0.034 C 
HETATM    9  C17 UNL     1      -1.656  50.561 -15.746  1.00  0.00     0.013 C 
HETATM   10  C18 UNL     1      -1.693  50.594 -14.175  1.00  0.00     0.018 C 
HETATM   11  C19 UNL     1      -3.110  51.030 -13.716  1.00  0.00     0.023 C 
HETATM   12  C20 UNL     1      -1.387  49.260 -13.473  1.00  0.00     0.023 C 
HETATM   13  C21 UNL     1      -0.688  51.637 -13.664  1.00  0.00     0.135 C 
HETATM   14  O2  UNL     1      -0.942  52.397 -12.726  1.00  0.00    -0.297 OA
HETATM   15  C22 UNL     1       0.687  51.647 -14.286  1.00  0.00     0.080 C 
HETATM   16  C23 UNL     1       0.580  51.747 -15.799  1.00  0.00     0.017 C 
HETATM   17  C24 UNL     1      -0.248  50.607 -16.441  1.00  0.00    -0.031 C 
HETATM   18  C25 UNL     1       0.542  49.277 -16.275  1.00  0.00     0.016 C 
HETATM   19  C26 UNL     1      -0.429  50.807 -18.021  1.00  0.00     0.024 C 
HETATM   20  C27 UNL     1      -0.072  52.196 -18.602  1.00  0.00     0.010 C 
HETATM   21  C28 UNL     1      -0.106  52.281 -20.155  1.00  0.00     0.011 C 
HETATM   22  C29 UNL     1      -0.889  51.144 -20.853  1.00  0.00    -0.029 C 
HETATM   23  C30 UNL     1       0.058  49.926 -21.102  1.00  0.00     0.016 C 
ENDROOT
BRANCH   1  24
HETATM   24  C7  UNL     1      -0.693  51.599 -23.512  1.00  0.00    -0.007 C 
HETATM   25  C8  UNL     1       0.226  52.825 -23.524  1.00  0.00     0.011 C 
BRANCH  24  26
HETATM   26  C6  UNL     1      -1.537  51.566 -24.808  1.00  0.00     0.087 C 
BRANCH  26  27
HETATM   27  C5  UNL     1      -0.972  50.673 -25.902  1.00  0.00     0.149 C 
HETATM   28  O1  UNL     1      -1.673  49.866 -26.510  1.00  0.00    -0.293 OA
BRANCH  27  29
HETATM   29  C4  UNL     1       0.487  50.806 -26.196  1.00  0.00     0.052 C 
HETATM   30  C2  UNL     1       1.022  51.672 -27.076  1.00  0.00    -0.084 C 
HETATM   31  C1  UNL     1       0.245  52.690 -27.865  1.00  0.00     0.043 C 
HETATM   32  C3  UNL     1       2.505  51.674 -27.339  1.00  0.00     0.043 C 
ENDBRANCH  27  29
ENDBRANCH  26  27
ENDBRANCH  24  26
ENDBRANCH   1  24
TORSDOF 4
ENDMDL
