MODEL 1
REMARK minimizedAffinity -9.66665459
REMARK  6 active torsions:
REMARK  status: ('A' for Active; 'I' for Inactive)
REMARK    1  A    between atoms: C2_2  and  C30_31 
REMARK    2  A    between atoms: C3_3  and  C4_4 
REMARK    3  A    between atoms: C4_4  and  C5_5 
REMARK    4  A    between atoms: C5_5  and  C6_6 
REMARK    5  A    between atoms: C6_6  and  C8_8 
REMARK    6  A    between atoms: C30_31  and  O3_33 
ROOT
HETATM    1  C8  UNL     1       1.081   6.880  12.272  1.00  0.00    -0.002 C 
HETATM    2  C9  UNL     1       1.270   5.375  11.947  1.00  0.00     0.007 C 
HETATM    3  C10 UNL     1      -0.077   4.682  12.263  1.00  0.00     0.015 C 
HETATM    4  C11 UNL     1      -0.903   5.737  13.035  1.00  0.00    -0.013 C 
HETATM    5  C12 UNL     1      -0.451   5.626  14.529  1.00  0.00     0.021 C 
HETATM    6  C13 UNL     1      -2.421   5.613  13.056  1.00  0.00    -0.070 C 
HETATM    7  C14 UNL     1      -3.047   4.421  13.035  1.00  0.00    -0.022 C 
HETATM    8  C15 UNL     1      -4.529   4.234  13.195  1.00  0.00     0.034 C 
HETATM    9  C16 UNL     1      -5.339   5.549  13.158  1.00  0.00     0.013 C 
HETATM   10  C17 UNL     1      -6.880   5.407  13.457  1.00  0.00     0.018 C 
HETATM   11  C18 UNL     1      -7.682   5.729  12.174  1.00  0.00     0.023 C 
HETATM   12  C19 UNL     1      -7.293   3.989  13.906  1.00  0.00     0.023 C 
HETATM   13  C20 UNL     1      -7.369   6.404  14.518  1.00  0.00     0.135 C 
HETATM   14  O1  UNL     1      -8.251   6.108  15.331  1.00  0.00    -0.297 OA
HETATM   15  C21 UNL     1      -6.832   7.816  14.504  1.00  0.00     0.080 C 
HETATM   16  C22 UNL     1      -5.470   7.958  13.844  1.00  0.00     0.017 C 
HETATM   17  C23 UNL     1      -4.594   6.689  13.942  1.00  0.00    -0.031 C 
HETATM   18  C24 UNL     1      -4.355   6.326  15.430  1.00  0.00     0.016 C 
HETATM   19  C25 UNL     1      -3.217   6.919  13.199  1.00  0.00     0.024 C 
HETATM   20  C26 UNL     1      -2.369   8.101  13.735  1.00  0.00     0.010 C 
HETATM   21  C27 UNL     1      -0.967   8.277  13.101  1.00  0.00     0.011 C 
HETATM   22  C28 UNL     1      -0.471   7.054  12.303  1.00  0.00    -0.029 C 
HETATM   23  C29 UNL     1      -1.011   7.170  10.848  1.00  0.00     0.016 C 
ENDROOT
BRANCH   1  24
HETATM   24  C6  UNL     1       1.942   7.886  11.448  1.00  0.00    -0.014 C 
HETATM   25  C7  UNL     1       2.319   9.060  12.374  1.00  0.00     0.010 C 
BRANCH  24  26
HETATM   26  C5  UNL     1       3.227   7.301  10.810  1.00  0.00     0.008 C 
BRANCH  26  27
HETATM   27  C4  UNL     1       3.722   8.051   9.562  1.00  0.00     0.028 C 
BRANCH  27  28
HETATM   28  C3  UNL     1       2.748   8.098   8.417  1.00  0.00    -0.013 C 
HETATM   29  C2  UNL     1       2.358   7.091   7.608  1.00  0.00     0.008 C 
HETATM   30  C1  UNL     1       1.337   7.314   6.528  1.00  0.00     0.055 C 
BRANCH  29  31
HETATM   31  C30 UNL     1       2.937   5.726   7.715  1.00  0.00     0.171 C 
HETATM   32  O2  UNL     1       3.565   5.257   8.648  1.00  0.00    -0.646 OA
BRANCH  31  33
HETATM   33  O3  UNL     1       2.708   4.996   6.609  1.00  0.00    -0.773 OA
HETATM   34  H46 UNL     1       3.138   4.139   6.814  1.00  0.00     0.167 HD
ENDBRANCH  31  33
ENDBRANCH  29  31
ENDBRANCH  27  28
ENDBRANCH  26  27
ENDBRANCH  24  26
ENDBRANCH   1  24
TORSDOF 6
ENDMDL
MODEL 2
REMARK minimizedAffinity -9.60900307
REMARK  6 active torsions:
REMARK  status: ('A' for Active; 'I' for Inactive)
REMARK    1  A    between atoms: C2_2  and  C30_31 
REMARK    2  A    between atoms: C3_3  and  C4_4 
REMARK    3  A    between atoms: C4_4  and  C5_5 
REMARK    4  A    between atoms: C5_5  and  C6_6 
REMARK    5  A    between atoms: C6_6  and  C8_8 
REMARK    6  A    between atoms: C30_31  and  O3_33 
ROOT
HETATM    1  C8  UNL     1       0.971   7.248  12.125  1.00  0.00    -0.002 C 
HETATM    2  C9  UNL     1       1.227   5.784  11.681  1.00  0.00     0.007 C 
HETATM    3  C10 UNL     1      -0.076   5.001  11.968  1.00  0.00     0.015 C 
HETATM    4  C11 UNL     1      -0.935   5.950  12.835  1.00  0.00    -0.013 C 
HETATM    5  C12 UNL     1      -0.445   5.748  14.306  1.00  0.00     0.021 C 
HETATM    6  C13 UNL     1      -2.445   5.747  12.875  1.00  0.00    -0.070 C 
HETATM    7  C14 UNL     1      -3.011   4.529  12.774  1.00  0.00    -0.022 C 
HETATM    8  C15 UNL     1      -4.478   4.254  12.947  1.00  0.00     0.034 C 
HETATM    9  C16 UNL     1      -5.353   5.525  13.027  1.00  0.00     0.013 C 
HETATM   10  C17 UNL     1      -6.878   5.282  13.344  1.00  0.00     0.018 C 
HETATM   11  C18 UNL     1      -7.724   5.658  12.105  1.00  0.00     0.023 C 
HETATM   12  C19 UNL     1      -7.209   3.814  13.689  1.00  0.00     0.023 C 
HETATM   13  C20 UNL     1      -7.392   6.168  14.488  1.00  0.00     0.135 C 
HETATM   14  O1  UNL     1      -8.238   5.765  15.293  1.00  0.00    -0.297 OA
HETATM   15  C21 UNL     1      -6.926   7.602  14.573  1.00  0.00     0.080 C 
HETATM   16  C22 UNL     1      -5.588   7.865  13.900  1.00  0.00     0.017 C 
HETATM   17  C23 UNL     1      -4.648   6.638  13.883  1.00  0.00    -0.031 C 
HETATM   18  C24 UNL     1      -4.357   6.176  15.333  1.00  0.00     0.016 C 
HETATM   19  C25 UNL     1      -3.302   6.995  13.134  1.00  0.00     0.024 C 
HETATM   20  C26 UNL     1      -2.502   8.175  13.744  1.00  0.00     0.010 C 
HETATM   21  C27 UNL     1      -1.125   8.470  13.098  1.00  0.00     0.011 C 
HETATM   22  C28 UNL     1      -0.587   7.340  12.199  1.00  0.00    -0.029 C 
HETATM   23  C29 UNL     1      -1.165   7.538  10.767  1.00  0.00     0.016 C 
ENDROOT
BRANCH   1  24
HETATM   24  C6  UNL     1       1.761   8.357  11.365  1.00  0.00    -0.014 C 
HETATM   25  C7  UNL     1       2.993   8.731  12.214  1.00  0.00     0.010 C 
BRANCH  24  26
HETATM   26  C5  UNL     1       2.217   7.990   9.930  1.00  0.00     0.008 C 
BRANCH  26  27
HETATM   27  C4  UNL     1       2.884   6.610   9.802  1.00  0.00     0.028 C 
BRANCH  27  28
HETATM   28  C3  UNL     1       2.918   6.044   8.410  1.00  0.00    -0.013 C 
HETATM   29  C2  UNL     1       3.368   4.836   8.008  1.00  0.00     0.008 C 
HETATM   30  C1  UNL     1       3.291   4.420   6.566  1.00  0.00     0.055 C 
BRANCH  29  31
HETATM   31  C30 UNL     1       3.993   3.876   8.954  1.00  0.00     0.171 C 
HETATM   32  O2  UNL     1       5.141   3.468   8.949  1.00  0.00    -0.646 OA
BRANCH  31  33
HETATM   33  O3  UNL     1       3.119   3.445   9.882  1.00  0.00    -0.773 OA
HETATM   34  H46 UNL     1       3.655   2.830  10.425  1.00  0.00     0.167 HD
ENDBRANCH  31  33
ENDBRANCH  29  31
ENDBRANCH  27  28
ENDBRANCH  26  27
ENDBRANCH  24  26
ENDBRANCH   1  24
TORSDOF 6
ENDMDL
MODEL 3
REMARK minimizedAffinity -9.47918892
REMARK  6 active torsions:
REMARK  status: ('A' for Active; 'I' for Inactive)
REMARK    1  A    between atoms: C2_2  and  C30_31 
REMARK    2  A    between atoms: C3_3  and  C4_4 
REMARK    3  A    between atoms: C4_4  and  C5_5 
REMARK    4  A    between atoms: C5_5  and  C6_6 
REMARK    5  A    between atoms: C6_6  and  C8_8 
REMARK    6  A    between atoms: C30_31  and  O3_33 
ROOT
HETATM    1  C8  UNL     1      -4.634   7.846  15.337  1.00  0.00    -0.002 C 
HETATM    2  C9  UNL     1      -4.345   9.335  15.665  1.00  0.00     0.007 C 
HETATM    3  C10 UNL     1      -2.934   9.644  15.111  1.00  0.00     0.015 C 
HETATM    4  C11 UNL     1      -2.331   8.267  14.749  1.00  0.00    -0.013 C 
HETATM    5  C12 UNL     1      -1.727   7.701  16.076  1.00  0.00     0.021 C 
HETATM    6  C13 UNL     1      -1.204   8.202  13.725  1.00  0.00    -0.070 C 
HETATM    7  C14 UNL     1      -0.293   9.186  13.594  1.00  0.00    -0.022 C 
HETATM    8  C15 UNL     1       0.916   9.113  12.705  1.00  0.00     0.034 C 
HETATM    9  C16 UNL     1       0.928   7.897  11.753  1.00  0.00     0.013 C 
HETATM   10  C17 UNL     1       2.241   7.713  10.901  1.00  0.00     0.018 C 
HETATM   11  C18 UNL     1       1.922   7.957   9.408  1.00  0.00     0.023 C 
HETATM   12  C19 UNL     1       3.370   8.692  11.289  1.00  0.00     0.023 C 
HETATM   13  C20 UNL     1       2.802   6.284  10.982  1.00  0.00     0.135 C 
HETATM   14  O1  UNL     1       4.016   6.061  10.974  1.00  0.00    -0.297 OA
HETATM   15  C21 UNL     1       1.843   5.117  10.968  1.00  0.00     0.080 C 
HETATM   16  C22 UNL     1       0.443   5.454  11.458  1.00  0.00     0.017 C 
HETATM   17  C23 UNL     1       0.402   6.609  12.483  1.00  0.00    -0.031 C 
HETATM   18  C24 UNL     1       1.254   6.242  13.725  1.00  0.00     0.016 C 
HETATM   19  C25 UNL     1      -1.092   6.910  12.904  1.00  0.00     0.024 C 
HETATM   20  C26 UNL     1      -1.852   5.713  13.533  1.00  0.00     0.010 C 
HETATM   21  C27 UNL     1      -3.279   6.013  14.057  1.00  0.00     0.011 C 
HETATM   22  C28 UNL     1      -3.598   7.513  14.216  1.00  0.00    -0.029 C 
HETATM   23  C29 UNL     1      -4.119   8.047  12.850  1.00  0.00     0.016 C 
ENDROOT
BRANCH   1  24
HETATM   24  C6  UNL     1      -6.128   7.453  15.131  1.00  0.00    -0.014 C 
HETATM   25  C7  UNL     1      -6.968   8.746  15.145  1.00  0.00     0.010 C 
BRANCH  24  26
HETATM   26  C5  UNL     1      -6.438   6.653  13.840  1.00  0.00     0.008 C 
BRANCH  26  27
HETATM   27  C4  UNL     1      -6.594   5.137  14.046  1.00  0.00     0.028 C 
BRANCH  27  28
HETATM   28  C3  UNL     1      -5.889   4.279  13.032  1.00  0.00    -0.013 C 
HETATM   29  C2  UNL     1      -6.360   3.195  12.380  1.00  0.00     0.008 C 
HETATM   30  C1  UNL     1      -5.520   2.475  11.364  1.00  0.00     0.055 C 
BRANCH  29  31
HETATM   31  C30 UNL     1      -7.710   2.637  12.656  1.00  0.00     0.171 C 
HETATM   32  O2  UNL     1      -8.747   3.252  12.832  1.00  0.00    -0.646 OA
BRANCH  31  33
HETATM   33  O3  UNL     1      -7.695   1.293  12.714  1.00  0.00    -0.773 OA
HETATM   34  H46 UNL     1      -8.630   1.067  12.900  1.00  0.00     0.167 HD
ENDBRANCH  31  33
ENDBRANCH  29  31
ENDBRANCH  27  28
ENDBRANCH  26  27
ENDBRANCH  24  26
ENDBRANCH   1  24
TORSDOF 6
ENDMDL
MODEL 4
REMARK minimizedAffinity -9.05756855
REMARK  6 active torsions:
REMARK  status: ('A' for Active; 'I' for Inactive)
REMARK    1  A    between atoms: C2_2  and  C30_31 
REMARK    2  A    between atoms: C3_3  and  C4_4 
REMARK    3  A    between atoms: C4_4  and  C5_5 
REMARK    4  A    between atoms: C5_5  and  C6_6 
REMARK    5  A    between atoms: C6_6  and  C8_8 
REMARK    6  A    between atoms: C30_31  and  O3_33 
ROOT
HETATM    1  C8  UNL     1      -1.776   6.427  12.393  1.00  0.00    -0.002 C 
HETATM    2  C9  UNL     1      -1.583   5.111  11.594  1.00  0.00     0.007 C 
HETATM    3  C10 UNL     1      -0.099   5.073  11.157  1.00  0.00     0.015 C 
HETATM    4  C11 UNL     1       0.446   6.489  11.452  1.00  0.00    -0.013 C 
HETATM    5  C12 UNL     1       0.064   7.362  10.212  1.00  0.00     0.021 C 
HETATM    6  C13 UNL     1       1.946   6.677  11.639  1.00  0.00    -0.070 C 
HETATM    7  C14 UNL     1       2.853   5.930  10.980  1.00  0.00    -0.022 C 
HETATM    8  C15 UNL     1       4.337   6.164  11.017  1.00  0.00     0.034 C 
HETATM    9  C16 UNL     1       4.787   7.202  12.068  1.00  0.00     0.013 C 
HETATM   10  C17 UNL     1       6.319   7.573  12.045  1.00  0.00     0.018 C 
HETATM   11  C18 UNL     1       6.991   7.053  13.337  1.00  0.00     0.023 C 
HETATM   12  C19 UNL     1       7.085   6.956  10.856  1.00  0.00     0.023 C 
HETATM   13  C20 UNL     1       6.558   9.091  12.029  1.00  0.00     0.135 C 
HETATM   14  O1  UNL     1       7.500   9.594  11.408  1.00  0.00    -0.297 OA
HETATM   15  C21 UNL     1       5.681   9.982  12.876  1.00  0.00     0.080 C 
HETATM   16  C22 UNL     1       4.315   9.393  13.194  1.00  0.00     0.017 C 
HETATM   17  C23 UNL     1       3.791   8.417  12.117  1.00  0.00    -0.031 C 
HETATM   18  C24 UNL     1       3.678   9.147  10.754  1.00  0.00     0.016 C 
HETATM   19  C25 UNL     1       2.388   7.831  12.551  1.00  0.00     0.024 C 
HETATM   20  C26 UNL     1       1.279   8.887  12.788  1.00  0.00     0.010 C 
HETATM   21  C27 UNL     1      -0.133   8.333  13.102  1.00  0.00     0.011 C 
HETATM   22  C28 UNL     1      -0.318   6.837  12.776  1.00  0.00    -0.029 C 
HETATM   23  C29 UNL     1       0.149   6.009  14.008  1.00  0.00     0.016 C 
ENDROOT
BRANCH   1  24
HETATM   24  C6  UNL     1      -2.878   6.419  13.496  1.00  0.00    -0.014 C 
HETATM   25  C7  UNL     1      -3.990   7.397  13.066  1.00  0.00     0.010 C 
BRANCH  24  26
HETATM   26  C5  UNL     1      -3.502   5.036  13.809  1.00  0.00     0.008 C 
BRANCH  26  27
HETATM   27  C4  UNL     1      -4.892   4.806  13.195  1.00  0.00     0.028 C 
BRANCH  27  28
HETATM   28  C3  UNL     1      -4.998   3.616  12.281  1.00  0.00    -0.013 C 
HETATM   29  C2  UNL     1      -6.053   2.796  12.093  1.00  0.00     0.008 C 
HETATM   30  C1  UNL     1      -5.992   1.667  11.103  1.00  0.00     0.055 C 
BRANCH  29  31
HETATM   31  C30 UNL     1      -7.309   2.939  12.873  1.00  0.00     0.171 C 
HETATM   32  O2  UNL     1      -7.608   3.835  13.642  1.00  0.00    -0.646 OA
BRANCH  31  33
HETATM   33  O3  UNL     1      -8.154   1.914  12.659  1.00  0.00    -0.773 OA
HETATM   34  H46 UNL     1      -8.921   2.134  13.226  1.00  0.00     0.167 HD
ENDBRANCH  31  33
ENDBRANCH  29  31
ENDBRANCH  27  28
ENDBRANCH  26  27
ENDBRANCH  24  26
ENDBRANCH   1  24
TORSDOF 6
ENDMDL
MODEL 5
REMARK minimizedAffinity -9.0178318
REMARK  6 active torsions:
REMARK  status: ('A' for Active; 'I' for Inactive)
REMARK    1  A    between atoms: C2_2  and  C30_31 
REMARK    2  A    between atoms: C3_3  and  C4_4 
REMARK    3  A    between atoms: C4_4  and  C5_5 
REMARK    4  A    between atoms: C5_5  and  C6_6 
REMARK    5  A    between atoms: C6_6  and  C8_8 
REMARK    6  A    between atoms: C30_31  and  O3_33 
ROOT
HETATM    1  C8  UNL     1      -5.557   7.927  15.462  1.00  0.00    -0.002 C 
HETATM    2  C9  UNL     1      -5.220   9.422  15.702  1.00  0.00     0.007 C 
HETATM    3  C10 UNL     1      -3.822   9.664  15.086  1.00  0.00     0.015 C 
HETATM    4  C11 UNL     1      -3.266   8.255  14.778  1.00  0.00    -0.013 C 
HETATM    5  C12 UNL     1      -2.632   7.743  16.113  1.00  0.00     0.021 C 
HETATM    6  C13 UNL     1      -2.177   8.106  13.723  1.00  0.00    -0.070 C 
HETATM    7  C14 UNL     1      -1.247   9.057  13.510  1.00  0.00    -0.022 C 
HETATM    8  C15 UNL     1      -0.070   8.906  12.587  1.00  0.00     0.034 C 
HETATM    9  C16 UNL     1      -0.122   7.642  11.701  1.00  0.00     0.013 C 
HETATM   10  C17 UNL     1       1.157   7.378  10.817  1.00  0.00     0.018 C 
HETATM   11  C18 UNL     1       0.793   7.553   9.325  1.00  0.00     0.023 C 
HETATM   12  C19 UNL     1       2.322   8.345  11.116  1.00  0.00     0.023 C 
HETATM   13  C20 UNL     1       1.684   5.941  10.956  1.00  0.00     0.135 C 
HETATM   14  O1  UNL     1       2.892   5.686  10.920  1.00  0.00    -0.297 OA
HETATM   15  C21 UNL     1       0.697   4.801  11.035  1.00  0.00     0.080 C 
HETATM   16  C22 UNL     1      -0.677   5.200  11.551  1.00  0.00     0.017 C 
HETATM   17  C23 UNL     1      -0.654   6.408  12.515  1.00  0.00    -0.031 C 
HETATM   18  C24 UNL     1       0.230   6.083  13.747  1.00  0.00     0.016 C 
HETATM   19  C25 UNL     1      -2.125   6.770  12.968  1.00  0.00     0.024 C 
HETATM   20  C26 UNL     1      -2.893   5.629  13.684  1.00  0.00     0.010 C 
HETATM   21  C27 UNL     1      -4.293   5.993  14.238  1.00  0.00     0.011 C 
HETATM   22  C28 UNL     1      -4.569   7.508  14.327  1.00  0.00    -0.029 C 
HETATM   23  C29 UNL     1      -5.123   7.984  12.953  1.00  0.00     0.016 C 
ENDROOT
BRANCH   1  24
HETATM   24  C6  UNL     1      -7.067   7.564  15.326  1.00  0.00    -0.014 C 
HETATM   25  C7  UNL     1      -7.479   6.761  16.577  1.00  0.00     0.010 C 
BRANCH  24  26
HETATM   26  C5  UNL     1      -8.031   8.764  15.146  1.00  0.00     0.008 C 
BRANCH  26  27
HETATM   27  C4  UNL     1      -9.483   8.378  14.820  1.00  0.00     0.028 C 
BRANCH  27  28
HETATM   28  C3  UNL     1     -10.448   9.529  14.743  1.00  0.00    -0.013 C 
HETATM   29  C2  UNL     1     -11.418   9.748  13.830  1.00  0.00     0.008 C 
HETATM   30  C1  UNL     1     -12.321  10.945  13.930  1.00  0.00     0.055 C 
BRANCH  29  31
HETATM   31  C30 UNL     1     -11.620   8.848  12.666  1.00  0.00     0.171 C 
HETATM   32  O2  UNL     1     -11.683   7.631  12.669  1.00  0.00    -0.646 OA
BRANCH  31  33
HETATM   33  O3  UNL     1     -11.724   9.533  11.513  1.00  0.00    -0.773 OA
HETATM   34  H46 UNL     1     -11.850   8.828  10.844  1.00  0.00     0.167 HD
ENDBRANCH  31  33
ENDBRANCH  29  31
ENDBRANCH  27  28
ENDBRANCH  26  27
ENDBRANCH  24  26
ENDBRANCH   1  24
TORSDOF 6
ENDMDL
MODEL 6
REMARK minimizedAffinity -9.01019859
REMARK  6 active torsions:
REMARK  status: ('A' for Active; 'I' for Inactive)
REMARK    1  A    between atoms: C2_2  and  C30_31 
REMARK    2  A    between atoms: C3_3  and  C4_4 
REMARK    3  A    between atoms: C4_4  and  C5_5 
REMARK    4  A    between atoms: C5_5  and  C6_6 
REMARK    5  A    between atoms: C6_6  and  C8_8 
REMARK    6  A    between atoms: C30_31  and  O3_33 
ROOT
HETATM    1  C8  UNL     1       0.988   6.690  12.038  1.00  0.00    -0.002 C 
HETATM    2  C9  UNL     1       1.143   5.183  11.705  1.00  0.00     0.007 C 
HETATM    3  C10 UNL     1      -0.202   4.509  12.066  1.00  0.00     0.015 C 
HETATM    4  C11 UNL     1      -0.986   5.575  12.867  1.00  0.00    -0.013 C 
HETATM    5  C12 UNL     1      -0.485   5.454  14.344  1.00  0.00     0.021 C 
HETATM    6  C13 UNL     1      -2.504   5.473  12.938  1.00  0.00    -0.070 C 
HETATM    7  C14 UNL     1      -3.148   4.290  12.937  1.00  0.00    -0.022 C 
HETATM    8  C15 UNL     1      -4.626   4.125  13.147  1.00  0.00     0.034 C 
HETATM    9  C16 UNL     1      -5.417   5.451  13.139  1.00  0.00     0.013 C 
HETATM   10  C17 UNL     1      -6.950   5.332  13.490  1.00  0.00     0.018 C 
HETATM   11  C18 UNL     1      -7.790   5.667  12.236  1.00  0.00     0.023 C 
HETATM   12  C19 UNL     1      -7.368   3.919  13.951  1.00  0.00     0.023 C 
HETATM   13  C20 UNL     1      -7.388   6.334  14.570  1.00  0.00     0.135 C 
HETATM   14  O1  UNL     1      -8.245   6.048  15.412  1.00  0.00    -0.297 OA
HETATM   15  C21 UNL     1      -6.831   7.737  14.539  1.00  0.00     0.080 C 
HETATM   16  C22 UNL     1      -5.489   7.861  13.833  1.00  0.00     0.017 C 
HETATM   17  C23 UNL     1      -4.629   6.579  13.899  1.00  0.00    -0.031 C 
HETATM   18  C24 UNL     1      -4.346   6.210  15.378  1.00  0.00     0.016 C 
HETATM   19  C25 UNL     1      -3.276   6.790  13.110  1.00  0.00     0.024 C 
HETATM   20  C26 UNL     1      -2.393   7.958  13.620  1.00  0.00     0.010 C 
HETATM   21  C27 UNL     1      -1.011   8.115  12.938  1.00  0.00     0.011 C 
HETATM   22  C28 UNL     1      -0.560   6.887  12.122  1.00  0.00    -0.029 C 
HETATM   23  C29 UNL     1      -1.147   7.013  10.686  1.00  0.00     0.016 C 
ENDROOT
BRANCH   1  24
HETATM   24  C6  UNL     1       1.835   7.685  11.187  1.00  0.00    -0.014 C 
HETATM   25  C7  UNL     1       2.222   8.874  12.089  1.00  0.00     0.010 C 
BRANCH  24  26
HETATM   26  C5  UNL     1       3.112   7.092  10.539  1.00  0.00     0.008 C 
BRANCH  26  27
HETATM   27  C4  UNL     1       3.977   8.111   9.779  1.00  0.00     0.028 C 
BRANCH  27  28
HETATM   28  C3  UNL     1       5.050   8.775  10.597  1.00  0.00    -0.013 C 
HETATM   29  C2  UNL     1       6.097   8.202  11.227  1.00  0.00     0.008 C 
HETATM   30  C1  UNL     1       7.101   9.033  11.976  1.00  0.00     0.055 C 
BRANCH  29  31
HETATM   31  C30 UNL     1       6.294   6.730  11.245  1.00  0.00     0.171 C 
HETATM   32  O2  UNL     1       6.737   6.028  10.353  1.00  0.00    -0.646 OA
BRANCH  31  33
HETATM   33  O3  UNL     1       5.903   6.185  12.411  1.00  0.00    -0.773 OA
HETATM   34  H46 UNL     1       6.084   5.231  12.284  1.00  0.00     0.167 HD
ENDBRANCH  31  33
ENDBRANCH  29  31
ENDBRANCH  27  28
ENDBRANCH  26  27
ENDBRANCH  24  26
ENDBRANCH   1  24
TORSDOF 6
ENDMDL
MODEL 7
REMARK minimizedAffinity -8.99210644
REMARK  6 active torsions:
REMARK  status: ('A' for Active; 'I' for Inactive)
REMARK    1  A    between atoms: C2_2  and  C30_31 
REMARK    2  A    between atoms: C3_3  and  C4_4 
REMARK    3  A    between atoms: C4_4  and  C5_5 
REMARK    4  A    between atoms: C5_5  and  C6_6 
REMARK    5  A    between atoms: C6_6  and  C8_8 
REMARK    6  A    between atoms: C30_31  and  O3_33 
ROOT
HETATM    1  C8  UNL     1      -3.234   7.884  15.263  1.00  0.00    -0.002 C 
HETATM    2  C9  UNL     1      -2.368   8.174  16.517  1.00  0.00     0.007 C 
HETATM    3  C10 UNL     1      -0.896   7.942  16.102  1.00  0.00     0.015 C 
HETATM    4  C11 UNL     1      -0.970   7.243  14.725  1.00  0.00    -0.013 C 
HETATM    5  C12 UNL     1      -1.165   5.721  15.028  1.00  0.00     0.021 C 
HETATM    6  C13 UNL     1       0.232   7.325  13.792  1.00  0.00    -0.070 C 
HETATM    7  C14 UNL     1       1.497   7.372  14.250  1.00  0.00    -0.022 C 
HETATM    8  C15 UNL     1       2.721   7.311  13.380  1.00  0.00     0.034 C 
HETATM    9  C16 UNL     1       2.426   7.422  11.868  1.00  0.00     0.013 C 
HETATM   10  C17 UNL     1       3.668   7.227  10.917  1.00  0.00     0.018 C 
HETATM   11  C18 UNL     1       3.988   8.566  10.212  1.00  0.00     0.023 C 
HETATM   12  C19 UNL     1       4.949   6.788  11.658  1.00  0.00     0.023 C 
HETATM   13  C20 UNL     1       3.398   6.215   9.793  1.00  0.00     0.135 C 
HETATM   14  O1  UNL     1       4.281   5.460   9.372  1.00  0.00    -0.297 OA
HETATM   15  C21 UNL     1       2.048   6.212   9.116  1.00  0.00     0.080 C 
HETATM   16  C22 UNL     1       0.922   6.779   9.966  1.00  0.00     0.017 C 
HETATM   17  C23 UNL     1       1.140   6.604  11.486  1.00  0.00    -0.031 C 
HETATM   18  C24 UNL     1       1.271   5.098  11.831  1.00  0.00     0.016 C 
HETATM   19  C25 UNL     1      -0.059   7.254  12.286  1.00  0.00     0.024 C 
HETATM   20  C26 UNL     1      -1.460   6.677  11.956  1.00  0.00     0.010 C 
HETATM   21  C27 UNL     1      -2.636   7.216  12.807  1.00  0.00     0.011 C 
HETATM   22  C28 UNL     1      -2.208   7.961  14.087  1.00  0.00    -0.029 C 
HETATM   23  C29 UNL     1      -1.950   9.451  13.720  1.00  0.00     0.016 C 
ENDROOT
BRANCH   1  24
HETATM   24  C6  UNL     1      -4.581   8.660  15.148  1.00  0.00    -0.014 C 
HETATM   25  C7  UNL     1      -4.265  10.169  15.171  1.00  0.00     0.010 C 
BRANCH  24  26
HETATM   26  C5  UNL     1      -5.437   8.333  13.898  1.00  0.00     0.008 C 
BRANCH  26  27
HETATM   27  C4  UNL     1      -6.362   7.114  14.055  1.00  0.00     0.028 C 
BRANCH  27  28
HETATM   28  C3  UNL     1      -5.794   5.813  13.558  1.00  0.00    -0.013 C 
HETATM   29  C2  UNL     1      -6.439   4.796  12.951  1.00  0.00     0.008 C 
HETATM   30  C1  UNL     1      -5.698   3.575  12.485  1.00  0.00     0.055 C 
BRANCH  29  31
HETATM   31  C30 UNL     1      -7.911   4.809  12.745  1.00  0.00     0.171 C 
HETATM   32  O2  UNL     1      -8.559   5.584  12.063  1.00  0.00    -0.646 OA
BRANCH  31  33
HETATM   33  O3  UNL     1      -8.524   3.831  13.435  1.00  0.00    -0.773 OA
HETATM   34  H46 UNL     1      -9.469   3.958  13.212  1.00  0.00     0.167 HD
ENDBRANCH  31  33
ENDBRANCH  29  31
ENDBRANCH  27  28
ENDBRANCH  26  27
ENDBRANCH  24  26
ENDBRANCH   1  24
TORSDOF 6
ENDMDL
MODEL 8
REMARK minimizedAffinity -8.92719841
REMARK  6 active torsions:
REMARK  status: ('A' for Active; 'I' for Inactive)
REMARK    1  A    between atoms: C2_2  and  C30_31 
REMARK    2  A    between atoms: C3_3  and  C4_4 
REMARK    3  A    between atoms: C4_4  and  C5_5 
REMARK    4  A    between atoms: C5_5  and  C6_6 
REMARK    5  A    between atoms: C6_6  and  C8_8 
REMARK    6  A    between atoms: C30_31  and  O3_33 
ROOT
HETATM    1  C8  UNL     1      -1.445   5.047  12.022  1.00  0.00    -0.002 C 
HETATM    2  C9  UNL     1      -0.029   4.714  12.560  1.00  0.00     0.007 C 
HETATM    3  C10 UNL     1       0.308   5.792  13.616  1.00  0.00     0.015 C 
HETATM    4  C11 UNL     1      -0.780   6.877  13.448  1.00  0.00    -0.013 C 
HETATM    5  C12 UNL     1      -0.286   7.804  12.289  1.00  0.00     0.021 C 
HETATM    6  C13 UNL     1      -1.081   7.807  14.617  1.00  0.00    -0.070 C 
HETATM    7  C14 UNL     1      -0.132   8.196  15.490  1.00  0.00    -0.022 C 
HETATM    8  C15 UNL     1      -0.338   9.218  16.572  1.00  0.00     0.034 C 
HETATM    9  C16 UNL     1      -1.811   9.639  16.771  1.00  0.00     0.013 C 
HETATM   10  C17 UNL     1      -2.052  10.806  17.803  1.00  0.00     0.018 C 
HETATM   11  C18 UNL     1      -2.804  10.253  19.035  1.00  0.00     0.023 C 
HETATM   12  C19 UNL     1      -0.747  11.450  18.320  1.00  0.00     0.023 C 
HETATM   13  C20 UNL     1      -2.941  11.923  17.234  1.00  0.00     0.135 C 
HETATM   14  O1  UNL     1      -2.761  13.109  17.527  1.00  0.00    -0.297 OA
HETATM   15  C21 UNL     1      -4.127  11.552  16.377  1.00  0.00     0.080 C 
HETATM   16  C22 UNL     1      -4.001  10.204  15.685  1.00  0.00     0.017 C 
HETATM   17  C23 UNL     1      -2.542   9.790  15.388  1.00  0.00    -0.031 C 
HETATM   18  C24 UNL     1      -1.870  10.847  14.474  1.00  0.00     0.016 C 
HETATM   19  C25 UNL     1      -2.509   8.364  14.705  1.00  0.00     0.024 C 
HETATM   20  C26 UNL     1      -3.295   8.254  13.373  1.00  0.00     0.010 C 
HETATM   21  C27 UNL     1      -3.185   6.902  12.627  1.00  0.00     0.011 C 
HETATM   22  C28 UNL     1      -2.034   5.998  13.112  1.00  0.00    -0.029 C 
HETATM   23  C29 UNL     1      -2.551   5.154  14.314  1.00  0.00     0.016 C 
ENDROOT
BRANCH   1  24
HETATM   24  C6  UNL     1      -2.302   3.846  11.518  1.00  0.00    -0.014 C 
HETATM   25  C7  UNL     1      -1.351   2.663  11.244  1.00  0.00     0.010 C 
BRANCH  24  26
HETATM   26  C5  UNL     1      -3.434   3.386  12.471  1.00  0.00     0.008 C 
BRANCH  26  27
HETATM   27  C4  UNL     1      -4.856   3.712  11.983  1.00  0.00     0.028 C 
BRANCH  27  28
HETATM   28  C3  UNL     1      -5.694   4.508  12.945  1.00  0.00    -0.013 C 
HETATM   29  C2  UNL     1      -6.917   4.211  13.433  1.00  0.00     0.008 C 
HETATM   30  C1  UNL     1      -7.597   5.114  14.423  1.00  0.00     0.055 C 
BRANCH  29  31
HETATM   31  C30 UNL     1      -7.668   3.006  12.994  1.00  0.00     0.171 C 
HETATM   32  O2  UNL     1      -7.222   1.897  12.762  1.00  0.00    -0.646 OA
BRANCH  31  33
HETATM   33  O3  UNL     1      -8.981   3.259  12.849  1.00  0.00    -0.773 OA
HETATM   34  H46 UNL     1      -9.344   2.395  12.561  1.00  0.00     0.167 HD
ENDBRANCH  31  33
ENDBRANCH  29  31
ENDBRANCH  27  28
ENDBRANCH  26  27
ENDBRANCH  24  26
ENDBRANCH   1  24
TORSDOF 6
ENDMDL
MODEL 9
REMARK minimizedAffinity -8.72917461
REMARK  6 active torsions:
REMARK  status: ('A' for Active; 'I' for Inactive)
REMARK    1  A    between atoms: C2_2  and  C30_31 
REMARK    2  A    between atoms: C3_3  and  C4_4 
REMARK    3  A    between atoms: C4_4  and  C5_5 
REMARK    4  A    between atoms: C5_5  and  C6_6 
REMARK    5  A    between atoms: C6_6  and  C8_8 
REMARK    6  A    between atoms: C30_31  and  O3_33 
ROOT
HETATM    1  C8  UNL     1      -3.247   6.891  14.355  1.00  0.00    -0.002 C 
HETATM    2  C9  UNL     1      -3.454   5.567  13.574  1.00  0.00     0.007 C 
HETATM    3  C10 UNL     1      -4.982   5.348  13.471  1.00  0.00     0.015 C 
HETATM    4  C11 UNL     1      -5.604   6.380  14.440  1.00  0.00    -0.013 C 
HETATM    5  C12 UNL     1      -5.566   5.715  15.856  1.00  0.00     0.021 C 
HETATM    6  C13 UNL     1      -7.050   6.811  14.229  1.00  0.00    -0.070 C 
HETATM    7  C14 UNL     1      -7.985   5.978  13.735  1.00  0.00    -0.022 C 
HETATM    8  C15 UNL     1      -9.449   6.302  13.637  1.00  0.00     0.034 C 
HETATM    9  C16 UNL     1      -9.790   7.778  13.938  1.00  0.00     0.013 C 
HETATM   10  C17 UNL     1     -11.327   8.126  13.978  1.00  0.00     0.018 C 
HETATM   11  C18 UNL     1     -11.675   9.048  12.786  1.00  0.00     0.023 C 
HETATM   12  C19 UNL     1     -12.243   6.888  13.875  1.00  0.00     0.023 C 
HETATM   13  C20 UNL     1     -11.723   8.907  15.241  1.00  0.00     0.135 C 
HETATM   14  O1  UNL     1     -12.816   8.740  15.792  1.00  0.00    -0.297 OA
HETATM   15  C21 UNL     1     -10.795   9.978  15.764  1.00  0.00     0.080 C 
HETATM   16  C22 UNL     1      -9.340   9.791  15.364  1.00  0.00     0.017 C 
HETATM   17  C23 UNL     1      -8.937   8.316  15.143  1.00  0.00    -0.031 C 
HETATM   18  C24 UNL     1      -9.171   7.505  16.444  1.00  0.00     0.016 C 
HETATM   19  C25 UNL     1      -7.423   8.225  14.697  1.00  0.00     0.024 C 
HETATM   20  C26 UNL     1      -6.405   8.831  15.698  1.00  0.00     0.010 C 
HETATM   21  C27 UNL     1      -4.909   8.654  15.338  1.00  0.00     0.011 C 
HETATM   22  C28 UNL     1      -4.636   7.598  14.248  1.00  0.00    -0.029 C 
HETATM   23  C29 UNL     1      -4.764   8.288  12.859  1.00  0.00     0.016 C 
ENDROOT
BRANCH   1  24
HETATM   24  C6  UNL     1      -1.956   7.702  14.027  1.00  0.00    -0.014 C 
HETATM   25  C7  UNL     1      -1.129   7.826  15.323  1.00  0.00     0.010 C 
BRANCH  24  26
HETATM   26  C5  UNL     1      -1.065   7.114  12.903  1.00  0.00     0.008 C 
BRANCH  26  27
HETATM   27  C4  UNL     1      -0.023   8.092  12.334  1.00  0.00     0.028 C 
BRANCH  27  28
HETATM   28  C3  UNL     1      -0.209   8.453  10.886  1.00  0.00    -0.013 C 
HETATM   29  C2  UNL     1       0.347   7.875   9.801  1.00  0.00     0.008 C 
HETATM   30  C1  UNL     1       0.016   8.348   8.414  1.00  0.00     0.055 C 
BRANCH  29  31
HETATM   31  C30 UNL     1       1.338   6.773   9.918  1.00  0.00     0.171 C 
HETATM   32  O2  UNL     1       1.125   5.610  10.207  1.00  0.00    -0.646 OA
BRANCH  31  33
HETATM   33  O3  UNL     1       2.591   7.198   9.672  1.00  0.00    -0.773 OA
HETATM   34  H46 UNL     1       3.127   6.385   9.784  1.00  0.00     0.167 HD
ENDBRANCH  31  33
ENDBRANCH  29  31
ENDBRANCH  27  28
ENDBRANCH  26  27
ENDBRANCH  24  26
ENDBRANCH   1  24
TORSDOF 6
ENDMDL
