MODEL 1
REMARK minimizedAffinity -9.0554409
REMARK  6 active torsions:
REMARK  status: ('A' for Active; 'I' for Inactive)
REMARK    1  A    between atoms: C2_2  and  C30_31 
REMARK    2  A    between atoms: C3_3  and  C4_4 
REMARK    3  A    between atoms: C4_4  and  C5_5 
REMARK    4  A    between atoms: C5_5  and  C6_6 
REMARK    5  A    between atoms: C6_6  and  C8_8 
REMARK    6  A    between atoms: C30_31  and  O2_32 
ROOT
HETATM    1  C8  UNL     1      -5.423   7.813  15.693  1.00  0.00    -0.002 C 
HETATM    2  C9  UNL     1      -5.370   9.357  15.555  1.00  0.00     0.007 C 
HETATM    3  C10 UNL     1      -4.067   9.695  14.796  1.00  0.00     0.015 C 
HETATM    4  C11 UNL     1      -3.263   8.376  14.769  1.00  0.00    -0.013 C 
HETATM    5  C12 UNL     1      -2.492   8.322  16.128  1.00  0.00     0.021 C 
HETATM    6  C13 UNL     1      -2.209   8.177  13.688  1.00  0.00    -0.070 C 
HETATM    7  C14 UNL     1      -1.529   9.204  13.148  1.00  0.00    -0.022 C 
HETATM    8  C15 UNL     1      -0.381   9.056  12.200  1.00  0.00     0.034 C 
HETATM    9  C16 UNL     1      -0.108   7.618  11.698  1.00  0.00     0.013 C 
HETATM   10  C17 UNL     1       1.291   7.477  10.985  1.00  0.00     0.018 C 
HETATM   11  C18 UNL     1       2.423   8.322  11.609  1.00  0.00     0.023 C 
HETATM   12  C19 UNL     1       1.163   7.908   9.508  1.00  0.00     0.023 C 
HETATM   13  C20 UNL     1       1.723   6.008  10.979  1.00  0.00     0.135 C 
HETATM   14  O1  UNL     1       2.903   5.664  10.908  1.00  0.00    -0.297 OA
HETATM   15  C21 UNL     1       0.627   4.978  10.962  1.00  0.00     0.080 C 
HETATM   16  C22 UNL     1      -0.285   5.100  12.170  1.00  0.00     0.017 C 
HETATM   17  C23 UNL     1      -0.415   6.526  12.791  1.00  0.00    -0.031 C 
HETATM   18  C24 UNL     1       0.565   6.635  13.984  1.00  0.00     0.016 C 
HETATM   19  C25 UNL     1      -1.914   6.734  13.269  1.00  0.00     0.024 C 
HETATM   20  C26 UNL     1      -2.430   5.679  14.286  1.00  0.00     0.010 C 
HETATM   21  C27 UNL     1      -3.861   5.904  14.836  1.00  0.00     0.011 C 
HETATM   22  C28 UNL     1      -4.414   7.325  14.605  1.00  0.00    -0.029 C 
HETATM   23  C29 UNL     1      -5.106   7.367  13.209  1.00  0.00     0.016 C 
ENDROOT
BRANCH   1  24
HETATM   24  C6  UNL     1      -6.837   7.158  15.742  1.00  0.00    -0.014 C 
HETATM   25  C7  UNL     1      -6.869   5.727  16.293  1.00  0.00     0.010 C 
BRANCH  24  26
HETATM   26  C5  UNL     1      -7.469   7.212  14.322  1.00  0.00     0.008 C 
BRANCH  26  27
HETATM   27  C4  UNL     1      -8.044   5.879  13.835  1.00  0.00     0.028 C 
BRANCH  27  28
HETATM   28  C3  UNL     1      -7.148   5.215  12.823  1.00  0.00    -0.022 C 
HETATM   29  C2  UNL     1      -6.970   3.888  12.657  1.00  0.00    -0.064 C 
HETATM   30  C1  UNL     1      -6.072   3.360  11.571  1.00  0.00     0.045 C 
BRANCH  29  31
HETATM   31  C30 UNL     1      -7.617   2.838  13.523  1.00  0.00     0.197 C 
BRANCH  31  32
HETATM   32  O2  UNL     1      -7.789   1.634  12.789  1.00  0.00    -0.397 OA
HETATM   33  H48 UNL     1      -7.091   1.605  12.112  1.00  0.00     0.209 HD
ENDBRANCH  31  32
ENDBRANCH  29  31
ENDBRANCH  27  28
ENDBRANCH  26  27
ENDBRANCH  24  26
ENDBRANCH   1  24
TORSDOF 6
ENDMDL
MODEL 2
REMARK minimizedAffinity -9.02189922
REMARK  6 active torsions:
REMARK  status: ('A' for Active; 'I' for Inactive)
REMARK    1  A    between atoms: C2_2  and  C30_31 
REMARK    2  A    between atoms: C3_3  and  C4_4 
REMARK    3  A    between atoms: C4_4  and  C5_5 
REMARK    4  A    between atoms: C5_5  and  C6_6 
REMARK    5  A    between atoms: C6_6  and  C8_8 
REMARK    6  A    between atoms: C30_31  and  O2_32 
ROOT
HETATM    1  C8  UNL     1       0.909   6.867  12.878  1.00  0.00    -0.002 C 
HETATM    2  C9  UNL     1       0.896   5.565  12.035  1.00  0.00     0.007 C 
HETATM    3  C10 UNL     1      -0.531   4.981  12.134  1.00  0.00     0.015 C 
HETATM    4  C11 UNL     1      -1.221   5.791  13.255  1.00  0.00    -0.013 C 
HETATM    5  C12 UNL     1      -0.812   5.095  14.593  1.00  0.00     0.021 C 
HETATM    6  C13 UNL     1      -2.742   5.870  13.278  1.00  0.00    -0.070 C 
HETATM    7  C14 UNL     1      -3.521   4.881  12.805  1.00  0.00    -0.022 C 
HETATM    8  C15 UNL     1      -5.010   4.835  12.942  1.00  0.00     0.034 C 
HETATM    9  C16 UNL     1      -5.670   6.113  13.512  1.00  0.00     0.013 C 
HETATM   10  C17 UNL     1      -7.169   5.885  13.941  1.00  0.00     0.018 C 
HETATM   11  C18 UNL     1      -7.462   4.503  14.563  1.00  0.00     0.023 C 
HETATM   12  C19 UNL     1      -8.086   6.031  12.707  1.00  0.00     0.023 C 
HETATM   13  C20 UNL     1      -7.594   6.969  14.935  1.00  0.00     0.135 C 
HETATM   14  O1  UNL     1      -8.504   6.804  15.749  1.00  0.00    -0.297 OA
HETATM   15  C21 UNL     1      -6.915   8.306  14.814  1.00  0.00     0.080 C 
HETATM   16  C22 UNL     1      -5.410   8.196  14.993  1.00  0.00     0.017 C 
HETATM   17  C23 UNL     1      -4.769   6.832  14.587  1.00  0.00    -0.031 C 
HETATM   18  C24 UNL     1      -4.610   5.964  15.858  1.00  0.00     0.016 C 
HETATM   19  C25 UNL     1      -3.359   7.117  13.917  1.00  0.00     0.024 C 
HETATM   20  C26 UNL     1      -2.361   7.913  14.803  1.00  0.00     0.010 C 
HETATM   21  C27 UNL     1      -0.947   8.133  14.209  1.00  0.00     0.011 C 
HETATM   22  C28 UNL     1      -0.607   7.214  13.019  1.00  0.00    -0.029 C 
HETATM   23  C29 UNL     1      -1.100   7.898  11.708  1.00  0.00     0.016 C 
ENDROOT
BRANCH   1  24
HETATM   24  C6  UNL     1       1.890   7.991  12.424  1.00  0.00    -0.014 C 
HETATM   25  C7  UNL     1       1.679   9.348  13.108  1.00  0.00     0.010 C 
BRANCH  24  26
HETATM   26  C5  UNL     1       1.809   8.139  10.878  1.00  0.00     0.008 C 
BRANCH  26  27
HETATM   27  C4  UNL     1       3.161   8.051  10.163  1.00  0.00     0.028 C 
BRANCH  27  28
HETATM   28  C3  UNL     1       3.012   7.624   8.727  1.00  0.00    -0.022 C 
HETATM   29  C2  UNL     1       1.864   7.562   8.023  1.00  0.00    -0.064 C 
HETATM   30  C1  UNL     1       1.868   7.156   6.573  1.00  0.00     0.045 C 
BRANCH  29  31
HETATM   31  C30 UNL     1       0.505   7.867   8.601  1.00  0.00     0.197 C 
BRANCH  31  32
HETATM   32  O2  UNL     1       0.178   9.233   8.388  1.00  0.00    -0.397 OA
HETATM   33  H48 UNL     1       0.642   9.520   7.583  1.00  0.00     0.209 HD
ENDBRANCH  31  32
ENDBRANCH  29  31
ENDBRANCH  27  28
ENDBRANCH  26  27
ENDBRANCH  24  26
ENDBRANCH   1  24
TORSDOF 6
ENDMDL
MODEL 3
REMARK minimizedAffinity -8.62070847
REMARK  6 active torsions:
REMARK  status: ('A' for Active; 'I' for Inactive)
REMARK    1  A    between atoms: C2_2  and  C30_31 
REMARK    2  A    between atoms: C3_3  and  C4_4 
REMARK    3  A    between atoms: C4_4  and  C5_5 
REMARK    4  A    between atoms: C5_5  and  C6_6 
REMARK    5  A    between atoms: C6_6  and  C8_8 
REMARK    6  A    between atoms: C30_31  and  O2_32 
ROOT
HETATM    1  C8  UNL     1      -3.748   6.046  13.051  1.00  0.00    -0.002 C 
HETATM    2  C9  UNL     1      -2.292   5.567  12.812  1.00  0.00     0.007 C 
HETATM    3  C10 UNL     1      -1.369   6.541  13.577  1.00  0.00     0.015 C 
HETATM    4  C11 UNL     1      -2.281   7.716  13.995  1.00  0.00    -0.013 C 
HETATM    5  C12 UNL     1      -2.324   8.678  12.764  1.00  0.00     0.021 C 
HETATM    6  C13 UNL     1      -1.871   8.581  15.181  1.00  0.00    -0.070 C 
HETATM    7  C14 UNL     1      -0.584   8.787  15.511  1.00  0.00    -0.022 C 
HETATM    8  C15 UNL     1      -0.121   9.745  16.563  1.00  0.00     0.034 C 
HETATM    9  C16 UNL     1      -1.236  10.385  17.423  1.00  0.00     0.013 C 
HETATM   10  C17 UNL     1      -0.725  11.613  18.268  1.00  0.00     0.018 C 
HETATM   11  C18 UNL     1       0.326  12.494  17.559  1.00  0.00     0.023 C 
HETATM   12  C19 UNL     1      -0.083  11.106  19.578  1.00  0.00     0.023 C 
HETATM   13  C20 UNL     1      -1.910  12.494  18.671  1.00  0.00     0.135 C 
HETATM   14  O1  UNL     1      -1.789  13.693  18.928  1.00  0.00    -0.297 OA
HETATM   15  C21 UNL     1      -3.238  11.810  18.843  1.00  0.00     0.080 C 
HETATM   16  C22 UNL     1      -3.693  11.123  17.567  1.00  0.00     0.017 C 
HETATM   17  C23 UNL     1      -2.561  10.639  16.607  1.00  0.00    -0.031 C 
HETATM   18  C24 UNL     1      -2.348  11.715  15.514  1.00  0.00     0.016 C 
HETATM   19  C25 UNL     1      -3.000   9.258  15.964  1.00  0.00     0.024 C 
HETATM   20  C26 UNL     1      -4.349   9.293  15.194  1.00  0.00     0.010 C 
HETATM   21  C27 UNL     1      -4.763   7.980  14.483  1.00  0.00     0.011 C 
HETATM   22  C28 UNL     1      -3.618   6.962  14.309  1.00  0.00    -0.029 C 
HETATM   23  C29 UNL     1      -3.549   6.072  15.587  1.00  0.00     0.016 C 
ENDROOT
BRANCH   1  24
HETATM   24  C6  UNL     1      -4.860   4.953  13.040  1.00  0.00    -0.014 C 
HETATM   25  C7  UNL     1      -4.727   3.905  11.928  1.00  0.00     0.010 C 
BRANCH  24  26
HETATM   26  C5  UNL     1      -6.251   5.647  12.973  1.00  0.00     0.008 C 
BRANCH  26  27
HETATM   27  C4  UNL     1      -7.431   4.684  12.816  1.00  0.00     0.028 C 
BRANCH  27  28
HETATM   28  C3  UNL     1      -8.739   5.415  12.667  1.00  0.00    -0.022 C 
HETATM   29  C2  UNL     1      -9.280   6.281  13.548  1.00  0.00    -0.064 C 
HETATM   30  C1  UNL     1     -10.580   6.976  13.249  1.00  0.00     0.045 C 
BRANCH  29  31
HETATM   31  C30 UNL     1      -8.663   6.616  14.882  1.00  0.00     0.197 C 
BRANCH  31  32
HETATM   32  O2  UNL     1      -9.584   6.345  15.930  1.00  0.00    -0.397 OA
HETATM   33  H48 UNL     1     -10.169   5.632  15.624  1.00  0.00     0.209 HD
ENDBRANCH  31  32
ENDBRANCH  29  31
ENDBRANCH  27  28
ENDBRANCH  26  27
ENDBRANCH  24  26
ENDBRANCH   1  24
TORSDOF 6
ENDMDL
MODEL 4
REMARK minimizedAffinity -8.58973217
REMARK  6 active torsions:
REMARK  status: ('A' for Active; 'I' for Inactive)
REMARK    1  A    between atoms: C2_2  and  C30_31 
REMARK    2  A    between atoms: C3_3  and  C4_4 
REMARK    3  A    between atoms: C4_4  and  C5_5 
REMARK    4  A    between atoms: C5_5  and  C6_6 
REMARK    5  A    between atoms: C6_6  and  C8_8 
REMARK    6  A    between atoms: C30_31  and  O2_32 
ROOT
HETATM    1  C8  UNL     1      -2.687   8.771  15.542  1.00  0.00    -0.002 C 
HETATM    2  C9  UNL     1      -1.616   8.493  16.629  1.00  0.00     0.007 C 
HETATM    3  C10 UNL     1      -0.349   8.003  15.894  1.00  0.00     0.015 C 
HETATM    4  C11 UNL     1      -0.804   7.734  14.442  1.00  0.00    -0.013 C 
HETATM    5  C12 UNL     1      -1.397   6.288  14.444  1.00  0.00     0.021 C 
HETATM    6  C13 UNL     1       0.236   7.752  13.328  1.00  0.00    -0.070 C 
HETATM    7  C14 UNL     1       1.519   7.409  13.537  1.00  0.00    -0.022 C 
HETATM    8  C15 UNL     1       2.544   7.260  12.456  1.00  0.00     0.034 C 
HETATM    9  C16 UNL     1       2.099   7.713  11.045  1.00  0.00     0.013 C 
HETATM   10  C17 UNL     1       3.080   7.227   9.912  1.00  0.00     0.018 C 
HETATM   11  C18 UNL     1       3.682   5.822  10.134  1.00  0.00     0.023 C 
HETATM   12  C19 UNL     1       4.262   8.213   9.794  1.00  0.00     0.023 C 
HETATM   13  C20 UNL     1       2.359   7.241   8.561  1.00  0.00     0.135 C 
HETATM   14  O1  UNL     1       2.700   6.525   7.619  1.00  0.00    -0.297 OA
HETATM   15  C21 UNL     1       1.260   8.254   8.388  1.00  0.00     0.080 C 
HETATM   16  C22 UNL     1       0.151   8.067   9.408  1.00  0.00     0.017 C 
HETATM   17  C23 UNL     1       0.572   7.435  10.772  1.00  0.00    -0.031 C 
HETATM   18  C24 UNL     1       0.278   5.916  10.723  1.00  0.00     0.016 C 
HETATM   19  C25 UNL     1      -0.257   8.135  11.930  1.00  0.00     0.024 C 
HETATM   20  C26 UNL     1      -1.801   8.048  11.776  1.00  0.00     0.010 C 
HETATM   21  C27 UNL     1      -2.637   8.648  12.934  1.00  0.00     0.011 C 
HETATM   22  C28 UNL     1      -1.842   8.889  14.234  1.00  0.00    -0.029 C 
HETATM   23  C29 UNL     1      -1.197  10.306  14.165  1.00  0.00     0.016 C 
ENDROOT
BRANCH   1  24
HETATM   24  C6  UNL     1      -3.734   9.885  15.853  1.00  0.00    -0.014 C 
HETATM   25  C7  UNL     1      -3.622  10.507  17.251  1.00  0.00     0.010 C 
BRANCH  24  26
HETATM   26  C5  UNL     1      -5.163   9.316  15.620  1.00  0.00     0.008 C 
BRANCH  26  27
HETATM   27  C4  UNL     1      -5.206   7.810  15.341  1.00  0.00     0.028 C 
BRANCH  27  28
HETATM   28  C3  UNL     1      -6.379   7.430  14.478  1.00  0.00    -0.022 C 
HETATM   29  C2  UNL     1      -7.394   6.610  14.819  1.00  0.00    -0.064 C 
HETATM   30  C1  UNL     1      -8.531   6.352  13.867  1.00  0.00     0.045 C 
BRANCH  29  31
HETATM   31  C30 UNL     1      -7.481   5.884  16.137  1.00  0.00     0.197 C 
BRANCH  31  32
HETATM   32  O2  UNL     1      -7.950   4.558  15.936  1.00  0.00    -0.397 OA
HETATM   33  H48 UNL     1      -7.683   4.289  15.040  1.00  0.00     0.209 HD
ENDBRANCH  31  32
ENDBRANCH  29  31
ENDBRANCH  27  28
ENDBRANCH  26  27
ENDBRANCH  24  26
ENDBRANCH   1  24
TORSDOF 6
ENDMDL
MODEL 5
REMARK minimizedAffinity -8.43392181
REMARK  6 active torsions:
REMARK  status: ('A' for Active; 'I' for Inactive)
REMARK    1  A    between atoms: C2_2  and  C30_31 
REMARK    2  A    between atoms: C3_3  and  C4_4 
REMARK    3  A    between atoms: C4_4  and  C5_5 
REMARK    4  A    between atoms: C5_5  and  C6_6 
REMARK    5  A    between atoms: C6_6  and  C8_8 
REMARK    6  A    between atoms: C30_31  and  O2_32 
ROOT
HETATM    1  C8  UNL     1       0.656   7.234  12.842  1.00  0.00    -0.002 C 
HETATM    2  C9  UNL     1       0.710   5.928  12.008  1.00  0.00     0.007 C 
HETATM    3  C10 UNL     1      -0.684   5.268  12.118  1.00  0.00     0.015 C 
HETATM    4  C11 UNL     1      -1.411   6.048  13.236  1.00  0.00    -0.013 C 
HETATM    5  C12 UNL     1      -0.959   5.385  14.578  1.00  0.00     0.021 C 
HETATM    6  C13 UNL     1      -2.934   6.044  13.266  1.00  0.00    -0.070 C 
HETATM    7  C14 UNL     1      -3.661   5.011  12.804  1.00  0.00    -0.022 C 
HETATM    8  C15 UNL     1      -5.144   4.886  12.948  1.00  0.00     0.034 C 
HETATM    9  C16 UNL     1      -5.870   6.131  13.513  1.00  0.00     0.013 C 
HETATM   10  C17 UNL     1      -7.353   5.826  13.950  1.00  0.00     0.018 C 
HETATM   11  C18 UNL     1      -7.568   4.434  14.584  1.00  0.00     0.023 C 
HETATM   12  C19 UNL     1      -8.282   5.913  12.719  1.00  0.00     0.023 C 
HETATM   13  C20 UNL     1      -7.831   6.893  14.939  1.00  0.00     0.135 C 
HETATM   14  O1  UNL     1      -8.727   6.685  15.758  1.00  0.00    -0.297 OA
HETATM   15  C21 UNL     1      -7.226   8.263  14.805  1.00  0.00     0.080 C 
HETATM   16  C22 UNL     1      -5.717   8.236  14.977  1.00  0.00     0.017 C 
HETATM   17  C23 UNL     1      -5.004   6.906  14.578  1.00  0.00    -0.031 C 
HETATM   18  C24 UNL     1      -4.794   6.057  15.855  1.00  0.00     0.016 C 
HETATM   19  C25 UNL     1      -3.615   7.261  13.899  1.00  0.00     0.024 C 
HETATM   20  C26 UNL     1      -2.658   8.117  14.775  1.00  0.00     0.010 C 
HETATM   21  C27 UNL     1      -1.260   8.408  14.173  1.00  0.00     0.011 C 
HETATM   22  C28 UNL     1      -0.876   7.500  12.987  1.00  0.00    -0.029 C 
HETATM   23  C29 UNL     1      -1.411   8.147  11.674  1.00  0.00     0.016 C 
ENDROOT
BRANCH   1  24
HETATM   24  C6  UNL     1       1.572   8.407  12.375  1.00  0.00    -0.014 C 
HETATM   25  C7  UNL     1       1.744   8.528  10.856  1.00  0.00     0.010 C 
BRANCH  24  26
HETATM   26  C5  UNL     1       2.956   8.277  13.074  1.00  0.00     0.008 C 
BRANCH  26  27
HETATM   27  C4  UNL     1       4.130   8.822  12.256  1.00  0.00     0.028 C 
BRANCH  27  28
HETATM   28  C3  UNL     1       4.884   7.726  11.552  1.00  0.00    -0.022 C 
HETATM   29  C2  UNL     1       5.962   7.064  12.021  1.00  0.00    -0.064 C 
HETATM   30  C1  UNL     1       6.593   5.954  11.225  1.00  0.00     0.045 C 
BRANCH  29  31
HETATM   31  C30 UNL     1       6.629   7.370  13.338  1.00  0.00     0.197 C 
BRANCH  31  32
HETATM   32  O2  UNL     1       6.145   6.495  14.347  1.00  0.00    -0.397 OA
HETATM   33  H48 UNL     1       5.875   5.669  13.910  1.00  0.00     0.209 HD
ENDBRANCH  31  32
ENDBRANCH  29  31
ENDBRANCH  27  28
ENDBRANCH  26  27
ENDBRANCH  24  26
ENDBRANCH   1  24
TORSDOF 6
ENDMDL
MODEL 6
REMARK minimizedAffinity -8.39699364
REMARK  6 active torsions:
REMARK  status: ('A' for Active; 'I' for Inactive)
REMARK    1  A    between atoms: C2_2  and  C30_31 
REMARK    2  A    between atoms: C3_3  and  C4_4 
REMARK    3  A    between atoms: C4_4  and  C5_5 
REMARK    4  A    between atoms: C5_5  and  C6_6 
REMARK    5  A    between atoms: C6_6  and  C8_8 
REMARK    6  A    between atoms: C30_31  and  O2_32 
ROOT
HETATM    1  C8  UNL     1      -3.267   6.674  14.424  1.00  0.00    -0.002 C 
HETATM    2  C9  UNL     1      -3.494   5.398  13.571  1.00  0.00     0.007 C 
HETATM    3  C10 UNL     1      -5.022   5.239  13.402  1.00  0.00     0.015 C 
HETATM    4  C11 UNL     1      -5.645   6.248  14.393  1.00  0.00    -0.013 C 
HETATM    5  C12 UNL     1      -5.691   5.514  15.772  1.00  0.00     0.021 C 
HETATM    6  C13 UNL     1      -7.062   6.747  14.143  1.00  0.00    -0.070 C 
HETATM    7  C14 UNL     1      -7.990   5.998  13.522  1.00  0.00    -0.022 C 
HETATM    8  C15 UNL     1      -9.432   6.373  13.387  1.00  0.00     0.034 C 
HETATM    9  C16 UNL     1      -9.798   7.804  13.850  1.00  0.00     0.013 C 
HETATM   10  C17 UNL     1     -11.352   8.017  13.997  1.00  0.00     0.018 C 
HETATM   11  C18 UNL     1     -12.126   6.794  14.535  1.00  0.00     0.023 C 
HETATM   12  C19 UNL     1     -11.958   8.369  12.621  1.00  0.00     0.023 C 
HETATM   13  C20 UNL     1     -11.626   9.211  14.916  1.00  0.00     0.135 C 
HETATM   14  O1  UNL     1     -12.675   9.335  15.550  1.00  0.00    -0.297 OA
HETATM   15  C21 UNL     1     -10.589  10.301  14.941  1.00  0.00     0.080 C 
HETATM   16  C22 UNL     1      -9.233   9.783  15.386  1.00  0.00     0.017 C 
HETATM   17  C23 UNL     1      -8.937   8.281  15.080  1.00  0.00    -0.031 C 
HETATM   18  C24 UNL     1      -9.256   7.449  16.346  1.00  0.00     0.016 C 
HETATM   19  C25 UNL     1      -7.409   8.138  14.680  1.00  0.00     0.024 C 
HETATM   20  C26 UNL     1      -6.401   8.657  15.744  1.00  0.00     0.010 C 
HETATM   21  C27 UNL     1      -4.900   8.453  15.418  1.00  0.00     0.011 C 
HETATM   22  C28 UNL     1      -4.626   7.434  14.294  1.00  0.00    -0.029 C 
HETATM   23  C29 UNL     1      -4.667   8.182  12.927  1.00  0.00     0.016 C 
ENDROOT
BRANCH   1  24
HETATM   24  C6  UNL     1      -1.947   7.465  14.172  1.00  0.00    -0.014 C 
HETATM   25  C7  UNL     1      -2.021   8.965  14.485  1.00  0.00     0.010 C 
BRANCH  24  26
HETATM   26  C5  UNL     1      -1.492   7.234  12.702  1.00  0.00     0.008 C 
BRANCH  26  27
HETATM   27  C4  UNL     1      -0.241   8.020  12.297  1.00  0.00     0.028 C 
BRANCH  27  28
HETATM   28  C3  UNL     1      -0.239   8.360  10.831  1.00  0.00    -0.022 C 
HETATM   29  C2  UNL     1       0.569   7.837   9.886  1.00  0.00    -0.064 C 
HETATM   30  C1  UNL     1       0.431   8.240   8.442  1.00  0.00     0.045 C 
BRANCH  29  31
HETATM   31  C30 UNL     1       1.665   6.843  10.175  1.00  0.00     0.197 C 
BRANCH  31  32
HETATM   32  O2  UNL     1       1.931   6.058   9.020  1.00  0.00    -0.397 OA
HETATM   33  H48 UNL     1       1.705   6.598   8.244  1.00  0.00     0.209 HD
ENDBRANCH  31  32
ENDBRANCH  29  31
ENDBRANCH  27  28
ENDBRANCH  26  27
ENDBRANCH  24  26
ENDBRANCH   1  24
TORSDOF 6
ENDMDL
MODEL 7
REMARK minimizedAffinity -8.36971283
REMARK  6 active torsions:
REMARK  status: ('A' for Active; 'I' for Inactive)
REMARK    1  A    between atoms: C2_2  and  C30_31 
REMARK    2  A    between atoms: C3_3  and  C4_4 
REMARK    3  A    between atoms: C4_4  and  C5_5 
REMARK    4  A    between atoms: C5_5  and  C6_6 
REMARK    5  A    between atoms: C6_6  and  C8_8 
REMARK    6  A    between atoms: C30_31  and  O2_32 
ROOT
HETATM    1  C8  UNL     1       2.186   7.004  11.078  1.00  0.00    -0.002 C 
HETATM    2  C9  UNL     1       1.961   5.566  10.544  1.00  0.00     0.007 C 
HETATM    3  C10 UNL     1       0.590   5.097  11.082  1.00  0.00     0.015 C 
HETATM    4  C11 UNL     1       0.192   6.150  12.140  1.00  0.00    -0.013 C 
HETATM    5  C12 UNL     1       0.896   5.707  13.464  1.00  0.00     0.021 C 
HETATM    6  C13 UNL     1      -1.281   6.319  12.492  1.00  0.00    -0.070 C 
HETATM    7  C14 UNL     1      -2.159   5.304  12.421  1.00  0.00    -0.022 C 
HETATM    8  C15 UNL     1      -3.576   5.372  12.899  1.00  0.00     0.034 C 
HETATM    9  C16 UNL     1      -4.069   6.774  13.331  1.00  0.00     0.013 C 
HETATM   10  C17 UNL     1      -5.429   6.722  14.126  1.00  0.00     0.018 C 
HETATM   11  C18 UNL     1      -5.583   5.508  15.068  1.00  0.00     0.023 C 
HETATM   12  C19 UNL     1      -6.608   6.677  13.130  1.00  0.00     0.023 C 
HETATM   13  C20 UNL     1      -5.597   8.003  14.949  1.00  0.00     0.135 C 
HETATM   14  O1  UNL     1      -6.292   8.054  15.964  1.00  0.00    -0.297 OA
HETATM   15  C21 UNL     1      -4.950   9.248  14.406  1.00  0.00     0.080 C 
HETATM   16  C22 UNL     1      -3.448   9.088  14.256  1.00  0.00     0.017 C 
HETATM   17  C23 UNL     1      -2.934   7.636  14.003  1.00  0.00    -0.031 C 
HETATM   18  C24 UNL     1      -2.491   7.026  15.355  1.00  0.00     0.016 C 
HETATM   19  C25 UNL     1      -1.717   7.701  12.986  1.00  0.00     0.024 C 
HETATM   20  C26 UNL     1      -0.531   8.596  13.441  1.00  0.00     0.010 C 
HETATM   21  C27 UNL     1       0.707   8.613  12.509  1.00  0.00     0.011 C 
HETATM   22  C28 UNL     1       0.748   7.460  11.486  1.00  0.00    -0.029 C 
HETATM   23  C29 UNL     1      -0.031   7.902  10.210  1.00  0.00     0.016 C 
ENDROOT
BRANCH   1  24
HETATM   24  C6  UNL     1       3.044   7.959  10.193  1.00  0.00    -0.014 C 
HETATM   25  C7  UNL     1       3.153   7.552   8.718  1.00  0.00     0.010 C 
BRANCH  24  26
HETATM   26  C5  UNL     1       4.458   8.102  10.827  1.00  0.00     0.008 C 
BRANCH  26  27
HETATM   27  C4  UNL     1       4.790   7.037  11.877  1.00  0.00     0.028 C 
BRANCH  27  28
HETATM   28  C3  UNL     1       6.160   7.237  12.469  1.00  0.00    -0.022 C 
HETATM   29  C2  UNL     1       6.441   7.632  13.727  1.00  0.00    -0.064 C 
HETATM   30  C1  UNL     1       7.865   7.749  14.200  1.00  0.00     0.045 C 
BRANCH  29  31
HETATM   31  C30 UNL     1       5.393   7.998  14.747  1.00  0.00     0.197 C 
BRANCH  31  32
HETATM   32  O2  UNL     1       5.190   6.919  15.650  1.00  0.00    -0.397 OA
HETATM   33  H48 UNL     1       6.023   6.419  15.696  1.00  0.00     0.209 HD
ENDBRANCH  31  32
ENDBRANCH  29  31
ENDBRANCH  27  28
ENDBRANCH  26  27
ENDBRANCH  24  26
ENDBRANCH   1  24
TORSDOF 6
ENDMDL
MODEL 8
REMARK minimizedAffinity -8.30338669
REMARK  6 active torsions:
REMARK  status: ('A' for Active; 'I' for Inactive)
REMARK    1  A    between atoms: C2_2  and  C30_31 
REMARK    2  A    between atoms: C3_3  and  C4_4 
REMARK    3  A    between atoms: C4_4  and  C5_5 
REMARK    4  A    between atoms: C5_5  and  C6_6 
REMARK    5  A    between atoms: C6_6  and  C8_8 
REMARK    6  A    between atoms: C30_31  and  O2_32 
ROOT
HETATM    1  C8  UNL     1      -3.988   6.155  14.418  1.00  0.00    -0.002 C 
HETATM    2  C9  UNL     1      -4.476   4.902  13.644  1.00  0.00     0.007 C 
HETATM    3  C10 UNL     1      -6.015   5.008  13.546  1.00  0.00     0.015 C 
HETATM    4  C11 UNL     1      -6.402   6.155  14.507  1.00  0.00    -0.013 C 
HETATM    5  C12 UNL     1      -6.508   5.503  15.924  1.00  0.00     0.021 C 
HETATM    6  C13 UNL     1      -7.721   6.885  14.289  1.00  0.00    -0.070 C 
HETATM    7  C14 UNL     1      -8.795   6.284  13.746  1.00  0.00    -0.022 C 
HETATM    8  C15 UNL     1     -10.154   6.902  13.651  1.00  0.00     0.034 C 
HETATM    9  C16 UNL     1     -10.241   8.394  14.051  1.00  0.00     0.013 C 
HETATM   10  C17 UNL     1     -11.725   8.886  14.250  1.00  0.00     0.018 C 
HETATM   11  C18 UNL     1     -12.673   7.844  14.883  1.00  0.00     0.023 C 
HETATM   12  C19 UNL     1     -12.328   9.277  12.883  1.00  0.00     0.023 C 
HETATM   13  C20 UNL     1     -11.740  10.150  15.115  1.00  0.00     0.135 C 
HETATM   14  O1  UNL     1     -12.719  10.485  15.783  1.00  0.00    -0.297 OA
HETATM   15  C21 UNL     1     -10.530  11.039  15.040  1.00  0.00     0.080 C 
HETATM   16  C22 UNL     1      -9.264  10.310  15.455  1.00  0.00     0.017 C 
HETATM   17  C23 UNL     1      -9.250   8.767  15.219  1.00  0.00    -0.031 C 
HETATM   18  C24 UNL     1      -9.647   8.062  16.538  1.00  0.00     0.016 C 
HETATM   19  C25 UNL     1      -7.792   8.338  14.765  1.00  0.00     0.024 C 
HETATM   20  C26 UNL     1      -6.659   8.718  15.758  1.00  0.00     0.010 C 
HETATM   21  C27 UNL     1      -5.234   8.237  15.382  1.00  0.00     0.011 C 
HETATM   22  C28 UNL     1      -5.198   7.136  14.303  1.00  0.00    -0.029 C 
HETATM   23  C29 UNL     1      -5.175   7.817  12.902  1.00  0.00     0.016 C 
ENDROOT
BRANCH   1  24
HETATM   24  C6  UNL     1      -2.564   6.687  14.071  1.00  0.00    -0.014 C 
HETATM   25  C7  UNL     1      -2.503   7.629  12.861  1.00  0.00     0.010 C 
BRANCH  24  26
HETATM   26  C5  UNL     1      -1.606   5.478  13.872  1.00  0.00     0.008 C 
BRANCH  26  27
HETATM   27  C4  UNL     1      -1.050   5.339  12.451  1.00  0.00     0.028 C 
BRANCH  27  28
HETATM   28  C3  UNL     1      -0.809   3.900  12.079  1.00  0.00    -0.022 C 
HETATM   29  C2  UNL     1      -1.567   3.146  11.255  1.00  0.00    -0.064 C 
HETATM   30  C1  UNL     1      -1.182   1.727  10.935  1.00  0.00     0.045 C 
BRANCH  29  31
HETATM   31  C30 UNL     1      -2.839   3.629  10.607  1.00  0.00     0.197 C 
BRANCH  31  32
HETATM   32  O2  UNL     1      -3.822   2.603  10.634  1.00  0.00    -0.397 OA
HETATM   33  H48 UNL     1      -3.636   2.042  11.406  1.00  0.00     0.209 HD
ENDBRANCH  31  32
ENDBRANCH  29  31
ENDBRANCH  27  28
ENDBRANCH  26  27
ENDBRANCH  24  26
ENDBRANCH   1  24
TORSDOF 6
ENDMDL
MODEL 9
REMARK minimizedAffinity -8.24013615
REMARK  6 active torsions:
REMARK  status: ('A' for Active; 'I' for Inactive)
REMARK    1  A    between atoms: C2_2  and  C30_31 
REMARK    2  A    between atoms: C3_3  and  C4_4 
REMARK    3  A    between atoms: C4_4  and  C5_5 
REMARK    4  A    between atoms: C5_5  and  C6_6 
REMARK    5  A    between atoms: C6_6  and  C8_8 
REMARK    6  A    between atoms: C30_31  and  O2_32 
ROOT
HETATM    1  C8  UNL     1      -1.743   5.986  12.407  1.00  0.00    -0.002 C 
HETATM    2  C9  UNL     1      -1.289   5.094  11.222  1.00  0.00     0.007 C 
HETATM    3  C10 UNL     1       0.202   5.410  10.970  1.00  0.00     0.015 C 
HETATM    4  C11 UNL     1       0.495   6.673  11.811  1.00  0.00    -0.013 C 
HETATM    5  C12 UNL     1       0.057   7.883  10.925  1.00  0.00     0.021 C 
HETATM    6  C13 UNL     1       1.931   6.964  12.229  1.00  0.00    -0.070 C 
HETATM    7  C14 UNL     1       2.986   6.584  11.487  1.00  0.00    -0.022 C 
HETATM    8  C15 UNL     1       4.403   6.975  11.766  1.00  0.00     0.034 C 
HETATM    9  C16 UNL     1       4.643   7.714  13.105  1.00  0.00     0.013 C 
HETATM   10  C17 UNL     1       6.067   8.385  13.184  1.00  0.00     0.018 C 
HETATM   11  C18 UNL     1       6.578   8.980  11.854  1.00  0.00     0.023 C 
HETATM   12  C19 UNL     1       7.105   7.338  13.642  1.00  0.00     0.023 C 
HETATM   13  C20 UNL     1       6.060   9.490  14.243  1.00  0.00     0.135 C 
HETATM   14  O1  UNL     1       6.844  10.440  14.216  1.00  0.00    -0.297 OA
HETATM   15  C21 UNL     1       5.111   9.320  15.397  1.00  0.00     0.080 C 
HETATM   16  C22 UNL     1       3.667   9.229  14.936  1.00  0.00     0.017 C 
HETATM   17  C23 UNL     1       3.439   8.650  13.504  1.00  0.00    -0.031 C 
HETATM   18  C24 UNL     1       3.294   9.831  12.513  1.00  0.00     0.016 C 
HETATM   19  C25 UNL     1       2.126   7.761  13.521  1.00  0.00     0.024 C 
HETATM   20  C26 UNL     1       0.841   8.499  13.990  1.00  0.00     0.010 C 
HETATM   21  C27 UNL     1      -0.474   7.680  13.936  1.00  0.00     0.011 C 
HETATM   22  C28 UNL     1      -0.394   6.404  13.074  1.00  0.00    -0.029 C 
HETATM   23  C29 UNL     1       0.122   5.235  13.966  1.00  0.00     0.016 C 
ENDROOT
BRANCH   1  24
HETATM   24  C6  UNL     1      -2.878   5.425  13.317  1.00  0.00    -0.014 C 
HETATM   25  C7  UNL     1      -3.439   4.063  12.888  1.00  0.00     0.010 C 
BRANCH  24  26
HETATM   26  C5  UNL     1      -4.018   6.480  13.414  1.00  0.00     0.008 C 
BRANCH  26  27
HETATM   27  C4  UNL     1      -5.264   5.998  14.163  1.00  0.00     0.028 C 
BRANCH  27  28
HETATM   28  C3  UNL     1      -6.524   6.245  13.378  1.00  0.00    -0.022 C 
HETATM   29  C2  UNL     1      -7.431   5.320  13.003  1.00  0.00    -0.064 C 
HETATM   30  C1  UNL     1      -8.675   5.717  12.254  1.00  0.00     0.045 C 
BRANCH  29  31
HETATM   31  C30 UNL     1      -7.287   3.844  13.274  1.00  0.00     0.197 C 
BRANCH  31  32
HETATM   32  O2  UNL     1      -8.560   3.213  13.242  1.00  0.00    -0.397 OA
HETATM   33  H48 UNL     1      -9.126   3.732  12.644  1.00  0.00     0.209 HD
ENDBRANCH  31  32
ENDBRANCH  29  31
ENDBRANCH  27  28
ENDBRANCH  26  27
ENDBRANCH  24  26
ENDBRANCH   1  24
TORSDOF 6
ENDMDL
