MODEL 1
REMARK minimizedAffinity -8.9019804
REMARK CNNscore 0.738767743
REMARK CNNaffinity 7.29105425
REMARK  18 active torsions:
REMARK  status: ('A' for Active; 'I' for Inactive)
REMARK    1  A    between atoms: C2_2  and  C4_4 
REMARK    2  A    between atoms: C4_4  and  N1_5 
REMARK    3  A    between atoms: C4_4  and  C30_38 
REMARK       I    between atoms: N1_5  and  C5_6 
REMARK    4  A    between atoms: C5_6  and  C6_8 
REMARK    5  A    between atoms: C6_8  and  C7_9 
REMARK    6  A    between atoms: C7_9  and  C8_10 
REMARK    7  A    between atoms: C8_10  and  O3_12 
REMARK    8  A    between atoms: O3_12  and  C9_13 
REMARK    9  A    between atoms: C9_13  and  C10_14 
REMARK   10  A    between atoms: C10_14  and  C11_16 
REMARK   11  A    between atoms: C11_16  and  O5_17 
REMARK   12  A    between atoms: C26_33  and  O7_34 
REMARK       I    between atoms: C30_38  and  N2_40 
REMARK   13  A    between atoms: N2_40  and  C31_41 
REMARK   14  A    between atoms: C31_41  and  C32_42 
REMARK   15  A    between atoms: C32_42  and  C33_43 
REMARK   16  A    between atoms: C32_42  and  C35_47 
REMARK   17  A    between atoms: C33_43  and  C34_44 
REMARK   18  A    between atoms: C34_44  and  O10_46 
ROOT
HETATM    1  C8  UNL     1      -4.911   6.979  14.907  1.00  0.00     0.259 C 
HETATM    2  O2  UNL     1      -4.943   7.068  13.688  1.00  0.00    -0.265 OA
ENDROOT
BRANCH   1   3
HETATM    3  C7  UNL     1      -5.999   6.326  15.726  1.00  0.00     0.120 C 
BRANCH   3   4
HETATM    4  C6  UNL     1      -7.202   5.920  14.888  1.00  0.00     0.112 C 
BRANCH   4   5
HETATM    5  C5  UNL     1      -8.257   7.004  14.915  1.00  0.00     0.218 C 
HETATM    6  N1  UNL     1      -9.533   6.545  15.147  1.00  0.00    -0.347 N 
HETATM    7  H9  UNL     1      -9.688   5.566  15.346  1.00  0.00     0.163 HD
HETATM    8  O1  UNL     1      -7.985   8.181  14.711  1.00  0.00    -0.274 OA
BRANCH   6   9
HETATM    9  C4  UNL     1     -10.688   7.461  15.154  1.00  0.00     0.179 C 
BRANCH   9  10
HETATM   10  C2  UNL     1     -10.209   8.909  15.433  1.00  0.00     0.009 C 
HETATM   11  C1  UNL     1     -10.879   9.946  14.525  1.00  0.00     0.012 C 
HETATM   12  C3  UNL     1     -10.470   9.302  16.895  1.00  0.00     0.012 C 
ENDBRANCH   9  10
BRANCH   9  13
HETATM   13  C30 UNL     1     -11.442   7.368  13.800  1.00  0.00     0.240 C 
HETATM   14  O8  UNL     1     -10.858   7.342  12.719  1.00  0.00    -0.271 OA
HETATM   15  N2  UNL     1     -12.804   7.174  13.906  1.00  0.00    -0.359 N 
HETATM   16  H43 UNL     1     -13.185   7.033  14.830  1.00  0.00     0.162 HD
BRANCH  15  17
HETATM   17  C31 UNL     1     -13.624   6.834  12.761  1.00  0.00     0.132 C 
BRANCH  17  18
HETATM   18  C32 UNL     1     -15.067   7.364  12.907  1.00  0.00     0.046 C 
BRANCH  18  19
HETATM   19  C33 UNL     1     -15.071   8.897  12.822  1.00  0.00     0.120 C 
BRANCH  19  20
HETATM   20  C34 UNL     1     -16.031   9.409  11.783  1.00  0.00     0.140 C 
HETATM   21  O9  UNL     1     -16.066   9.138  10.594  1.00  0.00    -0.650 OA
BRANCH  20  22
HETATM   22  O10 UNL     1     -16.950  10.241  12.318  1.00  0.00    -0.776 OA
HETATM   23  H49 UNL     1     -17.515  10.490  11.558  1.00  0.00     0.167 HD
ENDBRANCH  20  22
ENDBRANCH  19  20
ENDBRANCH  18  19
BRANCH  18  24
HETATM   24  C35 UNL     1     -15.706   6.838  14.190  1.00  0.00    -0.052 A 
HETATM   25  C36 UNL     1     -16.104   7.694  15.230  1.00  0.00     0.007 A 
HETATM   26  C37 UNL     1     -16.640   7.176  16.410  1.00  0.00     0.001 A 
HETATM   27  C38 UNL     1     -16.795   5.801  16.563  1.00  0.00     0.000 A 
HETATM   28  C39 UNL     1     -16.419   4.940  15.535  1.00  0.00     0.001 A 
HETATM   29  C40 UNL     1     -15.877   5.453  14.357  1.00  0.00     0.007 A 
ENDBRANCH  18  24
ENDBRANCH  17  18
ENDBRANCH  15  17
ENDBRANCH   9  13
ENDBRANCH   6   9
ENDBRANCH   4   5
ENDBRANCH   3   4
ENDBRANCH   1   3
BRANCH   1  30
HETATM   30  O3  UNL     1      -3.894   7.410  15.698  1.00  0.00    -0.314 OA
BRANCH  30  31
HETATM   31  C9  UNL     1      -2.636   6.783  15.441  1.00  0.00     0.260 C 
BRANCH  31  32
HETATM   32  C10 UNL     1      -1.660   7.730  14.756  1.00  0.00     0.185 C 
HETATM   33  O4  UNL     1      -0.993   8.558  15.394  1.00  0.00    -0.292 OA
BRANCH  32  34
HETATM   34  C11 UNL     1      -1.497   7.670  13.225  1.00  0.00     0.128 C 
HETATM   35  C12 UNL     1      -2.167   8.785  12.389  1.00  0.00     0.047 C 
HETATM   36  C13 UNL     1      -1.266   9.001  11.152  1.00  0.00     0.009 C 
HETATM   37  C14 UNL     1      -0.235   7.879  11.229  1.00  0.00     0.002 C 
HETATM   38  C15 UNL     1       1.069   8.019  10.434  1.00  0.00    -0.002 C 
HETATM   39  C28 UNL     1      -0.012   7.689  12.747  1.00  0.00     0.001 C 
HETATM   40  C16 UNL     1       0.774   8.297   8.943  1.00  0.00     0.010 C 
HETATM   41  C25 UNL     1       1.912   6.707  10.630  1.00  0.00     0.031 C 
HETATM   42  C17 UNL     1       2.021   8.246   8.060  1.00  0.00     0.035 C 
HETATM   43  C18 UNL     1       2.747   6.949   8.315  1.00  0.00    -0.068 C 
HETATM   44  C19 UNL     1       2.818   6.011   7.354  1.00  0.00     0.053 C 
HETATM   45  C23 UNL     1       3.226   6.740   9.761  1.00  0.00    -0.014 C 
HETATM   46  C20 UNL     1       3.268   4.632   7.662  1.00  0.00     0.149 C 
HETATM   47  O6  UNL     1       3.394   3.818   6.750  1.00  0.00    -0.293 OA
HETATM   48  C21 UNL     1       3.452   4.259   9.110  1.00  0.00     0.084 C 
HETATM   49  C22 UNL     1       4.061   5.431   9.859  1.00  0.00     0.022 C 
HETATM   50  C24 UNL     1       4.200   7.882  10.153  1.00  0.00     0.020 C 
HETATM   51  C26 UNL     1       2.093   6.329  12.129  1.00  0.00     0.124 C 
HETATM   52  C27 UNL     1       0.779   6.377  12.938  1.00  0.00     0.045 C 
HETATM   53  C29 UNL     1       0.739   8.875  13.408  1.00  0.00     0.019 C 
BRANCH  34  54
HETATM   54  O5  UNL     1      -2.118   6.430  12.827  1.00  0.00    -0.381 OA
HETATM   55  H16 UNL     1      -1.943   5.788  13.547  1.00  0.00     0.211 HD
ENDBRANCH  34  54
BRANCH  51  56
HETATM   56  O7  UNL     1       3.069   7.147  12.755  1.00  0.00    -0.395 OA
HETATM   57  H37 UNL     1       3.203   6.814  13.659  1.00  0.00     0.210 HD
ENDBRANCH  51  56
ENDBRANCH  32  34
ENDBRANCH  31  32
ENDBRANCH  30  31
ENDBRANCH   1  30
TORSDOF 18
ENDMDL
MODEL 2
REMARK minimizedAffinity -9.7112093
REMARK CNNscore 0.582878232
REMARK CNNaffinity 7.53318405
REMARK  18 active torsions:
REMARK  status: ('A' for Active; 'I' for Inactive)
REMARK    1  A    between atoms: C2_2  and  C4_4 
REMARK    2  A    between atoms: C4_4  and  N1_5 
REMARK    3  A    between atoms: C4_4  and  C30_38 
REMARK       I    between atoms: N1_5  and  C5_6 
REMARK    4  A    between atoms: C5_6  and  C6_8 
REMARK    5  A    between atoms: C6_8  and  C7_9 
REMARK    6  A    between atoms: C7_9  and  C8_10 
REMARK    7  A    between atoms: C8_10  and  O3_12 
REMARK    8  A    between atoms: O3_12  and  C9_13 
REMARK    9  A    between atoms: C9_13  and  C10_14 
REMARK   10  A    between atoms: C10_14  and  C11_16 
REMARK   11  A    between atoms: C11_16  and  O5_17 
REMARK   12  A    between atoms: C26_33  and  O7_34 
REMARK       I    between atoms: C30_38  and  N2_40 
REMARK   13  A    between atoms: N2_40  and  C31_41 
REMARK   14  A    between atoms: C31_41  and  C32_42 
REMARK   15  A    between atoms: C32_42  and  C33_43 
REMARK   16  A    between atoms: C32_42  and  C35_47 
REMARK   17  A    between atoms: C33_43  and  C34_44 
REMARK   18  A    between atoms: C34_44  and  O10_46 
ROOT
HETATM    1  C8  UNL     1      -3.778   3.670  12.320  1.00  0.00     0.259 C 
HETATM    2  O2  UNL     1      -2.914   3.676  11.454  1.00  0.00    -0.265 OA
ENDROOT
BRANCH   1   3
HETATM    3  C7  UNL     1      -5.127   3.014  12.150  1.00  0.00     0.120 C 
BRANCH   3   4
HETATM    4  C6  UNL     1      -6.235   4.015  11.858  1.00  0.00     0.112 C 
BRANCH   4   5
HETATM    5  C5  UNL     1      -7.098   4.223  13.083  1.00  0.00     0.218 C 
HETATM    6  N1  UNL     1      -7.495   5.525  13.279  1.00  0.00    -0.347 N 
HETATM    7  H9  UNL     1      -7.262   6.232  12.595  1.00  0.00     0.163 HD
HETATM    8  O1  UNL     1      -7.380   3.305  13.844  1.00  0.00    -0.274 OA
BRANCH   6   9
HETATM    9  C4  UNL     1      -8.298   5.914  14.454  1.00  0.00     0.179 C 
BRANCH   9  10
HETATM   10  C2  UNL     1      -7.440   6.777  15.414  1.00  0.00     0.009 C 
HETATM   11  C1  UNL     1      -6.516   5.940  16.306  1.00  0.00     0.012 C 
HETATM   12  C3  UNL     1      -6.581   7.782  14.631  1.00  0.00     0.012 C 
ENDBRANCH   9  10
BRANCH   9  13
HETATM   13  C30 UNL     1      -9.569   6.678  13.993  1.00  0.00     0.240 C 
HETATM   14  O8  UNL     1     -10.012   6.596  12.851  1.00  0.00    -0.271 OA
HETATM   15  N2  UNL     1     -10.243   7.341  14.998  1.00  0.00    -0.359 N 
HETATM   16  H43 UNL     1      -9.911   7.217  15.944  1.00  0.00     0.162 HD
BRANCH  15  17
HETATM   17  C31 UNL     1     -11.563   7.905  14.798  1.00  0.00     0.132 C 
BRANCH  17  18
HETATM   18  C32 UNL     1     -12.109   7.609  13.384  1.00  0.00     0.046 C 
BRANCH  18  19
HETATM   19  C33 UNL     1     -12.094   8.892  12.540  1.00  0.00     0.120 C 
BRANCH  19  20
HETATM   20  C34 UNL     1     -11.791  10.113  13.366  1.00  0.00     0.140 C 
HETATM   21  O9  UNL     1     -10.821  10.319  14.075  1.00  0.00    -0.650 OA
BRANCH  20  22
HETATM   22  O10 UNL     1     -12.746  11.059  13.227  1.00  0.00    -0.776 OA
HETATM   23  H49 UNL     1     -12.433  11.795  13.792  1.00  0.00     0.167 HD
ENDBRANCH  20  22
ENDBRANCH  19  20
ENDBRANCH  18  19
BRANCH  18  24
HETATM   24  C35 UNL     1     -13.492   6.967  13.465  1.00  0.00    -0.052 A 
HETATM   25  C36 UNL     1     -14.546   7.360  12.625  1.00  0.00     0.007 A 
HETATM   26  C37 UNL     1     -15.812   6.786  12.758  1.00  0.00     0.001 A 
HETATM   27  C38 UNL     1     -16.039   5.810  13.724  1.00  0.00     0.000 A 
HETATM   28  C39 UNL     1     -14.999   5.399  14.555  1.00  0.00     0.001 A 
HETATM   29  C40 UNL     1     -13.735   5.974  14.429  1.00  0.00     0.007 A 
ENDBRANCH  18  24
ENDBRANCH  17  18
ENDBRANCH  15  17
ENDBRANCH   9  13
ENDBRANCH   6   9
ENDBRANCH   4   5
ENDBRANCH   3   4
ENDBRANCH   1   3
BRANCH   1  30
HETATM   30  O3  UNL     1      -3.648   4.208  13.561  1.00  0.00    -0.314 OA
BRANCH  30  31
HETATM   31  C9  UNL     1      -3.713   5.634  13.599  1.00  0.00     0.260 C 
BRANCH  31  32
HETATM   32  C10 UNL     1      -2.873   6.211  14.731  1.00  0.00     0.185 C 
HETATM   33  O4  UNL     1      -3.192   6.069  15.921  1.00  0.00    -0.292 OA
BRANCH  32  34
HETATM   34  C11 UNL     1      -1.594   7.000  14.396  1.00  0.00     0.128 C 
HETATM   35  C12 UNL     1      -0.626   7.321  15.558  1.00  0.00     0.047 C 
HETATM   36  C13 UNL     1       0.795   7.328  14.952  1.00  0.00     0.009 C 
HETATM   37  C14 UNL     1       0.569   7.206  13.447  1.00  0.00     0.002 C 
HETATM   38  C15 UNL     1       1.733   6.743  12.561  1.00  0.00    -0.002 C 
HETATM   39  C28 UNL     1      -0.683   6.305  13.336  1.00  0.00     0.001 C 
HETATM   40  C16 UNL     1       2.979   7.628  12.788  1.00  0.00     0.010 C 
HETATM   41  C25 UNL     1       1.258   6.773  11.064  1.00  0.00     0.031 C 
HETATM   42  C17 UNL     1       4.106   7.352  11.794  1.00  0.00     0.035 C 
HETATM   43  C18 UNL     1       3.550   7.416  10.394  1.00  0.00    -0.068 C 
HETATM   44  C19 UNL     1       3.927   8.399   9.558  1.00  0.00     0.053 C 
HETATM   45  C23 UNL     1       2.435   6.402  10.085  1.00  0.00    -0.014 C 
HETATM   46  C20 UNL     1       3.194   8.654   8.294  1.00  0.00     0.149 C 
HETATM   47  O6  UNL     1       3.607   9.510   7.516  1.00  0.00    -0.293 OA
HETATM   48  C21 UNL     1       1.901   7.913   8.071  1.00  0.00     0.084 C 
HETATM   49  C22 UNL     1       2.039   6.491   8.584  1.00  0.00     0.022 C 
HETATM   50  C24 UNL     1       2.977   4.963  10.285  1.00  0.00     0.020 C 
HETATM   51  C26 UNL     1      -0.080   6.009  10.844  1.00  0.00     0.124 C 
HETATM   52  C27 UNL     1      -1.172   6.371  11.874  1.00  0.00     0.045 C 
HETATM   53  C29 UNL     1      -0.418   4.835  13.753  1.00  0.00     0.019 C 
BRANCH  34  54
HETATM   54  O5  UNL     1      -2.054   8.266  13.883  1.00  0.00    -0.381 OA
HETATM   55  H16 UNL     1      -2.879   8.083  13.385  1.00  0.00     0.211 HD
ENDBRANCH  34  54
BRANCH  51  56
HETATM   56  O7  UNL     1       0.122   4.604  10.837  1.00  0.00    -0.395 OA
HETATM   57  H37 UNL     1      -0.725   4.181  10.612  1.00  0.00     0.210 HD
ENDBRANCH  51  56
ENDBRANCH  32  34
ENDBRANCH  31  32
ENDBRANCH  30  31
ENDBRANCH   1  30
TORSDOF 18
ENDMDL
MODEL 3
REMARK minimizedAffinity -8.33117867
REMARK CNNscore 0.540408671
REMARK CNNaffinity 7.61628962
REMARK  18 active torsions:
REMARK  status: ('A' for Active; 'I' for Inactive)
REMARK    1  A    between atoms: C2_2  and  C4_4 
REMARK    2  A    between atoms: C4_4  and  N1_5 
REMARK    3  A    between atoms: C4_4  and  C30_38 
REMARK       I    between atoms: N1_5  and  C5_6 
REMARK    4  A    between atoms: C5_6  and  C6_8 
REMARK    5  A    between atoms: C6_8  and  C7_9 
REMARK    6  A    between atoms: C7_9  and  C8_10 
REMARK    7  A    between atoms: C8_10  and  O3_12 
REMARK    8  A    between atoms: O3_12  and  C9_13 
REMARK    9  A    between atoms: C9_13  and  C10_14 
REMARK   10  A    between atoms: C10_14  and  C11_16 
REMARK   11  A    between atoms: C11_16  and  O5_17 
REMARK   12  A    between atoms: C26_33  and  O7_34 
REMARK       I    between atoms: C30_38  and  N2_40 
REMARK   13  A    between atoms: N2_40  and  C31_41 
REMARK   14  A    between atoms: C31_41  and  C32_42 
REMARK   15  A    between atoms: C32_42  and  C33_43 
REMARK   16  A    between atoms: C32_42  and  C35_47 
REMARK   17  A    between atoms: C33_43  and  C34_44 
REMARK   18  A    between atoms: C34_44  and  O10_46 
ROOT
HETATM    1  C8  UNL     1      -3.513   1.990  11.813  1.00  0.00     0.259 C 
HETATM    2  O2  UNL     1      -2.650   1.225  11.407  1.00  0.00    -0.265 OA
ENDROOT
BRANCH   1   3
HETATM    3  C7  UNL     1      -4.976   1.861  11.463  1.00  0.00     0.120 C 
BRANCH   3   4
HETATM    4  C6  UNL     1      -5.643   3.205  11.212  1.00  0.00     0.112 C 
BRANCH   4   5
HETATM    5  C5  UNL     1      -6.805   3.405  12.160  1.00  0.00     0.218 C 
HETATM    6  N1  UNL     1      -7.137   4.722  12.377  1.00  0.00    -0.347 N 
HETATM    7  H9  UNL     1      -6.658   5.453  11.868  1.00  0.00     0.163 HD
HETATM    8  O1  UNL     1      -7.370   2.464  12.705  1.00  0.00    -0.274 OA
BRANCH   6   9
HETATM    9  C4  UNL     1      -8.212   5.099  13.313  1.00  0.00     0.179 C 
BRANCH   9  10
HETATM   10  C2  UNL     1      -7.602   5.757  14.577  1.00  0.00     0.009 C 
HETATM   11  C1  UNL     1      -7.317   4.749  15.697  1.00  0.00     0.012 C 
HETATM   12  C3  UNL     1      -6.296   6.491  14.239  1.00  0.00     0.012 C 
ENDBRANCH   9  10
BRANCH   9  13
HETATM   13  C30 UNL     1      -9.213   6.054  12.608  1.00  0.00     0.240 C 
HETATM   14  O8  UNL     1      -9.334   6.100  11.386  1.00  0.00    -0.271 OA
HETATM   15  N2  UNL     1     -10.055   6.742  13.457  1.00  0.00    -0.359 N 
HETATM   16  H43 UNL     1     -10.009   6.519  14.441  1.00  0.00     0.162 HD
BRANCH  15  17
HETATM   17  C31 UNL     1     -11.196   7.491  12.971  1.00  0.00     0.132 C 
BRANCH  17  18
HETATM   18  C32 UNL     1     -12.139   7.916  14.117  1.00  0.00     0.046 C 
BRANCH  18  19
HETATM   19  C33 UNL     1     -13.534   8.231  13.556  1.00  0.00     0.120 C 
BRANCH  19  20
HETATM   20  C34 UNL     1     -13.552   9.508  12.760  1.00  0.00     0.140 C 
HETATM   21  O9  UNL     1     -12.903   9.781  11.764  1.00  0.00    -0.650 OA
BRANCH  20  22
HETATM   22  O10 UNL     1     -14.439  10.395  13.259  1.00  0.00    -0.776 OA
HETATM   23  H49 UNL     1     -14.368  11.164  12.657  1.00  0.00     0.167 HD
ENDBRANCH  20  22
ENDBRANCH  19  20
ENDBRANCH  18  19
BRANCH  18  24
HETATM   24  C35 UNL     1     -11.539   9.078  14.905  1.00  0.00    -0.052 A 
HETATM   25  C36 UNL     1     -10.286   9.626  14.585  1.00  0.00     0.007 A 
HETATM   26  C37 UNL     1      -9.744  10.656  15.356  1.00  0.00     0.001 A 
HETATM   27  C38 UNL     1     -10.447  11.156  16.448  1.00  0.00     0.000 A 
HETATM   28  C39 UNL     1     -11.697  10.633  16.769  1.00  0.00     0.001 A 
HETATM   29  C40 UNL     1     -12.239   9.600  16.005  1.00  0.00     0.007 A 
ENDBRANCH  18  24
ENDBRANCH  17  18
ENDBRANCH  15  17
ENDBRANCH   9  13
ENDBRANCH   6   9
ENDBRANCH   4   5
ENDBRANCH   3   4
ENDBRANCH   1   3
BRANCH   1  30
HETATM   30  O3  UNL     1      -3.302   3.034  12.658  1.00  0.00    -0.314 OA
BRANCH  30  31
HETATM   31  C9  UNL     1      -2.304   3.958  12.221  1.00  0.00     0.260 C 
BRANCH  31  32
HETATM   32  C10 UNL     1      -2.598   5.375  12.694  1.00  0.00     0.185 C 
HETATM   33  O4  UNL     1      -3.729   5.875  12.601  1.00  0.00    -0.292 OA
BRANCH  32  34
HETATM   34  C11 UNL     1      -1.462   6.221  13.298  1.00  0.00     0.128 C 
HETATM   35  C12 UNL     1      -0.250   6.542  12.393  1.00  0.00     0.047 C 
HETATM   36  C13 UNL     1       0.266   7.930  12.833  1.00  0.00     0.009 C 
HETATM   37  C14 UNL     1      -0.540   8.258  14.086  1.00  0.00     0.002 C 
HETATM   38  C15 UNL     1      -0.623   9.718  14.550  1.00  0.00    -0.002 C 
HETATM   39  C28 UNL     1      -1.922   7.621  13.811  1.00  0.00     0.001 C 
HETATM   40  C16 UNL     1       0.789  10.321  14.718  1.00  0.00     0.010 C 
HETATM   41  C25 UNL     1      -1.444   9.767  15.889  1.00  0.00     0.031 C 
HETATM   42  C17 UNL     1       0.784  11.703  15.370  1.00  0.00     0.035 C 
HETATM   43  C18 UNL     1      -0.015  11.638  16.647  1.00  0.00    -0.068 C 
HETATM   44  C19 UNL     1       0.592  11.791  17.836  1.00  0.00     0.053 C 
HETATM   45  C23 UNL     1      -1.488  11.228  16.477  1.00  0.00    -0.014 C 
HETATM   46  C20 UNL     1      -0.104  11.452  19.101  1.00  0.00     0.149 C 
HETATM   47  O6  UNL     1       0.450  11.673  20.176  1.00  0.00    -0.293 OA
HETATM   48  C21 UNL     1      -1.432  10.747  19.005  1.00  0.00     0.084 C 
HETATM   49  C22 UNL     1      -2.224  11.319  17.844  1.00  0.00     0.022 C 
HETATM   50  C24 UNL     1      -2.204  12.247  15.552  1.00  0.00     0.020 C 
HETATM   51  C26 UNL     1      -2.812   9.032  15.781  1.00  0.00     0.124 C 
HETATM   52  C27 UNL     1      -2.709   7.632  15.139  1.00  0.00     0.045 C 
HETATM   53  C29 UNL     1      -2.722   8.352  12.701  1.00  0.00     0.019 C 
BRANCH  34  54
HETATM   54  O5  UNL     1      -0.956   5.443  14.401  1.00  0.00    -0.381 OA
HETATM   55  H16 UNL     1      -1.727   4.979  14.791  1.00  0.00     0.211 HD
ENDBRANCH  34  54
BRANCH  51  56
HETATM   56  O7  UNL     1      -3.764   9.813  15.073  1.00  0.00    -0.395 OA
HETATM   57  H37 UNL     1      -4.618   9.347  15.110  1.00  0.00     0.210 HD
ENDBRANCH  51  56
ENDBRANCH  32  34
ENDBRANCH  31  32
ENDBRANCH  30  31
ENDBRANCH   1  30
TORSDOF 18
ENDMDL
MODEL 4
REMARK minimizedAffinity -8.35953808
REMARK CNNscore 0.493492365
REMARK CNNaffinity 7.14106894
REMARK  18 active torsions:
REMARK  status: ('A' for Active; 'I' for Inactive)
REMARK    1  A    between atoms: C2_2  and  C4_4 
REMARK    2  A    between atoms: C4_4  and  N1_5 
REMARK    3  A    between atoms: C4_4  and  C30_38 
REMARK       I    between atoms: N1_5  and  C5_6 
REMARK    4  A    between atoms: C5_6  and  C6_8 
REMARK    5  A    between atoms: C6_8  and  C7_9 
REMARK    6  A    between atoms: C7_9  and  C8_10 
REMARK    7  A    between atoms: C8_10  and  O3_12 
REMARK    8  A    between atoms: O3_12  and  C9_13 
REMARK    9  A    between atoms: C9_13  and  C10_14 
REMARK   10  A    between atoms: C10_14  and  C11_16 
REMARK   11  A    between atoms: C11_16  and  O5_17 
REMARK   12  A    between atoms: C26_33  and  O7_34 
REMARK       I    between atoms: C30_38  and  N2_40 
REMARK   13  A    between atoms: N2_40  and  C31_41 
REMARK   14  A    between atoms: C31_41  and  C32_42 
REMARK   15  A    between atoms: C32_42  and  C33_43 
REMARK   16  A    between atoms: C32_42  and  C35_47 
REMARK   17  A    between atoms: C33_43  and  C34_44 
REMARK   18  A    between atoms: C34_44  and  O10_46 
ROOT
HETATM    1  C8  UNL     1      -3.417   3.444  11.410  1.00  0.00     0.259 C 
HETATM    2  O2  UNL     1      -2.724   2.437  11.401  1.00  0.00    -0.265 OA
ENDROOT
BRANCH   1   3
HETATM    3  C7  UNL     1      -4.868   3.462  10.989  1.00  0.00     0.120 C 
BRANCH   3   4
HETATM    4  C6  UNL     1      -5.684   2.356  11.642  1.00  0.00     0.112 C 
BRANCH   4   5
HETATM    5  C5  UNL     1      -6.723   2.943  12.572  1.00  0.00     0.218 C 
HETATM    6  N1  UNL     1      -6.426   4.206  13.027  1.00  0.00    -0.347 N 
HETATM    7  H9  UNL     1      -5.605   4.686  12.683  1.00  0.00     0.163 HD
HETATM    8  O1  UNL     1      -7.722   2.317  12.908  1.00  0.00    -0.274 OA
BRANCH   6   9
HETATM    9  C4  UNL     1      -7.306   4.905  13.982  1.00  0.00     0.179 C 
BRANCH   9  10
HETATM   10  C2  UNL     1      -6.456   5.792  14.927  1.00  0.00     0.009 C 
HETATM   11  C1  UNL     1      -6.142   7.170  14.333  1.00  0.00     0.012 C 
HETATM   12  C3  UNL     1      -7.163   5.994  16.276  1.00  0.00     0.012 C 
ENDBRANCH   9  10
BRANCH   9  13
HETATM   13  C30 UNL     1      -8.355   5.750  13.210  1.00  0.00     0.240 C 
HETATM   14  O8  UNL     1      -8.353   5.849  11.986  1.00  0.00    -0.271 OA
HETATM   15  N2  UNL     1      -9.374   6.261  13.987  1.00  0.00    -0.359 N 
HETATM   16  H43 UNL     1      -9.401   5.990  14.960  1.00  0.00     0.162 HD
BRANCH  15  17
HETATM   17  C31 UNL     1     -10.555   6.869  13.407  1.00  0.00     0.132 C 
BRANCH  17  18
HETATM   18  C32 UNL     1     -11.564   7.316  14.488  1.00  0.00     0.046 C 
BRANCH  18  19
HETATM   19  C33 UNL     1     -12.970   7.418  13.878  1.00  0.00     0.120 C 
BRANCH  19  20
HETATM   20  C34 UNL     1     -13.170   8.703  13.121  1.00  0.00     0.140 C 
HETATM   21  O9  UNL     1     -12.579   9.088  12.125  1.00  0.00    -0.650 OA
BRANCH  20  22
HETATM   22  O10 UNL     1     -14.158   9.451  13.657  1.00  0.00    -0.776 OA
HETATM   23  H49 UNL     1     -14.200  10.239  13.078  1.00  0.00     0.167 HD
ENDBRANCH  20  22
ENDBRANCH  19  20
ENDBRANCH  18  19
BRANCH  18  24
HETATM   24  C35 UNL     1     -11.106   8.614  15.147  1.00  0.00    -0.052 A 
HETATM   25  C36 UNL     1     -10.041   9.374  14.635  1.00  0.00     0.007 A 
HETATM   26  C37 UNL     1      -9.616  10.532  15.291  1.00  0.00     0.001 A 
HETATM   27  C38 UNL     1     -10.251  10.948  16.457  1.00  0.00     0.000 A 
HETATM   28  C39 UNL     1     -11.318  10.213  16.969  1.00  0.00     0.001 A 
HETATM   29  C40 UNL     1     -11.741   9.053  16.321  1.00  0.00     0.007 A 
ENDBRANCH  18  24
ENDBRANCH  17  18
ENDBRANCH  15  17
ENDBRANCH   9  13
ENDBRANCH   6   9
ENDBRANCH   4   5
ENDBRANCH   3   4
ENDBRANCH   1   3
BRANCH   1  30
HETATM   30  O3  UNL     1      -3.013   4.672  11.826  1.00  0.00    -0.314 OA
BRANCH  30  31
HETATM   31  C9  UNL     1      -1.759   4.683  12.511  1.00  0.00     0.260 C 
BRANCH  31  32
HETATM   32  C10 UNL     1      -0.701   5.463  11.742  1.00  0.00     0.185 C 
HETATM   33  O4  UNL     1       0.018   4.923  10.888  1.00  0.00    -0.292 OA
BRANCH  32  34
HETATM   34  C11 UNL     1      -0.505   6.962  12.035  1.00  0.00     0.128 C 
HETATM   35  C12 UNL     1      -1.572   7.667  12.905  1.00  0.00     0.047 C 
HETATM   36  C13 UNL     1      -0.831   8.767  13.696  1.00  0.00     0.009 C 
HETATM   37  C14 UNL     1       0.578   8.777  13.110  1.00  0.00     0.002 C 
HETATM   38  C15 UNL     1       1.711   9.418  13.921  1.00  0.00    -0.002 C 
HETATM   39  C28 UNL     1       0.838   7.294  12.756  1.00  0.00     0.001 C 
HETATM   40  C16 UNL     1       1.347  10.866  14.319  1.00  0.00     0.010 C 
HETATM   41  C25 UNL     1       3.028   9.359  13.066  1.00  0.00     0.031 C 
HETATM   42  C17 UNL     1       2.510  11.630  14.952  1.00  0.00     0.035 C 
HETATM   43  C18 UNL     1       3.714  11.521  14.050  1.00  0.00    -0.068 C 
HETATM   44  C19 UNL     1       4.190  12.608  13.420  1.00  0.00     0.053 C 
HETATM   45  C23 UNL     1       4.216  10.089  13.799  1.00  0.00    -0.014 C 
HETATM   46  C20 UNL     1       5.179  12.485  12.320  1.00  0.00     0.149 C 
HETATM   47  O6  UNL     1       5.651  13.500  11.813  1.00  0.00    -0.293 OA
HETATM   48  C21 UNL     1       5.482  11.104  11.800  1.00  0.00     0.084 C 
HETATM   49  C22 UNL     1       5.525  10.126  12.961  1.00  0.00     0.022 C 
HETATM   50  C24 UNL     1       4.607   9.434  15.149  1.00  0.00     0.020 C 
HETATM   51  C26 UNL     1       3.331   7.929  12.530  1.00  0.00     0.124 C 
HETATM   52  C27 UNL     1       2.108   7.244  11.880  1.00  0.00     0.045 C 
HETATM   53  C29 UNL     1       1.005   6.388  14.004  1.00  0.00     0.019 C 
BRANCH  34  54
HETATM   54  O5  UNL     1      -0.535   7.606  10.746  1.00  0.00    -0.381 OA
HETATM   55  H16 UNL     1      -0.114   6.986  10.114  1.00  0.00     0.211 HD
ENDBRANCH  34  54
BRANCH  51  56
HETATM   56  O7  UNL     1       3.858   7.095  13.551  1.00  0.00    -0.395 OA
HETATM   57  H37 UNL     1       4.107   6.247  13.144  1.00  0.00     0.210 HD
ENDBRANCH  51  56
ENDBRANCH  32  34
ENDBRANCH  31  32
ENDBRANCH  30  31
ENDBRANCH   1  30
TORSDOF 18
ENDMDL
MODEL 5
REMARK minimizedAffinity -9.25969601
REMARK CNNscore 0.480932325
REMARK CNNaffinity 7.26342726
REMARK  18 active torsions:
REMARK  status: ('A' for Active; 'I' for Inactive)
REMARK    1  A    between atoms: C2_2  and  C4_4 
REMARK    2  A    between atoms: C4_4  and  N1_5 
REMARK    3  A    between atoms: C4_4  and  C30_38 
REMARK       I    between atoms: N1_5  and  C5_6 
REMARK    4  A    between atoms: C5_6  and  C6_8 
REMARK    5  A    between atoms: C6_8  and  C7_9 
REMARK    6  A    between atoms: C7_9  and  C8_10 
REMARK    7  A    between atoms: C8_10  and  O3_12 
REMARK    8  A    between atoms: O3_12  and  C9_13 
REMARK    9  A    between atoms: C9_13  and  C10_14 
REMARK   10  A    between atoms: C10_14  and  C11_16 
REMARK   11  A    between atoms: C11_16  and  O5_17 
REMARK   12  A    between atoms: C26_33  and  O7_34 
REMARK       I    between atoms: C30_38  and  N2_40 
REMARK   13  A    between atoms: N2_40  and  C31_41 
REMARK   14  A    between atoms: C31_41  and  C32_42 
REMARK   15  A    between atoms: C32_42  and  C33_43 
REMARK   16  A    between atoms: C32_42  and  C35_47 
REMARK   17  A    between atoms: C33_43  and  C34_44 
REMARK   18  A    between atoms: C34_44  and  O10_46 
ROOT
HETATM    1  C8  UNL     1      -3.602   3.169  11.981  1.00  0.00     0.259 C 
HETATM    2  O2  UNL     1      -2.661   2.436  11.714  1.00  0.00    -0.265 OA
ENDROOT
BRANCH   1   3
HETATM    3  C7  UNL     1      -4.866   3.239  11.157  1.00  0.00     0.120 C 
BRANCH   3   4
HETATM    4  C6  UNL     1      -5.891   2.189  11.559  1.00  0.00     0.112 C 
BRANCH   4   5
HETATM    5  C5  UNL     1      -6.929   2.788  12.484  1.00  0.00     0.218 C 
HETATM    6  N1  UNL     1      -6.700   4.103  12.813  1.00  0.00    -0.347 N 
HETATM    7  H9  UNL     1      -5.929   4.603  12.391  1.00  0.00     0.163 HD
HETATM    8  O1  UNL     1      -7.867   2.131  12.919  1.00  0.00    -0.274 OA
BRANCH   6   9
HETATM    9  C4  UNL     1      -7.586   4.826  13.745  1.00  0.00     0.179 C 
BRANCH   9  10
HETATM   10  C2  UNL     1      -6.738   5.691  14.712  1.00  0.00     0.009 C 
HETATM   11  C1  UNL     1      -6.355   7.051  14.117  1.00  0.00     0.012 C 
HETATM   12  C3  UNL     1      -7.483   5.930  16.034  1.00  0.00     0.012 C 
ENDBRANCH   9  10
BRANCH   9  13
HETATM   13  C30 UNL     1      -8.592   5.697  12.946  1.00  0.00     0.240 C 
HETATM   14  O8  UNL     1      -8.541   5.813  11.724  1.00  0.00    -0.271 OA
HETATM   15  N2  UNL     1      -9.632   6.214  13.691  1.00  0.00    -0.359 N 
HETATM   16  H43 UNL     1      -9.700   5.929  14.658  1.00  0.00     0.162 HD
BRANCH  15  17
HETATM   17  C31 UNL     1     -10.781   6.847  13.076  1.00  0.00     0.132 C 
BRANCH  17  18
HETATM   18  C32 UNL     1     -11.754   7.425  14.127  1.00  0.00     0.046 C 
BRANCH  18  19
HETATM   19  C33 UNL     1     -13.157   7.564  13.518  1.00  0.00     0.120 C 
BRANCH  19  20
HETATM   20  C34 UNL     1     -14.241   7.476  14.558  1.00  0.00     0.140 C 
HETATM   21  O9  UNL     1     -15.351   7.979  14.530  1.00  0.00    -0.650 OA
BRANCH  20  22
HETATM   22  O10 UNL     1     -13.868   6.707  15.604  1.00  0.00    -0.776 OA
HETATM   23  H49 UNL     1     -14.649   6.716  16.194  1.00  0.00     0.167 HD
ENDBRANCH  20  22
ENDBRANCH  19  20
ENDBRANCH  18  19
BRANCH  18  24
HETATM   24  C35 UNL     1     -11.217   8.738  14.692  1.00  0.00    -0.052 A 
HETATM   25  C36 UNL     1     -11.250   9.934  13.956  1.00  0.00     0.007 A 
HETATM   26  C37 UNL     1     -10.707  11.107  14.484  1.00  0.00     0.001 A 
HETATM   27  C38 UNL     1     -10.133  11.103  15.752  1.00  0.00     0.000 A 
HETATM   28  C39 UNL     1     -10.106   9.928  16.499  1.00  0.00     0.001 A 
HETATM   29  C40 UNL     1     -10.642   8.753  15.973  1.00  0.00     0.007 A 
ENDBRANCH  18  24
ENDBRANCH  17  18
ENDBRANCH  15  17
ENDBRANCH   9  13
ENDBRANCH   6   9
ENDBRANCH   4   5
ENDBRANCH   3   4
ENDBRANCH   1   3
BRANCH   1  30
HETATM   30  O3  UNL     1      -3.675   3.991  13.060  1.00  0.00    -0.314 OA
BRANCH  30  31
HETATM   31  C9  UNL     1      -3.076   5.274  12.870  1.00  0.00     0.260 C 
BRANCH  31  32
HETATM   32  C10 UNL     1      -1.683   5.345  13.481  1.00  0.00     0.185 C 
HETATM   33  O4  UNL     1      -1.507   5.363  14.708  1.00  0.00    -0.292 OA
BRANCH  32  34
HETATM   34  C11 UNL     1      -0.454   5.406  12.555  1.00  0.00     0.128 C 
HETATM   35  C12 UNL     1      -0.707   5.426  11.030  1.00  0.00     0.047 C 
HETATM   36  C13 UNL     1       0.434   6.264  10.411  1.00  0.00     0.009 C 
HETATM   37  C14 UNL     1       1.391   6.522  11.571  1.00  0.00     0.002 C 
HETATM   38  C15 UNL     1       2.401   7.671  11.453  1.00  0.00    -0.002 C 
HETATM   39  C28 UNL     1       0.457   6.650  12.796  1.00  0.00     0.001 C 
HETATM   40  C16 UNL     1       3.239   7.532  10.162  1.00  0.00     0.010 C 
HETATM   41  C25 UNL     1       3.304   7.672  12.739  1.00  0.00     0.031 C 
HETATM   42  C17 UNL     1       4.398   8.526  10.083  1.00  0.00     0.035 C 
HETATM   43  C18 UNL     1       5.204   8.438  11.355  1.00  0.00    -0.068 C 
HETATM   44  C19 UNL     1       6.461   7.962  11.331  1.00  0.00     0.053 C 
HETATM   45  C23 UNL     1       4.431   8.768  12.643  1.00  0.00    -0.014 C 
HETATM   46  C20 UNL     1       7.167   7.599  12.583  1.00  0.00     0.149 C 
HETATM   47  O6  UNL     1       8.340   7.237  12.535  1.00  0.00    -0.293 OA
HETATM   48  C21 UNL     1       6.370   7.593  13.862  1.00  0.00     0.084 C 
HETATM   49  C22 UNL     1       5.401   8.761  13.859  1.00  0.00     0.022 C 
HETATM   50  C24 UNL     1       3.883  10.216  12.560  1.00  0.00     0.020 C 
HETATM   51  C26 UNL     1       2.472   7.661  14.055  1.00  0.00     0.124 C 
HETATM   52  C27 UNL     1       1.343   6.607  14.060  1.00  0.00     0.045 C 
HETATM   53  C29 UNL     1      -0.401   7.942  12.780  1.00  0.00     0.019 C 
BRANCH  34  54
HETATM   54  O5  UNL     1       0.288   4.202  12.832  1.00  0.00    -0.381 OA
HETATM   55  H16 UNL     1       0.177   4.020  13.790  1.00  0.00     0.211 HD
ENDBRANCH  34  54
BRANCH  51  56
HETATM   56  O7  UNL     1       1.929   8.943  14.334  1.00  0.00    -0.395 OA
HETATM   57  H37 UNL     1       1.494   8.900  15.204  1.00  0.00     0.210 HD
ENDBRANCH  51  56
ENDBRANCH  32  34
ENDBRANCH  31  32
ENDBRANCH  30  31
ENDBRANCH   1  30
TORSDOF 18
ENDMDL
MODEL 6
REMARK minimizedAffinity -8.64138699
REMARK CNNscore 0.419703156
REMARK CNNaffinity 7.49506903
REMARK  18 active torsions:
REMARK  status: ('A' for Active; 'I' for Inactive)
REMARK    1  A    between atoms: C2_2  and  C4_4 
REMARK    2  A    between atoms: C4_4  and  N1_5 
REMARK    3  A    between atoms: C4_4  and  C30_38 
REMARK       I    between atoms: N1_5  and  C5_6 
REMARK    4  A    between atoms: C5_6  and  C6_8 
REMARK    5  A    between atoms: C6_8  and  C7_9 
REMARK    6  A    between atoms: C7_9  and  C8_10 
REMARK    7  A    between atoms: C8_10  and  O3_12 
REMARK    8  A    between atoms: O3_12  and  C9_13 
REMARK    9  A    between atoms: C9_13  and  C10_14 
REMARK   10  A    between atoms: C10_14  and  C11_16 
REMARK   11  A    between atoms: C11_16  and  O5_17 
REMARK   12  A    between atoms: C26_33  and  O7_34 
REMARK       I    between atoms: C30_38  and  N2_40 
REMARK   13  A    between atoms: N2_40  and  C31_41 
REMARK   14  A    between atoms: C31_41  and  C32_42 
REMARK   15  A    between atoms: C32_42  and  C33_43 
REMARK   16  A    between atoms: C32_42  and  C35_47 
REMARK   17  A    between atoms: C33_43  and  C34_44 
REMARK   18  A    between atoms: C34_44  and  O10_46 
ROOT
HETATM    1  C8  UNL     1      -2.363   4.436  12.722  1.00  0.00     0.259 C 
HETATM    2  O2  UNL     1      -2.581   3.790  11.706  1.00  0.00    -0.265 OA
ENDROOT
BRANCH   1   3
HETATM    3  C7  UNL     1      -1.049   5.122  13.009  1.00  0.00     0.120 C 
BRANCH   3   4
HETATM    4  C6  UNL     1      -0.650   6.109  11.922  1.00  0.00     0.112 C 
BRANCH   4   5
HETATM    5  C5  UNL     1       0.483   5.551  11.088  1.00  0.00     0.218 C 
HETATM    6  N1  UNL     1       1.212   6.504  10.416  1.00  0.00    -0.347 N 
HETATM    7  H9  UNL     1       1.011   7.485  10.557  1.00  0.00     0.163 HD
HETATM    8  O1  UNL     1       0.696   4.347  11.004  1.00  0.00    -0.274 OA
BRANCH   6   9
HETATM    9  C4  UNL     1       2.320   6.130   9.518  1.00  0.00     0.179 C 
BRANCH   9  10
HETATM   10  C2  UNL     1       2.410   7.142   8.347  1.00  0.00     0.009 C 
HETATM   11  C1  UNL     1       2.293   6.477   6.971  1.00  0.00     0.012 C 
HETATM   12  C3  UNL     1       1.319   8.217   8.463  1.00  0.00     0.012 C 
ENDBRANCH   9  10
BRANCH   9  13
HETATM   13  C30 UNL     1       3.649   6.073  10.317  1.00  0.00     0.240 C 
HETATM   14  O8  UNL     1       4.649   5.497   9.896  1.00  0.00    -0.271 OA
HETATM   15  N2  UNL     1       3.669   6.837  11.467  1.00  0.00    -0.359 N 
HETATM   16  H43 UNL     1       2.866   7.420  11.654  1.00  0.00     0.162 HD
BRANCH  15  17
HETATM   17  C31 UNL     1       4.891   7.087  12.204  1.00  0.00     0.132 C 
BRANCH  17  18
HETATM   18  C32 UNL     1       4.776   8.336  13.105  1.00  0.00     0.046 C 
BRANCH  18  19
HETATM   19  C33 UNL     1       4.653   9.597  12.236  1.00  0.00     0.120 C 
BRANCH  19  20
HETATM   20  C34 UNL     1       5.696   9.645  11.152  1.00  0.00     0.140 C 
HETATM   21  O9  UNL     1       6.249   8.708  10.600  1.00  0.00    -0.650 OA
BRANCH  20  22
HETATM   22  O10 UNL     1       5.978  10.914  10.785  1.00  0.00    -0.776 OA
HETATM   23  H49 UNL     1       6.646  10.812  10.077  1.00  0.00     0.167 HD
ENDBRANCH  20  22
ENDBRANCH  19  20
ENDBRANCH  18  19
BRANCH  18  24
HETATM   24  C35 UNL     1       5.944   8.401  14.085  1.00  0.00    -0.052 A 
HETATM   25  C36 UNL     1       6.000   9.354  15.116  1.00  0.00     0.007 A 
HETATM   26  C37 UNL     1       7.106   9.417  15.965  1.00  0.00     0.001 A 
HETATM   27  C38 UNL     1       8.164   8.527  15.803  1.00  0.00     0.000 A 
HETATM   28  C39 UNL     1       8.117   7.567  14.795  1.00  0.00     0.001 A 
HETATM   29  C40 UNL     1       7.016   7.505  13.941  1.00  0.00     0.007 A 
ENDBRANCH  18  24
ENDBRANCH  17  18
ENDBRANCH  15  17
ENDBRANCH   9  13
ENDBRANCH   6   9
ENDBRANCH   4   5
ENDBRANCH   3   4
ENDBRANCH   1   3
BRANCH   1  30
HETATM   30  O3  UNL     1      -3.262   4.665  13.715  1.00  0.00    -0.314 OA
BRANCH  30  31
HETATM   31  C9  UNL     1      -4.381   5.463  13.328  1.00  0.00     0.260 C 
BRANCH  31  32
HETATM   32  C10 UNL     1      -5.702   4.745  13.574  1.00  0.00     0.185 C 
HETATM   33  O4  UNL     1      -5.993   3.692  12.987  1.00  0.00    -0.292 OA
BRANCH  32  34
HETATM   34  C11 UNL     1      -6.712   5.342  14.571  1.00  0.00     0.128 C 
HETATM   35  C12 UNL     1      -6.164   6.282  15.669  1.00  0.00     0.047 C 
HETATM   36  C13 UNL     1      -7.279   7.313  15.955  1.00  0.00     0.009 C 
HETATM   37  C14 UNL     1      -8.479   6.809  15.159  1.00  0.00     0.002 C 
HETATM   38  C15 UNL     1      -9.619   7.787  14.844  1.00  0.00    -0.002 C 
HETATM   39  C28 UNL     1      -7.844   6.179  13.898  1.00  0.00     0.001 C 
HETATM   40  C16 UNL     1     -10.145   8.449  16.137  1.00  0.00     0.010 C 
HETATM   41  C25 UNL     1     -10.749   7.002  14.085  1.00  0.00     0.031 C 
HETATM   42  C17 UNL     1     -11.411   9.278  15.920  1.00  0.00     0.035 C 
HETATM   43  C18 UNL     1     -12.431   8.432  15.200  1.00  0.00    -0.068 C 
HETATM   44  C19 UNL     1     -13.562   8.056  15.822  1.00  0.00     0.053 C 
HETATM   45  C23 UNL     1     -11.998   7.923  13.815  1.00  0.00    -0.014 C 
HETATM   46  C20 UNL     1     -14.437   7.003  15.250  1.00  0.00     0.149 C 
HETATM   47  O6  UNL     1     -15.501   6.734  15.803  1.00  0.00    -0.293 OA
HETATM   48  C21 UNL     1     -13.924   6.232  14.062  1.00  0.00     0.084 C 
HETATM   49  C22 UNL     1     -13.179   7.174  13.133  1.00  0.00     0.022 C 
HETATM   50  C24 UNL     1     -11.689   9.132  12.894  1.00  0.00     0.020 C 
HETATM   51  C26 UNL     1     -10.209   6.206  12.862  1.00  0.00     0.124 C 
HETATM   52  C27 UNL     1      -8.947   5.373  13.178  1.00  0.00     0.045 C 
HETATM   53  C29 UNL     1      -7.224   7.226  12.936  1.00  0.00     0.019 C 
BRANCH  34  54
HETATM   54  O5  UNL     1      -7.288   4.208  15.251  1.00  0.00    -0.381 OA
HETATM   55  H16 UNL     1      -7.344   3.486  14.590  1.00  0.00     0.211 HD
ENDBRANCH  34  54
BRANCH  51  56
HETATM   56  O7  UNL     1      -9.951   7.063  11.760  1.00  0.00    -0.395 OA
HETATM   57  H37 UNL     1      -9.699   6.507  11.002  1.00  0.00     0.210 HD
ENDBRANCH  51  56
ENDBRANCH  32  34
ENDBRANCH  31  32
ENDBRANCH  30  31
ENDBRANCH   1  30
TORSDOF 18
ENDMDL
MODEL 7
REMARK minimizedAffinity -8.74587917
REMARK CNNscore 0.416539371
REMARK CNNaffinity 6.63409233
REMARK  18 active torsions:
REMARK  status: ('A' for Active; 'I' for Inactive)
REMARK    1  A    between atoms: C2_2  and  C4_4 
REMARK    2  A    between atoms: C4_4  and  N1_5 
REMARK    3  A    between atoms: C4_4  and  C30_38 
REMARK       I    between atoms: N1_5  and  C5_6 
REMARK    4  A    between atoms: C5_6  and  C6_8 
REMARK    5  A    between atoms: C6_8  and  C7_9 
REMARK    6  A    between atoms: C7_9  and  C8_10 
REMARK    7  A    between atoms: C8_10  and  O3_12 
REMARK    8  A    between atoms: O3_12  and  C9_13 
REMARK    9  A    between atoms: C9_13  and  C10_14 
REMARK   10  A    between atoms: C10_14  and  C11_16 
REMARK   11  A    between atoms: C11_16  and  O5_17 
REMARK   12  A    between atoms: C26_33  and  O7_34 
REMARK       I    between atoms: C30_38  and  N2_40 
REMARK   13  A    between atoms: N2_40  and  C31_41 
REMARK   14  A    between atoms: C31_41  and  C32_42 
REMARK   15  A    between atoms: C32_42  and  C33_43 
REMARK   16  A    between atoms: C32_42  and  C35_47 
REMARK   17  A    between atoms: C33_43  and  C34_44 
REMARK   18  A    between atoms: C34_44  and  O10_46 
ROOT
HETATM    1  C8  UNL     1     -14.739   6.119  14.174  1.00  0.00     0.259 C 
HETATM    2  O2  UNL     1     -15.411   6.777  13.392  1.00  0.00    -0.265 OA
ENDROOT
BRANCH   1   3
HETATM    3  C7  UNL     1     -13.248   6.292  14.344  1.00  0.00     0.120 C 
BRANCH   3   4
HETATM    4  C6  UNL     1     -12.605   7.030  13.179  1.00  0.00     0.112 C 
BRANCH   4   5
HETATM    5  C5  UNL     1     -11.205   7.475  13.542  1.00  0.00     0.218 C 
HETATM    6  N1  UNL     1     -10.351   6.446  13.866  1.00  0.00    -0.347 N 
HETATM    7  H9  UNL     1     -10.663   5.487  13.785  1.00  0.00     0.163 HD
HETATM    8  O1  UNL     1     -10.885   8.658  13.572  1.00  0.00    -0.274 OA
BRANCH   6   9
HETATM    9  C4  UNL     1      -8.964   6.705  14.293  1.00  0.00     0.179 C 
BRANCH   9  10
HETATM   10  C2  UNL     1      -8.876   6.671  15.840  1.00  0.00     0.009 C 
HETATM   11  C1  UNL     1      -7.537   6.126  16.351  1.00  0.00     0.012 C 
HETATM   12  C3  UNL     1      -9.091   8.071  16.435  1.00  0.00     0.012 C 
ENDBRANCH   9  10
BRANCH   9  13
HETATM   13  C30 UNL     1      -8.012   5.661  13.651  1.00  0.00     0.240 C 
HETATM   14  O8  UNL     1      -8.419   4.733  12.958  1.00  0.00    -0.271 OA
HETATM   15  N2  UNL     1      -6.667   5.935  13.797  1.00  0.00    -0.359 N 
HETATM   16  H43 UNL     1      -6.413   6.811  14.232  1.00  0.00     0.162 HD
BRANCH  15  17
HETATM   17  C31 UNL     1      -5.649   5.204  13.070  1.00  0.00     0.132 C 
BRANCH  17  18
HETATM   18  C32 UNL     1      -4.224   5.620  13.497  1.00  0.00     0.046 C 
BRANCH  18  19
HETATM   19  C33 UNL     1      -4.095   7.150  13.467  1.00  0.00     0.120 C 
BRANCH  19  20
HETATM   20  C34 UNL     1      -3.346   7.682  14.659  1.00  0.00     0.140 C 
HETATM   21  O9  UNL     1      -2.360   8.398  14.668  1.00  0.00    -0.650 OA
BRANCH  20  22
HETATM   22  O10 UNL     1      -3.916   7.294  15.821  1.00  0.00    -0.776 OA
HETATM   23  H49 UNL     1      -3.355   7.709  16.509  1.00  0.00     0.167 HD
ENDBRANCH  20  22
ENDBRANCH  19  20
ENDBRANCH  18  19
BRANCH  18  24
HETATM   24  C35 UNL     1      -3.178   4.918  12.634  1.00  0.00    -0.052 A 
HETATM   25  C36 UNL     1      -1.802   5.146  12.798  1.00  0.00     0.007 A 
HETATM   26  C37 UNL     1      -0.874   4.525  11.960  1.00  0.00     0.001 A 
HETATM   27  C38 UNL     1      -1.307   3.663  10.955  1.00  0.00     0.000 A 
HETATM   28  C39 UNL     1      -2.668   3.415  10.790  1.00  0.00     0.001 A 
HETATM   29  C40 UNL     1      -3.597   4.039  11.622  1.00  0.00     0.007 A 
ENDBRANCH  18  24
ENDBRANCH  17  18
ENDBRANCH  15  17
ENDBRANCH   9  13
ENDBRANCH   6   9
ENDBRANCH   4   5
ENDBRANCH   3   4
ENDBRANCH   1   3
BRANCH   1  30
HETATM   30  O3  UNL     1     -15.223   5.176  15.024  1.00  0.00    -0.314 OA
BRANCH  30  31
HETATM   31  C9  UNL     1     -16.588   4.822  14.802  1.00  0.00     0.260 C 
BRANCH  31  32
HETATM   32  C10 UNL     1     -16.722   3.435  14.187  1.00  0.00     0.185 C 
HETATM   33  O4  UNL     1     -17.285   3.254  13.098  1.00  0.00    -0.292 OA
BRANCH  32  34
HETATM   34  C11 UNL     1     -16.151   2.218  14.938  1.00  0.00     0.128 C 
HETATM   35  C12 UNL     1     -16.562   2.031  16.417  1.00  0.00     0.047 C 
HETATM   36  C13 UNL     1     -16.595   0.507  16.670  1.00  0.00     0.009 C 
HETATM   37  C14 UNL     1     -16.018  -0.104  15.397  1.00  0.00     0.002 C 
HETATM   38  C15 UNL     1     -16.293  -1.584  15.098  1.00  0.00    -0.002 C 
HETATM   39  C28 UNL     1     -16.504   0.848  14.279  1.00  0.00     0.001 C 
HETATM   40  C16 UNL     1     -15.869  -2.471  16.290  1.00  0.00     0.010 C 
HETATM   41  C25 UNL     1     -15.533  -1.973  13.779  1.00  0.00     0.031 C 
HETATM   42  C17 UNL     1     -15.926  -3.966  15.982  1.00  0.00     0.035 C 
HETATM   43  C18 UNL     1     -15.160  -4.233  14.711  1.00  0.00    -0.068 C 
HETATM   44  C19 UNL     1     -14.018  -4.941  14.743  1.00  0.00     0.053 C 
HETATM   45  C23 UNL     1     -15.690  -3.508  13.463  1.00  0.00    -0.014 C 
HETATM   46  C20 UNL     1     -13.105  -4.976  13.574  1.00  0.00     0.149 C 
HETATM   47  O6  UNL     1     -12.106  -5.692  13.607  1.00  0.00    -0.293 OA
HETATM   48  C21 UNL     1     -13.393  -4.040  12.429  1.00  0.00     0.084 C 
HETATM   49  C22 UNL     1     -14.893  -3.963  12.207  1.00  0.00     0.022 C 
HETATM   50  C24 UNL     1     -17.157  -3.939  13.200  1.00  0.00     0.020 C 
HETATM   51  C26 UNL     1     -15.834  -0.998  12.603  1.00  0.00     0.124 C 
HETATM   52  C27 UNL     1     -15.723   0.491  12.996  1.00  0.00     0.045 C 
HETATM   53  C29 UNL     1     -18.032   0.764  14.025  1.00  0.00     0.019 C 
BRANCH  34  54
HETATM   54  O5  UNL     1     -14.721   2.404  14.930  1.00  0.00    -0.381 OA
HETATM   55  H16 UNL     1     -14.500   2.829  14.074  1.00  0.00     0.211 HD
ENDBRANCH  34  54
BRANCH  51  56
HETATM   56  O7  UNL     1     -17.112  -1.249  12.039  1.00  0.00    -0.395 OA
HETATM   57  H37 UNL     1     -17.212  -0.674  11.260  1.00  0.00     0.210 HD
ENDBRANCH  51  56
ENDBRANCH  32  34
ENDBRANCH  31  32
ENDBRANCH  30  31
ENDBRANCH   1  30
TORSDOF 18
ENDMDL
MODEL 8
REMARK minimizedAffinity -9.35624599
REMARK CNNscore 0.275222182
REMARK CNNaffinity 7.43620443
REMARK  18 active torsions:
REMARK  status: ('A' for Active; 'I' for Inactive)
REMARK    1  A    between atoms: C2_2  and  C4_4 
REMARK    2  A    between atoms: C4_4  and  N1_5 
REMARK    3  A    between atoms: C4_4  and  C30_38 
REMARK       I    between atoms: N1_5  and  C5_6 
REMARK    4  A    between atoms: C5_6  and  C6_8 
REMARK    5  A    between atoms: C6_8  and  C7_9 
REMARK    6  A    between atoms: C7_9  and  C8_10 
REMARK    7  A    between atoms: C8_10  and  O3_12 
REMARK    8  A    between atoms: O3_12  and  C9_13 
REMARK    9  A    between atoms: C9_13  and  C10_14 
REMARK   10  A    between atoms: C10_14  and  C11_16 
REMARK   11  A    between atoms: C11_16  and  O5_17 
REMARK   12  A    between atoms: C26_33  and  O7_34 
REMARK       I    between atoms: C30_38  and  N2_40 
REMARK   13  A    between atoms: N2_40  and  C31_41 
REMARK   14  A    between atoms: C31_41  and  C32_42 
REMARK   15  A    between atoms: C32_42  and  C33_43 
REMARK   16  A    between atoms: C32_42  and  C35_47 
REMARK   17  A    between atoms: C33_43  and  C34_44 
REMARK   18  A    between atoms: C34_44  and  O10_46 
ROOT
HETATM    1  C8  UNL     1       2.440   9.259  13.848  1.00  0.00     0.259 C 
HETATM    2  O2  UNL     1       2.748   8.232  13.261  1.00  0.00    -0.265 OA
ENDROOT
BRANCH   1   3
HETATM    3  C7  UNL     1       3.441  10.298  14.295  1.00  0.00     0.120 C 
BRANCH   3   4
HETATM    4  C6  UNL     1       3.939  11.166  13.149  1.00  0.00     0.112 C 
BRANCH   4   5
HETATM    5  C5  UNL     1       5.116  10.509  12.460  1.00  0.00     0.218 C 
HETATM    6  N1  UNL     1       5.496   9.309  13.012  1.00  0.00    -0.347 N 
HETATM    7  H9  UNL     1       4.958   8.909  13.769  1.00  0.00     0.163 HD
HETATM    8  O1  UNL     1       5.690  11.034  11.513  1.00  0.00    -0.274 OA
BRANCH   6   9
HETATM    9  C4  UNL     1       6.657   8.560  12.496  1.00  0.00     0.179 C 
BRANCH   9  10
HETATM   10  C2  UNL     1       7.234   7.651  13.611  1.00  0.00     0.009 C 
HETATM   11  C1  UNL     1       8.703   7.953  13.928  1.00  0.00     0.012 C 
HETATM   12  C3  UNL     1       6.419   7.785  14.906  1.00  0.00     0.012 C 
ENDBRANCH   9  10
BRANCH   9  13
HETATM   13  C30 UNL     1       6.237   7.729  11.253  1.00  0.00     0.240 C 
HETATM   14  O8  UNL     1       6.994   7.526  10.307  1.00  0.00    -0.271 OA
HETATM   15  N2  UNL     1       5.004   7.117  11.354  1.00  0.00    -0.359 N 
HETATM   16  H43 UNL     1       4.517   7.190  12.236  1.00  0.00     0.162 HD
BRANCH  15  17
HETATM   17  C31 UNL     1       4.558   6.123  10.399  1.00  0.00     0.132 C 
BRANCH  17  18
HETATM   18  C32 UNL     1       3.064   5.776  10.582  1.00  0.00     0.046 C 
BRANCH  18  19
HETATM   19  C33 UNL     1       2.801   4.337  10.115  1.00  0.00     0.120 C 
BRANCH  19  20
HETATM   20  C34 UNL     1       3.763   3.901   9.043  1.00  0.00     0.140 C 
HETATM   21  O9  UNL     1       3.724   4.155   7.851  1.00  0.00    -0.650 OA
BRANCH  20  22
HETATM   22  O10 UNL     1       4.777   3.167   9.550  1.00  0.00    -0.776 OA
HETATM   23  H49 UNL     1       5.332   2.960   8.770  1.00  0.00     0.167 HD
ENDBRANCH  20  22
ENDBRANCH  19  20
ENDBRANCH  18  19
BRANCH  18  24
HETATM   24  C35 UNL     1       2.184   6.802   9.872  1.00  0.00    -0.052 A 
HETATM   25  C36 UNL     1       0.969   7.247  10.420  1.00  0.00     0.007 A 
HETATM   26  C37 UNL     1       0.164   8.149   9.722  1.00  0.00     0.001 A 
HETATM   27  C38 UNL     1       0.564   8.624   8.476  1.00  0.00     0.000 A 
HETATM   28  C39 UNL     1       1.773   8.204   7.927  1.00  0.00     0.001 A 
HETATM   29  C40 UNL     1       2.577   7.298   8.618  1.00  0.00     0.007 A 
ENDBRANCH  18  24
ENDBRANCH  17  18
ENDBRANCH  15  17
ENDBRANCH   9  13
ENDBRANCH   6   9
ENDBRANCH   4   5
ENDBRANCH   3   4
ENDBRANCH   1   3
BRANCH   1  30
HETATM   30  O3  UNL     1       1.171   9.639  14.151  1.00  0.00    -0.314 OA
BRANCH  30  31
HETATM   31  C9  UNL     1       0.191   8.613  13.994  1.00  0.00     0.260 C 
BRANCH  31  32
HETATM   32  C10 UNL     1      -1.177   9.184  13.645  1.00  0.00     0.185 C 
HETATM   33  O4  UNL     1      -1.446  10.383  13.806  1.00  0.00    -0.292 OA
BRANCH  32  34
HETATM   34  C11 UNL     1      -2.265   8.249  13.084  1.00  0.00     0.128 C 
HETATM   35  C12 UNL     1      -1.824   6.853  12.587  1.00  0.00     0.047 C 
HETATM   36  C13 UNL     1      -3.008   5.899  12.861  1.00  0.00     0.009 C 
HETATM   37  C14 UNL     1      -4.139   6.815  13.319  1.00  0.00     0.002 C 
HETATM   38  C15 UNL     1      -5.317   6.205  14.088  1.00  0.00    -0.002 C 
HETATM   39  C28 UNL     1      -3.411   7.936  14.096  1.00  0.00     0.001 C 
HETATM   40  C16 UNL     1      -5.940   5.033  13.297  1.00  0.00     0.010 C 
HETATM   41  C25 UNL     1      -6.365   7.342  14.374  1.00  0.00     0.031 C 
HETATM   42  C17 UNL     1      -7.240   4.513  13.910  1.00  0.00     0.035 C 
HETATM   43  C18 UNL     1      -8.175   5.675  14.131  1.00  0.00    -0.068 C 
HETATM   44  C19 UNL     1      -9.310   5.778  13.418  1.00  0.00     0.053 C 
HETATM   45  C23 UNL     1      -7.651   6.766  15.079  1.00  0.00    -0.014 C 
HETATM   46  C20 UNL     1     -10.096   7.036  13.405  1.00  0.00     0.149 C 
HETATM   47  O6  UNL     1     -11.167   7.076  12.804  1.00  0.00    -0.293 OA
HETATM   48  C21 UNL     1      -9.485   8.252  14.052  1.00  0.00     0.084 C 
HETATM   49  C22 UNL     1      -8.753   7.837  15.316  1.00  0.00     0.022 C 
HETATM   50  C24 UNL     1      -7.369   6.148  16.473  1.00  0.00     0.020 C 
HETATM   51  C26 UNL     1      -5.723   8.595  15.038  1.00  0.00     0.124 C 
HETATM   52  C27 UNL     1      -4.432   9.069  14.337  1.00  0.00     0.045 C 
HETATM   53  C29 UNL     1      -2.809   7.455  15.442  1.00  0.00     0.019 C 
BRANCH  34  54
HETATM   54  O5  UNL     1      -2.805   8.940  11.940  1.00  0.00    -0.381 OA
HETATM   55  H16 UNL     1      -2.789   9.896  12.159  1.00  0.00     0.211 HD
ENDBRANCH  34  54
BRANCH  51  56
HETATM   56  O7  UNL     1      -5.464   8.374  16.416  1.00  0.00    -0.395 OA
HETATM   57  H37 UNL     1      -5.147   9.211  16.798  1.00  0.00     0.210 HD
ENDBRANCH  51  56
ENDBRANCH  32  34
ENDBRANCH  31  32
ENDBRANCH  30  31
ENDBRANCH   1  30
TORSDOF 18
ENDMDL
MODEL 9
REMARK minimizedAffinity -8.64287758
REMARK CNNscore 0.255772799
REMARK CNNaffinity 6.51341486
REMARK  18 active torsions:
REMARK  status: ('A' for Active; 'I' for Inactive)
REMARK    1  A    between atoms: C2_2  and  C4_4 
REMARK    2  A    between atoms: C4_4  and  N1_5 
REMARK    3  A    between atoms: C4_4  and  C30_38 
REMARK       I    between atoms: N1_5  and  C5_6 
REMARK    4  A    between atoms: C5_6  and  C6_8 
REMARK    5  A    between atoms: C6_8  and  C7_9 
REMARK    6  A    between atoms: C7_9  and  C8_10 
REMARK    7  A    between atoms: C8_10  and  O3_12 
REMARK    8  A    between atoms: O3_12  and  C9_13 
REMARK    9  A    between atoms: C9_13  and  C10_14 
REMARK   10  A    between atoms: C10_14  and  C11_16 
REMARK   11  A    between atoms: C11_16  and  O5_17 
REMARK   12  A    between atoms: C26_33  and  O7_34 
REMARK       I    between atoms: C30_38  and  N2_40 
REMARK   13  A    between atoms: N2_40  and  C31_41 
REMARK   14  A    between atoms: C31_41  and  C32_42 
REMARK   15  A    between atoms: C32_42  and  C33_43 
REMARK   16  A    between atoms: C32_42  and  C35_47 
REMARK   17  A    between atoms: C33_43  and  C34_44 
REMARK   18  A    between atoms: C34_44  and  O10_46 
ROOT
HETATM    1  C8  UNL     1      -0.730  10.949  17.470  1.00  0.00     0.259 C 
HETATM    2  O2  UNL     1      -1.219  11.891  16.862  1.00  0.00    -0.265 OA
ENDROOT
BRANCH   1   3
HETATM    3  C7  UNL     1       0.285  11.107  18.577  1.00  0.00     0.120 C 
BRANCH   3   4
HETATM    4  C6  UNL     1       1.366  12.124  18.245  1.00  0.00     0.112 C 
BRANCH   4   5
HETATM    5  C5  UNL     1       2.324  12.279  19.406  1.00  0.00     0.218 C 
HETATM    6  N1  UNL     1       2.660  11.097  20.023  1.00  0.00    -0.347 N 
HETATM    7  H9  UNL     1       2.324  10.219  19.649  1.00  0.00     0.163 HD
HETATM    8  O1  UNL     1       2.728  13.376  19.773  1.00  0.00    -0.274 OA
BRANCH   6   9
HETATM    9  C4  UNL     1       3.542  11.071  21.204  1.00  0.00     0.179 C 
BRANCH   9  10
HETATM   10  C2  UNL     1       3.454   9.687  21.896  1.00  0.00     0.009 C 
HETATM   11  C1  UNL     1       3.964   9.707  23.342  1.00  0.00     0.012 C 
HETATM   12  C3  UNL     1       2.009   9.164  21.897  1.00  0.00     0.012 C 
ENDBRANCH   9  10
BRANCH   9  13
HETATM   13  C30 UNL     1       5.000  11.396  20.780  1.00  0.00     0.240 C 
HETATM   14  O8  UNL     1       5.564  10.816  19.855  1.00  0.00    -0.271 OA
HETATM   15  N2  UNL     1       5.563  12.480  21.421  1.00  0.00    -0.359 N 
HETATM   16  H43 UNL     1       4.973  13.013  22.044  1.00  0.00     0.162 HD
BRANCH  15  17
HETATM   17  C31 UNL     1       6.816  13.066  20.988  1.00  0.00     0.132 C 
BRANCH  17  18
HETATM   18  C32 UNL     1       8.035  12.283  21.522  1.00  0.00     0.046 C 
BRANCH  18  19
HETATM   19  C33 UNL     1       8.463  12.849  22.884  1.00  0.00     0.120 C 
BRANCH  19  20
HETATM   20  C34 UNL     1       8.128  14.310  23.024  1.00  0.00     0.140 C 
HETATM   21  O9  UNL     1       7.058  14.809  23.327  1.00  0.00    -0.650 OA
BRANCH  20  22
HETATM   22  O10 UNL     1       9.204  15.093  22.796  1.00  0.00    -0.776 OA
HETATM   23  H49 UNL     1       8.867  16.003  22.929  1.00  0.00     0.167 HD
ENDBRANCH  20  22
ENDBRANCH  19  20
ENDBRANCH  18  19
BRANCH  18  24
HETATM   24  C35 UNL     1       9.165  12.283  20.496  1.00  0.00    -0.052 A 
HETATM   25  C36 UNL     1       8.916  12.248  19.114  1.00  0.00     0.007 A 
HETATM   26  C37 UNL     1       9.973  12.200  18.203  1.00  0.00     0.001 A 
HETATM   27  C38 UNL     1      11.289  12.195  18.658  1.00  0.00     0.000 A 
HETATM   28  C39 UNL     1      11.552  12.244  20.025  1.00  0.00     0.001 A 
HETATM   29  C40 UNL     1      10.498  12.286  20.938  1.00  0.00     0.007 A 
ENDBRANCH  18  24
ENDBRANCH  17  18
ENDBRANCH  15  17
ENDBRANCH   9  13
ENDBRANCH   6   9
ENDBRANCH   4   5
ENDBRANCH   3   4
ENDBRANCH   1   3
BRANCH   1  30
HETATM   30  O3  UNL     1      -1.044   9.642  17.276  1.00  0.00    -0.314 OA
BRANCH  30  31
HETATM   31  C9  UNL     1      -1.581   9.346  15.986  1.00  0.00     0.260 C 
BRANCH  31  32
HETATM   32  C10 UNL     1      -0.945   8.104  15.378  1.00  0.00     0.185 C 
HETATM   33  O4  UNL     1      -0.378   7.250  16.076  1.00  0.00    -0.292 OA
BRANCH  32  34
HETATM   34  C11 UNL     1      -0.995   7.899  13.852  1.00  0.00     0.128 C 
HETATM   35  C12 UNL     1      -1.907   8.841  13.033  1.00  0.00     0.047 C 
HETATM   36  C13 UNL     1      -1.225   9.020  11.658  1.00  0.00     0.009 C 
HETATM   37  C14 UNL     1      -0.065   8.029  11.675  1.00  0.00     0.002 C 
HETATM   38  C15 UNL     1       1.086   8.223  10.680  1.00  0.00    -0.002 C 
HETATM   39  C28 UNL     1       0.394   8.026  13.152  1.00  0.00     0.001 C 
HETATM   40  C16 UNL     1       0.551   8.308   9.233  1.00  0.00     0.010 C 
HETATM   41  C25 UNL     1       2.102   7.037  10.860  1.00  0.00     0.031 C 
HETATM   42  C17 UNL     1       1.656   8.298   8.178  1.00  0.00     0.035 C 
HETATM   43  C18 UNL     1       2.563   7.120   8.432  1.00  0.00    -0.068 C 
HETATM   44  C19 UNL     1       2.611   6.099   7.559  1.00  0.00     0.053 C 
HETATM   45  C23 UNL     1       3.265   7.118   9.800  1.00  0.00    -0.014 C 
HETATM   46  C20 UNL     1       3.264   4.816   7.915  1.00  0.00     0.149 C 
HETATM   47  O6  UNL     1       3.357   3.928   7.071  1.00  0.00    -0.293 OA
HETATM   48  C21 UNL     1       3.696   4.621   9.345  1.00  0.00     0.084 C 
HETATM   49  C22 UNL     1       4.258   5.925   9.884  1.00  0.00     0.022 C 
HETATM   50  C24 UNL     1       4.138   8.393   9.934  1.00  0.00     0.020 C 
HETATM   51  C26 UNL     1       2.540   6.842  12.341  1.00  0.00     0.124 C 
HETATM   52  C27 UNL     1       1.358   6.835  13.335  1.00  0.00     0.045 C 
HETATM   53  C29 UNL     1       1.081   9.349  13.581  1.00  0.00     0.019 C 
BRANCH  34  54
HETATM   54  O5  UNL     1      -1.510   6.565  13.666  1.00  0.00    -0.381 OA
HETATM   55  H16 UNL     1      -1.157   6.025  14.404  1.00  0.00     0.211 HD
ENDBRANCH  34  54
BRANCH  51  56
HETATM   56  O7  UNL     1       3.488   7.822  12.734  1.00  0.00    -0.395 OA
HETATM   57  H37 UNL     1       3.788   7.603  13.633  1.00  0.00     0.210 HD
ENDBRANCH  51  56
ENDBRANCH  32  34
ENDBRANCH  31  32
ENDBRANCH  30  31
ENDBRANCH   1  30
TORSDOF 18
ENDMDL
