MODEL 1
REMARK minimizedAffinity -7.99865675
REMARK  11 active torsions:
REMARK  status: ('A' for Active; 'I' for Inactive)
REMARK    1  A    between atoms: C2_2  and  O2_4 
REMARK    2  A    between atoms: O2_4  and  C3_5 
REMARK    3  A    between atoms: C3_5  and  C4_6 
REMARK    4  A    between atoms: C5_7  and  C6_8 
REMARK    5  A    between atoms: C5_7  and  C9_13 
REMARK    6  A    between atoms: C6_8  and  O3_9 
REMARK    7  A    between atoms: O3_9  and  C7_10 
REMARK    8  A    between atoms: C9_13  and  C10_14 
REMARK    9  A    between atoms: C9_13  and  O6_29 
REMARK   10  A    between atoms: C10_14  and  C11_15 
REMARK   11  A    between atoms: O6_29  and  C24_30 
ROOT
HETATM    1  C9  UNL     1      -1.908   6.604  12.952  1.00  0.00     0.163 C 
ENDROOT
BRANCH   1   2
HETATM    2  C5  UNL     1      -0.860   5.904  12.084  1.00  0.00    -0.028 C 
HETATM    3  C4  UNL     1       0.052   6.563  11.336  1.00  0.00     0.007 C 
BRANCH   3   4
HETATM    4  C3  UNL     1       1.120   6.008  10.438  1.00  0.00     0.206 C 
BRANCH   4   5
HETATM    5  O2  UNL     1       1.329   6.927   9.356  1.00  0.00    -0.318 OA
BRANCH   5   6
HETATM    6  C2  UNL     1       2.338   6.621   8.500  1.00  0.00     0.255 C 
HETATM    7  C1  UNL     1       2.017   7.135   7.130  1.00  0.00     0.126 C 
HETATM    8  O1  UNL     1       3.368   6.027   8.790  1.00  0.00    -0.266 OA
ENDBRANCH   5   6
ENDBRANCH   4   5
ENDBRANCH   3   4
BRANCH   2   9
HETATM    9  C6  UNL     1      -0.928   4.394  12.192  1.00  0.00     0.215 C 
BRANCH   9  10
HETATM   10  O3  UNL     1      -1.247   3.874  10.898  1.00  0.00    -0.317 OA
BRANCH  10  11
HETATM   11  C7  UNL     1      -1.716   2.598  10.919  1.00  0.00     0.255 C 
HETATM   12  C8  UNL     1      -2.970   2.527  11.737  1.00  0.00     0.126 C 
HETATM   13  O4  UNL     1      -1.204   1.645  10.350  1.00  0.00    -0.266 OA
ENDBRANCH  10  11
ENDBRANCH   9  10
ENDBRANCH   2   9
ENDBRANCH   1   2
BRANCH   1  14
HETATM   14  C10 UNL     1      -3.383   6.115  12.914  1.00  0.00     0.047 C 
BRANCH  14  15
HETATM   15  C11 UNL     1      -4.547   7.008  13.496  1.00  0.00    -0.033 C 
HETATM   16  C12 UNL     1      -4.605   8.343  12.696  1.00  0.00     0.016 C 
HETATM   17  C13 UNL     1      -4.176   7.411  14.973  1.00  0.00    -0.010 C 
HETATM   18  C14 UNL     1      -3.650   6.246  15.832  1.00  0.00     0.011 C 
HETATM   19  C15 UNL     1      -5.278   8.214  15.700  1.00  0.00     0.006 C 
HETATM   20  C16 UNL     1      -6.716   7.953  15.247  1.00  0.00     0.017 C 
HETATM   21  C17 UNL     1      -6.933   6.550  14.670  1.00  0.00     0.021 C 
HETATM   22  C18 UNL     1      -6.823   5.511  15.810  1.00  0.00     0.024 C 
HETATM   23  C19 UNL     1      -8.377   6.429  14.135  1.00  0.00     0.135 C 
HETATM   24  C23 UNL     1      -6.000   6.350  13.423  1.00  0.00     0.010 C 
HETATM   25  O5  UNL     1      -9.304   7.106  14.582  1.00  0.00    -0.297 OA
HETATM   26  C20 UNL     1      -8.625   5.439  13.008  1.00  0.00     0.079 C 
HETATM   27  C21 UNL     1      -7.559   4.352  12.965  1.00  0.00     0.008 C 
HETATM   28  C22 UNL     1      -6.127   4.910  12.885  1.00  0.00     0.007 C 
ENDBRANCH  14  15
ENDBRANCH   1  14
BRANCH   1  29
HETATM   29  O6  UNL     1      -1.897   7.970  12.457  1.00  0.00    -0.312 OA
BRANCH  29  30
HETATM   30  C24 UNL     1      -1.426   8.935  13.286  1.00  0.00     0.255 C 
HETATM   31  C25 UNL     1      -0.735   8.307  14.457  1.00  0.00     0.126 C 
HETATM   32  O7  UNL     1      -1.546  10.141  13.123  1.00  0.00    -0.266 OA
ENDBRANCH  29  30
ENDBRANCH   1  29
TORSDOF 11
ENDMDL
MODEL 2
REMARK minimizedAffinity -7.64756584
REMARK  11 active torsions:
REMARK  status: ('A' for Active; 'I' for Inactive)
REMARK    1  A    between atoms: C2_2  and  O2_4 
REMARK    2  A    between atoms: O2_4  and  C3_5 
REMARK    3  A    between atoms: C3_5  and  C4_6 
REMARK    4  A    between atoms: C5_7  and  C6_8 
REMARK    5  A    between atoms: C5_7  and  C9_13 
REMARK    6  A    between atoms: C6_8  and  O3_9 
REMARK    7  A    between atoms: O3_9  and  C7_10 
REMARK    8  A    between atoms: C9_13  and  C10_14 
REMARK    9  A    between atoms: C9_13  and  O6_29 
REMARK   10  A    between atoms: C10_14  and  C11_15 
REMARK   11  A    between atoms: O6_29  and  C24_30 
ROOT
HETATM    1  C9  UNL     1      -2.353   5.278  12.261  1.00  0.00     0.163 C 
ENDROOT
BRANCH   1   2
HETATM    2  C5  UNL     1      -1.007   5.985  12.087  1.00  0.00    -0.028 C 
HETATM    3  C4  UNL     1      -0.162   5.741  11.061  1.00  0.00     0.007 C 
BRANCH   3   4
HETATM    4  C3  UNL     1       1.182   6.347  10.775  1.00  0.00     0.206 C 
BRANCH   4   5
HETATM    5  O2  UNL     1       1.867   5.512   9.831  1.00  0.00    -0.318 OA
BRANCH   5   6
HETATM    6  C2  UNL     1       2.879   6.100   9.140  1.00  0.00     0.255 C 
HETATM    7  C1  UNL     1       2.367   6.618   7.830  1.00  0.00     0.126 C 
HETATM    8  O1  UNL     1       4.036   6.209   9.520  1.00  0.00    -0.266 OA
ENDBRANCH   5   6
ENDBRANCH   4   5
ENDBRANCH   3   4
BRANCH   2   9
HETATM    9  C6  UNL     1      -0.748   7.019  13.164  1.00  0.00     0.215 C 
BRANCH   9  10
HETATM   10  O3  UNL     1       0.086   6.418  14.159  1.00  0.00    -0.317 OA
BRANCH  10  11
HETATM   11  C7  UNL     1       0.632   7.310  15.029  1.00  0.00     0.255 C 
HETATM   12  C8  UNL     1       1.327   8.402  14.273  1.00  0.00     0.126 C 
HETATM   13  O4  UNL     1       0.563   7.245  16.247  1.00  0.00    -0.266 OA
ENDBRANCH  10  11
ENDBRANCH   9  10
ENDBRANCH   2   9
ENDBRANCH   1   2
BRANCH   1  14
HETATM   14  C10 UNL     1      -3.127   5.429  13.600  1.00  0.00     0.047 C 
BRANCH  14  15
HETATM   15  C11 UNL     1      -4.368   6.398  13.713  1.00  0.00    -0.033 C 
HETATM   16  C12 UNL     1      -4.191   7.564  12.695  1.00  0.00     0.016 C 
HETATM   17  C13 UNL     1      -4.351   7.069  15.138  1.00  0.00    -0.010 C 
HETATM   18  C14 UNL     1      -4.084   6.087  16.294  1.00  0.00     0.011 C 
HETATM   19  C15 UNL     1      -5.570   7.977  15.419  1.00  0.00     0.006 C 
HETATM   20  C16 UNL     1      -6.864   7.619  14.686  1.00  0.00     0.017 C 
HETATM   21  C17 UNL     1      -6.980   6.131  14.337  1.00  0.00     0.021 C 
HETATM   22  C18 UNL     1      -7.180   5.319  15.637  1.00  0.00     0.024 C 
HETATM   23  C19 UNL     1      -8.256   5.895  13.499  1.00  0.00     0.135 C 
HETATM   24  C23 UNL     1      -5.782   5.719  13.410  1.00  0.00     0.010 C 
HETATM   25  O5  UNL     1      -9.241   6.629  13.579  1.00  0.00    -0.297 OA
HETATM   26  C20 UNL     1      -8.257   4.713  12.544  1.00  0.00     0.079 C 
HETATM   27  C21 UNL     1      -7.247   3.650  12.956  1.00  0.00     0.008 C 
HETATM   28  C22 UNL     1      -5.821   4.203  13.126  1.00  0.00     0.007 C 
ENDBRANCH  14  15
ENDBRANCH   1  14
BRANCH   1  29
HETATM   29  O6  UNL     1      -2.016   3.872  12.118  1.00  0.00    -0.312 OA
BRANCH  29  30
HETATM   30  C24 UNL     1      -2.268   3.285  10.920  1.00  0.00     0.255 C 
HETATM   31  C25 UNL     1      -3.622   3.695  10.428  1.00  0.00     0.126 C 
HETATM   32  O7  UNL     1      -1.518   2.528  10.322  1.00  0.00    -0.266 OA
ENDBRANCH  29  30
ENDBRANCH   1  29
TORSDOF 11
ENDMDL
MODEL 3
REMARK minimizedAffinity -7.55327129
REMARK  11 active torsions:
REMARK  status: ('A' for Active; 'I' for Inactive)
REMARK    1  A    between atoms: C2_2  and  O2_4 
REMARK    2  A    between atoms: O2_4  and  C3_5 
REMARK    3  A    between atoms: C3_5  and  C4_6 
REMARK    4  A    between atoms: C5_7  and  C6_8 
REMARK    5  A    between atoms: C5_7  and  C9_13 
REMARK    6  A    between atoms: C6_8  and  O3_9 
REMARK    7  A    between atoms: O3_9  and  C7_10 
REMARK    8  A    between atoms: C9_13  and  C10_14 
REMARK    9  A    between atoms: C9_13  and  O6_29 
REMARK   10  A    between atoms: C10_14  and  C11_15 
REMARK   11  A    between atoms: O6_29  and  C24_30 
ROOT
HETATM    1  C9  UNL     1      -2.198   6.583  13.201  1.00  0.00     0.163 C 
ENDROOT
BRANCH   1   2
HETATM    2  C5  UNL     1      -1.095   5.722  12.582  1.00  0.00    -0.028 C 
HETATM    3  C4  UNL     1      -1.205   4.387  12.398  1.00  0.00     0.007 C 
BRANCH   3   4
HETATM    4  C3  UNL     1      -0.209   3.425  11.818  1.00  0.00     0.206 C 
BRANCH   4   5
HETATM    5  O2  UNL     1      -0.797   2.793  10.673  1.00  0.00    -0.318 OA
BRANCH   5   6
HETATM    6  C2  UNL     1      -1.442   1.620  10.905  1.00  0.00     0.255 C 
HETATM    7  C1  UNL     1      -0.578   0.471  10.482  1.00  0.00     0.126 C 
HETATM    8  O1  UNL     1      -2.556   1.500  11.397  1.00  0.00    -0.266 OA
ENDBRANCH   5   6
ENDBRANCH   4   5
ENDBRANCH   3   4
BRANCH   2   9
HETATM    9  C6  UNL     1       0.110   6.534  12.156  1.00  0.00     0.215 C 
BRANCH   9  10
HETATM   10  O3  UNL     1       0.199   6.473  10.729  1.00  0.00    -0.317 OA
BRANCH  10  11
HETATM   11  C7  UNL     1       0.697   7.604  10.162  1.00  0.00     0.255 C 
HETATM   12  C8  UNL     1       1.351   7.276   8.854  1.00  0.00     0.126 C 
HETATM   13  O4  UNL     1       0.619   8.728  10.635  1.00  0.00    -0.266 OA
ENDBRANCH  10  11
ENDBRANCH   9  10
ENDBRANCH   2   9
ENDBRANCH   1   2
BRANCH   1  14
HETATM   14  C10 UNL     1      -3.684   6.162  13.030  1.00  0.00     0.047 C 
BRANCH  14  15
HETATM   15  C11 UNL     1      -4.849   7.042  13.630  1.00  0.00    -0.033 C 
HETATM   16  C12 UNL     1      -4.867   8.418  12.899  1.00  0.00     0.016 C 
HETATM   17  C13 UNL     1      -4.509   7.363  15.135  1.00  0.00    -0.010 C 
HETATM   18  C14 UNL     1      -4.023   6.146  15.944  1.00  0.00     0.011 C 
HETATM   19  C15 UNL     1      -5.618   8.144  15.875  1.00  0.00     0.006 C 
HETATM   20  C16 UNL     1      -7.047   7.931  15.374  1.00  0.00     0.017 C 
HETATM   21  C17 UNL     1      -7.270   6.563  14.720  1.00  0.00     0.021 C 
HETATM   22  C18 UNL     1      -7.204   5.465  15.806  1.00  0.00     0.024 C 
HETATM   23  C19 UNL     1      -8.702   6.494  14.144  1.00  0.00     0.135 C 
HETATM   24  C23 UNL     1      -6.310   6.413  13.488  1.00  0.00     0.010 C 
HETATM   25  O5  UNL     1      -9.630   7.161  14.604  1.00  0.00    -0.297 OA
HETATM   26  C20 UNL     1      -8.936   5.568  12.961  1.00  0.00     0.079 C 
HETATM   27  C21 UNL     1      -7.886   4.467  12.887  1.00  0.00     0.008 C 
HETATM   28  C22 UNL     1      -6.445   5.005  12.872  1.00  0.00     0.007 C 
ENDBRANCH  14  15
ENDBRANCH   1  14
BRANCH   1  29
HETATM   29  O6  UNL     1      -2.037   7.865  12.537  1.00  0.00    -0.312 OA
BRANCH  29  30
HETATM   30  C24 UNL     1      -1.627   8.917  13.290  1.00  0.00     0.255 C 
HETATM   31  C25 UNL     1      -1.267   8.447  14.666  1.00  0.00     0.126 C 
HETATM   32  O7  UNL     1      -1.561  10.080  12.921  1.00  0.00    -0.266 OA
ENDBRANCH  29  30
ENDBRANCH   1  29
TORSDOF 11
ENDMDL
MODEL 4
REMARK minimizedAffinity -7.36946392
REMARK  11 active torsions:
REMARK  status: ('A' for Active; 'I' for Inactive)
REMARK    1  A    between atoms: C2_2  and  O2_4 
REMARK    2  A    between atoms: O2_4  and  C3_5 
REMARK    3  A    between atoms: C3_5  and  C4_6 
REMARK    4  A    between atoms: C5_7  and  C6_8 
REMARK    5  A    between atoms: C5_7  and  C9_13 
REMARK    6  A    between atoms: C6_8  and  O3_9 
REMARK    7  A    between atoms: O3_9  and  C7_10 
REMARK    8  A    between atoms: C9_13  and  C10_14 
REMARK    9  A    between atoms: C9_13  and  O6_29 
REMARK   10  A    between atoms: C10_14  and  C11_15 
REMARK   11  A    between atoms: O6_29  and  C24_30 
ROOT
HETATM    1  C9  UNL     1      -0.043   6.235  11.042  1.00  0.00     0.163 C 
ENDROOT
BRANCH   1   2
HETATM    2  C5  UNL     1       1.399   6.695  10.817  1.00  0.00    -0.028 C 
HETATM    3  C4  UNL     1       2.245   7.019  11.820  1.00  0.00     0.007 C 
BRANCH   3   4
HETATM    4  C3  UNL     1       3.668   7.491  11.744  1.00  0.00     0.206 C 
BRANCH   4   5
HETATM    5  O2  UNL     1       4.504   6.370  11.425  1.00  0.00    -0.318 OA
BRANCH   5   6
HETATM    6  C2  UNL     1       5.804   6.655  11.150  1.00  0.00     0.255 C 
HETATM    7  C1  UNL     1       6.149   8.015  11.674  1.00  0.00     0.126 C 
HETATM    8  O1  UNL     1       6.592   5.917  10.573  1.00  0.00    -0.266 OA
ENDBRANCH   5   6
ENDBRANCH   4   5
ENDBRANCH   3   4
BRANCH   2   9
HETATM    9  C6  UNL     1       1.787   6.702   9.353  1.00  0.00     0.215 C 
BRANCH   9  10
HETATM   10  O3  UNL     1       1.744   8.057   8.893  1.00  0.00    -0.317 OA
BRANCH  10  11
HETATM   11  C7  UNL     1       2.402   8.259   7.721  1.00  0.00     0.255 C 
HETATM   12  C8  UNL     1       1.957   7.253   6.703  1.00  0.00     0.126 C 
HETATM   13  O4  UNL     1       3.228   9.136   7.514  1.00  0.00    -0.266 OA
ENDBRANCH  10  11
ENDBRANCH   9  10
ENDBRANCH   2   9
ENDBRANCH   1   2
BRANCH   1  14
HETATM   14  C10 UNL     1      -0.630   6.238  12.481  1.00  0.00     0.047 C 
BRANCH  14  15
HETATM   15  C11 UNL     1      -1.455   7.473  13.017  1.00  0.00    -0.033 C 
HETATM   16  C12 UNL     1      -1.396   8.615  11.958  1.00  0.00     0.016 C 
HETATM   17  C13 UNL     1      -0.732   8.040  14.297  1.00  0.00    -0.010 C 
HETATM   18  C14 UNL     1      -0.298   6.959  15.305  1.00  0.00     0.011 C 
HETATM   19  C15 UNL     1      -1.489   9.200  14.982  1.00  0.00     0.006 C 
HETATM   20  C16 UNL     1      -3.009   9.210  14.814  1.00  0.00     0.017 C 
HETATM   21  C17 UNL     1      -3.612   7.818  14.601  1.00  0.00     0.021 C 
HETATM   22  C18 UNL     1      -3.497   7.009  15.912  1.00  0.00     0.024 C 
HETATM   23  C19 UNL     1      -5.126   7.948  14.323  1.00  0.00     0.135 C 
HETATM   24  C23 UNL     1      -2.998   7.178  13.306  1.00  0.00     0.010 C 
HETATM   25  O5  UNL     1      -5.793   8.895  14.741  1.00  0.00    -0.297 OA
HETATM   26  C20 UNL     1      -5.782   6.857  13.492  1.00  0.00     0.079 C 
HETATM   27  C21 UNL     1      -4.987   5.558  13.534  1.00  0.00     0.008 C 
HETATM   28  C22 UNL     1      -3.515   5.736  13.124  1.00  0.00     0.007 C 
ENDBRANCH  14  15
ENDBRANCH   1  14
BRANCH   1  29
HETATM   29  O6  UNL     1      -0.032   4.856  10.587  1.00  0.00    -0.312 OA
BRANCH  29  30
HETATM   30  C24 UNL     1      -0.745   3.951  11.305  1.00  0.00     0.255 C 
HETATM   31  C25 UNL     1      -2.103   3.776  10.697  1.00  0.00     0.126 C 
HETATM   32  O7  UNL     1      -0.357   3.363  12.304  1.00  0.00    -0.266 OA
ENDBRANCH  29  30
ENDBRANCH   1  29
TORSDOF 11
ENDMDL
MODEL 5
REMARK minimizedAffinity -7.35877466
REMARK  11 active torsions:
REMARK  status: ('A' for Active; 'I' for Inactive)
REMARK    1  A    between atoms: C2_2  and  O2_4 
REMARK    2  A    between atoms: O2_4  and  C3_5 
REMARK    3  A    between atoms: C3_5  and  C4_6 
REMARK    4  A    between atoms: C5_7  and  C6_8 
REMARK    5  A    between atoms: C5_7  and  C9_13 
REMARK    6  A    between atoms: C6_8  and  O3_9 
REMARK    7  A    between atoms: O3_9  and  C7_10 
REMARK    8  A    between atoms: C9_13  and  C10_14 
REMARK    9  A    between atoms: C9_13  and  O6_29 
REMARK   10  A    between atoms: C10_14  and  C11_15 
REMARK   11  A    between atoms: O6_29  and  C24_30 
ROOT
HETATM    1  C9  UNL     1       2.788   7.556  10.090  1.00  0.00     0.163 C 
ENDROOT
BRANCH   1   2
HETATM    2  C5  UNL     1       4.208   7.616  10.658  1.00  0.00    -0.028 C 
HETATM    3  C4  UNL     1       5.033   6.547  10.720  1.00  0.00     0.007 C 
BRANCH   3   4
HETATM    4  C3  UNL     1       6.432   6.461  11.257  1.00  0.00     0.206 C 
BRANCH   4   5
HETATM    5  O2  UNL     1       6.379   6.556  12.687  1.00  0.00    -0.318 OA
BRANCH   5   6
HETATM    6  C2  UNL     1       7.215   7.464  13.256  1.00  0.00     0.255 C 
HETATM    7  C1  UNL     1       6.681   7.881  14.592  1.00  0.00     0.126 C 
HETATM    8  O1  UNL     1       8.258   7.879  12.770  1.00  0.00    -0.266 OA
ENDBRANCH   5   6
ENDBRANCH   4   5
ENDBRANCH   3   4
BRANCH   2   9
HETATM    9  C6  UNL     1       4.602   9.011  11.098  1.00  0.00     0.215 C 
BRANCH   9  10
HETATM   10  O3  UNL     1       5.446   9.568  10.085  1.00  0.00    -0.317 OA
BRANCH  10  11
HETATM   11  C7  UNL     1       6.593  10.116  10.568  1.00  0.00     0.255 C 
HETATM   12  C8  UNL     1       6.312  10.853  11.842  1.00  0.00     0.126 C 
HETATM   13  O4  UNL     1       7.697  10.018  10.053  1.00  0.00    -0.266 OA
ENDBRANCH  10  11
ENDBRANCH   9  10
ENDBRANCH   2   9
ENDBRANCH   1   2
BRANCH   1  14
HETATM   14  C10 UNL     1       1.734   6.634  10.763  1.00  0.00     0.047 C 
BRANCH  14  15
HETATM   15  C11 UNL     1       0.441   7.239  11.436  1.00  0.00    -0.033 C 
HETATM   16  C12 UNL     1      -0.142   8.342  10.504  1.00  0.00     0.016 C 
HETATM   17  C13 UNL     1       0.867   7.981  12.760  1.00  0.00    -0.010 C 
HETATM   18  C14 UNL     1       1.844   7.182  13.643  1.00  0.00     0.011 C 
HETATM   19  C15 UNL     1      -0.321   8.544  13.573  1.00  0.00     0.006 C 
HETATM   20  C16 UNL     1      -1.652   7.806  13.427  1.00  0.00     0.017 C 
HETATM   21  C17 UNL     1      -1.496   6.322  13.076  1.00  0.00     0.021 C 
HETATM   22  C18 UNL     1      -0.911   5.572  14.294  1.00  0.00     0.024 C 
HETATM   23  C19 UNL     1      -2.889   5.700  12.833  1.00  0.00     0.135 C 
HETATM   24  C23 UNL     1      -0.730   6.188  11.713  1.00  0.00     0.010 C 
HETATM   25  O5  UNL     1      -3.911   6.147  13.357  1.00  0.00    -0.297 OA
HETATM   26  C20 UNL     1      -2.968   4.502  11.901  1.00  0.00     0.079 C 
HETATM   27  C21 UNL     1      -1.632   3.778  11.795  1.00  0.00     0.008 C 
HETATM   28  C22 UNL     1      -0.473   4.702  11.387  1.00  0.00     0.007 C 
ENDBRANCH  14  15
ENDBRANCH   1  14
BRANCH   1  29
HETATM   29  O6  UNL     1       2.987   7.063   8.738  1.00  0.00    -0.312 OA
BRANCH  29  30
HETATM   30  C24 UNL     1       2.718   7.912   7.714  1.00  0.00     0.255 C 
HETATM   31  C25 UNL     1       1.823   7.240   6.718  1.00  0.00     0.126 C 
HETATM   32  O7  UNL     1       3.140   9.053   7.600  1.00  0.00    -0.266 OA
ENDBRANCH  29  30
ENDBRANCH   1  29
TORSDOF 11
ENDMDL
MODEL 6
REMARK minimizedAffinity -7.2921176
REMARK  11 active torsions:
REMARK  status: ('A' for Active; 'I' for Inactive)
REMARK    1  A    between atoms: C2_2  and  O2_4 
REMARK    2  A    between atoms: O2_4  and  C3_5 
REMARK    3  A    between atoms: C3_5  and  C4_6 
REMARK    4  A    between atoms: C5_7  and  C6_8 
REMARK    5  A    between atoms: C5_7  and  C9_13 
REMARK    6  A    between atoms: C6_8  and  O3_9 
REMARK    7  A    between atoms: O3_9  and  C7_10 
REMARK    8  A    between atoms: C9_13  and  C10_14 
REMARK    9  A    between atoms: C9_13  and  O6_29 
REMARK   10  A    between atoms: C10_14  and  C11_15 
REMARK   11  A    between atoms: O6_29  and  C24_30 
ROOT
HETATM    1  C9  UNL     1      -0.919   5.926  12.291  1.00  0.00     0.163 C 
ENDROOT
BRANCH   1   2
HETATM    2  C5  UNL     1       0.335   6.594  11.723  1.00  0.00    -0.028 C 
HETATM    3  C4  UNL     1       0.836   6.323  10.497  1.00  0.00     0.007 C 
BRANCH   3   4
HETATM    4  C3  UNL     1       2.052   6.889   9.824  1.00  0.00     0.206 C 
BRANCH   4   5
HETATM    5  O2  UNL     1       1.651   8.011   9.026  1.00  0.00    -0.318 OA
BRANCH   5   6
HETATM    6  C2  UNL     1       2.321   8.181   7.856  1.00  0.00     0.255 C 
HETATM    7  C1  UNL     1       1.882   7.148   6.864  1.00  0.00     0.126 C 
HETATM    8  O1  UNL     1       3.150   9.050   7.625  1.00  0.00    -0.266 OA
ENDBRANCH   5   6
ENDBRANCH   4   5
ENDBRANCH   3   4
BRANCH   2   9
HETATM    9  C6  UNL     1       0.925   7.624  12.665  1.00  0.00     0.215 C 
BRANCH   9  10
HETATM   10  O3  UNL     1       1.912   6.971  13.468  1.00  0.00    -0.317 OA
BRANCH  10  11
HETATM   11  C7  UNL     1       2.056   7.511  14.708  1.00  0.00     0.255 C 
HETATM   12  C8  UNL     1       1.071   8.625  14.898  1.00  0.00     0.126 C 
HETATM   13  O4  UNL     1       2.858   7.143  15.553  1.00  0.00    -0.266 OA
ENDBRANCH  10  11
ENDBRANCH   9  10
ENDBRANCH   2   9
ENDBRANCH   1   2
BRANCH   1  14
HETATM   14  C10 UNL     1      -1.560   6.486  13.592  1.00  0.00     0.047 C 
BRANCH  14  15
HETATM   15  C11 UNL     1      -2.917   7.290  13.544  1.00  0.00    -0.033 C 
HETATM   16  C12 UNL     1      -2.877   8.273  12.335  1.00  0.00     0.016 C 
HETATM   17  C13 UNL     1      -3.006   8.197  14.829  1.00  0.00    -0.010 C 
HETATM   18  C14 UNL     1      -2.632   7.476  16.137  1.00  0.00     0.011 C 
HETATM   19  C15 UNL     1      -4.336   8.974  14.957  1.00  0.00     0.006 C 
HETATM   20  C16 UNL     1      -5.563   8.329  14.309  1.00  0.00     0.017 C 
HETATM   21  C17 UNL     1      -5.481   6.801  14.228  1.00  0.00     0.021 C 
HETATM   22  C18 UNL     1      -5.593   6.211  15.652  1.00  0.00     0.024 C 
HETATM   23  C19 UNL     1      -6.704   6.259  13.456  1.00  0.00     0.135 C 
HETATM   24  C23 UNL     1      -4.227   6.391  13.377  1.00  0.00     0.010 C 
HETATM   25  O5  UNL     1      -7.777   6.862  13.415  1.00  0.00    -0.297 OA
HETATM   26  C20 UNL     1      -6.539   4.938  12.722  1.00  0.00     0.079 C 
HETATM   27  C21 UNL     1      -5.407   4.103  13.306  1.00  0.00     0.008 C 
HETATM   28  C22 UNL     1      -4.067   4.857  13.364  1.00  0.00     0.007 C 
ENDBRANCH  14  15
ENDBRANCH   1  14
BRANCH   1  29
HETATM   29  O6  UNL     1      -0.478   4.572  12.579  1.00  0.00    -0.312 OA
BRANCH  29  30
HETATM   30  C24 UNL     1      -0.687   3.627  11.628  1.00  0.00     0.255 C 
HETATM   31  C25 UNL     1      -1.978   3.897  10.917  1.00  0.00     0.126 C 
HETATM   32  O7  UNL     1       0.052   2.686  11.379  1.00  0.00    -0.266 OA
ENDBRANCH  29  30
ENDBRANCH   1  29
TORSDOF 11
ENDMDL
MODEL 7
REMARK minimizedAffinity -7.2397275
REMARK  11 active torsions:
REMARK  status: ('A' for Active; 'I' for Inactive)
REMARK    1  A    between atoms: C2_2  and  O2_4 
REMARK    2  A    between atoms: O2_4  and  C3_5 
REMARK    3  A    between atoms: C3_5  and  C4_6 
REMARK    4  A    between atoms: C5_7  and  C6_8 
REMARK    5  A    between atoms: C5_7  and  C9_13 
REMARK    6  A    between atoms: C6_8  and  O3_9 
REMARK    7  A    between atoms: O3_9  and  C7_10 
REMARK    8  A    between atoms: C9_13  and  C10_14 
REMARK    9  A    between atoms: C9_13  and  O6_29 
REMARK   10  A    between atoms: C10_14  and  C11_15 
REMARK   11  A    between atoms: O6_29  and  C24_30 
ROOT
HETATM    1  C9  UNL     1       0.539   6.298  11.584  1.00  0.00     0.163 C 
ENDROOT
BRANCH   1   2
HETATM    2  C5  UNL     1       1.747   6.360  10.646  1.00  0.00    -0.028 C 
HETATM    3  C4  UNL     1       2.543   5.300  10.383  1.00  0.00     0.007 C 
BRANCH   3   4
HETATM    4  C3  UNL     1       3.756   5.221   9.501  1.00  0.00     0.206 C 
BRANCH   4   5
HETATM    5  O2  UNL     1       3.350   4.755   8.207  1.00  0.00    -0.318 OA
BRANCH   5   6
HETATM    6  C2  UNL     1       4.114   3.774   7.659  1.00  0.00     0.255 C 
HETATM    7  C1  UNL     1       3.744   3.585   6.219  1.00  0.00     0.126 C 
HETATM    8  O1  UNL     1       4.986   3.140   8.236  1.00  0.00    -0.266 OA
ENDBRANCH   5   6
ENDBRANCH   4   5
ENDBRANCH   3   4
BRANCH   2   9
HETATM    9  C6  UNL     1       1.923   7.723  10.011  1.00  0.00     0.215 C 
BRANCH   9  10
HETATM   10  O3  UNL     1       1.275   7.701   8.735  1.00  0.00    -0.317 OA
BRANCH  10  11
HETATM   11  C7  UNL     1       2.096   8.014   7.697  1.00  0.00     0.255 C 
HETATM   12  C8  UNL     1       1.807   7.122   6.528  1.00  0.00     0.126 C 
HETATM   13  O4  UNL     1       2.940   8.898   7.702  1.00  0.00    -0.266 OA
ENDBRANCH  10  11
ENDBRANCH   9  10
ENDBRANCH   2   9
ENDBRANCH   1   2
BRANCH   1  14
HETATM   14  C10 UNL     1       0.579   7.070  12.932  1.00  0.00     0.047 C 
BRANCH  14  15
HETATM   15  C11 UNL     1      -0.754   7.425  13.701  1.00  0.00    -0.033 C 
HETATM   16  C12 UNL     1      -1.330   6.125  14.337  1.00  0.00     0.016 C 
HETATM   17  C13 UNL     1      -1.827   7.897  12.648  1.00  0.00    -0.010 C 
HETATM   18  C14 UNL     1      -1.293   8.902  11.610  1.00  0.00     0.011 C 
HETATM   19  C15 UNL     1      -3.158   8.368  13.278  1.00  0.00     0.006 C 
HETATM   20  C16 UNL     1      -3.071   8.945  14.691  1.00  0.00     0.017 C 
HETATM   21  C17 UNL     1      -1.714   9.578  15.014  1.00  0.00     0.021 C 
HETATM   22  C18 UNL     1      -1.550  10.875  14.189  1.00  0.00     0.024 C 
HETATM   23  C19 UNL     1      -1.689  10.020  16.494  1.00  0.00     0.135 C 
HETATM   24  C23 UNL     1      -0.588   8.493  14.877  1.00  0.00     0.010 C 
HETATM   25  O5  UNL     1      -2.713  10.315  17.110  1.00  0.00    -0.297 OA
HETATM   26  C20 UNL     1      -0.336  10.072  17.186  1.00  0.00     0.079 C 
HETATM   27  C21 UNL     1       0.806  10.216  16.188  1.00  0.00     0.008 C 
HETATM   28  C22 UNL     1       0.800   9.129  15.100  1.00  0.00     0.007 C 
ENDBRANCH  14  15
ENDBRANCH   1  14
BRANCH   1  29
HETATM   29  O6  UNL     1       0.431   4.885  11.902  1.00  0.00    -0.312 OA
BRANCH  29  30
HETATM   30  C24 UNL     1      -0.680   4.229  11.483  1.00  0.00     0.255 C 
HETATM   31  C25 UNL     1      -0.472   2.750  11.600  1.00  0.00     0.126 C 
HETATM   32  O7  UNL     1      -1.703   4.748  11.062  1.00  0.00    -0.266 OA
ENDBRANCH  29  30
ENDBRANCH   1  29
TORSDOF 11
ENDMDL
MODEL 8
REMARK minimizedAffinity -7.23730183
REMARK  11 active torsions:
REMARK  status: ('A' for Active; 'I' for Inactive)
REMARK    1  A    between atoms: C2_2  and  O2_4 
REMARK    2  A    between atoms: O2_4  and  C3_5 
REMARK    3  A    between atoms: C3_5  and  C4_6 
REMARK    4  A    between atoms: C5_7  and  C6_8 
REMARK    5  A    between atoms: C5_7  and  C9_13 
REMARK    6  A    between atoms: C6_8  and  O3_9 
REMARK    7  A    between atoms: O3_9  and  C7_10 
REMARK    8  A    between atoms: C9_13  and  C10_14 
REMARK    9  A    between atoms: C9_13  and  O6_29 
REMARK   10  A    between atoms: C10_14  and  C11_15 
REMARK   11  A    between atoms: O6_29  and  C24_30 
ROOT
HETATM    1  C9  UNL     1      -2.064   6.928  13.139  1.00  0.00     0.163 C 
ENDROOT
BRANCH   1   2
HETATM    2  C5  UNL     1      -0.795   6.116  12.875  1.00  0.00    -0.028 C 
HETATM    3  C4  UNL     1      -0.558   5.455  11.720  1.00  0.00     0.007 C 
BRANCH   3   4
HETATM    4  C3  UNL     1       0.627   4.618  11.333  1.00  0.00     0.206 C 
BRANCH   4   5
HETATM    5  O2  UNL     1       1.386   5.330  10.345  1.00  0.00    -0.318 OA
BRANCH   5   6
HETATM    6  C2  UNL     1       2.684   4.956  10.206  1.00  0.00     0.255 C 
HETATM    7  C1  UNL     1       3.584   6.054  10.685  1.00  0.00     0.126 C 
HETATM    8  O1  UNL     1       3.077   3.883   9.770  1.00  0.00    -0.266 OA
ENDBRANCH   5   6
ENDBRANCH   4   5
ENDBRANCH   3   4
BRANCH   2   9
HETATM    9  C6  UNL     1       0.185   6.173  14.029  1.00  0.00     0.215 C 
BRANCH   9  10
HETATM   10  O3  UNL     1      -0.106   7.346  14.795  1.00  0.00    -0.317 OA
BRANCH  10  11
HETATM   11  C7  UNL     1       0.944   7.793  15.533  1.00  0.00     0.255 C 
HETATM   12  C8  UNL     1       2.232   7.475  14.836  1.00  0.00     0.126 C 
HETATM   13  O4  UNL     1       0.861   8.379  16.602  1.00  0.00    -0.266 OA
ENDBRANCH  10  11
ENDBRANCH   9  10
ENDBRANCH   2   9
ENDBRANCH   1   2
BRANCH   1  14
HETATM   14  C10 UNL     1      -3.432   6.197  13.242  1.00  0.00     0.047 C 
BRANCH  14  15
HETATM   15  C11 UNL     1      -4.734   6.974  13.680  1.00  0.00    -0.033 C 
HETATM   16  C12 UNL     1      -4.814   8.310  12.883  1.00  0.00     0.016 C 
HETATM   17  C13 UNL     1      -4.585   7.388  15.193  1.00  0.00    -0.010 C 
HETATM   18  C14 UNL     1      -4.066   6.261  16.106  1.00  0.00     0.011 C 
HETATM   19  C15 UNL     1      -5.837   8.078  15.780  1.00  0.00     0.006 C 
HETATM   20  C16 UNL     1      -7.178   7.697  15.152  1.00  0.00     0.017 C 
HETATM   21  C17 UNL     1      -7.195   6.289  14.549  1.00  0.00     0.021 C 
HETATM   22  C18 UNL     1      -7.133   5.248  15.689  1.00  0.00     0.024 C 
HETATM   23  C19 UNL     1      -8.546   6.048  13.838  1.00  0.00     0.135 C 
HETATM   24  C23 UNL     1      -6.103   6.191  13.426  1.00  0.00     0.010 C 
HETATM   25  O5  UNL     1      -9.578   6.632  14.170  1.00  0.00    -0.297 OA
HETATM   26  C20 UNL     1      -8.563   5.056  12.686  1.00  0.00     0.079 C 
HETATM   27  C21 UNL     1      -7.407   4.069  12.771  1.00  0.00     0.008 C 
HETATM   28  C22 UNL     1      -6.033   4.753  12.871  1.00  0.00     0.007 C 
ENDBRANCH  14  15
ENDBRANCH   1  14
BRANCH   1  29
HETATM   29  O6  UNL     1      -2.140   7.817  11.993  1.00  0.00    -0.312 OA
BRANCH  29  30
HETATM   30  C24 UNL     1      -1.358   8.926  12.005  1.00  0.00     0.255 C 
HETATM   31  C25 UNL     1      -0.366   8.861  10.884  1.00  0.00     0.126 C 
HETATM   32  O7  UNL     1      -1.431   9.847  12.805  1.00  0.00    -0.266 OA
ENDBRANCH  29  30
ENDBRANCH   1  29
TORSDOF 11
ENDMDL
MODEL 9
REMARK minimizedAffinity -7.21207094
REMARK  11 active torsions:
REMARK  status: ('A' for Active; 'I' for Inactive)
REMARK    1  A    between atoms: C2_2  and  O2_4 
REMARK    2  A    between atoms: O2_4  and  C3_5 
REMARK    3  A    between atoms: C3_5  and  C4_6 
REMARK    4  A    between atoms: C5_7  and  C6_8 
REMARK    5  A    between atoms: C5_7  and  C9_13 
REMARK    6  A    between atoms: C6_8  and  O3_9 
REMARK    7  A    between atoms: O3_9  and  C7_10 
REMARK    8  A    between atoms: C9_13  and  C10_14 
REMARK    9  A    between atoms: C9_13  and  O6_29 
REMARK   10  A    between atoms: C10_14  and  C11_15 
REMARK   11  A    between atoms: O6_29  and  C24_30 
ROOT
HETATM    1  C9  UNL     1      -4.858   6.263  14.359  1.00  0.00     0.163 C 
ENDROOT
BRANCH   1   2
HETATM    2  C5  UNL     1      -4.714   5.140  13.329  1.00  0.00    -0.028 C 
HETATM    3  C4  UNL     1      -3.676   5.044  12.469  1.00  0.00     0.007 C 
BRANCH   3   4
HETATM    4  C3  UNL     1      -3.415   4.012  11.410  1.00  0.00     0.206 C 
BRANCH   4   5
HETATM    5  O2  UNL     1      -2.228   3.288  11.761  1.00  0.00    -0.318 OA
BRANCH   5   6
HETATM    6  C2  UNL     1      -2.072   2.075  11.168  1.00  0.00     0.255 C 
HETATM    7  C1  UNL     1      -3.156   1.145  11.619  1.00  0.00     0.126 C 
HETATM    8  O1  UNL     1      -1.192   1.776  10.373  1.00  0.00    -0.266 OA
ENDBRANCH   5   6
ENDBRANCH   4   5
ENDBRANCH   3   4
BRANCH   2   9
HETATM    9  C6  UNL     1      -5.835   4.125  13.412  1.00  0.00     0.215 C 
BRANCH   9  10
HETATM   10  O3  UNL     1      -6.724   4.362  12.316  1.00  0.00    -0.317 OA
BRANCH  10  11
HETATM   11  C7  UNL     1      -8.038   4.221  12.635  1.00  0.00     0.255 C 
HETATM   12  C8  UNL     1      -8.701   5.564  12.685  1.00  0.00     0.126 C 
HETATM   13  O4  UNL     1      -8.608   3.159  12.841  1.00  0.00    -0.266 OA
ENDBRANCH  10  11
ENDBRANCH   9  10
ENDBRANCH   2   9
ENDBRANCH   1   2
BRANCH   1  14
HETATM   14  C10 UNL     1      -3.735   6.484  15.410  1.00  0.00     0.047 C 
BRANCH  14  15
HETATM   15  C11 UNL     1      -2.689   7.655  15.243  1.00  0.00    -0.033 C 
HETATM   16  C12 UNL     1      -2.400   8.275  16.643  1.00  0.00     0.016 C 
HETATM   17  C13 UNL     1      -3.357   8.804  14.397  1.00  0.00    -0.010 C 
HETATM   18  C14 UNL     1      -4.107   8.311  13.145  1.00  0.00     0.011 C 
HETATM   19  C15 UNL     1      -2.406   9.980  14.076  1.00  0.00     0.006 C 
HETATM   20  C16 UNL     1      -0.917   9.642  13.989  1.00  0.00     0.017 C 
HETATM   21  C17 UNL     1      -0.639   8.194  13.573  1.00  0.00     0.021 C 
HETATM   22  C18 UNL     1      -1.040   8.005  12.092  1.00  0.00     0.024 C 
HETATM   23  C19 UNL     1       0.880   7.922  13.631  1.00  0.00     0.135 C 
HETATM   24  C23 UNL     1      -1.284   7.219  14.621  1.00  0.00     0.010 C 
HETATM   25  O5  UNL     1       1.715   8.816  13.490  1.00  0.00    -0.297 OA
HETATM   26  C20 UNL     1       1.326   6.490  13.883  1.00  0.00     0.079 C 
HETATM   27  C21 UNL     1       0.250   5.485  13.493  1.00  0.00     0.008 C 
HETATM   28  C22 UNL     1      -1.104   5.754  14.171  1.00  0.00     0.007 C 
ENDBRANCH  14  15
ENDBRANCH   1  14
BRANCH   1  29
HETATM   29  O6  UNL     1      -6.061   5.899  15.088  1.00  0.00    -0.312 OA
BRANCH  29  30
HETATM   30  C24 UNL     1      -6.739   6.892  15.717  1.00  0.00     0.255 C 
HETATM   31  C25 UNL     1      -6.937   8.044  14.781  1.00  0.00     0.126 C 
HETATM   32  O7  UNL     1      -7.132   6.870  16.874  1.00  0.00    -0.266 OA
ENDBRANCH  29  30
ENDBRANCH   1  29
TORSDOF 11
ENDMDL
