MODEL 1
REMARK minimizedAffinity -6.6668992
REMARK CNNscore 0.767845094
REMARK CNNaffinity 7.38579416
REMARK  5 active torsions:
REMARK  status: ('A' for Active; 'I' for Inactive)
REMARK    1  A    between atoms: C2_2  and  C3_3 
REMARK    2  A    between atoms: C20_20  and  O1_21 
REMARK    3  A    between atoms: O1_21  and  C21_22 
REMARK    4  A    between atoms: C21_22  and  C22_24 
REMARK    5  A    between atoms: C22_24  and  C23_25 
ROOT
HETATM    1  C3  UNL     1      -3.711  50.631  -9.773  1.00  0.00     0.012 C 
HETATM    2  C4  UNL     1      -4.454  49.912 -10.930  1.00  0.00     0.009 C 
HETATM    3  C5  UNL     1      -3.723  50.289 -12.230  1.00  0.00     0.010 C 
HETATM    4  C6  UNL     1      -2.947  51.564 -11.873  1.00  0.00    -0.039 C 
HETATM    5  C7  UNL     1      -3.925  52.765 -11.931  1.00  0.00     0.015 C 
HETATM    6  C8  UNL     1      -1.738  51.842 -12.774  1.00  0.00     0.010 C 
HETATM    7  C9  UNL     1      -0.851  52.965 -12.200  1.00  0.00     0.011 C 
HETATM    8  C10 UNL     1      -0.408  52.758 -10.706  1.00  0.00    -0.032 C 
HETATM    9  C11 UNL     1       0.616  51.572 -10.746  1.00  0.00     0.016 C 
HETATM   10  C12 UNL     1      -1.662  52.364  -9.820  1.00  0.00    -0.000 C 
HETATM   11  C13 UNL     1      -1.260  52.120  -8.361  1.00  0.00     0.006 C 
HETATM   12  C14 UNL     1      -0.516  53.304  -7.739  1.00  0.00     0.006 C 
HETATM   13  C15 UNL     1       0.692  53.788  -8.573  1.00  0.00     0.003 C 
HETATM   14  C16 UNL     1       1.605  54.881  -7.851  1.00  0.00    -0.035 C 
HETATM   15  C17 UNL     1       0.808  56.159  -7.496  1.00  0.00     0.016 C 
HETATM   16  C18 UNL     1       2.146  54.281  -6.517  1.00  0.00     0.012 C 
HETATM   17  C19 UNL     1       3.265  55.091  -5.868  1.00  0.00     0.034 C 
HETATM   18  C20 UNL     1       4.437  55.341  -6.814  1.00  0.00     0.140 C 
HETATM   19  C26 UNL     1       4.014  55.998  -8.164  1.00  0.00    -0.017 C 
HETATM   20  C27 UNL     1       5.251  55.953  -9.104  1.00  0.00     0.018 C 
HETATM   21  C28 UNL     1       3.674  57.493  -7.986  1.00  0.00     0.018 C 
HETATM   22  C29 UNL     1       2.844  55.147  -8.788  1.00  0.00     0.004 C 
HETATM   23  C30 UNL     1       2.395  55.593 -10.194  1.00  0.00     0.007 C 
HETATM   24  C31 UNL     1       1.535  54.521 -10.870  1.00  0.00     0.011 C 
HETATM   25  C32 UNL     1       0.274  54.093 -10.069  1.00  0.00    -0.032 C 
HETATM   26  C33 UNL     1      -0.726  55.287 -10.146  1.00  0.00     0.016 C 
HETATM   27  C34 UNL     1      -2.446  51.194 -10.456  1.00  0.00     0.006 C 
ENDROOT
BRANCH  18  28
HETATM   28  O1  UNL     1       5.362  56.193  -6.102  1.00  0.00    -0.315 OA
BRANCH  28  29
HETATM   29  C21 UNL     1       6.543  55.650  -5.702  1.00  0.00     0.259 C 
HETATM   30  O2  UNL     1       7.010  54.586  -6.085  1.00  0.00    -0.265 OA
BRANCH  29  31
HETATM   31  C22 UNL     1       7.205  56.535  -4.674  1.00  0.00     0.115 C 
BRANCH  31  32
HETATM   32  C23 UNL     1       8.273  57.460  -5.271  1.00  0.00    -0.013 C 
HETATM   33  C24 UNL     1       8.055  58.893  -4.785  1.00  0.00     0.010 C 
HETATM   34  C25 UNL     1       9.684  56.998  -4.901  1.00  0.00     0.010 C 
ENDBRANCH  31  32
ENDBRANCH  29  31
ENDBRANCH  28  29
ENDBRANCH  18  28
BRANCH   1  35
HETATM   35  C2  UNL     1      -3.436  49.673  -8.645  1.00  0.00    -0.032 C 
HETATM   36  C1  UNL     1      -3.778  48.376  -8.659  1.00  0.00     0.007 C 
ENDBRANCH   1  35
TORSDOF 5
ENDMDL
MODEL 2
REMARK minimizedAffinity -7.43014431
REMARK CNNscore 0.649143636
REMARK CNNaffinity 7.35539436
REMARK  5 active torsions:
REMARK  status: ('A' for Active; 'I' for Inactive)
REMARK    1  A    between atoms: C2_2  and  C3_3 
REMARK    2  A    between atoms: C20_20  and  O1_21 
REMARK    3  A    between atoms: O1_21  and  C21_22 
REMARK    4  A    between atoms: C21_22  and  C22_24 
REMARK    5  A    between atoms: C22_24  and  C23_25 
ROOT
HETATM    1  C3  UNL     1      -2.689  52.248 -12.258  1.00  0.00     0.012 C 
HETATM    2  C4  UNL     1      -3.543  50.977 -12.514  1.00  0.00     0.009 C 
HETATM    3  C5  UNL     1      -2.745  49.786 -11.957  1.00  0.00     0.010 C 
HETATM    4  C6  UNL     1      -1.301  50.301 -11.877  1.00  0.00    -0.039 C 
HETATM    5  C7  UNL     1      -0.672  50.218 -13.292  1.00  0.00     0.015 C 
HETATM    6  C8  UNL     1      -0.415  49.549 -10.877  1.00  0.00     0.010 C 
HETATM    7  C9  UNL     1       0.921  50.282 -10.642  1.00  0.00     0.011 C 
HETATM    8  C10 UNL     1       0.783  51.797 -10.249  1.00  0.00    -0.032 C 
HETATM    9  C11 UNL     1       0.199  51.789  -8.794  1.00  0.00     0.016 C 
HETATM   10  C12 UNL     1      -0.223  52.522 -11.236  1.00  0.00    -0.000 C 
HETATM   11  C13 UNL     1      -0.410  53.996 -10.859  1.00  0.00     0.006 C 
HETATM   12  C14 UNL     1       0.911  54.766 -10.783  1.00  0.00     0.006 C 
HETATM   13  C15 UNL     1       1.972  54.094  -9.881  1.00  0.00     0.003 C 
HETATM   14  C16 UNL     1       3.279  54.973  -9.620  1.00  0.00    -0.035 C 
HETATM   15  C17 UNL     1       4.015  55.325 -10.936  1.00  0.00     0.016 C 
HETATM   16  C18 UNL     1       2.853  56.316  -8.950  1.00  0.00     0.012 C 
HETATM   17  C19 UNL     1       4.010  57.127  -8.371  1.00  0.00     0.034 C 
HETATM   18  C20 UNL     1       4.858  56.325  -7.387  1.00  0.00     0.140 C 
HETATM   19  C26 UNL     1       5.390  54.982  -7.979  1.00  0.00    -0.017 C 
HETATM   20  C27 UNL     1       6.006  54.175  -6.802  1.00  0.00     0.018 C 
HETATM   21  C28 UNL     1       6.542  55.219  -8.977  1.00  0.00     0.018 C 
HETATM   22  C29 UNL     1       4.172  54.189  -8.585  1.00  0.00     0.004 C 
HETATM   23  C30 UNL     1       4.509  52.775  -9.099  1.00  0.00     0.007 C 
HETATM   24  C31 UNL     1       3.241  51.947  -9.326  1.00  0.00     0.011 C 
HETATM   25  C32 UNL     1       2.209  52.585 -10.298  1.00  0.00    -0.032 C 
HETATM   26  C33 UNL     1       2.823  52.481 -11.727  1.00  0.00     0.016 C 
HETATM   27  C34 UNL     1      -1.549  51.736 -11.352  1.00  0.00     0.006 C 
ENDROOT
BRANCH  18  28
HETATM   28  O1  UNL     1       5.958  57.181  -7.003  1.00  0.00    -0.315 OA
BRANCH  28  29
HETATM   29  C21 UNL     1       5.903  57.771  -5.780  1.00  0.00     0.259 C 
HETATM   30  O2  UNL     1       6.760  58.495  -5.293  1.00  0.00    -0.265 OA
BRANCH  29  31
HETATM   31  C22 UNL     1       4.629  57.383  -5.067  1.00  0.00     0.115 C 
BRANCH  31  32
HETATM   32  C23 UNL     1       3.603  58.521  -5.001  1.00  0.00    -0.013 C 
HETATM   33  C24 UNL     1       2.185  57.951  -5.031  1.00  0.00     0.010 C 
HETATM   34  C25 UNL     1       3.792  59.373  -3.743  1.00  0.00     0.010 C 
ENDBRANCH  31  32
ENDBRANCH  29  31
ENDBRANCH  28  29
ENDBRANCH  18  28
BRANCH   1  35
HETATM   35  C2  UNL     1      -3.532  53.336 -11.646  1.00  0.00    -0.032 C 
HETATM   36  C1  UNL     1      -4.016  53.298 -10.396  1.00  0.00     0.007 C 
ENDBRANCH   1  35
TORSDOF 5
ENDMDL
MODEL 3
REMARK minimizedAffinity -6.7921381
REMARK CNNscore 0.53840965
REMARK CNNaffinity 7.02321053
REMARK  5 active torsions:
REMARK  status: ('A' for Active; 'I' for Inactive)
REMARK    1  A    between atoms: C2_2  and  C3_3 
REMARK    2  A    between atoms: C20_20  and  O1_21 
REMARK    3  A    between atoms: O1_21  and  C21_22 
REMARK    4  A    between atoms: C21_22  and  C22_24 
REMARK    5  A    between atoms: C22_24  and  C23_25 
ROOT
HETATM    1  C3  UNL     1      -2.897  48.046 -10.178  1.00  0.00     0.012 C 
HETATM    2  C4  UNL     1      -4.223  47.603 -10.852  1.00  0.00     0.009 C 
HETATM    3  C5  UNL     1      -4.721  48.801 -11.679  1.00  0.00     0.010 C 
HETATM    4  C6  UNL     1      -3.994  50.009 -11.075  1.00  0.00    -0.039 C 
HETATM    5  C7  UNL     1      -4.739  50.435  -9.784  1.00  0.00     0.015 C 
HETATM    6  C8  UNL     1      -3.873  51.212 -12.018  1.00  0.00     0.010 C 
HETATM    7  C9  UNL     1      -2.902  52.273 -11.461  1.00  0.00     0.011 C 
HETATM    8  C10 UNL     1      -1.486  51.725 -11.058  1.00  0.00    -0.032 C 
HETATM    9  C11 UNL     1      -0.783  51.375 -12.415  1.00  0.00     0.016 C 
HETATM   10  C12 UNL     1      -1.643  50.419 -10.174  1.00  0.00    -0.000 C 
HETATM   11  C13 UNL     1      -0.278  49.836  -9.792  1.00  0.00     0.006 C 
HETATM   12  C14 UNL     1       0.631  50.849  -9.091  1.00  0.00     0.006 C 
HETATM   13  C15 UNL     1       0.792  52.179  -9.863  1.00  0.00     0.003 C 
HETATM   14  C16 UNL     1       1.891  53.169  -9.263  1.00  0.00    -0.035 C 
HETATM   15  C17 UNL     1       1.571  53.574  -7.803  1.00  0.00     0.016 C 
HETATM   16  C18 UNL     1       3.271  52.442  -9.254  1.00  0.00     0.012 C 
HETATM   17  C19 UNL     1       4.465  53.356  -8.989  1.00  0.00     0.034 C 
HETATM   18  C20 UNL     1       4.529  54.537  -9.955  1.00  0.00     0.140 C 
HETATM   19  C26 UNL     1       3.213  55.374  -9.997  1.00  0.00    -0.017 C 
HETATM   20  C27 UNL     1       3.338  56.364 -11.188  1.00  0.00     0.018 C 
HETATM   21  C28 UNL     1       3.056  56.249  -8.736  1.00  0.00     0.018 C 
HETATM   22  C29 UNL     1       2.007  54.393 -10.248  1.00  0.00     0.004 C 
HETATM   23  C30 UNL     1       0.641  55.081 -10.445  1.00  0.00     0.007 C 
HETATM   24  C31 UNL     1      -0.390  54.115 -11.037  1.00  0.00     0.011 C 
HETATM   25  C32 UNL     1      -0.614  52.814 -10.216  1.00  0.00    -0.032 C 
HETATM   26  C33 UNL     1      -1.387  53.230  -8.928  1.00  0.00     0.016 C 
HETATM   27  C34 UNL     1      -2.588  49.400 -10.851  1.00  0.00     0.006 C 
ENDROOT
BRANCH  18  28
HETATM   28  O1  UNL     1       5.638  55.357  -9.525  1.00  0.00    -0.315 OA
BRANCH  28  29
HETATM   29  C21 UNL     1       6.698  54.733  -8.944  1.00  0.00     0.259 C 
HETATM   30  O2  UNL     1       7.178  53.662  -9.290  1.00  0.00    -0.265 OA
BRANCH  29  31
HETATM   31  C22 UNL     1       7.198  55.535  -7.767  1.00  0.00     0.115 C 
BRANCH  31  32
HETATM   32  C23 UNL     1       6.099  55.869  -6.752  1.00  0.00    -0.013 C 
HETATM   33  C24 UNL     1       5.800  54.648  -5.882  1.00  0.00     0.010 C 
HETATM   34  C25 UNL     1       6.496  57.051  -5.864  1.00  0.00     0.010 C 
ENDBRANCH  31  32
ENDBRANCH  29  31
ENDBRANCH  28  29
ENDBRANCH  18  28
BRANCH   1  35
HETATM   35  C2  UNL     1      -1.832  46.998 -10.369  1.00  0.00    -0.032 C 
HETATM   36  C1  UNL     1      -1.722  46.229 -11.462  1.00  0.00     0.007 C 
ENDBRANCH   1  35
TORSDOF 5
ENDMDL
MODEL 4
REMARK minimizedAffinity -6.55991936
REMARK CNNscore 0.48972851
REMARK CNNaffinity 6.51006508
REMARK  5 active torsions:
REMARK  status: ('A' for Active; 'I' for Inactive)
REMARK    1  A    between atoms: C2_2  and  C3_3 
REMARK    2  A    between atoms: C20_20  and  O1_21 
REMARK    3  A    between atoms: O1_21  and  C21_22 
REMARK    4  A    between atoms: C21_22  and  C22_24 
REMARK    5  A    between atoms: C22_24  and  C23_25 
ROOT
HETATM    1  C3  UNL     1      -3.452  49.490 -21.580  1.00  0.00     0.012 C 
HETATM    2  C4  UNL     1      -2.060  49.064 -22.119  1.00  0.00     0.009 C 
HETATM    3  C5  UNL     1      -1.981  47.534 -21.984  1.00  0.00     0.010 C 
HETATM    4  C6  UNL     1      -3.053  47.188 -20.942  1.00  0.00    -0.039 C 
HETATM    5  C7  UNL     1      -2.473  47.466 -19.531  1.00  0.00     0.015 C 
HETATM    6  C8  UNL     1      -3.562  45.744 -21.013  1.00  0.00     0.010 C 
HETATM    7  C9  UNL     1      -4.818  45.543 -20.140  1.00  0.00     0.011 C 
HETATM    8  C10 UNL     1      -5.979  46.567 -20.408  1.00  0.00    -0.032 C 
HETATM    9  C11 UNL     1      -6.544  46.182 -21.820  1.00  0.00     0.016 C 
HETATM   10  C12 UNL     1      -5.403  48.043 -20.438  1.00  0.00    -0.000 C 
HETATM   11  C13 UNL     1      -6.505  49.067 -20.733  1.00  0.00     0.006 C 
HETATM   12  C14 UNL     1      -7.685  48.973 -19.762  1.00  0.00     0.006 C 
HETATM   13  C15 UNL     1      -8.272  47.549 -19.633  1.00  0.00     0.003 C 
HETATM   14  C16 UNL     1      -9.626  47.461 -18.791  1.00  0.00    -0.035 C 
HETATM   15  C17 UNL     1      -9.440  47.967 -17.340  1.00  0.00     0.016 C 
HETATM   16  C18 UNL     1     -10.698  48.368 -19.469  1.00  0.00     0.012 C 
HETATM   17  C19 UNL     1     -12.120  48.156 -18.955  1.00  0.00     0.034 C 
HETATM   18  C20 UNL     1     -12.569  46.699 -19.046  1.00  0.00     0.140 C 
HETATM   19  C26 UNL     1     -11.592  45.706 -18.343  1.00  0.00    -0.017 C 
HETATM   20  C27 UNL     1     -12.040  44.270 -18.735  1.00  0.00     0.018 C 
HETATM   21  C28 UNL     1     -11.715  45.781 -16.807  1.00  0.00     0.018 C 
HETATM   22  C29 UNL     1     -10.137  45.973 -18.882  1.00  0.00     0.004 C 
HETATM   23  C30 UNL     1      -9.067  44.984 -18.378  1.00  0.00     0.007 C 
HETATM   24  C31 UNL     1      -7.786  45.077 -19.212  1.00  0.00     0.011 C 
HETATM   25  C32 UNL     1      -7.148  46.493 -19.276  1.00  0.00    -0.032 C 
HETATM   26  C33 UNL     1      -6.539  46.768 -17.867  1.00  0.00     0.016 C 
HETATM   27  C34 UNL     1      -4.186  48.146 -21.385  1.00  0.00     0.006 C 
ENDROOT
BRANCH  18  28
HETATM   28  O1  UNL     1     -13.880  46.637 -18.440  1.00  0.00    -0.315 OA
BRANCH  28  29
HETATM   29  C21 UNL     1     -14.789  47.582 -18.801  1.00  0.00     0.259 C 
HETATM   30  O2  UNL     1     -15.052  48.600 -18.175  1.00  0.00    -0.265 OA
BRANCH  29  31
HETATM   31  C22 UNL     1     -15.472  47.188 -20.088  1.00  0.00     0.115 C 
BRANCH  31  32
HETATM   32  C23 UNL     1     -16.702  46.300 -19.872  1.00  0.00    -0.013 C 
HETATM   33  C24 UNL     1     -17.890  47.149 -19.418  1.00  0.00     0.010 C 
HETATM   34  C25 UNL     1     -17.071  45.534 -21.145  1.00  0.00     0.010 C 
ENDBRANCH  31  32
ENDBRANCH  29  31
ENDBRANCH  28  29
ENDBRANCH  18  28
BRANCH   1  35
HETATM   35  C2  UNL     1      -4.125  50.433 -22.542  1.00  0.00    -0.032 C 
HETATM   36  C1  UNL     1      -4.268  51.749 -22.329  1.00  0.00     0.007 C 
ENDBRANCH   1  35
TORSDOF 5
ENDMDL
MODEL 5
REMARK minimizedAffinity -7.16147947
REMARK CNNscore 0.462014377
REMARK CNNaffinity 6.1392498
REMARK  5 active torsions:
REMARK  status: ('A' for Active; 'I' for Inactive)
REMARK    1  A    between atoms: C2_2  and  C3_3 
REMARK    2  A    between atoms: C20_20  and  O1_21 
REMARK    3  A    between atoms: O1_21  and  C21_22 
REMARK    4  A    between atoms: C21_22  and  C22_24 
REMARK    5  A    between atoms: C22_24  and  C23_25 
ROOT
HETATM    1  C3  UNL     1      -8.096  47.565 -32.032  1.00  0.00     0.012 C 
HETATM    2  C4  UNL     1      -6.590  47.431 -32.381  1.00  0.00     0.009 C 
HETATM    3  C5  UNL     1      -5.968  46.511 -31.316  1.00  0.00     0.010 C 
HETATM    4  C6  UNL     1      -6.958  46.562 -30.145  1.00  0.00    -0.039 C 
HETATM    5  C7  UNL     1      -6.704  47.865 -29.344  1.00  0.00     0.015 C 
HETATM    6  C8  UNL     1      -6.885  45.356 -29.201  1.00  0.00     0.010 C 
HETATM    7  C9  UNL     1      -8.076  45.330 -28.222  1.00  0.00     0.011 C 
HETATM    8  C10 UNL     1      -9.490  45.434 -28.899  1.00  0.00    -0.032 C 
HETATM    9  C11 UNL     1      -9.691  44.064 -29.634  1.00  0.00     0.016 C 
HETATM   10  C12 UNL     1      -9.501  46.621 -29.950  1.00  0.00    -0.000 C 
HETATM   11  C13 UNL     1     -10.857  46.729 -30.657  1.00  0.00     0.006 C 
HETATM   12  C14 UNL     1     -12.030  46.866 -29.684  1.00  0.00     0.006 C 
HETATM   13  C15 UNL     1     -12.062  45.775 -28.589  1.00  0.00     0.003 C 
HETATM   14  C16 UNL     1     -13.381  45.770 -27.690  1.00  0.00    -0.035 C 
HETATM   15  C17 UNL     1     -13.579  47.112 -26.944  1.00  0.00     0.016 C 
HETATM   16  C18 UNL     1     -14.619  45.563 -28.617  1.00  0.00     0.012 C 
HETATM   17  C19 UNL     1     -15.914  45.240 -27.876  1.00  0.00     0.034 C 
HETATM   18  C20 UNL     1     -15.778  44.035 -26.949  1.00  0.00     0.140 C 
HETATM   19  C26 UNL     1     -14.600  44.165 -25.934  1.00  0.00    -0.017 C 
HETATM   20  C27 UNL     1     -14.432  42.781 -25.247  1.00  0.00     0.018 C 
HETATM   21  C28 UNL     1     -14.933  45.160 -24.802  1.00  0.00     0.018 C 
HETATM   22  C29 UNL     1     -13.291  44.521 -26.733  1.00  0.00     0.004 C 
HETATM   23  C30 UNL     1     -12.003  44.560 -25.886  1.00  0.00     0.007 C 
HETATM   24  C31 UNL     1     -10.753  44.547 -26.771  1.00  0.00     0.011 C 
HETATM   25  C32 UNL     1     -10.681  45.693 -27.818  1.00  0.00    -0.032 C 
HETATM   26  C33 UNL     1     -10.398  47.003 -27.022  1.00  0.00     0.016 C 
HETATM   27  C34 UNL     1      -8.300  46.518 -30.917  1.00  0.00     0.006 C 
ENDROOT
BRANCH  18  28
HETATM   28  O1  UNL     1     -17.038  43.912 -26.251  1.00  0.00    -0.315 OA
BRANCH  28  29
HETATM   29  C21 UNL     1     -18.160  44.335 -26.892  1.00  0.00     0.259 C 
HETATM   30  O2  UNL     1     -18.602  45.476 -26.888  1.00  0.00    -0.265 OA
BRANCH  29  31
HETATM   31  C22 UNL     1     -18.825  43.181 -27.603  1.00  0.00     0.115 C 
BRANCH  31  32
HETATM   32  C23 UNL     1     -19.211  43.504 -29.051  1.00  0.00    -0.013 C 
HETATM   33  C24 UNL     1     -18.080  43.102 -29.997  1.00  0.00     0.010 C 
HETATM   34  C25 UNL     1     -20.504  42.792 -29.458  1.00  0.00     0.010 C 
ENDBRANCH  31  32
ENDBRANCH  29  31
ENDBRANCH  28  29
ENDBRANCH  18  28
BRANCH   1  35
HETATM   35  C2  UNL     1      -8.943  47.343 -33.258  1.00  0.00    -0.032 C 
HETATM   36  C1  UNL     1      -8.449  47.162 -34.491  1.00  0.00     0.007 C 
ENDBRANCH   1  35
TORSDOF 5
ENDMDL
MODEL 6
REMARK minimizedAffinity -7.3197794
REMARK CNNscore 0.398009658
REMARK CNNaffinity 6.05059576
REMARK  5 active torsions:
REMARK  status: ('A' for Active; 'I' for Inactive)
REMARK    1  A    between atoms: C2_2  and  C3_3 
REMARK    2  A    between atoms: C20_20  and  O1_21 
REMARK    3  A    between atoms: O1_21  and  C21_22 
REMARK    4  A    between atoms: C21_22  and  C22_24 
REMARK    5  A    between atoms: C22_24  and  C23_25 
ROOT
HETATM    1  C3  UNL     1      -7.892  46.988 -27.598  1.00  0.00     0.012 C 
HETATM    2  C4  UNL     1      -7.000  47.686 -28.658  1.00  0.00     0.009 C 
HETATM    3  C5  UNL     1      -7.907  48.011 -29.857  1.00  0.00     0.010 C 
HETATM    4  C6  UNL     1      -9.110  47.073 -29.689  1.00  0.00    -0.039 C 
HETATM    5  C7  UNL     1      -8.713  45.669 -30.213  1.00  0.00     0.015 C 
HETATM    6  C8  UNL     1     -10.384  47.545 -30.398  1.00  0.00     0.010 C 
HETATM    7  C9  UNL     1     -11.612  46.719 -29.965  1.00  0.00     0.011 C 
HETATM    8  C10 UNL     1     -11.830  46.624 -28.412  1.00  0.00    -0.032 C 
HETATM    9  C11 UNL     1     -12.281  48.061 -27.975  1.00  0.00     0.016 C 
HETATM   10  C12 UNL     1     -10.468  46.241 -27.697  1.00  0.00    -0.000 C 
HETATM   11  C13 UNL     1     -10.636  46.175 -26.175  1.00  0.00     0.006 C 
HETATM   12  C14 UNL     1     -11.755  45.226 -25.737  1.00  0.00     0.006 C 
HETATM   13  C15 UNL     1     -13.108  45.497 -26.432  1.00  0.00     0.003 C 
HETATM   14  C16 UNL     1     -14.337  44.662 -25.847  1.00  0.00    -0.035 C 
HETATM   15  C17 UNL     1     -14.109  43.136 -25.963  1.00  0.00     0.016 C 
HETATM   16  C18 UNL     1     -14.494  44.997 -24.331  1.00  0.00     0.012 C 
HETATM   17  C19 UNL     1     -15.801  44.509 -23.710  1.00  0.00     0.034 C 
HETATM   18  C20 UNL     1     -17.033  45.006 -24.461  1.00  0.00     0.140 C 
HETATM   19  C26 UNL     1     -17.007  44.669 -25.984  1.00  0.00    -0.017 C 
HETATM   20  C27 UNL     1     -18.179  45.448 -26.646  1.00  0.00     0.018 C 
HETATM   21  C28 UNL     1     -17.296  43.175 -26.240  1.00  0.00     0.018 C 
HETATM   22  C29 UNL     1     -15.637  45.167 -26.581  1.00  0.00     0.004 C 
HETATM   23  C30 UNL     1     -15.505  45.022 -28.110  1.00  0.00     0.007 C 
HETATM   24  C31 UNL     1     -14.330  45.845 -28.648  1.00  0.00     0.011 C 
HETATM   25  C32 UNL     1     -12.953  45.515 -28.007  1.00  0.00    -0.032 C 
HETATM   26  C33 UNL     1     -12.535  44.115 -28.552  1.00  0.00     0.016 C 
HETATM   27  C34 UNL     1      -9.320  47.166 -28.158  1.00  0.00     0.006 C 
ENDROOT
BRANCH  18  28
HETATM   28  O1  UNL     1     -18.175  44.391 -23.824  1.00  0.00    -0.315 OA
BRANCH  28  29
HETATM   29  C21 UNL     1     -19.207  45.198 -23.459  1.00  0.00     0.259 C 
HETATM   30  O2  UNL     1     -20.369  45.089 -23.826  1.00  0.00    -0.265 OA
BRANCH  29  31
HETATM   31  C22 UNL     1     -18.716  46.294 -22.544  1.00  0.00     0.115 C 
BRANCH  31  32
HETATM   32  C23 UNL     1     -18.413  45.805 -21.123  1.00  0.00    -0.013 C 
HETATM   33  C24 UNL     1     -18.522  46.966 -20.134  1.00  0.00     0.010 C 
HETATM   34  C25 UNL     1     -19.363  44.679 -20.705  1.00  0.00     0.010 C 
ENDBRANCH  31  32
ENDBRANCH  29  31
ENDBRANCH  28  29
ENDBRANCH  18  28
BRANCH   1  35
HETATM   35  C2  UNL     1      -7.675  47.600 -26.239  1.00  0.00    -0.032 C 
HETATM   36  C1  UNL     1      -7.555  46.893 -25.106  1.00  0.00     0.007 C 
ENDBRANCH   1  35
TORSDOF 5
ENDMDL
MODEL 7
REMARK minimizedAffinity -7.78549147
REMARK CNNscore 0.386835009
REMARK CNNaffinity 6.03710794
REMARK  5 active torsions:
REMARK  status: ('A' for Active; 'I' for Inactive)
REMARK    1  A    between atoms: C2_2  and  C3_3 
REMARK    2  A    between atoms: C20_20  and  O1_21 
REMARK    3  A    between atoms: O1_21  and  C21_22 
REMARK    4  A    between atoms: C21_22  and  C22_24 
REMARK    5  A    between atoms: C22_24  and  C23_25 
ROOT
HETATM    1  C3  UNL     1      -7.605  47.694 -33.308  1.00  0.00     0.012 C 
HETATM    2  C4  UNL     1      -6.131  47.564 -33.777  1.00  0.00     0.009 C 
HETATM    3  C5  UNL     1      -5.353  46.917 -32.619  1.00  0.00     0.010 C 
HETATM    4  C6  UNL     1      -6.232  47.162 -31.386  1.00  0.00    -0.039 C 
HETATM    5  C7  UNL     1      -5.996  48.614 -30.895  1.00  0.00     0.015 C 
HETATM    6  C8  UNL     1      -5.989  46.184 -30.231  1.00  0.00     0.010 C 
HETATM    7  C9  UNL     1      -7.081  46.304 -29.148  1.00  0.00     0.011 C 
HETATM    8  C10 UNL     1      -8.555  46.196 -29.682  1.00  0.00    -0.032 C 
HETATM    9  C11 UNL     1      -8.727  44.694 -30.100  1.00  0.00     0.016 C 
HETATM   10  C12 UNL     1      -8.744  47.136 -30.943  1.00  0.00    -0.000 C 
HETATM   11  C13 UNL     1     -10.164  47.028 -31.513  1.00  0.00     0.006 C 
HETATM   12  C14 UNL     1     -11.249  47.307 -30.470  1.00  0.00     0.006 C 
HETATM   13  C15 UNL     1     -11.104  46.467 -29.180  1.00  0.00     0.003 C 
HETATM   14  C16 UNL     1     -12.332  46.585 -28.167  1.00  0.00    -0.035 C 
HETATM   15  C17 UNL     1     -12.553  48.041 -27.691  1.00  0.00     0.016 C 
HETATM   16  C18 UNL     1     -13.632  46.130 -28.899  1.00  0.00     0.012 C 
HETATM   17  C19 UNL     1     -14.829  45.905 -27.978  1.00  0.00     0.034 C 
HETATM   18  C20 UNL     1     -14.525  44.927 -26.845  1.00  0.00     0.140 C 
HETATM   19  C26 UNL     1     -13.271  45.322 -26.005  1.00  0.00    -0.017 C 
HETATM   20  C27 UNL     1     -12.945  44.121 -25.074  1.00  0.00     0.018 C 
HETATM   21  C28 UNL     1     -13.567  46.513 -25.070  1.00  0.00     0.018 C 
HETATM   22  C29 UNL     1     -12.069  45.568 -26.992  1.00  0.00     0.004 C 
HETATM   23  C30 UNL     1     -10.714  45.845 -26.309  1.00  0.00     0.007 C 
HETATM   24  C31 UNL     1      -9.553  45.709 -27.298  1.00  0.00     0.011 C 
HETATM   25  C32 UNL     1      -9.657  46.615 -28.557  1.00  0.00    -0.032 C 
HETATM   26  C33 UNL     1      -9.393  48.074 -28.076  1.00  0.00     0.016 C 
HETATM   27  C34 UNL     1      -7.633  46.893 -31.989  1.00  0.00     0.006 C 
ENDROOT
BRANCH  18  28
HETATM   28  O1  UNL     1     -15.704  44.890 -26.010  1.00  0.00    -0.315 OA
BRANCH  28  29
HETATM   29  C21 UNL     1     -16.826  44.320 -26.524  1.00  0.00     0.259 C 
HETATM   30  O2  UNL     1     -16.916  43.183 -26.965  1.00  0.00    -0.265 OA
BRANCH  29  31
HETATM   31  C22 UNL     1     -17.969  45.308 -26.512  1.00  0.00     0.115 C 
BRANCH  31  32
HETATM   32  C23 UNL     1     -18.452  45.655 -25.099  1.00  0.00    -0.013 C 
HETATM   33  C24 UNL     1     -17.816  46.965 -24.635  1.00  0.00     0.010 C 
HETATM   34  C25 UNL     1     -19.977  45.772 -25.042  1.00  0.00     0.010 C 
ENDBRANCH  31  32
ENDBRANCH  29  31
ENDBRANCH  28  29
ENDBRANCH  18  28
BRANCH   1  35
HETATM   35  C2  UNL     1      -8.544  47.182 -34.369  1.00  0.00    -0.032 C 
HETATM   36  C1  UNL     1      -8.337  47.318 -35.686  1.00  0.00     0.007 C 
ENDBRANCH   1  35
TORSDOF 5
ENDMDL
MODEL 8
REMARK minimizedAffinity -7.38768816
REMARK CNNscore 0.377929211
REMARK CNNaffinity 5.70593309
REMARK  5 active torsions:
REMARK  status: ('A' for Active; 'I' for Inactive)
REMARK    1  A    between atoms: C2_2  and  C3_3 
REMARK    2  A    between atoms: C20_20  and  O1_21 
REMARK    3  A    between atoms: O1_21  and  C21_22 
REMARK    4  A    between atoms: C21_22  and  C22_24 
REMARK    5  A    between atoms: C22_24  and  C23_25 
ROOT
HETATM    1  C3  UNL     1      -5.916  47.483 -28.479  1.00  0.00     0.012 C 
HETATM    2  C4  UNL     1      -5.571  48.037 -29.887  1.00  0.00     0.009 C 
HETATM    3  C5  UNL     1      -6.902  48.441 -30.543  1.00  0.00     0.010 C 
HETATM    4  C6  UNL     1      -7.965  47.665 -29.755  1.00  0.00    -0.039 C 
HETATM    5  C7  UNL     1      -8.004  46.209 -30.288  1.00  0.00     0.015 C 
HETATM    6  C8  UNL     1      -9.371  48.273 -29.820  1.00  0.00     0.010 C 
HETATM    7  C9  UNL     1     -10.320  47.616 -28.797  1.00  0.00     0.011 C 
HETATM    8  C10 UNL     1      -9.782  47.589 -27.320  1.00  0.00    -0.032 C 
HETATM    9  C11 UNL     1      -9.830  49.082 -26.842  1.00  0.00     0.016 C 
HETATM   10  C12 UNL     1      -8.288  47.059 -27.299  1.00  0.00    -0.000 C 
HETATM   11  C13 UNL     1      -7.718  47.053 -25.876  1.00  0.00     0.006 C 
HETATM   12  C14 UNL     1      -8.581  46.262 -24.889  1.00  0.00     0.006 C 
HETATM   13  C15 UNL     1     -10.069  46.681 -24.888  1.00  0.00     0.003 C 
HETATM   14  C16 UNL     1     -10.947  46.021 -23.730  1.00  0.00    -0.035 C 
HETATM   15  C17 UNL     1     -10.951  44.475 -23.815  1.00  0.00     0.016 C 
HETATM   16  C18 UNL     1     -10.332  46.411 -22.350  1.00  0.00     0.012 C 
HETATM   17  C19 UNL     1     -11.227  46.105 -21.151  1.00  0.00     0.034 C 
HETATM   18  C20 UNL     1     -12.613  46.732 -21.275  1.00  0.00     0.140 C 
HETATM   19  C26 UNL     1     -13.347  46.355 -22.600  1.00  0.00    -0.017 C 
HETATM   20  C27 UNL     1     -14.610  47.255 -22.696  1.00  0.00     0.018 C 
HETATM   21  C28 UNL     1     -13.866  44.902 -22.568  1.00  0.00     0.018 C 
HETATM   22  C29 UNL     1     -12.384  46.663 -23.807  1.00  0.00     0.004 C 
HETATM   23  C30 UNL     1     -13.008  46.464 -25.203  1.00  0.00     0.007 C 
HETATM   24  C31 UNL     1     -12.156  47.120 -26.293  1.00  0.00     0.011 C 
HETATM   25  C32 UNL     1     -10.680  46.639 -26.348  1.00  0.00    -0.032 C 
HETATM   26  C33 UNL     1     -10.709  45.184 -26.909  1.00  0.00     0.016 C 
HETATM   27  C34 UNL     1      -7.413  47.823 -28.318  1.00  0.00     0.006 C 
ENDROOT
BRANCH  18  28
HETATM   28  O1  UNL     1     -13.370  46.280 -20.130  1.00  0.00    -0.315 OA
BRANCH  28  29
HETATM   29  C21 UNL     1     -13.330  47.042 -19.005  1.00  0.00     0.259 C 
HETATM   30  O2  UNL     1     -12.745  46.761 -17.968  1.00  0.00    -0.265 OA
BRANCH  29  31
HETATM   31  C22 UNL     1     -14.149  48.297 -19.192  1.00  0.00     0.115 C 
BRANCH  31  32
HETATM   32  C23 UNL     1     -15.358  48.375 -18.252  1.00  0.00    -0.013 C 
HETATM   33  C24 UNL     1     -15.645  49.831 -17.888  1.00  0.00     0.010 C 
HETATM   34  C25 UNL     1     -16.601  47.745 -18.887  1.00  0.00     0.010 C 
ENDBRANCH  31  32
ENDBRANCH  29  31
ENDBRANCH  28  29
ENDBRANCH  18  28
BRANCH   1  35
HETATM   35  C2  UNL     1      -5.021  48.098 -27.436  1.00  0.00    -0.032 C 
HETATM   36  C1  UNL     1      -3.775  48.532 -27.674  1.00  0.00     0.007 C 
ENDBRANCH   1  35
TORSDOF 5
ENDMDL
MODEL 9
REMARK minimizedAffinity -6.75602722
REMARK CNNscore 0.354989439
REMARK CNNaffinity 6.45807314
REMARK  5 active torsions:
REMARK  status: ('A' for Active; 'I' for Inactive)
REMARK    1  A    between atoms: C2_2  and  C3_3 
REMARK    2  A    between atoms: C20_20  and  O1_21 
REMARK    3  A    between atoms: O1_21  and  C21_22 
REMARK    4  A    between atoms: C21_22  and  C22_24 
REMARK    5  A    between atoms: C22_24  and  C23_25 
ROOT
HETATM    1  C3  UNL     1      -7.471  47.933 -31.480  1.00  0.00     0.012 C 
HETATM    2  C4  UNL     1      -8.687  48.674 -30.864  1.00  0.00     0.009 C 
HETATM    3  C5  UNL     1      -9.739  47.602 -30.532  1.00  0.00     0.010 C 
HETATM    4  C6  UNL     1      -9.344  46.400 -31.401  1.00  0.00    -0.039 C 
HETATM    5  C7  UNL     1      -9.867  46.643 -32.841  1.00  0.00     0.015 C 
HETATM    6  C8  UNL     1      -9.860  45.051 -30.888  1.00  0.00     0.010 C 
HETATM    7  C9  UNL     1      -9.204  43.872 -31.635  1.00  0.00     0.011 C 
HETATM    8  C10 UNL     1      -7.633  43.903 -31.668  1.00  0.00    -0.032 C 
HETATM    9  C11 UNL     1      -7.190  43.594 -30.196  1.00  0.00     0.016 C 
HETATM   10  C12 UNL     1      -7.129  45.343 -32.097  1.00  0.00    -0.000 C 
HETATM   11  C13 UNL     1      -5.598  45.419 -32.104  1.00  0.00     0.006 C 
HETATM   12  C14 UNL     1      -4.950  44.343 -32.979  1.00  0.00     0.006 C 
HETATM   13  C15 UNL     1      -5.432  42.909 -32.662  1.00  0.00     0.003 C 
HETATM   14  C16 UNL     1      -4.625  41.754 -33.412  1.00  0.00    -0.035 C 
HETATM   15  C17 UNL     1      -4.714  41.890 -34.952  1.00  0.00     0.016 C 
HETATM   16  C18 UNL     1      -3.119  41.857 -33.020  1.00  0.00     0.012 C 
HETATM   17  C19 UNL     1      -2.278  40.647 -33.419  1.00  0.00     0.034 C 
HETATM   18  C20 UNL     1      -2.844  39.334 -32.885  1.00  0.00     0.140 C 
HETATM   19  C26 UNL     1      -4.337  39.099 -33.273  1.00  0.00    -0.017 C 
HETATM   20  C27 UNL     1      -4.835  37.873 -32.457  1.00  0.00     0.018 C 
HETATM   21  C28 UNL     1      -4.482  38.705 -34.757  1.00  0.00     0.018 C 
HETATM   22  C29 UNL     1      -5.163  40.377 -32.866  1.00  0.00     0.004 C 
HETATM   23  C30 UNL     1      -6.687  40.255 -33.068  1.00  0.00     0.007 C 
HETATM   24  C31 UNL     1      -7.438  41.364 -32.324  1.00  0.00     0.011 C 
HETATM   25  C32 UNL     1      -7.011  42.810 -32.704  1.00  0.00    -0.032 C 
HETATM   26  C33 UNL     1      -7.557  43.071 -34.140  1.00  0.00     0.016 C 
HETATM   27  C34 UNL     1      -7.804  46.444 -31.247  1.00  0.00     0.006 C 
ENDROOT
BRANCH  18  28
HETATM   28  O1  UNL     1      -2.009  38.282 -33.419  1.00  0.00    -0.315 OA
BRANCH  28  29
HETATM   29  C21 UNL     1      -0.666  38.384 -33.234  1.00  0.00     0.259 C 
HETATM   30  O2  UNL     1       0.148  38.749 -34.072  1.00  0.00    -0.265 OA
BRANCH  29  31
HETATM   31  C22 UNL     1      -0.294  37.948 -31.838  1.00  0.00     0.115 C 
BRANCH  31  32
HETATM   32  C23 UNL     1      -1.487  37.418 -31.033  1.00  0.00    -0.013 C 
HETATM   33  C24 UNL     1      -1.365  35.905 -30.850  1.00  0.00     0.010 C 
HETATM   34  C25 UNL     1      -1.585  38.097 -29.665  1.00  0.00     0.010 C 
ENDBRANCH  31  32
ENDBRANCH  29  31
ENDBRANCH  28  29
ENDBRANCH  18  28
BRANCH   1  35
HETATM   35  C2  UNL     1      -6.190  48.393 -30.836  1.00  0.00    -0.032 C 
HETATM   36  C1  UNL     1      -5.843  48.118 -29.570  1.00  0.00     0.007 C 
ENDBRANCH   1  35
TORSDOF 5
ENDMDL
