MODEL 1
REMARK minimizedAffinity -8.26161003
REMARK CNNscore 0.281410336
REMARK CNNaffinity 7.0022521
REMARK  12 active torsions:
REMARK  status: ('A' for Active; 'I' for Inactive)
REMARK    1  A    between atoms: C3_3  and  O1_4 
REMARK    2  A    between atoms: N1_14  and  O2_16 
REMARK    3  A    between atoms: O2_16  and  C13_17 
REMARK    4  A    between atoms: C13_17  and  C14_18 
REMARK       I    between atoms: C14_18  and  N2_20 
REMARK    5  A    between atoms: N2_20  and  C15_21 
REMARK    6  A    between atoms: C15_21  and  C16_22 
REMARK    7  A    between atoms: C15_21  and  C27_38 
REMARK       I    between atoms: C16_22  and  N3_24 
REMARK    8  A    between atoms: N3_24  and  C17_25 
REMARK    9  A    between atoms: C17_25  and  C18_26 
REMARK   10  A    between atoms: C17_25  and  C20_30 
REMARK   11  A    between atoms: C18_26  and  C19_27 
REMARK   12  A    between atoms: C19_27  and  O6_29 
ROOT
HETATM    1  C1  UNL     1       4.586   6.308  11.003  1.00  0.00     0.015 C 
HETATM    2  C2  UNL     1       3.479   6.656  10.690  1.00  0.00    -0.078 C 
HETATM    3  C3  UNL     1       2.126   7.068  10.254  1.00  0.00     0.128 C 
HETATM    4  C4  UNL     1       1.292   5.807   9.962  1.00  0.00     0.052 C 
HETATM    5  C5  UNL     1       0.514   5.504  11.254  1.00  0.00     0.010 C 
HETATM    6  C6  UNL     1       0.842   6.635  12.251  1.00  0.00     0.002 C 
HETATM    7  C7  UNL     1      -0.274   6.996  13.250  1.00  0.00    -0.004 C 
HETATM    8  C8  UNL     1      -0.740   5.761  14.036  1.00  0.00     0.010 C 
HETATM    9  C9  UNL     1      -1.723   6.147  15.133  1.00  0.00     0.035 C 
HETATM   10  C10 UNL     1      -2.914   6.911  14.599  1.00  0.00    -0.069 C 
HETATM   11  C11 UNL     1      -4.152   6.587  15.019  1.00  0.00     0.030 C 
HETATM   12  C12 UNL     1      -5.348   7.384  14.631  1.00  0.00     0.032 C 
HETATM   13  N1  UNL     1      -6.559   7.205  15.053  1.00  0.00    -0.271 N 
ATOM     14  H1  UNL     1      -7.351   7.768  14.745  1.00  0.00     0.194 HD
HETATM   15  C30 UNL     1      -5.137   8.569  13.715  1.00  0.00     0.060 C 
HETATM   16  C31 UNL     1      -3.903   8.415  12.848  1.00  0.00     0.020 C 
HETATM   17  C32 UNL     1      -2.615   8.076  13.646  1.00  0.00    -0.016 C 
HETATM   18  C33 UNL     1      -2.207   9.284  14.522  1.00  0.00     0.020 C 
HETATM   19  C34 UNL     1      -1.484   7.703  12.601  1.00  0.00     0.002 C 
HETATM   20  C35 UNL     1      -0.997   8.913  11.772  1.00  0.00     0.007 C 
HETATM   21  C36 UNL     1       0.063   8.528  10.740  1.00  0.00     0.014 C 
HETATM   22  C37 UNL     1       1.297   7.808  11.353  1.00  0.00     0.003 C 
HETATM   23  C38 UNL     1       2.130   8.841  12.138  1.00  0.00     0.020 C 
ENDROOT
BRANCH   3  24
HETATM   24  O1  UNL     1       2.285   7.876   9.097  1.00  0.00    -0.377 OA
HETATM   25  H2  UNL     1       1.491   7.789   8.544  1.00  0.00     0.211 HD
ENDBRANCH   3  24
BRANCH  13  26
HETATM   26  O2  UNL     1      -6.668   6.156  15.979  1.00  0.00    -0.271 OA
BRANCH  26  27
HETATM   27  C13 UNL     1      -8.038   5.765  16.039  1.00  0.00     0.303 C 
BRANCH  27  28
HETATM   28  C14 UNL     1      -8.966   6.786  15.386  1.00  0.00     0.244 C 
HETATM   29  O3  UNL     1      -9.253   6.733  14.189  1.00  0.00    -0.271 OA
HETATM   30  N2  UNL     1      -9.487   7.742  16.234  1.00  0.00    -0.346 N 
HETATM   31  H16 UNL     1      -9.438   7.495  17.222  1.00  0.00     0.163 HD
BRANCH  30  32
HETATM   32  C15 UNL     1     -10.649   8.517  15.818  1.00  0.00     0.180 C 
BRANCH  32  33
HETATM   33  C16 UNL     1     -11.116   9.348  17.033  1.00  0.00     0.241 C 
HETATM   34  O4  UNL     1     -10.428  10.250  17.515  1.00  0.00    -0.271 OA
HETATM   35  N3  UNL     1     -12.373   9.015  17.504  1.00  0.00    -0.354 N 
HETATM   36  H18 UNL     1     -12.799   8.162  17.159  1.00  0.00     0.162 HD
BRANCH  35  37
HETATM   37  C17 UNL     1     -12.942   9.626  18.715  1.00  0.00     0.098 C 
BRANCH  37  38
HETATM   38  C18 UNL     1     -14.467   9.474  18.627  1.00  0.00     0.135 C 
BRANCH  38  39
HETATM   39  C19 UNL     1     -15.174  10.797  18.521  1.00  0.00     0.141 C 
HETATM   40  O5  UNL     1     -15.338  11.620  19.406  1.00  0.00    -0.650 OA
BRANCH  39  41
HETATM   41  O6  UNL     1     -15.593  11.051  17.261  1.00  0.00    -0.776 OA
HETATM   42  H22 UNL     1     -15.989  11.948  17.320  1.00  0.00     0.167 HD
ENDBRANCH  39  41
ENDBRANCH  38  39
ENDBRANCH  37  38
BRANCH  37  43
HETATM   43  C20 UNL     1     -12.335   8.936  19.979  1.00  0.00     0.014 C 
HETATM   44  C21 UNL     1     -13.398   8.402  20.957  1.00  0.00     0.033 C 
HETATM   45  C22 UNL     1     -12.823   8.266  22.360  1.00  0.00     0.169 C 
HETATM   46  O7  UNL     1     -12.455   9.524  22.920  1.00  0.00    -0.381 OA
HETATM   47  C23 UNL     1     -11.804  10.444  22.036  1.00  0.00     0.054 C 
HETATM   48  C24 UNL     1     -12.779  11.591  21.743  1.00  0.00     0.045 C 
HETATM   49  C25 UNL     1     -10.611  11.022  22.815  1.00  0.00     0.045 C 
HETATM   50  C26 UNL     1     -11.291   9.788  20.740  1.00  0.00     0.044 C 
ENDBRANCH  37  43
ENDBRANCH  35  37
ENDBRANCH  32  33
BRANCH  32  51
HETATM   51  C27 UNL     1     -10.389   9.416  14.591  1.00  0.00     0.009 C 
HETATM   52  C28 UNL     1     -10.424  10.896  14.991  1.00  0.00     0.012 C 
HETATM   53  C29 UNL     1     -11.356   9.175  13.428  1.00  0.00     0.012 C 
ENDBRANCH  32  51
ENDBRANCH  30  32
ENDBRANCH  27  28
ENDBRANCH  26  27
ENDBRANCH  13  26
TORSDOF 12
ENDMDL
MODEL 2
REMARK minimizedAffinity -8.57304478
REMARK CNNscore 0.23309949
REMARK CNNaffinity 6.93604803
REMARK  12 active torsions:
REMARK  status: ('A' for Active; 'I' for Inactive)
REMARK    1  A    between atoms: C3_3  and  O1_4 
REMARK    2  A    between atoms: N1_14  and  O2_16 
REMARK    3  A    between atoms: O2_16  and  C13_17 
REMARK    4  A    between atoms: C13_17  and  C14_18 
REMARK       I    between atoms: C14_18  and  N2_20 
REMARK    5  A    between atoms: N2_20  and  C15_21 
REMARK    6  A    between atoms: C15_21  and  C16_22 
REMARK    7  A    between atoms: C15_21  and  C27_38 
REMARK       I    between atoms: C16_22  and  N3_24 
REMARK    8  A    between atoms: N3_24  and  C17_25 
REMARK    9  A    between atoms: C17_25  and  C18_26 
REMARK   10  A    between atoms: C17_25  and  C20_30 
REMARK   11  A    between atoms: C18_26  and  C19_27 
REMARK   12  A    between atoms: C19_27  and  O6_29 
ROOT
HETATM    1  C1  UNL     1     -14.004  11.302  23.673  1.00  0.00     0.015 C 
HETATM    2  C2  UNL     1     -12.807  11.218  23.619  1.00  0.00    -0.078 C 
HETATM    3  C3  UNL     1     -11.335  11.065  23.576  1.00  0.00     0.128 C 
HETATM    4  C4  UNL     1     -10.976   9.994  22.530  1.00  0.00     0.052 C 
HETATM    5  C5  UNL     1     -10.689  10.755  21.224  1.00  0.00     0.010 C 
HETATM    6  C6  UNL     1     -10.804  12.259  21.546  1.00  0.00     0.002 C 
HETATM    7  C7  UNL     1      -9.901  13.194  20.720  1.00  0.00    -0.004 C 
HETATM    8  C8  UNL     1     -10.116  12.991  19.214  1.00  0.00     0.010 C 
HETATM    9  C9  UNL     1      -9.346  14.026  18.404  1.00  0.00     0.035 C 
HETATM   10  C10 UNL     1      -7.869  14.031  18.728  1.00  0.00    -0.069 C 
HETATM   11  C11 UNL     1      -6.971  14.079  17.726  1.00  0.00     0.030 C 
HETATM   12  C12 UNL     1      -5.511  14.217  17.983  1.00  0.00     0.032 C 
HETATM   13  N1  UNL     1      -4.584  14.360  17.091  1.00  0.00    -0.271 N 
ATOM     14  H1  UNL     1      -3.592  14.434  17.316  1.00  0.00     0.194 HD
HETATM   15  C30 UNL     1      -5.052  14.273  19.424  1.00  0.00     0.060 C 
HETATM   16  C31 UNL     1      -6.018  13.577  20.364  1.00  0.00     0.020 C 
HETATM   17  C32 UNL     1      -7.489  14.051  20.215  1.00  0.00    -0.016 C 
HETATM   18  C33 UNL     1      -7.619  15.516  20.696  1.00  0.00     0.020 C 
HETATM   19  C34 UNL     1      -8.400  13.073  21.066  1.00  0.00     0.002 C 
HETATM   20  C35 UNL     1      -8.202  13.227  22.591  1.00  0.00     0.007 C 
HETATM   21  C36 UNL     1      -9.056  12.249  23.395  1.00  0.00     0.014 C 
HETATM   22  C37 UNL     1     -10.575  12.335  23.073  1.00  0.00     0.003 C 
HETATM   23  C38 UNL     1     -11.131  13.643  23.671  1.00  0.00     0.020 C 
ENDROOT
BRANCH   3  24
HETATM   24  O1  UNL     1     -10.912  10.694  24.879  1.00  0.00    -0.377 OA
HETATM   25  H2  UNL     1     -10.099  10.167  24.805  1.00  0.00     0.211 HD
ENDBRANCH   3  24
BRANCH  13  26
HETATM   26  O2  UNL     1      -5.086  14.403  15.781  1.00  0.00    -0.271 OA
BRANCH  26  27
HETATM   27  C13 UNL     1      -4.110  13.824  14.918  1.00  0.00     0.303 C 
BRANCH  27  28
HETATM   28  C14 UNL     1      -3.586  12.489  15.442  1.00  0.00     0.244 C 
HETATM   29  O3  UNL     1      -2.414  12.343  15.796  1.00  0.00    -0.271 OA
HETATM   30  N2  UNL     1      -4.520  11.478  15.529  1.00  0.00    -0.346 N 
HETATM   31  H16 UNL     1      -5.488  11.800  15.519  1.00  0.00     0.163 HD
BRANCH  30  32
HETATM   32  C15 UNL     1      -4.239  10.306  16.347  1.00  0.00     0.180 C 
BRANCH  32  33
HETATM   33  C16 UNL     1      -3.903   9.139  15.393  1.00  0.00     0.241 C 
HETATM   34  O4  UNL     1      -3.201   9.291  14.391  1.00  0.00    -0.271 OA
HETATM   35  N3  UNL     1      -4.426   7.918  15.776  1.00  0.00    -0.354 N 
HETATM   36  H18 UNL     1      -5.120   7.910  16.516  1.00  0.00     0.162 HD
BRANCH  35  37
HETATM   37  C17 UNL     1      -4.299   6.714  14.941  1.00  0.00     0.098 C 
BRANCH  37  38
HETATM   38  C18 UNL     1      -3.107   5.910  15.479  1.00  0.00     0.135 C 
BRANCH  38  39
HETATM   39  C19 UNL     1      -1.876   6.065  14.631  1.00  0.00     0.141 C 
HETATM   40  O5  UNL     1      -1.822   6.152  13.415  1.00  0.00    -0.650 OA
BRANCH  39  41
HETATM   41  O6  UNL     1      -0.753   6.171  15.377  1.00  0.00    -0.776 OA
HETATM   42  H22 UNL     1      -0.041   6.312  14.715  1.00  0.00     0.167 HD
ENDBRANCH  39  41
ENDBRANCH  38  39
ENDBRANCH  37  38
BRANCH  37  43
HETATM   43  C20 UNL     1      -5.640   5.912  14.979  1.00  0.00     0.014 C 
HETATM   44  C21 UNL     1      -6.298   5.752  13.596  1.00  0.00     0.033 C 
HETATM   45  C22 UNL     1      -7.792   5.492  13.734  1.00  0.00     0.169 C 
HETATM   46  O7  UNL     1      -8.484   6.597  14.308  1.00  0.00    -0.381 OA
HETATM   47  C23 UNL     1      -7.834   7.254  15.402  1.00  0.00     0.054 C 
HETATM   48  C24 UNL     1      -7.363   8.631  14.919  1.00  0.00     0.045 C 
HETATM   49  C25 UNL     1      -8.909   7.470  16.479  1.00  0.00     0.045 C 
HETATM   50  C26 UNL     1      -6.675   6.435  16.004  1.00  0.00     0.044 C 
ENDBRANCH  37  43
ENDBRANCH  35  37
ENDBRANCH  32  33
BRANCH  32  51
HETATM   51  C27 UNL     1      -3.113  10.525  17.381  1.00  0.00     0.009 C 
HETATM   52  C28 UNL     1      -2.182   9.308  17.428  1.00  0.00     0.012 C 
HETATM   53  C29 UNL     1      -3.619  10.841  18.792  1.00  0.00     0.012 C 
ENDBRANCH  32  51
ENDBRANCH  30  32
ENDBRANCH  27  28
ENDBRANCH  26  27
ENDBRANCH  13  26
TORSDOF 12
ENDMDL
MODEL 3
REMARK minimizedAffinity -8.45505238
REMARK CNNscore 0.227154955
REMARK CNNaffinity 7.33234549
REMARK  12 active torsions:
REMARK  status: ('A' for Active; 'I' for Inactive)
REMARK    1  A    between atoms: C3_3  and  O1_4 
REMARK    2  A    between atoms: N1_14  and  O2_16 
REMARK    3  A    between atoms: O2_16  and  C13_17 
REMARK    4  A    between atoms: C13_17  and  C14_18 
REMARK       I    between atoms: C14_18  and  N2_20 
REMARK    5  A    between atoms: N2_20  and  C15_21 
REMARK    6  A    between atoms: C15_21  and  C16_22 
REMARK    7  A    between atoms: C15_21  and  C27_38 
REMARK       I    between atoms: C16_22  and  N3_24 
REMARK    8  A    between atoms: N3_24  and  C17_25 
REMARK    9  A    between atoms: C17_25  and  C18_26 
REMARK   10  A    between atoms: C17_25  and  C20_30 
REMARK   11  A    between atoms: C18_26  and  C19_27 
REMARK   12  A    between atoms: C19_27  and  O6_29 
ROOT
HETATM    1  C1  UNL     1       4.907   6.391  11.409  1.00  0.00     0.015 C 
HETATM    2  C2  UNL     1       3.772   6.522  11.036  1.00  0.00    -0.078 C 
HETATM    3  C3  UNL     1       2.385   6.650  10.535  1.00  0.00     0.128 C 
HETATM    4  C4  UNL     1       1.647   5.319  10.766  1.00  0.00     0.052 C 
HETATM    5  C5  UNL     1       0.914   5.468  12.110  1.00  0.00     0.010 C 
HETATM    6  C6  UNL     1       1.166   6.908  12.602  1.00  0.00     0.002 C 
HETATM    7  C7  UNL     1       0.040   7.539  13.442  1.00  0.00    -0.004 C 
HETATM    8  C8  UNL     1      -0.318   6.658  14.647  1.00  0.00     0.010 C 
HETATM    9  C9  UNL     1      -1.314   7.358  15.564  1.00  0.00     0.035 C 
HETATM   10  C10 UNL     1      -2.568   7.787  14.835  1.00  0.00    -0.069 C 
HETATM   11  C11 UNL     1      -3.770   7.560  15.396  1.00  0.00     0.030 C 
HETATM   12  C12 UNL     1      -5.030   8.073  14.791  1.00  0.00     0.032 C 
HETATM   13  N1  UNL     1      -6.217   7.983  15.299  1.00  0.00    -0.271 N 
ATOM     14  H1  UNL     1      -7.056   8.336  14.837  1.00  0.00     0.194 HD
HETATM   15  C30 UNL     1      -4.925   8.842  13.492  1.00  0.00     0.060 C 
HETATM   16  C31 UNL     1      -3.695   8.460  12.694  1.00  0.00     0.020 C 
HETATM   17  C32 UNL     1      -2.373   8.530  13.506  1.00  0.00    -0.016 C 
HETATM   18  C33 UNL     1      -2.048  10.002  13.854  1.00  0.00     0.020 C 
HETATM   19  C34 UNL     1      -1.231   7.871  12.628  1.00  0.00     0.002 C 
HETATM   20  C35 UNL     1      -0.851   8.714  11.389  1.00  0.00     0.007 C 
HETATM   21  C36 UNL     1       0.222   8.044  10.531  1.00  0.00     0.014 C 
HETATM   22  C37 UNL     1       1.516   7.689  11.314  1.00  0.00     0.003 C 
HETATM   23  C38 UNL     1       2.277   8.993  11.626  1.00  0.00     0.020 C 
ENDROOT
BRANCH   3  24
HETATM   24  O1  UNL     1       2.465   6.977   9.155  1.00  0.00    -0.377 OA
HETATM   25  H2  UNL     1       1.672   6.637   8.707  1.00  0.00     0.211 HD
ENDBRANCH   3  24
BRANCH  13  26
HETATM   26  O2  UNL     1      -6.232   7.351  16.551  1.00  0.00    -0.271 OA
BRANCH  26  27
HETATM   27  C13 UNL     1      -7.309   6.416  16.557  1.00  0.00     0.303 C 
BRANCH  27  28
HETATM   28  C14 UNL     1      -7.802   6.083  15.151  1.00  0.00     0.244 C 
HETATM   29  O3  UNL     1      -7.153   5.368  14.386  1.00  0.00    -0.271 OA
HETATM   30  N2  UNL     1      -9.035   6.603  14.816  1.00  0.00    -0.346 N 
HETATM   31  H16 UNL     1      -9.598   6.893  15.616  1.00  0.00     0.163 HD
BRANCH  30  32
HETATM   32  C15 UNL     1      -9.761   6.057  13.678  1.00  0.00     0.180 C 
BRANCH  32  33
HETATM   33  C16 UNL     1     -10.881   7.056  13.315  1.00  0.00     0.241 C 
HETATM   34  O4  UNL     1     -10.762   7.874  12.400  1.00  0.00    -0.271 OA
HETATM   35  N3  UNL     1     -12.028   6.931  14.077  1.00  0.00    -0.354 N 
HETATM   36  H18 UNL     1     -11.986   6.350  14.907  1.00  0.00     0.162 HD
BRANCH  35  37
HETATM   37  C17 UNL     1     -13.161   7.860  13.947  1.00  0.00     0.098 C 
BRANCH  37  38
HETATM   38  C18 UNL     1     -14.392   7.027  13.565  1.00  0.00     0.135 C 
BRANCH  38  39
HETATM   39  C19 UNL     1     -15.295   7.740  12.597  1.00  0.00     0.141 C 
HETATM   40  O5  UNL     1     -15.897   8.784  12.781  1.00  0.00    -0.650 OA
BRANCH  39  41
HETATM   41  O6  UNL     1     -15.343   7.122  11.395  1.00  0.00    -0.776 OA
HETATM   42  H22 UNL     1     -15.918   7.705  10.852  1.00  0.00     0.167 HD
ENDBRANCH  39  41
ENDBRANCH  38  39
ENDBRANCH  37  38
BRANCH  37  43
HETATM   43  C20 UNL     1     -13.348   8.641  15.288  1.00  0.00     0.014 C 
HETATM   44  C21 UNL     1     -14.268   9.869  15.159  1.00  0.00     0.033 C 
HETATM   45  C22 UNL     1     -13.986  10.876  16.265  1.00  0.00     0.169 C 
HETATM   46  O7  UNL     1     -12.675  11.429  16.174  1.00  0.00    -0.381 OA
HETATM   47  C23 UNL     1     -11.624  10.514  15.842  1.00  0.00     0.054 C 
HETATM   48  C24 UNL     1     -11.153  10.829  14.416  1.00  0.00     0.045 C 
HETATM   49  C25 UNL     1     -10.464  10.820  16.803  1.00  0.00     0.045 C 
HETATM   50  C26 UNL     1     -12.029   9.036  15.994  1.00  0.00     0.044 C 
ENDBRANCH  37  43
ENDBRANCH  35  37
ENDBRANCH  32  33
BRANCH  32  51
HETATM   51  C27 UNL     1      -8.866   5.752  12.458  1.00  0.00     0.009 C 
HETATM   52  C28 UNL     1      -9.545   6.214  11.163  1.00  0.00     0.012 C 
HETATM   53  C29 UNL     1      -8.469   4.279  12.332  1.00  0.00     0.012 C 
ENDBRANCH  32  51
ENDBRANCH  30  32
ENDBRANCH  27  28
ENDBRANCH  26  27
ENDBRANCH  13  26
TORSDOF 12
ENDMDL
MODEL 4
REMARK minimizedAffinity -7.74017715
REMARK CNNscore 0.223315805
REMARK CNNaffinity 6.05982971
REMARK  12 active torsions:
REMARK  status: ('A' for Active; 'I' for Inactive)
REMARK    1  A    between atoms: C3_3  and  O1_4 
REMARK    2  A    between atoms: N1_14  and  O2_16 
REMARK    3  A    between atoms: O2_16  and  C13_17 
REMARK    4  A    between atoms: C13_17  and  C14_18 
REMARK       I    between atoms: C14_18  and  N2_20 
REMARK    5  A    between atoms: N2_20  and  C15_21 
REMARK    6  A    between atoms: C15_21  and  C16_22 
REMARK    7  A    between atoms: C15_21  and  C27_38 
REMARK       I    between atoms: C16_22  and  N3_24 
REMARK    8  A    between atoms: N3_24  and  C17_25 
REMARK    9  A    between atoms: C17_25  and  C18_26 
REMARK   10  A    between atoms: C17_25  and  C20_30 
REMARK   11  A    between atoms: C18_26  and  C19_27 
REMARK   12  A    between atoms: C19_27  and  O6_29 
ROOT
HETATM    1  C1  UNL     1     -14.927  10.849  23.193  1.00  0.00     0.015 C 
HETATM    2  C2  UNL     1     -13.763  10.788  23.485  1.00  0.00    -0.078 C 
HETATM    3  C3  UNL     1     -12.338  10.663  23.866  1.00  0.00     0.128 C 
HETATM    4  C4  UNL     1     -11.674   9.601  22.970  1.00  0.00     0.052 C 
HETATM    5  C5  UNL     1     -11.040  10.370  21.799  1.00  0.00     0.010 C 
HETATM    6  C6  UNL     1     -11.270  11.871  22.069  1.00  0.00     0.002 C 
HETATM    7  C7  UNL     1     -10.186  12.825  21.534  1.00  0.00    -0.004 C 
HETATM    8  C8  UNL     1      -9.957  12.622  20.030  1.00  0.00     0.010 C 
HETATM    9  C9  UNL     1      -9.006  13.673  19.471  1.00  0.00     0.035 C 
HETATM   10  C10 UNL     1      -7.684  13.705  20.205  1.00  0.00    -0.069 C 
HETATM   11  C11 UNL     1      -6.537  13.772  19.502  1.00  0.00     0.030 C 
HETATM   12  C12 UNL     1      -5.216  13.936  20.167  1.00  0.00     0.032 C 
HETATM   13  N1  UNL     1      -4.075  14.099  19.576  1.00  0.00    -0.271 N 
ATOM     14  H1  UNL     1      -3.190  14.191  20.076  1.00  0.00     0.194 HD
HETATM   15  C30 UNL     1      -5.190  13.998  21.678  1.00  0.00     0.060 C 
HETATM   16  C31 UNL     1      -6.371  13.282  22.304  1.00  0.00     0.020 C 
HETATM   17  C32 UNL     1      -7.747  13.728  21.738  1.00  0.00    -0.016 C 
HETATM   18  C33 UNL     1      -8.037  15.189  22.157  1.00  0.00     0.020 C 
HETATM   19  C34 UNL     1      -8.844  12.732  22.296  1.00  0.00     0.002 C 
HETATM   20  C35 UNL     1      -9.095  12.886  23.813  1.00  0.00     0.007 C 
HETATM   21  C36 UNL     1     -10.125  11.889  24.342  1.00  0.00     0.014 C 
HETATM   22  C37 UNL     1     -11.489  11.948  23.598  1.00  0.00     0.003 C 
HETATM   23  C38 UNL     1     -12.218  13.243  24.007  1.00  0.00     0.020 C 
ENDROOT
BRANCH   3  24
HETATM   24  O1  UNL     1     -12.299  10.297  25.237  1.00  0.00    -0.377 OA
HETATM   25  H2  UNL     1     -11.489   9.785  25.401  1.00  0.00     0.211 HD
ENDBRANCH   3  24
BRANCH  13  26
HETATM   26  O2  UNL     1      -4.181  14.136  18.178  1.00  0.00    -0.271 OA
BRANCH  26  27
HETATM   27  C13 UNL     1      -4.438  12.809  17.723  1.00  0.00     0.303 C 
BRANCH  27  28
HETATM   28  C14 UNL     1      -3.170  11.961  17.650  1.00  0.00     0.244 C 
HETATM   29  O3  UNL     1      -2.880  11.147  18.528  1.00  0.00    -0.271 OA
HETATM   30  N2  UNL     1      -2.400  12.141  16.519  1.00  0.00    -0.346 N 
HETATM   31  H16 UNL     1      -2.893  12.583  15.743  1.00  0.00     0.163 HD
BRANCH  30  32
HETATM   32  C15 UNL     1      -1.398  11.145  16.165  1.00  0.00     0.180 C 
BRANCH  32  33
HETATM   33  C16 UNL     1      -1.430  10.976  14.630  1.00  0.00     0.241 C 
HETATM   34  O4  UNL     1      -1.579  11.931  13.867  1.00  0.00    -0.271 OA
HETATM   35  N3  UNL     1      -1.245   9.676  14.195  1.00  0.00    -0.354 N 
HETATM   36  H18 UNL     1      -1.291   8.933  14.883  1.00  0.00     0.162 HD
BRANCH  35  37
HETATM   37  C17 UNL     1      -1.345   9.304  12.775  1.00  0.00     0.098 C 
BRANCH  37  38
HETATM   38  C18 UNL     1       0.033   8.783  12.343  1.00  0.00     0.135 C 
BRANCH  38  39
HETATM   39  C19 UNL     1       0.041   8.280  10.926  1.00  0.00     0.141 C 
HETATM   40  O5  UNL     1      -0.126   8.933   9.909  1.00  0.00    -0.650 OA
BRANCH  39  41
HETATM   41  O6  UNL     1       0.332   6.961  10.855  1.00  0.00    -0.776 OA
HETATM   42  H22 UNL     1       0.351   6.775   9.891  1.00  0.00     0.167 HD
ENDBRANCH  39  41
ENDBRANCH  38  39
ENDBRANCH  37  38
BRANCH  37  43
HETATM   43  C20 UNL     1      -2.479   8.244  12.596  1.00  0.00     0.014 C 
HETATM   44  C21 UNL     1      -3.863   8.744  13.051  1.00  0.00     0.033 C 
HETATM   45  C22 UNL     1      -4.777   7.574  13.388  1.00  0.00     0.169 C 
HETATM   46  O7  UNL     1      -4.308   6.823  14.505  1.00  0.00    -0.381 OA
HETATM   47  C23 UNL     1      -2.897   6.583  14.560  1.00  0.00     0.054 C 
HETATM   48  C24 UNL     1      -2.316   7.423  15.704  1.00  0.00     0.045 C 
HETATM   49  C25 UNL     1      -2.724   5.100  14.923  1.00  0.00     0.045 C 
HETATM   50  C26 UNL     1      -2.177   6.864  13.227  1.00  0.00     0.044 C 
ENDBRANCH  37  43
ENDBRANCH  35  37
ENDBRANCH  32  33
BRANCH  32  51
HETATM   51  C27 UNL     1       0.023  11.488  16.661  1.00  0.00     0.009 C 
HETATM   52  C28 UNL     1       0.501  12.811  16.050  1.00  0.00     0.012 C 
HETATM   53  C29 UNL     1       1.057  10.392  16.390  1.00  0.00     0.012 C 
ENDBRANCH  32  51
ENDBRANCH  30  32
ENDBRANCH  27  28
ENDBRANCH  26  27
ENDBRANCH  13  26
TORSDOF 12
ENDMDL
MODEL 5
REMARK minimizedAffinity -8.62449646
REMARK CNNscore 0.19905901
REMARK CNNaffinity 7.39056587
REMARK  12 active torsions:
REMARK  status: ('A' for Active; 'I' for Inactive)
REMARK    1  A    between atoms: C3_3  and  O1_4 
REMARK    2  A    between atoms: N1_14  and  O2_16 
REMARK    3  A    between atoms: O2_16  and  C13_17 
REMARK    4  A    between atoms: C13_17  and  C14_18 
REMARK       I    between atoms: C14_18  and  N2_20 
REMARK    5  A    between atoms: N2_20  and  C15_21 
REMARK    6  A    between atoms: C15_21  and  C16_22 
REMARK    7  A    between atoms: C15_21  and  C27_38 
REMARK       I    between atoms: C16_22  and  N3_24 
REMARK    8  A    between atoms: N3_24  and  C17_25 
REMARK    9  A    between atoms: C17_25  and  C18_26 
REMARK   10  A    between atoms: C17_25  and  C20_30 
REMARK   11  A    between atoms: C18_26  and  C19_27 
REMARK   12  A    between atoms: C19_27  and  O6_29 
ROOT
HETATM    1  C1  UNL     1      -8.440   5.404  11.789  1.00  0.00     0.015 C 
HETATM    2  C2  UNL     1      -7.767   5.465  12.783  1.00  0.00    -0.078 C 
HETATM    3  C3  UNL     1      -6.959   5.493  14.023  1.00  0.00     0.128 C 
HETATM    4  C4  UNL     1      -5.867   4.412  13.930  1.00  0.00     0.052 C 
HETATM    5  C5  UNL     1      -4.613   5.121  13.390  1.00  0.00     0.010 C 
HETATM    6  C6  UNL     1      -4.966   6.616  13.254  1.00  0.00     0.002 C 
HETATM    7  C7  UNL     1      -3.802   7.604  13.460  1.00  0.00    -0.004 C 
HETATM    8  C8  UNL     1      -2.627   7.285  12.524  1.00  0.00     0.010 C 
HETATM    9  C9  UNL     1      -1.547   8.355  12.611  1.00  0.00     0.035 C 
HETATM   10  C10 UNL     1      -1.052   8.562  14.025  1.00  0.00    -0.069 C 
HETATM   11  C11 UNL     1       0.271   8.659  14.256  1.00  0.00     0.030 C 
HETATM   12  C12 UNL     1       0.812   8.991  15.602  1.00  0.00     0.032 C 
HETATM   13  N1  UNL     1       2.056   9.193  15.901  1.00  0.00    -0.271 N 
ATOM     14  H1  UNL     1       2.381   9.403  16.845  1.00  0.00     0.194 HD
HETATM   15  C30 UNL     1      -0.178   9.192  16.729  1.00  0.00     0.060 C 
HETATM   16  C31 UNL     1      -1.474   8.441  16.498  1.00  0.00     0.020 C 
HETATM   17  C32 UNL     1      -2.122   8.720  15.114  1.00  0.00    -0.016 C 
HETATM   18  C33 UNL     1      -2.618  10.183  15.053  1.00  0.00     0.020 C 
HETATM   19  C34 UNL     1      -3.311   7.691  14.922  1.00  0.00     0.002 C 
HETATM   20  C35 UNL     1      -4.509   7.961  15.859  1.00  0.00     0.007 C 
HETATM   21  C36 UNL     1      -5.630   6.935  15.690  1.00  0.00     0.014 C 
HETATM   22  C37 UNL     1      -6.149   6.814  14.230  1.00  0.00     0.003 C 
HETATM   23  C38 UNL     1      -6.966   8.077  13.891  1.00  0.00     0.020 C 
ENDROOT
BRANCH   3  24
HETATM   24  O1  UNL     1      -7.845   5.257  15.108  1.00  0.00    -0.377 OA
HETATM   25  H2  UNL     1      -7.350   4.831  15.828  1.00  0.00     0.211 HD
ENDBRANCH   3  24
BRANCH  13  26
HETATM   26  O2  UNL     1       2.909   9.094  14.792  1.00  0.00    -0.271 OA
BRANCH  26  27
HETATM   27  C13 UNL     1       4.175   8.628  15.255  1.00  0.00     0.303 C 
BRANCH  27  28
HETATM   28  C14 UNL     1       5.314   8.987  14.303  1.00  0.00     0.244 C 
HETATM   29  O3  UNL     1       6.314   8.278  14.186  1.00  0.00    -0.271 OA
HETATM   30  N2  UNL     1       5.125  10.134  13.559  1.00  0.00    -0.346 N 
HETATM   31  H16 UNL     1       4.155  10.444  13.506  1.00  0.00     0.163 HD
BRANCH  30  32
HETATM   32  C15 UNL     1       5.943  10.368  12.377  1.00  0.00     0.180 C 
BRANCH  32  33
HETATM   33  C16 UNL     1       5.328   9.559  11.215  1.00  0.00     0.241 C 
HETATM   34  O4  UNL     1       5.371   9.949  10.047  1.00  0.00    -0.271 OA
HETATM   35  N3  UNL     1       4.760   8.356  11.594  1.00  0.00    -0.354 N 
HETATM   36  H18 UNL     1       4.623   8.186  12.584  1.00  0.00     0.162 HD
BRANCH  35  37
HETATM   37  C17 UNL     1       4.036   7.497  10.644  1.00  0.00     0.098 C 
BRANCH  37  38
HETATM   38  C18 UNL     1       4.806   6.172  10.550  1.00  0.00     0.135 C 
BRANCH  38  39
HETATM   39  C19 UNL     1       6.173   6.253  11.169  1.00  0.00     0.141 C 
HETATM   40  O5  UNL     1       7.200   6.648  10.643  1.00  0.00    -0.650 OA
BRANCH  39  41
HETATM   41  O6  UNL     1       6.166   5.885  12.470  1.00  0.00    -0.776 OA
HETATM   42  H22 UNL     1       7.093   6.026  12.761  1.00  0.00     0.167 HD
ENDBRANCH  39  41
ENDBRANCH  38  39
ENDBRANCH  37  38
BRANCH  37  43
HETATM   43  C20 UNL     1       2.563   7.311  11.132  1.00  0.00     0.014 C 
HETATM   44  C21 UNL     1       2.038   5.873  10.963  1.00  0.00     0.033 C 
HETATM   45  C22 UNL     1       0.517   5.855  10.907  1.00  0.00     0.169 C 
HETATM   46  O7  UNL     1       0.008   6.533   9.761  1.00  0.00    -0.381 OA
HETATM   47  C23 UNL     1       0.658   7.761   9.412  1.00  0.00     0.054 C 
HETATM   48  C24 UNL     1       1.450   7.529   8.119  1.00  0.00     0.045 C 
HETATM   49  C25 UNL     1      -0.459   8.772   9.109  1.00  0.00     0.045 C 
HETATM   50  C26 UNL     1       1.553   8.320  10.534  1.00  0.00     0.044 C 
ENDBRANCH  37  43
ENDBRANCH  35  37
ENDBRANCH  32  33
BRANCH  32  51
HETATM   51  C27 UNL     1       6.087  11.860  12.005  1.00  0.00     0.009 C 
HETATM   52  C28 UNL     1       7.381  12.437  12.590  1.00  0.00     0.012 C 
HETATM   53  C29 UNL     1       4.898  12.724  12.435  1.00  0.00     0.012 C 
ENDBRANCH  32  51
ENDBRANCH  30  32
ENDBRANCH  27  28
ENDBRANCH  26  27
ENDBRANCH  13  26
TORSDOF 12
ENDMDL
MODEL 6
REMARK minimizedAffinity -8.49534988
REMARK CNNscore 0.192273602
REMARK CNNaffinity 6.17913437
REMARK  12 active torsions:
REMARK  status: ('A' for Active; 'I' for Inactive)
REMARK    1  A    between atoms: C3_3  and  O1_4 
REMARK    2  A    between atoms: N1_14  and  O2_16 
REMARK    3  A    between atoms: O2_16  and  C13_17 
REMARK    4  A    between atoms: C13_17  and  C14_18 
REMARK       I    between atoms: C14_18  and  N2_20 
REMARK    5  A    between atoms: N2_20  and  C15_21 
REMARK    6  A    between atoms: C15_21  and  C16_22 
REMARK    7  A    between atoms: C15_21  and  C27_38 
REMARK       I    between atoms: C16_22  and  N3_24 
REMARK    8  A    between atoms: N3_24  and  C17_25 
REMARK    9  A    between atoms: C17_25  and  C18_26 
REMARK   10  A    between atoms: C17_25  and  C20_30 
REMARK   11  A    between atoms: C18_26  and  C19_27 
REMARK   12  A    between atoms: C19_27  and  O6_29 
ROOT
HETATM    1  C1  UNL     1       9.915  17.115  22.230  1.00  0.00     0.015 C 
HETATM    2  C2  UNL     1       9.155  16.321  22.718  1.00  0.00    -0.078 C 
HETATM    3  C3  UNL     1       8.228  15.368  23.367  1.00  0.00     0.128 C 
HETATM    4  C4  UNL     1       6.951  16.121  23.785  1.00  0.00     0.052 C 
HETATM    5  C5  UNL     1       5.950  15.931  22.633  1.00  0.00     0.010 C 
HETATM    6  C6  UNL     1       6.623  15.004  21.600  1.00  0.00     0.002 C 
HETATM    7  C7  UNL     1       5.678  14.094  20.794  1.00  0.00    -0.004 C 
HETATM    8  C8  UNL     1       4.584  14.910  20.090  1.00  0.00     0.010 C 
HETATM    9  C9  UNL     1       3.751  14.032  19.166  1.00  0.00     0.035 C 
HETATM   10  C10 UNL     1       3.143  12.849  19.886  1.00  0.00    -0.069 C 
HETATM   11  C11 UNL     1       1.852  12.533  19.669  1.00  0.00     0.030 C 
HETATM   12  C12 UNL     1       1.235  11.308  20.246  1.00  0.00     0.032 C 
HETATM   13  N1  UNL     1       0.035  10.875  20.023  1.00  0.00    -0.271 N 
ATOM     14  H1  UNL     1      -0.351  10.036  20.457  1.00  0.00     0.194 HD
HETATM   15  C30 UNL     1       2.101  10.427  21.120  1.00  0.00     0.060 C 
HETATM   16  C31 UNL     1       3.228  11.199  21.778  1.00  0.00     0.020 C 
HETATM   17  C32 UNL     1       4.083  12.030  20.782  1.00  0.00    -0.016 C 
HETATM   18  C33 UNL     1       4.880  11.082  19.856  1.00  0.00     0.020 C 
HETATM   19  C34 UNL     1       5.042  12.961  21.631  1.00  0.00     0.002 C 
HETATM   20  C35 UNL     1       6.149  12.181  22.375  1.00  0.00     0.007 C 
HETATM   21  C36 UNL     1       7.040  13.089  23.222  1.00  0.00     0.014 C 
HETATM   22  C37 UNL     1       7.695  14.246  22.417  1.00  0.00     0.003 C 
HETATM   23  C38 UNL     1       8.794  13.656  21.512  1.00  0.00     0.020 C 
ENDROOT
BRANCH   3  24
HETATM   24  O1  UNL     1       8.906  14.816  24.485  1.00  0.00    -0.377 OA
HETATM   25  H2  UNL     1       8.250  14.571  25.159  1.00  0.00     0.211 HD
ENDBRANCH   3  24
BRANCH  13  26
HETATM   26  O2  UNL     1      -0.680  11.681  19.124  1.00  0.00    -0.271 OA
BRANCH  26  27
HETATM   27  C13 UNL     1      -1.796  10.927  18.653  1.00  0.00     0.303 C 
BRANCH  27  28
HETATM   28  C14 UNL     1      -1.548  10.312  17.279  1.00  0.00     0.244 C 
HETATM   29  O3  UNL     1      -1.011  10.946  16.369  1.00  0.00    -0.271 OA
HETATM   30  N2  UNL     1      -1.929   8.993  17.142  1.00  0.00    -0.346 N 
HETATM   31  H16 UNL     1      -2.054   8.500  18.026  1.00  0.00     0.163 HD
BRANCH  30  32
HETATM   32  C15 UNL     1      -1.411   8.206  16.030  1.00  0.00     0.180 C 
BRANCH  32  33
HETATM   33  C16 UNL     1      -2.531   8.098  14.973  1.00  0.00     0.241 C 
HETATM   34  O4  UNL     1      -2.979   9.085  14.388  1.00  0.00    -0.271 OA
HETATM   35  N3  UNL     1      -2.956   6.806  14.721  1.00  0.00    -0.354 N 
HETATM   36  H18 UNL     1      -2.654   6.074  15.354  1.00  0.00     0.162 HD
BRANCH  35  37
HETATM   37  C17 UNL     1      -4.083   6.514  13.821  1.00  0.00     0.098 C 
BRANCH  37  38
HETATM   38  C18 UNL     1      -3.988   5.031  13.438  1.00  0.00     0.135 C 
BRANCH  38  39
HETATM   39  C19 UNL     1      -3.046   4.790  12.291  1.00  0.00     0.141 C 
HETATM   40  O5  UNL     1      -1.887   5.157  12.197  1.00  0.00    -0.650 OA
BRANCH  39  41
HETATM   41  O6  UNL     1      -3.605   4.027  11.325  1.00  0.00    -0.776 OA
HETATM   42  H22 UNL     1      -2.883   3.908  10.669  1.00  0.00     0.167 HD
ENDBRANCH  39  41
ENDBRANCH  38  39
ENDBRANCH  37  38
BRANCH  37  43
HETATM   43  C20 UNL     1      -5.425   6.871  14.539  1.00  0.00     0.014 C 
HETATM   44  C21 UNL     1      -5.702   6.011  15.785  1.00  0.00     0.033 C 
HETATM   45  C22 UNL     1      -7.190   5.983  16.105  1.00  0.00     0.169 C 
HETATM   46  O7  UNL     1      -7.953   5.348  15.083  1.00  0.00    -0.381 OA
HETATM   47  C23 UNL     1      -7.583   5.653  13.733  1.00  0.00     0.054 C 
HETATM   48  C24 UNL     1      -6.933   4.404  13.125  1.00  0.00     0.045 C 
HETATM   49  C25 UNL     1      -8.892   5.924  12.975  1.00  0.00     0.045 C 
HETATM   50  C26 UNL     1      -6.666   6.886  13.615  1.00  0.00     0.044 C 
ENDBRANCH  37  43
ENDBRANCH  35  37
ENDBRANCH  32  33
BRANCH  32  51
HETATM   51  C27 UNL     1      -0.114   8.775  15.417  1.00  0.00     0.009 C 
HETATM   52  C28 UNL     1      -0.158   8.685  13.887  1.00  0.00     0.012 C 
HETATM   53  C29 UNL     1       1.163   8.106  15.934  1.00  0.00     0.012 C 
ENDBRANCH  32  51
ENDBRANCH  30  32
ENDBRANCH  27  28
ENDBRANCH  26  27
ENDBRANCH  13  26
TORSDOF 12
ENDMDL
MODEL 7
REMARK minimizedAffinity -8.15214539
REMARK CNNscore 0.168653175
REMARK CNNaffinity 6.77183008
REMARK  12 active torsions:
REMARK  status: ('A' for Active; 'I' for Inactive)
REMARK    1  A    between atoms: C3_3  and  O1_4 
REMARK    2  A    between atoms: N1_14  and  O2_16 
REMARK    3  A    between atoms: O2_16  and  C13_17 
REMARK    4  A    between atoms: C13_17  and  C14_18 
REMARK       I    between atoms: C14_18  and  N2_20 
REMARK    5  A    between atoms: N2_20  and  C15_21 
REMARK    6  A    between atoms: C15_21  and  C16_22 
REMARK    7  A    between atoms: C15_21  and  C27_38 
REMARK       I    between atoms: C16_22  and  N3_24 
REMARK    8  A    between atoms: N3_24  and  C17_25 
REMARK    9  A    between atoms: C17_25  and  C18_26 
REMARK   10  A    between atoms: C17_25  and  C20_30 
REMARK   11  A    between atoms: C18_26  and  C19_27 
REMARK   12  A    between atoms: C19_27  and  O6_29 
ROOT
HETATM    1  C1  UNL     1      -7.874   3.468  13.067  1.00  0.00     0.015 C 
HETATM    2  C2  UNL     1      -7.789   4.447  13.759  1.00  0.00    -0.078 C 
HETATM    3  C3  UNL     1      -7.728   5.636  14.639  1.00  0.00     0.128 C 
HETATM    4  C4  UNL     1      -7.286   5.192  16.045  1.00  0.00     0.052 C 
HETATM    5  C5  UNL     1      -5.760   5.385  16.091  1.00  0.00     0.010 C 
HETATM    6  C6  UNL     1      -5.346   6.013  14.745  1.00  0.00     0.002 C 
HETATM    7  C7  UNL     1      -4.122   6.947  14.786  1.00  0.00    -0.004 C 
HETATM    8  C8  UNL     1      -2.904   6.243  15.401  1.00  0.00     0.010 C 
HETATM    9  C9  UNL     1      -1.655   7.109  15.293  1.00  0.00     0.035 C 
HETATM   10  C10 UNL     1      -1.843   8.475  15.915  1.00  0.00    -0.069 C 
HETATM   11  C11 UNL     1      -0.880   8.979  16.709  1.00  0.00     0.030 C 
HETATM   12  C12 UNL     1      -0.949  10.367  17.244  1.00  0.00     0.032 C 
HETATM   13  N1  UNL     1      -0.035  10.968  17.938  1.00  0.00    -0.271 N 
ATOM     14  H1  UNL     1      -0.135  11.917  18.298  1.00  0.00     0.194 HD
HETATM   15  C30 UNL     1      -2.162  11.199  16.890  1.00  0.00     0.060 C 
HETATM   16  C31 UNL     1      -3.378  10.345  16.589  1.00  0.00     0.020 C 
HETATM   17  C32 UNL     1      -3.119   9.237  15.532  1.00  0.00    -0.016 C 
HETATM   18  C33 UNL     1      -2.864   9.880  14.149  1.00  0.00     0.020 C 
HETATM   19  C34 UNL     1      -4.386   8.286  15.510  1.00  0.00     0.002 C 
HETATM   20  C35 UNL     1      -5.644   8.959  14.917  1.00  0.00     0.007 C 
HETATM   21  C36 UNL     1      -6.867   8.043  14.942  1.00  0.00     0.014 C 
HETATM   22  C37 UNL     1      -6.641   6.681  14.227  1.00  0.00     0.003 C 
HETATM   23  C38 UNL     1      -6.590   6.925  12.706  1.00  0.00     0.020 C 
ENDROOT
BRANCH   3  24
HETATM   24  O1  UNL     1      -9.023   6.218  14.650  1.00  0.00    -0.377 OA
HETATM   25  H2  UNL     1      -9.153   6.673  15.499  1.00  0.00     0.211 HD
ENDBRANCH   3  24
BRANCH  13  26
HETATM   26  O2  UNL     1       1.106  10.178  18.143  1.00  0.00    -0.271 OA
BRANCH  26  27
HETATM   27  C13 UNL     1       2.172  11.042  18.530  1.00  0.00     0.303 C 
BRANCH  27  28
HETATM   28  C14 UNL     1       2.820  10.618  19.846  1.00  0.00     0.244 C 
HETATM   29  O3  UNL     1       2.736   9.464  20.271  1.00  0.00    -0.271 OA
HETATM   30  N2  UNL     1       3.534  11.601  20.500  1.00  0.00    -0.346 N 
HETATM   31  H16 UNL     1       3.794  12.391  19.910  1.00  0.00     0.163 HD
BRANCH  30  32
HETATM   32  C15 UNL     1       4.485  11.229  21.539  1.00  0.00     0.180 C 
BRANCH  32  33
HETATM   33  C16 UNL     1       5.736  12.118  21.367  1.00  0.00     0.241 C 
HETATM   34  O4  UNL     1       6.114  12.897  22.244  1.00  0.00    -0.271 OA
HETATM   35  N3  UNL     1       6.404  11.940  20.169  1.00  0.00    -0.354 N 
HETATM   36  H18 UNL     1       5.941  11.405  19.443  1.00  0.00     0.162 HD
BRANCH  35  37
HETATM   37  C17 UNL     1       7.556  12.769  19.784  1.00  0.00     0.098 C 
BRANCH  37  38
HETATM   38  C18 UNL     1       8.821  11.941  20.046  1.00  0.00     0.135 C 
BRANCH  38  39
HETATM   39  C19 UNL     1       9.421  12.212  21.397  1.00  0.00     0.141 C 
HETATM   40  O5  UNL     1       9.298  11.540  22.408  1.00  0.00    -0.650 OA
BRANCH  39  41
HETATM   41  O6  UNL     1      10.215  13.307  21.392  1.00  0.00    -0.776 OA
HETATM   42  H22 UNL     1      10.573  13.344  22.306  1.00  0.00     0.167 HD
ENDBRANCH  39  41
ENDBRANCH  38  39
ENDBRANCH  37  38
BRANCH  37  43
HETATM   43  C20 UNL     1       7.409  13.198  18.288  1.00  0.00     0.014 C 
HETATM   44  C21 UNL     1       5.997  12.965  17.720  1.00  0.00     0.033 C 
HETATM   45  C22 UNL     1       6.036  12.853  16.202  1.00  0.00     0.169 C 
HETATM   46  O7  UNL     1       6.767  11.712  15.760  1.00  0.00    -0.381 OA
HETATM   47  C23 UNL     1       7.980  11.425  16.465  1.00  0.00     0.054 C 
HETATM   48  C24 UNL     1       7.758  10.155  17.296  1.00  0.00     0.045 C 
HETATM   49  C25 UNL     1       9.040  11.114  15.396  1.00  0.00     0.045 C 
HETATM   50  C26 UNL     1       8.472  12.596  17.337  1.00  0.00     0.044 C 
ENDBRANCH  37  43
ENDBRANCH  35  37
ENDBRANCH  32  33
BRANCH  32  51
HETATM   51  C27 UNL     1       3.915  11.335  22.970  1.00  0.00     0.009 C 
HETATM   52  C28 UNL     1       3.439   9.963  23.462  1.00  0.00     0.012 C 
HETATM   53  C29 UNL     1       2.782  12.354  23.113  1.00  0.00     0.012 C 
ENDBRANCH  32  51
ENDBRANCH  30  32
ENDBRANCH  27  28
ENDBRANCH  26  27
ENDBRANCH  13  26
TORSDOF 12
ENDMDL
MODEL 8
REMARK minimizedAffinity -8.91488171
REMARK CNNscore 0.168110177
REMARK CNNaffinity 5.82607841
REMARK  12 active torsions:
REMARK  status: ('A' for Active; 'I' for Inactive)
REMARK    1  A    between atoms: C3_3  and  O1_4 
REMARK    2  A    between atoms: N1_14  and  O2_16 
REMARK    3  A    between atoms: O2_16  and  C13_17 
REMARK    4  A    between atoms: C13_17  and  C14_18 
REMARK       I    between atoms: C14_18  and  N2_20 
REMARK    5  A    between atoms: N2_20  and  C15_21 
REMARK    6  A    between atoms: C15_21  and  C16_22 
REMARK    7  A    between atoms: C15_21  and  C27_38 
REMARK       I    between atoms: C16_22  and  N3_24 
REMARK    8  A    between atoms: N3_24  and  C17_25 
REMARK    9  A    between atoms: C17_25  and  C18_26 
REMARK   10  A    between atoms: C17_25  and  C20_30 
REMARK   11  A    between atoms: C18_26  and  C19_27 
REMARK   12  A    between atoms: C19_27  and  O6_29 
ROOT
HETATM    1  C1  UNL     1      -5.730   6.488  15.506  1.00  0.00     0.015 C 
HETATM    2  C2  UNL     1      -5.017   7.222  14.874  1.00  0.00    -0.078 C 
HETATM    3  C3  UNL     1      -4.178   8.163  14.099  1.00  0.00     0.128 C 
HETATM    4  C4  UNL     1      -3.722   9.304  15.027  1.00  0.00     0.052 C 
HETATM    5  C5  UNL     1      -2.338   8.892  15.557  1.00  0.00     0.010 C 
HETATM    6  C6  UNL     1      -1.971   7.562  14.869  1.00  0.00     0.002 C 
HETATM    7  C7  UNL     1      -0.469   7.321  14.625  1.00  0.00    -0.004 C 
HETATM    8  C8  UNL     1       0.334   7.444  15.927  1.00  0.00     0.010 C 
HETATM    9  C9  UNL     1       1.789   7.047  15.716  1.00  0.00     0.035 C 
HETATM   10  C10 UNL     1       2.451   7.843  14.613  1.00  0.00    -0.069 C 
HETATM   11  C11 UNL     1       3.684   8.348  14.808  1.00  0.00     0.030 C 
HETATM   12  C12 UNL     1       4.438   9.026  13.718  1.00  0.00     0.032 C 
HETATM   13  N1  UNL     1       5.655   9.462  13.784  1.00  0.00    -0.271 N 
ATOM     14  H1  UNL     1       6.125   9.937  13.013  1.00  0.00     0.194 HD
HETATM   15  C30 UNL     1       3.760   9.163  12.372  1.00  0.00     0.060 C 
HETATM   16  C31 UNL     1       2.248   9.164  12.486  1.00  0.00     0.020 C 
HETATM   17  C32 UNL     1       1.679   7.964  13.292  1.00  0.00    -0.016 C 
HETATM   18  C33 UNL     1       1.912   6.650  12.509  1.00  0.00     0.020 C 
HETATM   19  C34 UNL     1       0.138   8.234  13.536  1.00  0.00     0.002 C 
HETATM   20  C35 UNL     1      -0.710   8.141  12.247  1.00  0.00     0.007 C 
HETATM   21  C36 UNL     1      -2.187   8.446  12.492  1.00  0.00     0.014 C 
HETATM   22  C37 UNL     1      -2.835   7.551  13.586  1.00  0.00     0.003 C 
HETATM   23  C38 UNL     1      -3.003   6.126  13.021  1.00  0.00     0.020 C 
ENDROOT
BRANCH   3  24
HETATM   24  O1  UNL     1      -4.970   8.643  13.022  1.00  0.00    -0.377 OA
HETATM   25  H2  UNL     1      -4.665   9.535  12.784  1.00  0.00     0.211 HD
ENDBRANCH   3  24
BRANCH  13  26
HETATM   26  O2  UNL     1       6.262   9.212  15.024  1.00  0.00    -0.271 OA
BRANCH  26  27
HETATM   27  C13 UNL     1       7.388  10.079  15.143  1.00  0.00     0.303 C 
BRANCH  27  28
HETATM   28  C14 UNL     1       7.649  10.501  16.586  1.00  0.00     0.244 C 
HETATM   29  O3  UNL     1       8.085   9.713  17.427  1.00  0.00    -0.271 OA
HETATM   30  N2  UNL     1       7.403  11.829  16.869  1.00  0.00    -0.346 N 
HETATM   31  H16 UNL     1       7.362  12.431  16.047  1.00  0.00     0.163 HD
BRANCH  30  32
HETATM   32  C15 UNL     1       7.960  12.423  18.077  1.00  0.00     0.180 C 
BRANCH  32  33
HETATM   33  C16 UNL     1       7.281  11.745  19.287  1.00  0.00     0.241 C 
HETATM   34  O4  UNL     1       6.810  10.608  19.224  1.00  0.00    -0.271 OA
HETATM   35  N3  UNL     1       7.279  12.506  20.442  1.00  0.00    -0.354 N 
HETATM   36  H18 UNL     1       7.539  13.483  20.367  1.00  0.00     0.162 HD
BRANCH  35  37
HETATM   37  C17 UNL     1       6.589  12.071  21.666  1.00  0.00     0.098 C 
BRANCH  37  38
HETATM   38  C18 UNL     1       7.166  12.889  22.830  1.00  0.00     0.135 C 
BRANCH  38  39
HETATM   39  C19 UNL     1       8.538  12.427  23.236  1.00  0.00     0.141 C 
HETATM   40  O5  UNL     1       9.416  13.092  23.760  1.00  0.00    -0.650 OA
BRANCH  39  41
HETATM   41  O6  UNL     1       8.716  11.104  23.018  1.00  0.00    -0.776 OA
HETATM   42  H22 UNL     1       9.618  10.927  23.364  1.00  0.00     0.167 HD
ENDBRANCH  39  41
ENDBRANCH  38  39
ENDBRANCH  37  38
BRANCH  37  43
HETATM   43  C20 UNL     1       5.049  12.266  21.490  1.00  0.00     0.014 C 
HETATM   44  C21 UNL     1       4.388  13.013  22.663  1.00  0.00     0.033 C 
HETATM   45  C22 UNL     1       2.901  12.697  22.738  1.00  0.00     0.169 C 
HETATM   46  O7  UNL     1       2.651  11.325  23.032  1.00  0.00    -0.381 OA
HETATM   47  C23 UNL     1       3.487  10.372  22.364  1.00  0.00     0.054 C 
HETATM   48  C24 UNL     1       4.428   9.754  23.405  1.00  0.00     0.045 C 
HETATM   49  C25 UNL     1       2.554   9.264  21.849  1.00  0.00     0.045 C 
HETATM   50  C26 UNL     1       4.266  10.969  21.176  1.00  0.00     0.044 C 
ENDBRANCH  37  43
ENDBRANCH  35  37
ENDBRANCH  32  33
BRANCH  32  51
HETATM   51  C27 UNL     1       9.498  12.321  18.169  1.00  0.00     0.009 C 
HETATM   52  C28 UNL     1      10.118  12.269  16.767  1.00  0.00     0.012 C 
HETATM   53  C29 UNL     1       9.993  11.131  18.995  1.00  0.00     0.012 C 
ENDBRANCH  32  51
ENDBRANCH  30  32
ENDBRANCH  27  28
ENDBRANCH  26  27
ENDBRANCH  13  26
TORSDOF 12
ENDMDL
MODEL 9
REMARK minimizedAffinity -8.64315128
REMARK CNNscore 0.167423025
REMARK CNNaffinity 6.83456755
REMARK  12 active torsions:
REMARK  status: ('A' for Active; 'I' for Inactive)
REMARK    1  A    between atoms: C3_3  and  O1_4 
REMARK    2  A    between atoms: N1_14  and  O2_16 
REMARK    3  A    between atoms: O2_16  and  C13_17 
REMARK    4  A    between atoms: C13_17  and  C14_18 
REMARK       I    between atoms: C14_18  and  N2_20 
REMARK    5  A    between atoms: N2_20  and  C15_21 
REMARK    6  A    between atoms: C15_21  and  C16_22 
REMARK    7  A    between atoms: C15_21  and  C27_38 
REMARK       I    between atoms: C16_22  and  N3_24 
REMARK    8  A    between atoms: N3_24  and  C17_25 
REMARK    9  A    between atoms: C17_25  and  C18_26 
REMARK   10  A    between atoms: C17_25  and  C20_30 
REMARK   11  A    between atoms: C18_26  and  C19_27 
REMARK   12  A    between atoms: C19_27  and  O6_29 
ROOT
HETATM    1  C1  UNL     1       2.355   7.887  11.533  1.00  0.00     0.015 C 
HETATM    2  C2  UNL     1       1.744   7.519  12.500  1.00  0.00    -0.078 C 
HETATM    3  C3  UNL     1       1.035   7.078  13.722  1.00  0.00     0.128 C 
HETATM    4  C4  UNL     1       0.697   8.315  14.575  1.00  0.00     0.052 C 
HETATM    5  C5  UNL     1      -0.736   8.720  14.186  1.00  0.00     0.010 C 
HETATM    6  C6  UNL     1      -1.242   7.670  13.177  1.00  0.00     0.002 C 
HETATM    7  C7  UNL     1      -2.756   7.391  13.197  1.00  0.00    -0.004 C 
HETATM    8  C8  UNL     1      -3.563   8.684  13.014  1.00  0.00     0.010 C 
HETATM    9  C9  UNL     1      -5.051   8.389  12.870  1.00  0.00     0.035 C 
HETATM   10  C10 UNL     1      -5.595   7.588  14.033  1.00  0.00    -0.069 C 
HETATM   11  C11 UNL     1      -6.765   7.949  14.595  1.00  0.00     0.030 C 
HETATM   12  C12 UNL     1      -7.415   7.127  15.652  1.00  0.00     0.032 C 
HETATM   13  N1  UNL     1      -8.575   7.342  16.186  1.00  0.00    -0.271 N 
ATOM     14  H1  UNL     1      -8.973   6.759  16.923  1.00  0.00     0.194 HD
HETATM   15  C30 UNL     1      -6.702   5.873  16.108  1.00  0.00     0.060 C 
HETATM   16  C31 UNL     1      -5.202   5.955  15.900  1.00  0.00     0.020 C 
HETATM   17  C32 UNL     1      -4.791   6.352  14.456  1.00  0.00    -0.016 C 
HETATM   18  C33 UNL     1      -5.160   5.214  13.474  1.00  0.00     0.020 C 
HETATM   19  C34 UNL     1      -3.233   6.639  14.459  1.00  0.00     0.002 C 
HETATM   20  C35 UNL     1      -2.379   5.367  14.661  1.00  0.00     0.007 C 
HETATM   21  C36 UNL     1      -0.881   5.666  14.704  1.00  0.00     0.014 C 
HETATM   22  C37 UNL     1      -0.361   6.428  13.452  1.00  0.00     0.003 C 
HETATM   23  C38 UNL     1      -0.349   5.458  12.255  1.00  0.00     0.020 C 
ENDROOT
BRANCH   3  24
HETATM   24  O1  UNL     1       1.896   6.182  14.408  1.00  0.00    -0.377 OA
HETATM   25  H2  UNL     1       1.701   6.228  15.360  1.00  0.00     0.211 HD
ENDBRANCH   3  24
BRANCH  13  26
HETATM   26  O2  UNL     1      -9.229   8.460  15.646  1.00  0.00    -0.271 OA
BRANCH  26  27
HETATM   27  C13 UNL     1     -10.388   8.714  16.438  1.00  0.00     0.303 C 
BRANCH  27  28
HETATM   28  C14 UNL     1     -11.684   8.455  15.675  1.00  0.00     0.244 C 
HETATM   29  O3  UNL     1     -12.623   9.253  15.696  1.00  0.00    -0.271 OA
HETATM   30  N2  UNL     1     -11.714   7.292  14.933  1.00  0.00    -0.346 N 
HETATM   31  H16 UNL     1     -10.795   6.895  14.741  1.00  0.00     0.163 HD
BRANCH  30  32
HETATM   32  C15 UNL     1     -12.720   7.128  13.892  1.00  0.00     0.180 C 
BRANCH  32  33
HETATM   33  C16 UNL     1     -14.033   6.688  14.575  1.00  0.00     0.241 C 
HETATM   34  O4  UNL     1     -14.268   6.926  15.761  1.00  0.00    -0.271 OA
HETATM   35  N3  UNL     1     -14.923   6.040  13.738  1.00  0.00    -0.354 N 
HETATM   36  H18 UNL     1     -14.589   5.743  12.828  1.00  0.00     0.162 HD
BRANCH  35  37
HETATM   37  C17 UNL     1     -16.181   5.458  14.232  1.00  0.00     0.098 C 
BRANCH  37  38
HETATM   38  C18 UNL     1     -17.330   6.242  13.584  1.00  0.00     0.135 C 
BRANCH  38  39
HETATM   39  C19 UNL     1     -16.846   7.402  12.759  1.00  0.00     0.141 C 
HETATM   40  O5  UNL     1     -16.796   8.575  13.092  1.00  0.00    -0.650 OA
BRANCH  39  41
HETATM   41  O6  UNL     1     -16.379   7.010  11.553  1.00  0.00    -0.776 OA
HETATM   42  H22 UNL     1     -16.057   7.842  11.142  1.00  0.00     0.167 HD
ENDBRANCH  39  41
ENDBRANCH  38  39
ENDBRANCH  37  38
BRANCH  37  43
HETATM   43  C20 UNL     1     -16.216   3.934  13.890  1.00  0.00     0.014 C 
HETATM   44  C21 UNL     1     -17.603   3.438  13.443  1.00  0.00     0.033 C 
HETATM   45  C22 UNL     1     -17.739   1.938  13.663  1.00  0.00     0.169 C 
HETATM   46  O7  UNL     1     -17.687   1.585  15.043  1.00  0.00    -0.381 OA
HETATM   47  C23 UNL     1     -16.714   2.275  15.837  1.00  0.00     0.054 C 
HETATM   48  C24 UNL     1     -17.458   3.232  16.776  1.00  0.00     0.045 C 
HETATM   49  C25 UNL     1     -16.022   1.206  16.699  1.00  0.00     0.045 C 
HETATM   50  C26 UNL     1     -15.652   3.012  14.998  1.00  0.00     0.044 C 
ENDBRANCH  37  43
ENDBRANCH  35  37
ENDBRANCH  32  33
BRANCH  32  51
HETATM   51  C27 UNL     1     -12.933   8.391  13.029  1.00  0.00     0.009 C 
HETATM   52  C28 UNL     1     -11.589   9.054  12.706  1.00  0.00     0.012 C 
HETATM   53  C29 UNL     1     -13.877   9.420  13.657  1.00  0.00     0.012 C 
ENDBRANCH  32  51
ENDBRANCH  30  32
ENDBRANCH  27  28
ENDBRANCH  26  27
ENDBRANCH  13  26
TORSDOF 12
ENDMDL
