MODEL 1
REMARK minimizedAffinity -8.51620579
REMARK CNNscore 0.644906044
REMARK CNNaffinity 7.57075357
REMARK  15 active torsions:
REMARK  status: ('A' for Active; 'I' for Inactive)
REMARK    1  A    between atoms: C19_20  and  O2_21 
REMARK    2  A    between atoms: C19_20  and  C20_22 
REMARK    3  A    between atoms: C20_22  and  C21_24 
REMARK    4  A    between atoms: C21_24  and  O4_25 
REMARK    5  A    between atoms: O4_25  and  C22_26 
REMARK    6  A    between atoms: C22_26  and  C23_28 
REMARK    7  A    between atoms: C23_28  and  C24_29 
REMARK    8  A    between atoms: C24_29  and  C25_30 
REMARK       I    between atoms: C25_30  and  N1_32 
REMARK    9  A    between atoms: N1_32  and  C26_33 
REMARK   10  A    between atoms: C26_33  and  C27_34 
REMARK   11  A    between atoms: C27_34  and  C28_35 
REMARK   12  A    between atoms: C28_35  and  C29_36 
REMARK   13  A    between atoms: C29_36  and  C30_37 
REMARK   14  A    between atoms: C30_37  and  C31_38 
REMARK   15  A    between atoms: C31_38  and  O8_40 
ROOT
HETATM    1  C1  UNL     1       2.041   8.103  11.673  1.00  0.00     0.020 C 
HETATM    2  C2  UNL     1       1.135   8.351  12.924  1.00  0.00    -0.016 C 
HETATM    3  C3  UNL     1       1.737   9.648  13.541  1.00  0.00     0.022 C 
HETATM    4  C4  UNL     1       1.464   9.866  15.021  1.00  0.00     0.084 C 
HETATM    5  C5  UNL     1       1.793   8.634  15.820  1.00  0.00     0.149 C 
HETATM    6  O1  UNL     1       2.144   8.693  16.996  1.00  0.00    -0.293 OA
HETATM    7  C6  UNL     1       1.606   7.312  15.184  1.00  0.00     0.053 C 
HETATM    8  C7  UNL     1       1.284   7.179  13.885  1.00  0.00    -0.068 C 
HETATM    9  C8  UNL     1       0.950   5.813  13.332  1.00  0.00     0.035 C 
HETATM   10  C9  UNL     1      -0.205   5.848  12.327  1.00  0.00     0.010 C 
HETATM   11  C10 UNL     1      -1.148   7.050  12.505  1.00  0.00    -0.004 C 
HETATM   12  C11 UNL     1      -0.378   8.429  12.433  1.00  0.00     0.002 C 
HETATM   13  C12 UNL     1      -1.247   9.611  12.944  1.00  0.00     0.007 C 
HETATM   14  C13 UNL     1      -2.138   9.343  14.164  1.00  0.00     0.013 C 
HETATM   15  C14 UNL     1      -2.994   8.078  13.998  1.00  0.00    -0.002 C 
HETATM   16  C15 UNL     1      -3.991   8.247  12.823  1.00  0.00     0.019 C 
HETATM   17  C16 UNL     1      -1.987   6.924  13.790  1.00  0.00     0.002 C 
HETATM   18  C17 UNL     1      -2.842   5.672  13.952  1.00  0.00     0.009 C 
HETATM   19  C18 UNL     1      -3.867   6.040  15.036  1.00  0.00     0.047 C 
HETATM   20  C19 UNL     1      -3.743   7.573  15.273  1.00  0.00     0.128 C 
ENDROOT
BRANCH  20  21
HETATM   21  O2  UNL     1      -2.922   7.771  16.426  1.00  0.00    -0.381 OA
HETATM   22  H27 UNL     1      -3.313   7.269  17.169  1.00  0.00     0.211 HD
ENDBRANCH  20  21
BRANCH  20  23
HETATM   23  C20 UNL     1      -5.115   8.240  15.530  1.00  0.00     0.185 C 
HETATM   24  O3  UNL     1      -5.229   9.453  15.725  1.00  0.00    -0.292 OA
BRANCH  23  25
HETATM   25  C21 UNL     1      -6.338   7.320  15.536  1.00  0.00     0.260 C 
BRANCH  25  26
HETATM   26  O4  UNL     1      -7.426   7.855  14.780  1.00  0.00    -0.314 OA
BRANCH  26  27
HETATM   27  C22 UNL     1      -8.436   6.967  14.562  1.00  0.00     0.259 C 
HETATM   28  O5  UNL     1      -9.629   7.238  14.601  1.00  0.00    -0.265 OA
BRANCH  27  29
HETATM   29  C23 UNL     1      -7.884   5.594  14.311  1.00  0.00     0.120 C 
BRANCH  29  30
HETATM   30  C24 UNL     1      -8.068   5.225  12.847  1.00  0.00     0.112 C 
BRANCH  30  31
HETATM   31  C25 UNL     1      -7.630   3.802  12.579  1.00  0.00     0.217 C 
HETATM   32  O6  UNL     1      -8.282   2.820  12.915  1.00  0.00    -0.274 OA
HETATM   33  N1  UNL     1      -6.418   3.724  11.921  1.00  0.00    -0.361 N 
HETATM   34  H34 UNL     1      -6.085   4.561  11.460  1.00  0.00     0.162 HD
BRANCH  33  35
HETATM   35  C26 UNL     1      -5.912   2.444  11.464  1.00  0.00     0.122 C 
BRANCH  35  36
HETATM   36  C27 UNL     1      -4.414   2.314  11.721  1.00  0.00     0.020 C 
BRANCH  36  37
HETATM   37  C28 UNL     1      -3.629   3.584  11.381  1.00  0.00     0.002 C 
BRANCH  37  38
HETATM   38  C29 UNL     1      -2.346   3.373  10.571  1.00  0.00     0.010 C 
BRANCH  38  39
HETATM   39  C30 UNL     1      -1.913   1.911  10.489  1.00  0.00     0.110 C 
BRANCH  39  40
HETATM   40  C31 UNL     1      -0.491   1.727  10.947  1.00  0.00     0.139 C 
HETATM   41  O7  UNL     1       0.311   2.595  11.248  1.00  0.00    -0.650 OA
BRANCH  40  42
HETATM   42  O8  UNL     1      -0.148   0.425  11.009  1.00  0.00    -0.776 OA
HETATM   43  H45 UNL     1       0.783   0.439  11.314  1.00  0.00     0.167 HD
ENDBRANCH  40  42
ENDBRANCH  39  40
ENDBRANCH  38  39
ENDBRANCH  37  38
ENDBRANCH  36  37
ENDBRANCH  35  36
ENDBRANCH  33  35
ENDBRANCH  30  31
ENDBRANCH  29  30
ENDBRANCH  27  29
ENDBRANCH  26  27
ENDBRANCH  25  26
ENDBRANCH  23  25
ENDBRANCH  20  23
TORSDOF 15
ENDMDL
MODEL 2
REMARK minimizedAffinity -6.37894297
REMARK CNNscore 0.460096687
REMARK CNNaffinity 5.86138678
REMARK  15 active torsions:
REMARK  status: ('A' for Active; 'I' for Inactive)
REMARK    1  A    between atoms: C19_20  and  O2_21 
REMARK    2  A    between atoms: C19_20  and  C20_22 
REMARK    3  A    between atoms: C20_22  and  C21_24 
REMARK    4  A    between atoms: C21_24  and  O4_25 
REMARK    5  A    between atoms: O4_25  and  C22_26 
REMARK    6  A    between atoms: C22_26  and  C23_28 
REMARK    7  A    between atoms: C23_28  and  C24_29 
REMARK    8  A    between atoms: C24_29  and  C25_30 
REMARK       I    between atoms: C25_30  and  N1_32 
REMARK    9  A    between atoms: N1_32  and  C26_33 
REMARK   10  A    between atoms: C26_33  and  C27_34 
REMARK   11  A    between atoms: C27_34  and  C28_35 
REMARK   12  A    between atoms: C28_35  and  C29_36 
REMARK   13  A    between atoms: C29_36  and  C30_37 
REMARK   14  A    between atoms: C30_37  and  C31_38 
REMARK   15  A    between atoms: C31_38  and  O8_40 
ROOT
HETATM    1  C1  UNL     1      16.885  14.885  13.540  1.00  0.00     0.020 C 
HETATM    2  C2  UNL     1      16.580  13.836  14.659  1.00  0.00    -0.016 C 
HETATM    3  C3  UNL     1      17.992  13.514  15.232  1.00  0.00     0.022 C 
HETATM    4  C4  UNL     1      18.132  12.174  15.936  1.00  0.00     0.084 C 
HETATM    5  C5  UNL     1      17.577  11.057  15.093  1.00  0.00     0.149 C 
HETATM    6  O1  UNL     1      18.000   9.906  15.173  1.00  0.00    -0.293 OA
HETATM    7  C6  UNL     1      16.432  11.350  14.203  1.00  0.00     0.053 C 
HETATM    8  C7  UNL     1      15.962  12.597  14.024  1.00  0.00    -0.068 C 
HETATM    9  C8  UNL     1      14.694  12.814  13.231  1.00  0.00     0.035 C 
HETATM   10  C9  UNL     1      13.801  13.904  13.831  1.00  0.00     0.010 C 
HETATM   11  C10 UNL     1      14.024  14.134  15.335  1.00  0.00    -0.004 C 
HETATM   12  C11 UNL     1      15.530  14.479  15.669  1.00  0.00     0.002 C 
HETATM   13  C12 UNL     1      15.828  14.376  17.190  1.00  0.00     0.007 C 
HETATM   14  C13 UNL     1      15.163  13.223  17.954  1.00  0.00     0.013 C 
HETATM   15  C14 UNL     1      13.651  13.144  17.696  1.00  0.00    -0.002 C 
HETATM   16  C15 UNL     1      12.943  14.417  18.227  1.00  0.00     0.019 C 
HETATM   17  C16 UNL     1      13.503  12.949  16.170  1.00  0.00     0.002 C 
HETATM   18  C17 UNL     1      12.039  12.559  16.001  1.00  0.00     0.009 C 
HETATM   19  C18 UNL     1      11.718  11.713  17.243  1.00  0.00     0.047 C 
HETATM   20  C19 UNL     1      12.922  11.865  18.216  1.00  0.00     0.128 C 
ENDROOT
BRANCH  20  21
HETATM   21  O2  UNL     1      13.768  10.724  18.045  1.00  0.00    -0.381 OA
HETATM   22  H27 UNL     1      13.226   9.920  18.180  1.00  0.00     0.211 HD
ENDBRANCH  20  21
BRANCH  20  23
HETATM   23  C20 UNL     1      12.476  11.925  19.697  1.00  0.00     0.185 C 
HETATM   24  O3  UNL     1      13.277  12.110  20.617  1.00  0.00    -0.292 OA
BRANCH  23  25
HETATM   25  C21 UNL     1      10.984  11.737  19.974  1.00  0.00     0.260 C 
BRANCH  25  26
HETATM   26  O4  UNL     1      10.609  12.195  21.276  1.00  0.00    -0.314 OA
BRANCH  26  27
HETATM   27  C22 UNL     1       9.650  13.162  21.267  1.00  0.00     0.259 C 
HETATM   28  O5  UNL     1       9.456  13.948  20.349  1.00  0.00    -0.265 OA
BRANCH  27  29
HETATM   29  C23 UNL     1       8.891  13.161  22.561  1.00  0.00     0.120 C 
BRANCH  29  30
HETATM   30  C24 UNL     1       8.488  14.582  22.924  1.00  0.00     0.112 C 
BRANCH  30  31
HETATM   31  C25 UNL     1       6.997  14.690  23.157  1.00  0.00     0.217 C 
HETATM   32  O6  UNL     1       6.445  15.719  23.530  1.00  0.00    -0.274 OA
HETATM   33  N1  UNL     1       6.324  13.510  22.911  1.00  0.00    -0.361 N 
HETATM   34  H34 UNL     1       6.806  12.804  22.369  1.00  0.00     0.162 HD
BRANCH  33  35
HETATM   35  C26 UNL     1       4.875  13.469  22.952  1.00  0.00     0.122 C 
BRANCH  35  36
HETATM   36  C27 UNL     1       4.343  12.122  22.474  1.00  0.00     0.020 C 
BRANCH  36  37
HETATM   37  C28 UNL     1       5.153  10.931  22.995  1.00  0.00     0.002 C 
BRANCH  37  38
HETATM   38  C29 UNL     1       4.344   9.674  23.329  1.00  0.00     0.010 C 
BRANCH  38  39
HETATM   39  C30 UNL     1       2.840   9.848  23.126  1.00  0.00     0.110 C 
BRANCH  39  40
HETATM   40  C31 UNL     1       2.293   8.846  22.146  1.00  0.00     0.139 C 
HETATM   41  O7  UNL     1       1.870   7.728  22.383  1.00  0.00    -0.650 OA
BRANCH  40  42
HETATM   42  O8  UNL     1       2.300   9.323  20.885  1.00  0.00    -0.776 OA
HETATM   43  H45 UNL     1       1.926   8.591  20.353  1.00  0.00     0.167 HD
ENDBRANCH  40  42
ENDBRANCH  39  40
ENDBRANCH  38  39
ENDBRANCH  37  38
ENDBRANCH  36  37
ENDBRANCH  35  36
ENDBRANCH  33  35
ENDBRANCH  30  31
ENDBRANCH  29  30
ENDBRANCH  27  29
ENDBRANCH  26  27
ENDBRANCH  25  26
ENDBRANCH  23  25
ENDBRANCH  20  23
TORSDOF 15
ENDMDL
MODEL 3
REMARK minimizedAffinity -6.26065397
REMARK CNNscore 0.431068391
REMARK CNNaffinity 5.48238325
REMARK  15 active torsions:
REMARK  status: ('A' for Active; 'I' for Inactive)
REMARK    1  A    between atoms: C19_20  and  O2_21 
REMARK    2  A    between atoms: C19_20  and  C20_22 
REMARK    3  A    between atoms: C20_22  and  C21_24 
REMARK    4  A    between atoms: C21_24  and  O4_25 
REMARK    5  A    between atoms: O4_25  and  C22_26 
REMARK    6  A    between atoms: C22_26  and  C23_28 
REMARK    7  A    between atoms: C23_28  and  C24_29 
REMARK    8  A    between atoms: C24_29  and  C25_30 
REMARK       I    between atoms: C25_30  and  N1_32 
REMARK    9  A    between atoms: N1_32  and  C26_33 
REMARK   10  A    between atoms: C26_33  and  C27_34 
REMARK   11  A    between atoms: C27_34  and  C28_35 
REMARK   12  A    between atoms: C28_35  and  C29_36 
REMARK   13  A    between atoms: C29_36  and  C30_37 
REMARK   14  A    between atoms: C30_37  and  C31_38 
REMARK   15  A    between atoms: C31_38  and  O8_40 
ROOT
HETATM    1  C1  UNL     1       8.699  15.702  21.170  1.00  0.00     0.020 C 
HETATM    2  C2  UNL     1       7.177  15.421  21.394  1.00  0.00    -0.016 C 
HETATM    3  C3  UNL     1       6.496  16.707  20.840  1.00  0.00     0.022 C 
HETATM    4  C4  UNL     1       5.107  17.007  21.381  1.00  0.00     0.084 C 
HETATM    5  C5  UNL     1       5.082  16.936  22.883  1.00  0.00     0.149 C 
HETATM    6  O1  UNL     1       4.292  17.595  23.556  1.00  0.00    -0.293 OA
HETATM    7  C6  UNL     1       5.986  15.979  23.558  1.00  0.00     0.053 C 
HETATM    8  C7  UNL     1       6.914  15.274  22.888  1.00  0.00    -0.068 C 
HETATM    9  C8  UNL     1       7.698  14.197  23.602  1.00  0.00     0.035 C 
HETATM   10  C9  UNL     1       7.930  12.959  22.731  1.00  0.00     0.010 C 
HETATM   11  C10 UNL     1       6.894  12.784  21.609  1.00  0.00    -0.004 C 
HETATM   12  C11 UNL     1       6.813  14.051  20.668  1.00  0.00     0.002 C 
HETATM   13  C12 UNL     1       5.553  14.023  19.759  1.00  0.00     0.007 C 
HETATM   14  C13 UNL     1       4.252  13.504  20.387  1.00  0.00     0.013 C 
HETATM   15  C14 UNL     1       4.440  12.150  21.087  1.00  0.00    -0.002 C 
HETATM   16  C15 UNL     1       4.835  11.058  20.061  1.00  0.00     0.019 C 
HETATM   17  C16 UNL     1       5.514  12.393  22.172  1.00  0.00     0.002 C 
HETATM   18  C17 UNL     1       5.436  11.140  23.036  1.00  0.00     0.009 C 
HETATM   19  C18 UNL     1       3.945  10.767  23.045  1.00  0.00     0.047 C 
HETATM   20  C19 UNL     1       3.252  11.655  21.972  1.00  0.00     0.128 C 
ENDROOT
BRANCH  20  21
HETATM   21  O2  UNL     1       2.655  12.766  22.645  1.00  0.00    -0.381 OA
HETATM   22  H27 UNL     1       2.060  12.418  23.341  1.00  0.00     0.211 HD
ENDBRANCH  20  21
BRANCH  20  23
HETATM   23  C20 UNL     1       2.143  10.893  21.208  1.00  0.00     0.185 C 
HETATM   24  O3  UNL     1       2.027   9.666  21.270  1.00  0.00    -0.292 OA
BRANCH  23  25
HETATM   25  C21 UNL     1       1.190  11.735  20.358  1.00  0.00     0.260 C 
BRANCH  25  26
HETATM   26  O4  UNL     1      -0.014  11.036  20.035  1.00  0.00    -0.314 OA
BRANCH  26  27
HETATM   27  C22 UNL     1      -0.750  11.627  19.052  1.00  0.00     0.259 C 
HETATM   28  O5  UNL     1      -1.224  12.753  19.112  1.00  0.00    -0.265 OA
BRANCH  27  29
HETATM   29  C23 UNL     1      -0.938  10.686  17.898  1.00  0.00     0.120 C 
BRANCH  29  30
HETATM   30  C24 UNL     1      -2.283   9.986  18.017  1.00  0.00     0.112 C 
BRANCH  30  31
HETATM   31  C25 UNL     1      -3.130  10.208  16.783  1.00  0.00     0.217 C 
HETATM   32  O6  UNL     1      -2.947  11.129  15.995  1.00  0.00    -0.274 OA
HETATM   33  N1  UNL     1      -4.133   9.270  16.640  1.00  0.00    -0.361 N 
HETATM   34  H34 UNL     1      -4.052   8.416  17.177  1.00  0.00     0.162 HD
BRANCH  33  35
HETATM   35  C26 UNL     1      -4.954   9.250  15.445  1.00  0.00     0.122 C 
BRANCH  35  36
HETATM   36  C27 UNL     1      -4.619   8.053  14.560  1.00  0.00     0.020 C 
BRANCH  36  37
HETATM   37  C28 UNL     1      -5.186   6.732  15.088  1.00  0.00     0.002 C 
BRANCH  37  38
HETATM   38  C29 UNL     1      -5.772   5.792  14.030  1.00  0.00     0.010 C 
BRANCH  38  39
HETATM   39  C30 UNL     1      -7.110   5.177  14.438  1.00  0.00     0.110 C 
BRANCH  39  40
HETATM   40  C31 UNL     1      -8.126   5.275  13.332  1.00  0.00     0.139 C 
HETATM   41  O7  UNL     1      -8.006   4.905  12.177  1.00  0.00    -0.650 OA
BRANCH  40  42
HETATM   42  O8  UNL     1      -9.273   5.843  13.755  1.00  0.00    -0.776 OA
HETATM   43  H45 UNL     1      -9.842   5.848  12.957  1.00  0.00     0.167 HD
ENDBRANCH  40  42
ENDBRANCH  39  40
ENDBRANCH  38  39
ENDBRANCH  37  38
ENDBRANCH  36  37
ENDBRANCH  35  36
ENDBRANCH  33  35
ENDBRANCH  30  31
ENDBRANCH  29  30
ENDBRANCH  27  29
ENDBRANCH  26  27
ENDBRANCH  25  26
ENDBRANCH  23  25
ENDBRANCH  20  23
TORSDOF 15
ENDMDL
MODEL 4
REMARK minimizedAffinity -6.54281998
REMARK CNNscore 0.418177396
REMARK CNNaffinity 6.05271387
REMARK  15 active torsions:
REMARK  status: ('A' for Active; 'I' for Inactive)
REMARK    1  A    between atoms: C19_20  and  O2_21 
REMARK    2  A    between atoms: C19_20  and  C20_22 
REMARK    3  A    between atoms: C20_22  and  C21_24 
REMARK    4  A    between atoms: C21_24  and  O4_25 
REMARK    5  A    between atoms: O4_25  and  C22_26 
REMARK    6  A    between atoms: C22_26  and  C23_28 
REMARK    7  A    between atoms: C23_28  and  C24_29 
REMARK    8  A    between atoms: C24_29  and  C25_30 
REMARK       I    between atoms: C25_30  and  N1_32 
REMARK    9  A    between atoms: N1_32  and  C26_33 
REMARK   10  A    between atoms: C26_33  and  C27_34 
REMARK   11  A    between atoms: C27_34  and  C28_35 
REMARK   12  A    between atoms: C28_35  and  C29_36 
REMARK   13  A    between atoms: C29_36  and  C30_37 
REMARK   14  A    between atoms: C30_37  and  C31_38 
REMARK   15  A    between atoms: C31_38  and  O8_40 
ROOT
HETATM    1  C1  UNL     1      -3.642   8.671  12.882  1.00  0.00     0.020 C 
HETATM    2  C2  UNL     1      -2.352   8.920  13.730  1.00  0.00    -0.016 C 
HETATM    3  C3  UNL     1      -1.213   8.818  12.673  1.00  0.00     0.022 C 
HETATM    4  C4  UNL     1       0.165   8.471  13.215  1.00  0.00     0.084 C 
HETATM    5  C5  UNL     1       0.105   7.274  14.123  1.00  0.00     0.149 C 
HETATM    6  O1  UNL     1       1.061   6.514  14.267  1.00  0.00    -0.293 OA
HETATM    7  C6  UNL     1      -1.119   7.058  14.924  1.00  0.00     0.053 C 
HETATM    8  C7  UNL     1      -2.221   7.814  14.769  1.00  0.00    -0.068 C 
HETATM    9  C8  UNL     1      -3.381   7.652  15.724  1.00  0.00     0.035 C 
HETATM   10  C9  UNL     1      -4.035   8.987  16.092  1.00  0.00     0.010 C 
HETATM   11  C10 UNL     1      -3.102  10.200  15.938  1.00  0.00    -0.004 C 
HETATM   12  C11 UNL     1      -2.510  10.317  14.478  1.00  0.00     0.002 C 
HETATM   13  C12 UNL     1      -1.323  11.317  14.407  1.00  0.00     0.007 C 
HETATM   14  C13 UNL     1      -0.342  11.318  15.587  1.00  0.00     0.013 C 
HETATM   15  C14 UNL     1      -1.057  11.426  16.943  1.00  0.00    -0.002 C 
HETATM   16  C15 UNL     1      -1.800  12.782  17.058  1.00  0.00     0.019 C 
HETATM   17  C16 UNL     1      -1.997  10.201  17.012  1.00  0.00     0.002 C 
HETATM   18  C17 UNL     1      -2.434  10.170  18.471  1.00  0.00     0.009 C 
HETATM   19  C18 UNL     1      -1.199  10.639  19.256  1.00  0.00     0.047 C 
HETATM   20  C19 UNL     1      -0.181  11.181  18.212  1.00  0.00     0.128 C 
ENDROOT
BRANCH  20  21
HETATM   21  O2  UNL     1       0.769  10.144  17.951  1.00  0.00    -0.381 OA
HETATM   22  H27 UNL     1       1.160   9.867  18.804  1.00  0.00     0.211 HD
ENDBRANCH  20  21
BRANCH  20  23
HETATM   23  C20 UNL     1       0.582  12.424  18.728  1.00  0.00     0.185 C 
HETATM   24  O3  UNL     1       0.581  13.496  18.116  1.00  0.00    -0.292 OA
BRANCH  23  25
HETATM   25  C21 UNL     1       1.352  12.265  20.040  1.00  0.00     0.260 C 
BRANCH  25  26
HETATM   26  O4  UNL     1       1.079  11.019  20.684  1.00  0.00    -0.314 OA
BRANCH  26  27
HETATM   27  C22 UNL     1       2.179  10.233  20.855  1.00  0.00     0.259 C 
HETATM   28  O5  UNL     1       2.714   9.574  19.974  1.00  0.00    -0.265 OA
BRANCH  27  29
HETATM   29  C23 UNL     1       2.619  10.250  22.290  1.00  0.00     0.120 C 
BRANCH  29  30
HETATM   30  C24 UNL     1       4.137  10.223  22.364  1.00  0.00     0.112 C 
BRANCH  30  31
HETATM   31  C25 UNL     1       4.709  11.619  22.475  1.00  0.00     0.217 C 
HETATM   32  O6  UNL     1       4.152  12.530  23.076  1.00  0.00    -0.274 OA
HETATM   33  N1  UNL     1       5.918  11.762  21.825  1.00  0.00    -0.361 N 
HETATM   34  H34 UNL     1       6.420  10.917  21.584  1.00  0.00     0.162 HD
BRANCH  33  35
HETATM   35  C26 UNL     1       6.673  12.995  21.942  1.00  0.00     0.122 C 
BRANCH  35  36
HETATM   36  C27 UNL     1       7.652  12.938  23.111  1.00  0.00     0.020 C 
BRANCH  36  37
HETATM   37  C28 UNL     1       8.976  12.254  22.760  1.00  0.00     0.002 C 
BRANCH  37  38
HETATM   38  C29 UNL     1       9.739  12.853  21.574  1.00  0.00     0.010 C 
BRANCH  38  39
HETATM   39  C30 UNL     1      10.108  11.825  20.507  1.00  0.00     0.110 C 
BRANCH  39  40
HETATM   40  C31 UNL     1       9.034  11.702  19.460  1.00  0.00     0.139 C 
HETATM   41  O7  UNL     1       8.272  10.768  19.282  1.00  0.00    -0.650 OA
BRANCH  40  42
HETATM   42  O8  UNL     1       8.971  12.797  18.676  1.00  0.00    -0.776 OA
HETATM   43  H45 UNL     1       8.247  12.597  18.048  1.00  0.00     0.167 HD
ENDBRANCH  40  42
ENDBRANCH  39  40
ENDBRANCH  38  39
ENDBRANCH  37  38
ENDBRANCH  36  37
ENDBRANCH  35  36
ENDBRANCH  33  35
ENDBRANCH  30  31
ENDBRANCH  29  30
ENDBRANCH  27  29
ENDBRANCH  26  27
ENDBRANCH  25  26
ENDBRANCH  23  25
ENDBRANCH  20  23
TORSDOF 15
ENDMDL
MODEL 5
REMARK minimizedAffinity -6.91730356
REMARK CNNscore 0.398625225
REMARK CNNaffinity 5.77036285
REMARK  15 active torsions:
REMARK  status: ('A' for Active; 'I' for Inactive)
REMARK    1  A    between atoms: C19_20  and  O2_21 
REMARK    2  A    between atoms: C19_20  and  C20_22 
REMARK    3  A    between atoms: C20_22  and  C21_24 
REMARK    4  A    between atoms: C21_24  and  O4_25 
REMARK    5  A    between atoms: O4_25  and  C22_26 
REMARK    6  A    between atoms: C22_26  and  C23_28 
REMARK    7  A    between atoms: C23_28  and  C24_29 
REMARK    8  A    between atoms: C24_29  and  C25_30 
REMARK       I    between atoms: C25_30  and  N1_32 
REMARK    9  A    between atoms: N1_32  and  C26_33 
REMARK   10  A    between atoms: C26_33  and  C27_34 
REMARK   11  A    between atoms: C27_34  and  C28_35 
REMARK   12  A    between atoms: C28_35  and  C29_36 
REMARK   13  A    between atoms: C29_36  and  C30_37 
REMARK   14  A    between atoms: C30_37  and  C31_38 
REMARK   15  A    between atoms: C31_38  and  O8_40 
ROOT
HETATM    1  C1  UNL     1       7.857  15.158  23.687  1.00  0.00     0.020 C 
HETATM    2  C2  UNL     1       7.487  13.978  22.730  1.00  0.00    -0.016 C 
HETATM    3  C3  UNL     1       8.457  12.845  23.178  1.00  0.00     0.022 C 
HETATM    4  C4  UNL     1       8.748  11.773  22.141  1.00  0.00     0.084 C 
HETATM    5  C5  UNL     1       9.135  12.384  20.821  1.00  0.00     0.149 C 
HETATM    6  O1  UNL     1       9.875  11.808  20.026  1.00  0.00    -0.293 OA
HETATM    7  C6  UNL     1       8.539  13.684  20.446  1.00  0.00     0.053 C 
HETATM    8  C7  UNL     1       7.774  14.395  21.293  1.00  0.00    -0.068 C 
HETATM    9  C8  UNL     1       7.062  15.634  20.801  1.00  0.00     0.035 C 
HETATM   10  C9  UNL     1       5.652  15.776  21.382  1.00  0.00     0.010 C 
HETATM   11  C10 UNL     1       5.027  14.444  21.830  1.00  0.00    -0.004 C 
HETATM   12  C11 UNL     1       5.929  13.686  22.883  1.00  0.00     0.002 C 
HETATM   13  C12 UNL     1       5.483  12.210  23.078  1.00  0.00     0.007 C 
HETATM   14  C13 UNL     1       5.035  11.446  21.824  1.00  0.00     0.013 C 
HETATM   15  C14 UNL     1       3.990  12.221  21.008  1.00  0.00    -0.002 C 
HETATM   16  C15 UNL     1       2.689  12.408  21.830  1.00  0.00     0.019 C 
HETATM   17  C16 UNL     1       4.672  13.554  20.624  1.00  0.00     0.002 C 
HETATM   18  C17 UNL     1       3.742  14.138  19.568  1.00  0.00     0.009 C 
HETATM   19  C18 UNL     1       3.223  12.918  18.791  1.00  0.00     0.047 C 
HETATM   20  C19 UNL     1       3.656  11.656  19.591  1.00  0.00     0.128 C 
ENDROOT
BRANCH  20  21
HETATM   21  O2  UNL     1       4.844  11.142  18.983  1.00  0.00    -0.381 OA
HETATM   22  H27 UNL     1       4.660  10.987  18.035  1.00  0.00     0.211 HD
ENDBRANCH  20  21
BRANCH  20  23
HETATM   23  C20 UNL     1       2.577  10.547  19.568  1.00  0.00     0.185 C 
HETATM   24  O3  UNL     1       2.669   9.528  20.257  1.00  0.00    -0.292 OA
BRANCH  23  25
HETATM   25  C21 UNL     1       1.381  10.769  18.640  1.00  0.00     0.260 C 
BRANCH  25  26
HETATM   26  O4  UNL     1       0.139  10.788  19.347  1.00  0.00    -0.314 OA
BRANCH  26  27
HETATM   27  C22 UNL     1      -0.893  11.323  18.636  1.00  0.00     0.259 C 
HETATM   28  O5  UNL     1      -0.848  12.381  18.022  1.00  0.00    -0.265 OA
BRANCH  27  29
HETATM   29  C23 UNL     1      -2.113  10.455  18.746  1.00  0.00     0.120 C 
BRANCH  29  30
HETATM   30  C24 UNL     1      -2.741  10.273  17.374  1.00  0.00     0.112 C 
BRANCH  30  31
HETATM   31  C25 UNL     1      -2.191   9.050  16.674  1.00  0.00     0.217 C 
HETATM   32  O6  UNL     1      -0.993   8.828  16.544  1.00  0.00    -0.274 OA
HETATM   33  N1  UNL     1      -3.178   8.213  16.192  1.00  0.00    -0.361 N 
HETATM   34  H34 UNL     1      -4.112   8.334  16.561  1.00  0.00     0.162 HD
BRANCH  33  35
HETATM   35  C26 UNL     1      -2.833   6.928  15.614  1.00  0.00     0.122 C 
BRANCH  35  36
HETATM   36  C27 UNL     1      -3.399   6.781  14.205  1.00  0.00     0.020 C 
BRANCH  36  37
HETATM   37  C28 UNL     1      -4.899   7.082  14.121  1.00  0.00     0.002 C 
BRANCH  37  38
HETATM   38  C29 UNL     1      -5.792   6.268  15.061  1.00  0.00     0.010 C 
BRANCH  38  39
HETATM   39  C30 UNL     1      -7.186   6.002  14.496  1.00  0.00     0.110 C 
BRANCH  39  40
HETATM   40  C31 UNL     1      -7.580   4.558  14.647  1.00  0.00     0.139 C 
HETATM   41  O7  UNL     1      -7.600   3.698  13.783  1.00  0.00    -0.650 OA
BRANCH  40  42
HETATM   42  O8  UNL     1      -7.928   4.263  15.916  1.00  0.00    -0.776 OA
HETATM   43  H45 UNL     1      -8.158   3.311  15.883  1.00  0.00     0.167 HD
ENDBRANCH  40  42
ENDBRANCH  39  40
ENDBRANCH  38  39
ENDBRANCH  37  38
ENDBRANCH  36  37
ENDBRANCH  35  36
ENDBRANCH  33  35
ENDBRANCH  30  31
ENDBRANCH  29  30
ENDBRANCH  27  29
ENDBRANCH  26  27
ENDBRANCH  25  26
ENDBRANCH  23  25
ENDBRANCH  20  23
TORSDOF 15
ENDMDL
MODEL 6
REMARK minimizedAffinity -7.19563627
REMARK CNNscore 0.364294648
REMARK CNNaffinity 6.27171373
REMARK  15 active torsions:
REMARK  status: ('A' for Active; 'I' for Inactive)
REMARK    1  A    between atoms: C19_20  and  O2_21 
REMARK    2  A    between atoms: C19_20  and  C20_22 
REMARK    3  A    between atoms: C20_22  and  C21_24 
REMARK    4  A    between atoms: C21_24  and  O4_25 
REMARK    5  A    between atoms: O4_25  and  C22_26 
REMARK    6  A    between atoms: C22_26  and  C23_28 
REMARK    7  A    between atoms: C23_28  and  C24_29 
REMARK    8  A    between atoms: C24_29  and  C25_30 
REMARK       I    between atoms: C25_30  and  N1_32 
REMARK    9  A    between atoms: N1_32  and  C26_33 
REMARK   10  A    between atoms: C26_33  and  C27_34 
REMARK   11  A    between atoms: C27_34  and  C28_35 
REMARK   12  A    between atoms: C28_35  and  C29_36 
REMARK   13  A    between atoms: C29_36  and  C30_37 
REMARK   14  A    between atoms: C30_37  and  C31_38 
REMARK   15  A    between atoms: C31_38  and  O8_40 
ROOT
HETATM    1  C1  UNL     1       1.073   6.225  10.259  1.00  0.00     0.020 C 
HETATM    2  C2  UNL     1       0.800   7.076  11.543  1.00  0.00    -0.016 C 
HETATM    3  C3  UNL     1       1.820   8.246  11.412  1.00  0.00     0.022 C 
HETATM    4  C4  UNL     1       2.204   8.939  12.710  1.00  0.00     0.084 C 
HETATM    5  C5  UNL     1       2.596   7.939  13.764  1.00  0.00     0.149 C 
HETATM    6  O1  UNL     1       3.391   8.213  14.660  1.00  0.00    -0.293 OA
HETATM    7  C6  UNL     1       1.936   6.615  13.758  1.00  0.00     0.053 C 
HETATM    8  C7  UNL     1       1.106   6.231  12.773  1.00  0.00    -0.068 C 
HETATM    9  C8  UNL     1       0.339   4.935  12.901  1.00  0.00     0.035 C 
HETATM   10  C9  UNL     1      -1.094   5.041  12.371  1.00  0.00     0.010 C 
HETATM   11  C10 UNL     1      -1.654   6.473  12.373  1.00  0.00    -0.004 C 
HETATM   12  C11 UNL     1      -0.742   7.472  11.558  1.00  0.00     0.002 C 
HETATM   13  C12 UNL     1      -1.108   8.957  11.836  1.00  0.00     0.007 C 
HETATM   14  C13 UNL     1      -1.472   9.325  13.282  1.00  0.00     0.013 C 
HETATM   15  C14 UNL     1      -2.535   8.388  13.874  1.00  0.00    -0.002 C 
HETATM   16  C15 UNL     1      -3.870   8.519  13.095  1.00  0.00     0.019 C 
HETATM   17  C16 UNL     1      -1.920   6.971  13.807  1.00  0.00     0.002 C 
HETATM   18  C17 UNL     1      -2.850   6.137  14.680  1.00  0.00     0.009 C 
HETATM   19  C18 UNL     1      -3.274   7.087  15.812  1.00  0.00     0.047 C 
HETATM   20  C19 UNL     1      -2.793   8.511  15.410  1.00  0.00     0.128 C 
ENDROOT
BRANCH  20  21
HETATM   21  O2  UNL     1      -1.559   8.762  16.088  1.00  0.00    -0.381 OA
HETATM   22  H27 UNL     1      -1.705   8.630  17.046  1.00  0.00     0.211 HD
ENDBRANCH  20  21
BRANCH  20  23
HETATM   23  C20 UNL     1      -3.805   9.609  15.815  1.00  0.00     0.185 C 
HETATM   24  O3  UNL     1      -5.021   9.402  15.845  1.00  0.00    -0.292 OA
BRANCH  23  25
HETATM   25  C21 UNL     1      -3.227  10.978  16.176  1.00  0.00     0.260 C 
BRANCH  25  26
HETATM   26  O4  UNL     1      -4.068  11.705  17.076  1.00  0.00    -0.314 OA
BRANCH  26  27
HETATM   27  C22 UNL     1      -3.554  11.833  18.331  1.00  0.00     0.259 C 
HETATM   28  O5  UNL     1      -4.168  12.257  19.300  1.00  0.00    -0.265 OA
BRANCH  27  29
HETATM   29  C23 UNL     1      -2.110  11.424  18.352  1.00  0.00     0.120 C 
BRANCH  29  30
HETATM   30  C24 UNL     1      -1.251  12.588  18.819  1.00  0.00     0.112 C 
BRANCH  30  31
HETATM   31  C25 UNL     1      -0.108  12.115  19.690  1.00  0.00     0.217 C 
HETATM   32  O6  UNL     1       0.078  10.938  19.979  1.00  0.00    -0.274 OA
HETATM   33  N1  UNL     1       0.699  13.145  20.131  1.00  0.00    -0.361 N 
HETATM   34  H34 UNL     1       0.631  14.030  19.645  1.00  0.00     0.162 HD
BRANCH  33  35
HETATM   35  C26 UNL     1       1.918  12.860  20.863  1.00  0.00     0.122 C 
BRANCH  35  36
HETATM   36  C27 UNL     1       3.047  12.448  19.925  1.00  0.00     0.020 C 
BRANCH  36  37
HETATM   37  C28 UNL     1       4.066  11.510  20.578  1.00  0.00     0.002 C 
BRANCH  37  38
HETATM   38  C29 UNL     1       3.575  10.757  21.818  1.00  0.00     0.010 C 
BRANCH  38  39
HETATM   39  C30 UNL     1       2.652   9.584  21.491  1.00  0.00     0.110 C 
BRANCH  39  40
HETATM   40  C31 UNL     1       2.409   8.716  22.696  1.00  0.00     0.139 C 
HETATM   41  O7  UNL     1       2.691   8.960  23.856  1.00  0.00    -0.650 OA
BRANCH  40  42
HETATM   42  O8  UNL     1       1.800   7.560  22.366  1.00  0.00    -0.776 OA
HETATM   43  H45 UNL     1       1.699   7.093  23.222  1.00  0.00     0.167 HD
ENDBRANCH  40  42
ENDBRANCH  39  40
ENDBRANCH  38  39
ENDBRANCH  37  38
ENDBRANCH  36  37
ENDBRANCH  35  36
ENDBRANCH  33  35
ENDBRANCH  30  31
ENDBRANCH  29  30
ENDBRANCH  27  29
ENDBRANCH  26  27
ENDBRANCH  25  26
ENDBRANCH  23  25
ENDBRANCH  20  23
TORSDOF 15
ENDMDL
MODEL 7
REMARK minimizedAffinity -6.45612907
REMARK CNNscore 0.309105814
REMARK CNNaffinity 5.4780755
REMARK  15 active torsions:
REMARK  status: ('A' for Active; 'I' for Inactive)
REMARK    1  A    between atoms: C19_20  and  O2_21 
REMARK    2  A    between atoms: C19_20  and  C20_22 
REMARK    3  A    between atoms: C20_22  and  C21_24 
REMARK    4  A    between atoms: C21_24  and  O4_25 
REMARK    5  A    between atoms: O4_25  and  C22_26 
REMARK    6  A    between atoms: C22_26  and  C23_28 
REMARK    7  A    between atoms: C23_28  and  C24_29 
REMARK    8  A    between atoms: C24_29  and  C25_30 
REMARK       I    between atoms: C25_30  and  N1_32 
REMARK    9  A    between atoms: N1_32  and  C26_33 
REMARK   10  A    between atoms: C26_33  and  C27_34 
REMARK   11  A    between atoms: C27_34  and  C28_35 
REMARK   12  A    between atoms: C28_35  and  C29_36 
REMARK   13  A    between atoms: C29_36  and  C30_37 
REMARK   14  A    between atoms: C30_37  and  C31_38 
REMARK   15  A    between atoms: C31_38  and  O8_40 
ROOT
HETATM    1  C1  UNL     1       8.257  14.870  23.731  1.00  0.00     0.020 C 
HETATM    2  C2  UNL     1       7.768  13.832  22.669  1.00  0.00    -0.016 C 
HETATM    3  C3  UNL     1       8.833  12.700  22.768  1.00  0.00     0.022 C 
HETATM    4  C4  UNL     1       8.979  11.818  21.539  1.00  0.00     0.084 C 
HETATM    5  C5  UNL     1       9.124  12.645  20.290  1.00  0.00     0.149 C 
HETATM    6  O1  UNL     1       9.738  12.241  19.305  1.00  0.00    -0.293 OA
HETATM    7  C6  UNL     1       8.435  13.953  20.229  1.00  0.00     0.053 C 
HETATM    8  C7  UNL     1       7.800  14.480  21.290  1.00  0.00    -0.068 C 
HETATM    9  C8  UNL     1       6.980  15.738  21.124  1.00  0.00     0.035 C 
HETATM   10  C9  UNL     1       5.682  15.710  21.937  1.00  0.00     0.010 C 
HETATM   11  C10 UNL     1       5.180  14.293  22.259  1.00  0.00    -0.004 C 
HETATM   12  C11 UNL     1       6.266  13.432  23.018  1.00  0.00     0.002 C 
HETATM   13  C12 UNL     1       5.904  11.922  23.042  1.00  0.00     0.007 C 
HETATM   14  C13 UNL     1       5.278  11.336  21.769  1.00  0.00     0.013 C 
HETATM   15  C14 UNL     1       4.088  12.167  21.265  1.00  0.00    -0.002 C 
HETATM   16  C15 UNL     1       2.937  12.152  22.303  1.00  0.00     0.019 C 
HETATM   17  C16 UNL     1       4.656  13.580  20.997  1.00  0.00     0.002 C 
HETATM   18  C17 UNL     1       3.547  14.267  20.210  1.00  0.00     0.009 C 
HETATM   19  C18 UNL     1       2.943  13.153  19.340  1.00  0.00     0.047 C 
HETATM   20  C19 UNL     1       3.541  11.810  19.847  1.00  0.00     0.128 C 
ENDROOT
BRANCH  20  21
HETATM   21  O2  UNL     1       4.627  11.463  18.983  1.00  0.00    -0.381 OA
HETATM   22  H27 UNL     1       4.292  11.445  18.064  1.00  0.00     0.211 HD
ENDBRANCH  20  21
BRANCH  20  23
HETATM   23  C20 UNL     1       2.507  10.659  19.818  1.00  0.00     0.185 C 
HETATM   24  O3  UNL     1       2.778   9.523  20.215  1.00  0.00    -0.292 OA
BRANCH  23  25
HETATM   25  C21 UNL     1       1.121  10.992  19.264  1.00  0.00     0.260 C 
BRANCH  25  26
HETATM   26  O4  UNL     1       0.919  10.470  17.949  1.00  0.00    -0.314 OA
BRANCH  26  27
HETATM   27  C22 UNL     1      -0.384  10.466  17.550  1.00  0.00     0.259 C 
HETATM   28  O5  UNL     1      -1.348  10.420  18.303  1.00  0.00    -0.265 OA
BRANCH  27  29
HETATM   29  C23 UNL     1      -0.475  10.482  16.052  1.00  0.00     0.120 C 
BRANCH  29  30
HETATM   30  C24 UNL     1      -1.136   9.202  15.563  1.00  0.00     0.112 C 
BRANCH  30  31
HETATM   31  C25 UNL     1      -0.186   8.377  14.724  1.00  0.00     0.217 C 
HETATM   32  O6  UNL     1       0.857   8.819  14.254  1.00  0.00    -0.274 OA
HETATM   33  N1  UNL     1      -0.616   7.078  14.538  1.00  0.00    -0.361 N 
HETATM   34  H34 UNL     1      -1.334   6.733  15.161  1.00  0.00     0.162 HD
BRANCH  33  35
HETATM   35  C26 UNL     1       0.236   6.111  13.874  1.00  0.00     0.122 C 
BRANCH  35  36
HETATM   36  C27 UNL     1       0.128   6.224  12.356  1.00  0.00     0.020 C 
BRANCH  36  37
HETATM   37  C28 UNL     1       1.451   6.595  11.680  1.00  0.00     0.002 C 
BRANCH  37  38
HETATM   38  C29 UNL     1       1.630   6.085  10.248  1.00  0.00     0.010 C 
BRANCH  38  39
HETATM   39  C30 UNL     1       2.852   5.185  10.072  1.00  0.00     0.110 C 
BRANCH  39  40
HETATM   40  C31 UNL     1       4.129   5.981  10.050  1.00  0.00     0.139 C 
HETATM   41  O7  UNL     1       4.270   7.150   9.737  1.00  0.00    -0.650 OA
BRANCH  40  42
HETATM   42  O8  UNL     1       5.186   5.243  10.444  1.00  0.00    -0.776 OA
HETATM   43  H45 UNL     1       5.942   5.865  10.388  1.00  0.00     0.167 HD
ENDBRANCH  40  42
ENDBRANCH  39  40
ENDBRANCH  38  39
ENDBRANCH  37  38
ENDBRANCH  36  37
ENDBRANCH  35  36
ENDBRANCH  33  35
ENDBRANCH  30  31
ENDBRANCH  29  30
ENDBRANCH  27  29
ENDBRANCH  26  27
ENDBRANCH  25  26
ENDBRANCH  23  25
ENDBRANCH  20  23
TORSDOF 15
ENDMDL
MODEL 8
REMARK minimizedAffinity -6.39091873
REMARK CNNscore 0.307706475
REMARK CNNaffinity 6.53454018
REMARK  15 active torsions:
REMARK  status: ('A' for Active; 'I' for Inactive)
REMARK    1  A    between atoms: C19_20  and  O2_21 
REMARK    2  A    between atoms: C19_20  and  C20_22 
REMARK    3  A    between atoms: C20_22  and  C21_24 
REMARK    4  A    between atoms: C21_24  and  O4_25 
REMARK    5  A    between atoms: O4_25  and  C22_26 
REMARK    6  A    between atoms: C22_26  and  C23_28 
REMARK    7  A    between atoms: C23_28  and  C24_29 
REMARK    8  A    between atoms: C24_29  and  C25_30 
REMARK       I    between atoms: C25_30  and  N1_32 
REMARK    9  A    between atoms: N1_32  and  C26_33 
REMARK   10  A    between atoms: C26_33  and  C27_34 
REMARK   11  A    between atoms: C27_34  and  C28_35 
REMARK   12  A    between atoms: C28_35  and  C29_36 
REMARK   13  A    between atoms: C29_36  and  C30_37 
REMARK   14  A    between atoms: C30_37  and  C31_38 
REMARK   15  A    between atoms: C31_38  and  O8_40 
ROOT
HETATM    1  C1  UNL     1      -9.312   6.786  14.651  1.00  0.00     0.020 C 
HETATM    2  C2  UNL     1      -8.014   6.185  14.017  1.00  0.00    -0.016 C 
HETATM    3  C3  UNL     1      -8.464   5.829  12.569  1.00  0.00     0.022 C 
HETATM    4  C4  UNL     1      -7.645   4.758  11.865  1.00  0.00     0.084 C 
HETATM    5  C5  UNL     1      -7.476   3.544  12.737  1.00  0.00     0.149 C 
HETATM    6  O1  UNL     1      -7.328   2.417  12.268  1.00  0.00    -0.293 OA
HETATM    7  C6  UNL     1      -7.408   3.733  14.203  1.00  0.00     0.053 C 
HETATM    8  C7  UNL     1      -7.624   4.927  14.783  1.00  0.00    -0.068 C 
HETATM    9  C8  UNL     1      -7.384   5.094  16.265  1.00  0.00     0.035 C 
HETATM   10  C9  UNL     1      -6.744   6.442  16.613  1.00  0.00     0.010 C 
HETATM   11  C10 UNL     1      -5.959   7.075  15.452  1.00  0.00    -0.004 C 
HETATM   12  C11 UNL     1      -6.848   7.260  14.159  1.00  0.00     0.002 C 
HETATM   13  C12 UNL     1      -5.992   7.573  12.901  1.00  0.00     0.007 C 
HETATM   14  C13 UNL     1      -4.659   6.824  12.761  1.00  0.00     0.013 C 
HETATM   15  C14 UNL     1      -3.801   6.913  14.033  1.00  0.00    -0.002 C 
HETATM   16  C15 UNL     1      -3.390   8.383  14.308  1.00  0.00     0.019 C 
HETATM   17  C16 UNL     1      -4.664   6.295  15.157  1.00  0.00     0.002 C 
HETATM   18  C17 UNL     1      -3.676   6.110  16.302  1.00  0.00     0.009 C 
HETATM   19  C18 UNL     1      -2.352   5.738  15.617  1.00  0.00     0.047 C 
HETATM   20  C19 UNL     1      -2.548   5.982  14.093  1.00  0.00     0.128 C 
ENDROOT
BRANCH  20  21
HETATM   21  O2  UNL     1      -2.852   4.724  13.486  1.00  0.00    -0.381 OA
HETATM   22  H27 UNL     1      -2.139   4.094  13.715  1.00  0.00     0.211 HD
ENDBRANCH  20  21
BRANCH  20  23
HETATM   23  C20 UNL     1      -1.278   6.555  13.421  1.00  0.00     0.185 C 
HETATM   24  O3  UNL     1      -1.268   6.924  12.244  1.00  0.00    -0.292 OA
BRANCH  23  25
HETATM   25  C21 UNL     1      -0.019   6.638  14.287  1.00  0.00     0.260 C 
BRANCH  25  26
HETATM   26  O4  UNL     1       0.514   7.963  14.347  1.00  0.00    -0.314 OA
BRANCH  26  27
HETATM   27  C22 UNL     1       0.380   8.558  15.566  1.00  0.00     0.259 C 
HETATM   28  O5  UNL     1      -0.569   8.401  16.322  1.00  0.00    -0.265 OA
BRANCH  27  29
HETATM   29  C23 UNL     1       1.541   9.470  15.835  1.00  0.00     0.120 C 
BRANCH  29  30
HETATM   30  C24 UNL     1       2.845   8.702  15.690  1.00  0.00     0.112 C 
BRANCH  30  31
HETATM   31  C25 UNL     1       3.792   9.399  14.739  1.00  0.00     0.217 C 
HETATM   32  O6  UNL     1       4.386  10.435  15.016  1.00  0.00    -0.274 OA
HETATM   33  N1  UNL     1       3.914   8.751  13.525  1.00  0.00    -0.361 N 
HETATM   34  H34 UNL     1       3.603   7.790  13.478  1.00  0.00     0.162 HD
BRANCH  33  35
HETATM   35  C26 UNL     1       4.882   9.205  12.546  1.00  0.00     0.122 C 
BRANCH  35  36
HETATM   36  C27 UNL     1       5.827   8.080  12.135  1.00  0.00     0.020 C 
BRANCH  36  37
HETATM   37  C28 UNL     1       5.101   6.844  11.597  1.00  0.00     0.002 C 
BRANCH  37  38
HETATM   38  C29 UNL     1       4.299   7.055  10.309  1.00  0.00     0.010 C 
BRANCH  38  39
HETATM   39  C30 UNL     1       3.557   5.803   9.844  1.00  0.00     0.110 C 
BRANCH  39  40
HETATM   40  C31 UNL     1       2.925   6.003   8.493  1.00  0.00     0.139 C 
HETATM   41  O7  UNL     1       2.827   5.189   7.591  1.00  0.00    -0.650 OA
BRANCH  40  42
HETATM   42  O8  UNL     1       2.429   7.248   8.350  1.00  0.00    -0.776 OA
HETATM   43  H45 UNL     1       2.051   7.250   7.446  1.00  0.00     0.167 HD
ENDBRANCH  40  42
ENDBRANCH  39  40
ENDBRANCH  38  39
ENDBRANCH  37  38
ENDBRANCH  36  37
ENDBRANCH  35  36
ENDBRANCH  33  35
ENDBRANCH  30  31
ENDBRANCH  29  30
ENDBRANCH  27  29
ENDBRANCH  26  27
ENDBRANCH  25  26
ENDBRANCH  23  25
ENDBRANCH  20  23
TORSDOF 15
ENDMDL
MODEL 9
REMARK minimizedAffinity -6.32485294
REMARK CNNscore 0.291227371
REMARK CNNaffinity 5.59379911
REMARK  15 active torsions:
REMARK  status: ('A' for Active; 'I' for Inactive)
REMARK    1  A    between atoms: C19_20  and  O2_21 
REMARK    2  A    between atoms: C19_20  and  C20_22 
REMARK    3  A    between atoms: C20_22  and  C21_24 
REMARK    4  A    between atoms: C21_24  and  O4_25 
REMARK    5  A    between atoms: O4_25  and  C22_26 
REMARK    6  A    between atoms: C22_26  and  C23_28 
REMARK    7  A    between atoms: C23_28  and  C24_29 
REMARK    8  A    between atoms: C24_29  and  C25_30 
REMARK       I    between atoms: C25_30  and  N1_32 
REMARK    9  A    between atoms: N1_32  and  C26_33 
REMARK   10  A    between atoms: C26_33  and  C27_34 
REMARK   11  A    between atoms: C27_34  and  C28_35 
REMARK   12  A    between atoms: C28_35  and  C29_36 
REMARK   13  A    between atoms: C29_36  and  C30_37 
REMARK   14  A    between atoms: C30_37  and  C31_38 
REMARK   15  A    between atoms: C31_38  and  O8_40 
ROOT
HETATM    1  C1  UNL     1       8.323  14.833  23.624  1.00  0.00     0.020 C 
HETATM    2  C2  UNL     1       7.767  13.788  22.602  1.00  0.00    -0.016 C 
HETATM    3  C3  UNL     1       8.856  12.673  22.614  1.00  0.00     0.022 C 
HETATM    4  C4  UNL     1       8.917  11.794  21.375  1.00  0.00     0.084 C 
HETATM    5  C5  UNL     1       8.948  12.625  20.121  1.00  0.00     0.149 C 
HETATM    6  O1  UNL     1       9.487  12.231  19.089  1.00  0.00    -0.293 OA
HETATM    7  C6  UNL     1       8.234  13.921  20.117  1.00  0.00     0.053 C 
HETATM    8  C7  UNL     1       7.678  14.437  21.227  1.00  0.00    -0.068 C 
HETATM    9  C8  UNL     1       6.827  15.682  21.129  1.00  0.00     0.035 C 
HETATM   10  C9  UNL     1       5.599  15.632  22.043  1.00  0.00     0.010 C 
HETATM   11  C10 UNL     1       5.147  14.206  22.402  1.00  0.00    -0.004 C 
HETATM   12  C11 UNL     1       6.305  13.364  23.070  1.00  0.00     0.002 C 
HETATM   13  C12 UNL     1       5.970  11.847  23.120  1.00  0.00     0.007 C 
HETATM   14  C13 UNL     1       5.254  11.252  21.900  1.00  0.00     0.013 C 
HETATM   15  C14 UNL     1       4.015  12.064  21.495  1.00  0.00    -0.002 C 
HETATM   16  C15 UNL     1       2.950  12.029  22.622  1.00  0.00     0.019 C 
HETATM   17  C16 UNL     1       4.536  13.486  21.185  1.00  0.00     0.002 C 
HETATM   18  C17 UNL     1       3.356  14.154  20.491  1.00  0.00     0.009 C 
HETATM   19  C18 UNL     1       2.703  13.032  19.669  1.00  0.00     0.047 C 
HETATM   20  C19 UNL     1       3.361  11.698  20.124  1.00  0.00     0.128 C 
ENDROOT
BRANCH  20  21
HETATM   21  O2  UNL     1       4.380  11.369  19.176  1.00  0.00    -0.381 OA
HETATM   22  H27 UNL     1       3.973  11.347  18.286  1.00  0.00     0.211 HD
ENDBRANCH  20  21
BRANCH  20  23
HETATM   23  C20 UNL     1       2.347  10.530  20.176  1.00  0.00     0.185 C 
HETATM   24  O3  UNL     1       2.679   9.387  20.501  1.00  0.00    -0.292 OA
BRANCH  23  25
HETATM   25  C21 UNL     1       0.902  10.856  19.797  1.00  0.00     0.260 C 
BRANCH  25  26
HETATM   26  O4  UNL     1       0.567  10.402  18.484  1.00  0.00    -0.314 OA
BRANCH  26  27
HETATM   27  C22 UNL     1      -0.618  10.888  18.017  1.00  0.00     0.259 C 
HETATM   28  O5  UNL     1      -1.639  11.004  18.681  1.00  0.00    -0.265 OA
BRANCH  27  29
HETATM   29  C23 UNL     1      -0.510  11.221  16.557  1.00  0.00     0.120 C 
BRANCH  29  30
HETATM   30  C24 UNL     1      -1.548  10.436  15.771  1.00  0.00     0.112 C 
BRANCH  30  31
HETATM   31  C25 UNL     1      -0.967   9.888  14.486  1.00  0.00     0.217 C 
HETATM   32  O6  UNL     1      -1.379  10.197  13.374  1.00  0.00    -0.274 OA
HETATM   33  N1  UNL     1       0.070   9.001  14.696  1.00  0.00    -0.361 N 
HETATM   34  H34 UNL     1       0.507   9.004  15.608  1.00  0.00     0.162 HD
BRANCH  33  35
HETATM   35  C26 UNL     1       0.831   8.484  13.575  1.00  0.00     0.122 C 
BRANCH  35  36
HETATM   36  C27 UNL     1       1.504   7.160  13.923  1.00  0.00     0.020 C 
BRANCH  36  37
HETATM   37  C28 UNL     1       1.156   6.029  12.951  1.00  0.00     0.002 C 
BRANCH  37  38
HETATM   38  C29 UNL     1       0.118   6.373  11.878  1.00  0.00     0.010 C 
BRANCH  38  39
HETATM   39  C30 UNL     1      -1.149   5.525  11.964  1.00  0.00     0.110 C 
BRANCH  39  40
HETATM   40  C31 UNL     1      -0.972   4.193  11.285  1.00  0.00     0.139 C 
HETATM   41  O7  UNL     1       0.041   3.519  11.222  1.00  0.00    -0.650 OA
BRANCH  40  42
HETATM   42  O8  UNL     1      -2.116   3.767  10.713  1.00  0.00    -0.776 OA
HETATM   43  H45 UNL     1      -1.874   2.906  10.312  1.00  0.00     0.167 HD
ENDBRANCH  40  42
ENDBRANCH  39  40
ENDBRANCH  38  39
ENDBRANCH  37  38
ENDBRANCH  36  37
ENDBRANCH  35  36
ENDBRANCH  33  35
ENDBRANCH  30  31
ENDBRANCH  29  30
ENDBRANCH  27  29
ENDBRANCH  26  27
ENDBRANCH  25  26
ENDBRANCH  23  25
ENDBRANCH  20  23
TORSDOF 15
ENDMDL
