MODEL 1
REMARK minimizedAffinity -8.72055912
REMARK  7 active torsions:
REMARK  status: ('A' for Active; 'I' for Inactive)
REMARK    1  A    between atoms: C3_4  and  O2_5 
REMARK    2  A    between atoms: O2_5  and  C4_6 
REMARK    3  A    between atoms: C4_6  and  C5_7 
REMARK    4  A    between atoms: N1_15  and  C13_16 
REMARK    5  A    between atoms: N3_24  and  C19_25 
REMARK    6  A    between atoms: C19_25  and  C20_26 
REMARK    7  A    between atoms: C20_26  and  N4_27 
ROOT
HETATM    1  C13 UNL     1       0.106  51.799 -18.707  1.00  0.00     0.043 A 
HETATM    2  C14 UNL     1      -0.454  50.896 -19.624  1.00  0.00     0.032 A 
HETATM    3  C15 UNL     1      -0.394  51.090 -21.014  1.00  0.00     0.034 A 
HETATM    4  C16 UNL     1       0.255  52.238 -21.477  1.00  0.00     0.062 A 
HETATM    5  C17 UNL     1       0.829  53.159 -20.610  1.00  0.00     0.011 A 
HETATM    6  C18 UNL     1       1.389  54.144 -21.453  1.00  0.00     0.121 A 
HETATM    7  N2  UNL     1       1.192  53.888 -22.749  1.00  0.00    -0.308 N 
ATOM      8  H2  UNL     1       1.497  54.433 -23.554  1.00  0.00     0.186 HD
HETATM    9  N3  UNL     1       0.492  52.732 -22.738  1.00  0.00    -0.290 N 
HETATM   10  C25 UNL     1       0.754  52.944 -19.219  1.00  0.00     0.045 A 
ENDROOT
BRANCH   1  11
HETATM   11  N1  UNL     1       0.013  51.586 -17.275  1.00  0.00    -0.290 N 
HETATM   12  C1  UNL     1       1.056  52.027 -16.426  1.00  0.00     0.254 A 
HETATM   13  O1  UNL     1       2.080  52.625 -16.756  1.00  0.00    -0.268 OA
HETATM   14  C2  UNL     1       0.887  51.769 -14.968  1.00  0.00     0.111 A 
HETATM   15  C3  UNL     1      -0.197  51.136 -14.513  1.00  0.00     0.075 A 
HETATM   16  C11 UNL     1      -1.240  50.736 -15.413  1.00  0.00     0.054 A 
HETATM   17  C12 UNL     1      -1.109  50.958 -16.724  1.00  0.00     0.103 A 
BRANCH  15  18
HETATM   18  O2  UNL     1      -0.422  50.914 -13.176  1.00  0.00    -0.346 OA
BRANCH  18  19
HETATM   19  C4  UNL     1      -0.129  52.068 -12.373  1.00  0.00     0.214 C 
BRANCH  19  20
HETATM   20  C5  UNL     1      -1.393  52.686 -11.823  1.00  0.00    -0.034 A 
HETATM   21  C6  UNL     1      -1.324  53.694 -10.850  1.00  0.00     0.009 A 
HETATM   22  C7  UNL     1      -2.490  54.269 -10.342  1.00  0.00     0.001 A 
HETATM   23  C8  UNL     1      -3.734  53.841 -10.801  1.00  0.00     0.000 A 
HETATM   24  C9  UNL     1      -3.815  52.839 -11.767  1.00  0.00     0.001 A 
HETATM   25  C10 UNL     1      -2.650  52.263 -12.277  1.00  0.00     0.009 A 
ENDBRANCH  19  20
ENDBRANCH  18  19
ENDBRANCH  15  18
ENDBRANCH   1  11
BRANCH   9  26
HETATM   26  C19 UNL     1       0.074  52.147 -24.000  1.00  0.00     0.179 C 
BRANCH  26  27
HETATM   27  C20 UNL     1       1.044  52.507 -25.130  1.00  0.00     0.294 C 
BRANCH  27  28
HETATM   28  N4  UNL     1       1.347  51.351 -26.002  1.00  0.00     0.090 N 
HETATM   29  C21 UNL     1       0.130  50.696 -26.512  1.00  0.00     0.272 C 
HETATM   30  C22 UNL     1      -0.292  51.483 -27.746  1.00  0.00     0.032 C 
HETATM   31  C23 UNL     1       0.961  52.218 -28.197  1.00  0.00     0.032 C 
HETATM   32  C24 UNL     1       2.046  51.780 -27.226  1.00  0.00     0.272 C 
ENDBRANCH  27  28
ENDBRANCH  26  27
ENDBRANCH   9  26
TORSDOF 7
ENDMDL
MODEL 2
REMARK minimizedAffinity -8.55321217
REMARK  7 active torsions:
REMARK  status: ('A' for Active; 'I' for Inactive)
REMARK    1  A    between atoms: C3_4  and  O2_5 
REMARK    2  A    between atoms: O2_5  and  C4_6 
REMARK    3  A    between atoms: C4_6  and  C5_7 
REMARK    4  A    between atoms: N1_15  and  C13_16 
REMARK    5  A    between atoms: N3_24  and  C19_25 
REMARK    6  A    between atoms: C19_25  and  C20_26 
REMARK    7  A    between atoms: C20_26  and  N4_27 
ROOT
HETATM    1  C13 UNL     1      -0.054  51.543 -19.186  1.00  0.00     0.043 A 
HETATM    2  C14 UNL     1      -0.535  50.410 -18.510  1.00  0.00     0.032 A 
HETATM    3  C15 UNL     1      -0.244  50.152 -17.160  1.00  0.00     0.034 A 
HETATM    4  C16 UNL     1       0.559  51.076 -16.486  1.00  0.00     0.062 A 
HETATM    5  C17 UNL     1       1.055  52.214 -17.110  1.00  0.00     0.011 A 
HETATM    6  C18 UNL     1       1.789  52.882 -16.105  1.00  0.00     0.121 A 
HETATM    7  N2  UNL     1       1.774  52.234 -14.938  1.00  0.00    -0.308 N 
ATOM      8  H2  UNL     1       2.217  52.504 -14.060  1.00  0.00     0.186 HD
HETATM    9  N3  UNL     1       1.031  51.136 -15.196  1.00  0.00    -0.290 N 
HETATM   10  C25 UNL     1       0.752  52.450 -18.466  1.00  0.00     0.045 A 
ENDROOT
BRANCH   1  11
HETATM   11  N1  UNL     1      -0.352  51.776 -20.587  1.00  0.00    -0.290 N 
HETATM   12  C1  UNL     1       0.624  52.360 -21.429  1.00  0.00     0.254 A 
HETATM   13  O1  UNL     1       1.768  52.693 -21.120  1.00  0.00    -0.268 OA
HETATM   14  C2  UNL     1       0.241  52.569 -22.854  1.00  0.00     0.111 A 
HETATM   15  C3  UNL     1      -0.976  52.229 -23.285  1.00  0.00     0.075 A 
HETATM   16  C11 UNL     1      -1.919  51.613 -22.398  1.00  0.00     0.054 A 
HETATM   17  C12 UNL     1      -1.596  51.415 -21.116  1.00  0.00     0.103 A 
BRANCH  15  18
HETATM   18  O2  UNL     1      -1.364  52.359 -24.598  1.00  0.00    -0.346 OA
BRANCH  18  19
HETATM   19  C4  UNL     1      -1.095  51.176 -25.367  1.00  0.00     0.214 C 
BRANCH  19  20
HETATM   20  C5  UNL     1       0.053  51.397 -26.324  1.00  0.00    -0.034 A 
HETATM   21  C6  UNL     1       1.379  51.266 -25.885  1.00  0.00     0.009 A 
HETATM   22  C7  UNL     1       2.440  51.467 -26.767  1.00  0.00     0.001 A 
HETATM   23  C8  UNL     1       2.188  51.802 -28.096  1.00  0.00     0.000 A 
HETATM   24  C9  UNL     1       0.875  51.936 -28.545  1.00  0.00     0.001 A 
HETATM   25  C10 UNL     1      -0.189  51.735 -27.664  1.00  0.00     0.009 A 
ENDBRANCH  19  20
ENDBRANCH  18  19
ENDBRANCH  15  18
ENDBRANCH   1  11
BRANCH   9  26
HETATM   26  C19 UNL     1       0.812  50.166 -14.138  1.00  0.00     0.179 C 
BRANCH  26  27
HETATM   27  C20 UNL     1      -0.573  50.335 -13.505  1.00  0.00     0.294 C 
BRANCH  27  28
HETATM   28  N4  UNL     1      -1.036  51.739 -13.529  1.00  0.00     0.090 N 
HETATM   29  C21 UNL     1      -2.501  51.848 -13.643  1.00  0.00     0.272 C 
HETATM   30  C22 UNL     1      -3.050  51.719 -12.229  1.00  0.00     0.032 C 
HETATM   31  C23 UNL     1      -1.883  52.064 -11.316  1.00  0.00     0.032 C 
HETATM   32  C24 UNL     1      -0.739  52.417 -12.254  1.00  0.00     0.272 C 
ENDBRANCH  27  28
ENDBRANCH  26  27
ENDBRANCH   9  26
TORSDOF 7
ENDMDL
MODEL 3
REMARK minimizedAffinity -8.47553825
REMARK  7 active torsions:
REMARK  status: ('A' for Active; 'I' for Inactive)
REMARK    1  A    between atoms: C3_4  and  O2_5 
REMARK    2  A    between atoms: O2_5  and  C4_6 
REMARK    3  A    between atoms: C4_6  and  C5_7 
REMARK    4  A    between atoms: N1_15  and  C13_16 
REMARK    5  A    between atoms: N3_24  and  C19_25 
REMARK    6  A    between atoms: C19_25  and  C20_26 
REMARK    7  A    between atoms: C20_26  and  N4_27 
ROOT
HETATM    1  C13 UNL     1      -4.037  48.827 -25.107  1.00  0.00     0.043 A 
HETATM    2  C14 UNL     1      -3.191  48.912 -26.224  1.00  0.00     0.032 A 
HETATM    3  C15 UNL     1      -3.597  48.535 -27.514  1.00  0.00     0.034 A 
HETATM    4  C16 UNL     1      -4.903  48.059 -27.665  1.00  0.00     0.062 A 
HETATM    5  C17 UNL     1      -5.779  47.961 -26.592  1.00  0.00     0.011 A 
HETATM    6  C18 UNL     1      -6.977  47.465 -27.152  1.00  0.00     0.121 A 
HETATM    7  N2  UNL     1      -6.884  47.256 -28.468  1.00  0.00    -0.308 N 
ATOM      8  H2  UNL     1      -7.601  46.909 -29.104  1.00  0.00     0.186 HD
HETATM    9  N3  UNL     1      -5.613  47.613 -28.754  1.00  0.00    -0.290 N 
HETATM   10  C25 UNL     1      -5.347  48.343 -25.306  1.00  0.00     0.045 A 
ENDROOT
BRANCH   1  11
HETATM   11  N1  UNL     1      -3.586  49.204 -23.780  1.00  0.00    -0.290 N 
HETATM   12  C1  UNL     1      -3.947  50.462 -23.242  1.00  0.00     0.254 A 
HETATM   13  O1  UNL     1      -4.656  51.319 -23.770  1.00  0.00    -0.268 OA
HETATM   14  C2  UNL     1      -3.443  50.775 -21.876  1.00  0.00     0.111 A 
HETATM   15  C3  UNL     1      -2.676  49.902 -21.219  1.00  0.00     0.075 A 
HETATM   16  C11 UNL     1      -2.363  48.627 -21.797  1.00  0.00     0.054 A 
HETATM   17  C12 UNL     1      -2.806  48.325 -23.021  1.00  0.00     0.103 A 
BRANCH  15  18
HETATM   18  O2  UNL     1      -2.223  50.123 -19.940  1.00  0.00    -0.346 OA
BRANCH  18  19
HETATM   19  C4  UNL     1      -0.791  50.070 -19.850  1.00  0.00     0.214 C 
BRANCH  19  20
HETATM   20  C5  UNL     1      -0.173  51.410 -20.174  1.00  0.00    -0.034 A 
HETATM   21  C6  UNL     1       0.473  51.614 -21.403  1.00  0.00     0.009 A 
HETATM   22  C7  UNL     1       1.042  52.852 -21.706  1.00  0.00     0.001 A 
HETATM   23  C8  UNL     1       0.972  53.895 -20.785  1.00  0.00     0.000 A 
HETATM   24  C9  UNL     1       0.334  53.703 -19.560  1.00  0.00     0.001 A 
HETATM   25  C10 UNL     1      -0.237  52.467 -19.255  1.00  0.00     0.009 A 
ENDBRANCH  19  20
ENDBRANCH  18  19
ENDBRANCH  15  18
ENDBRANCH   1  11
BRANCH   9  26
HETATM   26  C19 UNL     1      -5.138  47.496 -30.122  1.00  0.00     0.179 C 
BRANCH  26  27
HETATM   27  C20 UNL     1      -6.234  47.865 -31.127  1.00  0.00     0.294 C 
BRANCH  27  28
HETATM   28  N4  UNL     1      -6.365  46.865 -32.209  1.00  0.00     0.090 N 
HETATM   29  C21 UNL     1      -6.699  47.479 -33.506  1.00  0.00     0.272 C 
HETATM   30  C22 UNL     1      -5.380  47.930 -34.118  1.00  0.00     0.032 C 
HETATM   31  C23 UNL     1      -4.312  47.105 -33.413  1.00  0.00     0.032 C 
HETATM   32  C24 UNL     1      -5.079  46.193 -32.468  1.00  0.00     0.272 C 
ENDBRANCH  27  28
ENDBRANCH  26  27
ENDBRANCH   9  26
TORSDOF 7
ENDMDL
MODEL 4
REMARK minimizedAffinity -8.4565506
REMARK  7 active torsions:
REMARK  status: ('A' for Active; 'I' for Inactive)
REMARK    1  A    between atoms: C3_4  and  O2_5 
REMARK    2  A    between atoms: O2_5  and  C4_6 
REMARK    3  A    between atoms: C4_6  and  C5_7 
REMARK    4  A    between atoms: N1_15  and  C13_16 
REMARK    5  A    between atoms: N3_24  and  C19_25 
REMARK    6  A    between atoms: C19_25  and  C20_26 
REMARK    7  A    between atoms: C20_26  and  N4_27 
ROOT
HETATM    1  C13 UNL     1      -0.292  51.460 -18.429  1.00  0.00     0.043 A 
HETATM    2  C14 UNL     1      -0.500  50.542 -19.471  1.00  0.00     0.032 A 
HETATM    3  C15 UNL     1      -0.200  50.834 -20.811  1.00  0.00     0.034 A 
HETATM    4  C16 UNL     1       0.326  52.098 -21.093  1.00  0.00     0.062 A 
HETATM    5  C17 UNL     1       0.555  53.040 -20.097  1.00  0.00     0.011 A 
HETATM    6  C18 UNL     1       1.097  54.154 -20.775  1.00  0.00     0.121 A 
HETATM    7  N2  UNL     1       1.206  53.955 -22.091  1.00  0.00    -0.308 N 
ATOM      8  H2  UNL     1       1.568  54.593 -22.798  1.00  0.00     0.186 HD
HETATM    9  N3  UNL     1       0.722  52.705 -22.261  1.00  0.00    -0.290 N 
HETATM   10  C25 UNL     1       0.243  52.724 -18.759  1.00  0.00     0.045 A 
ENDROOT
BRANCH   1  11
HETATM   11  N1  UNL     1      -0.630  51.142 -17.055  1.00  0.00    -0.290 N 
HETATM   12  C1  UNL     1      -1.987  51.080 -16.657  1.00  0.00     0.254 A 
HETATM   13  O1  UNL     1      -2.978  51.245 -17.368  1.00  0.00    -0.268 OA
HETATM   14  C2  UNL     1      -2.251  50.749 -15.229  1.00  0.00     0.111 A 
HETATM   15  C3  UNL     1      -1.240  50.541 -14.382  1.00  0.00     0.075 A 
HETATM   16  C11 UNL     1       0.117  50.586 -14.842  1.00  0.00     0.054 A 
HETATM   17  C12 UNL     1       0.378  50.881 -16.120  1.00  0.00     0.103 A 
BRANCH  15  18
HETATM   18  O2  UNL     1      -1.430  50.189 -13.067  1.00  0.00    -0.346 OA
BRANCH  18  19
HETATM   19  C4  UNL     1      -0.817  51.116 -12.158  1.00  0.00     0.214 C 
BRANCH  19  20
HETATM   20  C5  UNL     1      -1.831  52.090 -11.604  1.00  0.00    -0.034 A 
HETATM   21  C6  UNL     1      -1.413  53.299 -11.030  1.00  0.00     0.009 A 
HETATM   22  C7  UNL     1      -2.347  54.201 -10.520  1.00  0.00     0.001 A 
HETATM   23  C8  UNL     1      -3.707  53.903 -10.578  1.00  0.00     0.000 A 
HETATM   24  C9  UNL     1      -4.135  52.703 -11.145  1.00  0.00     0.001 A 
HETATM   25  C10 UNL     1      -3.202  51.800 -11.656  1.00  0.00     0.009 A 
ENDBRANCH  19  20
ENDBRANCH  18  19
ENDBRANCH  15  18
ENDBRANCH   1  11
BRANCH   9  26
HETATM   26  C19 UNL     1       0.666  52.146 -23.601  1.00  0.00     0.179 C 
BRANCH  26  27
HETATM   27  C20 UNL     1       0.615  53.248 -24.664  1.00  0.00     0.294 C 
BRANCH  27  28
HETATM   28  N4  UNL     1      -0.415  52.991 -25.693  1.00  0.00     0.090 N 
HETATM   29  C21 UNL     1       0.022  53.393 -27.041  1.00  0.00     0.272 C 
HETATM   30  C22 UNL     1       0.828  52.225 -27.594  1.00  0.00     0.032 C 
HETATM   31  C23 UNL     1       0.390  51.017 -26.778  1.00  0.00     0.032 C 
HETATM   32  C24 UNL     1      -0.677  51.547 -25.832  1.00  0.00     0.272 C 
ENDBRANCH  27  28
ENDBRANCH  26  27
ENDBRANCH   9  26
TORSDOF 7
ENDMDL
MODEL 5
REMARK minimizedAffinity -8.45351124
REMARK  7 active torsions:
REMARK  status: ('A' for Active; 'I' for Inactive)
REMARK    1  A    between atoms: C3_4  and  O2_5 
REMARK    2  A    between atoms: O2_5  and  C4_6 
REMARK    3  A    between atoms: C4_6  and  C5_7 
REMARK    4  A    between atoms: N1_15  and  C13_16 
REMARK    5  A    between atoms: N3_24  and  C19_25 
REMARK    6  A    between atoms: C19_25  and  C20_26 
REMARK    7  A    between atoms: C20_26  and  N4_27 
ROOT
HETATM    1  C13 UNL     1       0.263  51.620 -18.767  1.00  0.00     0.043 A 
HETATM    2  C14 UNL     1       0.905  52.612 -18.010  1.00  0.00     0.032 A 
HETATM    3  C15 UNL     1       1.222  52.445 -16.652  1.00  0.00     0.034 A 
HETATM    4  C16 UNL     1       0.871  51.232 -16.053  1.00  0.00     0.062 A 
HETATM    5  C17 UNL     1       0.238  50.217 -16.761  1.00  0.00     0.011 A 
HETATM    6  C18 UNL     1       0.077  49.173 -15.823  1.00  0.00     0.121 A 
HETATM    7  N2  UNL     1       0.556  49.484 -14.617  1.00  0.00    -0.308 N 
ATOM      8  H2  UNL     1       0.568  48.910 -13.775  1.00  0.00     0.186 HD
HETATM    9  N3  UNL     1       1.023  50.742 -14.778  1.00  0.00    -0.290 N 
HETATM   10  C25 UNL     1      -0.071  50.409 -18.123  1.00  0.00     0.045 A 
ENDROOT
BRANCH   1  11
HETATM   11  N1  UNL     1      -0.072  51.825 -20.164  1.00  0.00    -0.290 N 
HETATM   12  C1  UNL     1       0.800  52.566 -20.997  1.00  0.00     0.254 A 
HETATM   13  O1  UNL     1       1.880  53.067 -20.684  1.00  0.00    -0.268 OA
HETATM   14  C2  UNL     1       0.385  52.734 -22.418  1.00  0.00     0.111 A 
HETATM   15  C3  UNL     1      -0.765  52.216 -22.855  1.00  0.00     0.075 A 
HETATM   16  C11 UNL     1      -1.599  51.448 -21.977  1.00  0.00     0.054 A 
HETATM   17  C12 UNL     1      -1.246  51.283 -20.698  1.00  0.00     0.103 A 
BRANCH  15  18
HETATM   18  O2  UNL     1      -1.171  52.304 -24.165  1.00  0.00    -0.346 OA
BRANCH  18  19
HETATM   19  C4  UNL     1      -0.910  51.099 -24.901  1.00  0.00     0.214 C 
BRANCH  19  20
HETATM   20  C5  UNL     1       0.079  51.344 -26.017  1.00  0.00    -0.034 A 
HETATM   21  C6  UNL     1       1.456  51.384 -25.748  1.00  0.00     0.009 A 
HETATM   22  C7  UNL     1       2.372  51.608 -26.777  1.00  0.00     0.001 A 
HETATM   23  C8  UNL     1       1.921  51.796 -28.082  1.00  0.00     0.000 A 
HETATM   24  C9  UNL     1       0.556  51.761 -28.361  1.00  0.00     0.001 A 
HETATM   25  C10 UNL     1      -0.362  51.536 -27.334  1.00  0.00     0.009 A 
ENDBRANCH  19  20
ENDBRANCH  18  19
ENDBRANCH  15  18
ENDBRANCH   1  11
BRANCH   9  26
HETATM   26  C19 UNL     1       1.613  51.428 -13.641  1.00  0.00     0.179 C 
BRANCH  26  27
HETATM   27  C20 UNL     1       0.638  52.442 -13.034  1.00  0.00     0.294 C 
BRANCH  27  28
HETATM   28  N4  UNL     1       0.412  52.210 -11.591  1.00  0.00     0.090 N 
HETATM   29  C21 UNL     1       1.392  52.915 -10.747  1.00  0.00     0.272 C 
HETATM   30  C22 UNL     1       0.865  54.334 -10.575  1.00  0.00     0.032 C 
HETATM   31  C23 UNL     1      -0.624  54.245 -10.876  1.00  0.00     0.032 C 
HETATM   32  C24 UNL     1      -0.881  52.773 -11.160  1.00  0.00     0.272 C 
ENDBRANCH  27  28
ENDBRANCH  26  27
ENDBRANCH   9  26
TORSDOF 7
ENDMDL
MODEL 6
REMARK minimizedAffinity -8.25308418
REMARK  7 active torsions:
REMARK  status: ('A' for Active; 'I' for Inactive)
REMARK    1  A    between atoms: C3_4  and  O2_5 
REMARK    2  A    between atoms: O2_5  and  C4_6 
REMARK    3  A    between atoms: C4_6  and  C5_7 
REMARK    4  A    between atoms: N1_15  and  C13_16 
REMARK    5  A    between atoms: N3_24  and  C19_25 
REMARK    6  A    between atoms: C19_25  and  C20_26 
REMARK    7  A    between atoms: C20_26  and  N4_27 
ROOT
HETATM    1  C13 UNL     1      -2.853  49.445 -24.587  1.00  0.00     0.043 A 
HETATM    2  C14 UNL     1      -2.354  49.405 -25.898  1.00  0.00     0.032 A 
HETATM    3  C15 UNL     1      -3.107  48.927 -26.983  1.00  0.00     0.034 A 
HETATM    4  C16 UNL     1      -4.403  48.476 -26.718  1.00  0.00     0.062 A 
HETATM    5  C17 UNL     1      -4.944  48.500 -25.439  1.00  0.00     0.011 A 
HETATM    6  C18 UNL     1      -6.252  47.990 -25.594  1.00  0.00     0.121 A 
HETATM    7  N2  UNL     1      -6.532  47.662 -26.857  1.00  0.00    -0.308 N 
ATOM      8  H2  UNL     1      -7.400  47.281 -27.233  1.00  0.00     0.186 HD
HETATM    9  N3  UNL     1      -5.392  47.955 -27.519  1.00  0.00    -0.290 N 
HETATM   10  C25 UNL     1      -4.168  48.983 -24.366  1.00  0.00     0.045 A 
ENDROOT
BRANCH   1  11
HETATM   11  N1  UNL     1      -2.048  49.926 -23.480  1.00  0.00    -0.290 N 
HETATM   12  C1  UNL     1      -1.773  49.073 -22.384  1.00  0.00     0.254 A 
HETATM   13  O1  UNL     1      -2.124  47.902 -22.248  1.00  0.00    -0.268 OA
HETATM   14  C2  UNL     1      -0.940  49.642 -21.287  1.00  0.00     0.111 A 
HETATM   15  C3  UNL     1      -0.502  50.902 -21.350  1.00  0.00     0.075 A 
HETATM   16  C11 UNL     1      -0.784  51.715 -22.497  1.00  0.00     0.054 A 
HETATM   17  C12 UNL     1      -1.528  51.225 -23.494  1.00  0.00     0.103 A 
BRANCH  15  18
HETATM   18  O2  UNL     1       0.305  51.458 -20.387  1.00  0.00    -0.346 OA
BRANCH  18  19
HETATM   19  C4  UNL     1      -0.441  51.931 -19.255  1.00  0.00     0.214 C 
BRANCH  19  20
HETATM   20  C5  UNL     1       0.076  51.329 -17.970  1.00  0.00    -0.034 A 
HETATM   21  C6  UNL     1      -0.292  50.027 -17.598  1.00  0.00     0.009 A 
HETATM   22  C7  UNL     1       0.187  49.467 -16.413  1.00  0.00     0.001 A 
HETATM   23  C8  UNL     1       1.036  50.202 -15.588  1.00  0.00     0.000 A 
HETATM   24  C9  UNL     1       1.407  51.497 -15.946  1.00  0.00     0.001 A 
HETATM   25  C10 UNL     1       0.930  52.059 -17.131  1.00  0.00     0.009 A 
ENDBRANCH  19  20
ENDBRANCH  18  19
ENDBRANCH  15  18
ENDBRANCH   1  11
BRANCH   9  26
HETATM   26  C19 UNL     1      -5.319  47.703 -28.948  1.00  0.00     0.179 C 
BRANCH  26  27
HETATM   27  C20 UNL     1      -6.599  48.153 -29.660  1.00  0.00     0.294 C 
BRANCH  27  28
HETATM   28  N4  UNL     1      -7.195  47.078 -30.481  1.00  0.00     0.090 N 
HETATM   29  C21 UNL     1      -8.642  46.928 -30.249  1.00  0.00     0.272 C 
HETATM   30  C22 UNL     1      -9.326  47.953 -31.144  1.00  0.00     0.032 C 
HETATM   31  C23 UNL     1      -8.305  48.284 -32.223  1.00  0.00     0.032 C 
HETATM   32  C24 UNL     1      -7.108  47.397 -31.917  1.00  0.00     0.272 C 
ENDBRANCH  27  28
ENDBRANCH  26  27
ENDBRANCH   9  26
TORSDOF 7
ENDMDL
MODEL 7
REMARK minimizedAffinity -8.24347305
REMARK  7 active torsions:
REMARK  status: ('A' for Active; 'I' for Inactive)
REMARK    1  A    between atoms: C3_4  and  O2_5 
REMARK    2  A    between atoms: O2_5  and  C4_6 
REMARK    3  A    between atoms: C4_6  and  C5_7 
REMARK    4  A    between atoms: N1_15  and  C13_16 
REMARK    5  A    between atoms: N3_24  and  C19_25 
REMARK    6  A    between atoms: C19_25  and  C20_26 
REMARK    7  A    between atoms: C20_26  and  N4_27 
ROOT
HETATM    1  C13 UNL     1      -0.198  51.497 -19.216  1.00  0.00     0.043 A 
HETATM    2  C14 UNL     1      -0.732  50.390 -18.537  1.00  0.00     0.032 A 
HETATM    3  C15 UNL     1      -0.467  50.131 -17.183  1.00  0.00     0.034 A 
HETATM    4  C16 UNL     1       0.367  51.026 -16.506  1.00  0.00     0.062 A 
HETATM    5  C17 UNL     1       0.915  52.138 -17.133  1.00  0.00     0.011 A 
HETATM    6  C18 UNL     1       1.665  52.783 -16.124  1.00  0.00     0.121 A 
HETATM    7  N2  UNL     1       1.611  52.145 -14.953  1.00  0.00    -0.308 N 
ATOM      8  H2  UNL     1       2.055  52.403 -14.072  1.00  0.00     0.186 HD
HETATM    9  N3  UNL     1       0.827  51.076 -15.212  1.00  0.00    -0.290 N 
HETATM   10  C25 UNL     1       0.636  52.376 -18.493  1.00  0.00     0.045 A 
ENDROOT
BRANCH   1  11
HETATM   11  N1  UNL     1      -0.471  51.732 -20.622  1.00  0.00    -0.290 N 
HETATM   12  C1  UNL     1       0.519  52.320 -21.445  1.00  0.00     0.254 A 
HETATM   13  O1  UNL     1       1.657  52.653 -21.115  1.00  0.00    -0.268 OA
HETATM   14  C2  UNL     1       0.161  52.530 -22.876  1.00  0.00     0.111 A 
HETATM   15  C3  UNL     1      -1.047  52.188 -23.330  1.00  0.00     0.075 A 
HETATM   16  C11 UNL     1      -2.005  51.569 -22.461  1.00  0.00     0.054 A 
HETATM   17  C12 UNL     1      -1.704  51.370 -21.174  1.00  0.00     0.103 A 
BRANCH  15  18
HETATM   18  O2  UNL     1      -1.411  52.320 -24.649  1.00  0.00    -0.346 OA
BRANCH  18  19
HETATM   19  C4  UNL     1      -1.117  51.142 -25.417  1.00  0.00     0.214 C 
BRANCH  19  20
HETATM   20  C5  UNL     1       0.031  51.384 -26.369  1.00  0.00    -0.034 A 
HETATM   21  C6  UNL     1       1.357  51.260 -25.926  1.00  0.00     0.009 A 
HETATM   22  C7  UNL     1       2.420  51.481 -26.803  1.00  0.00     0.001 A 
HETATM   23  C8  UNL     1       2.168  51.827 -28.129  1.00  0.00     0.000 A 
HETATM   24  C9  UNL     1       0.855  51.954 -28.580  1.00  0.00     0.001 A 
HETATM   25  C10 UNL     1      -0.210  51.734 -27.705  1.00  0.00     0.009 A 
ENDBRANCH  19  20
ENDBRANCH  18  19
ENDBRANCH  15  18
ENDBRANCH   1  11
BRANCH   9  26
HETATM   26  C19 UNL     1       0.556  50.123 -14.149  1.00  0.00     0.179 C 
BRANCH  26  27
HETATM   27  C20 UNL     1       1.053  50.642 -12.795  1.00  0.00     0.294 C 
BRANCH  27  28
HETATM   28  N4  UNL     1       1.815  49.619 -12.046  1.00  0.00     0.090 N 
HETATM   29  C21 UNL     1       2.218  48.484 -12.893  1.00  0.00     0.272 C 
HETATM   30  C22 UNL     1       3.509  48.903 -13.583  1.00  0.00     0.032 C 
HETATM   31  C23 UNL     1       4.072  50.027 -12.726  1.00  0.00     0.032 C 
HETATM   32  C24 UNL     1       3.099  50.162 -11.565  1.00  0.00     0.272 C 
ENDBRANCH  27  28
ENDBRANCH  26  27
ENDBRANCH   9  26
TORSDOF 7
ENDMDL
MODEL 8
REMARK minimizedAffinity -8.17529869
REMARK  7 active torsions:
REMARK  status: ('A' for Active; 'I' for Inactive)
REMARK    1  A    between atoms: C3_4  and  O2_5 
REMARK    2  A    between atoms: O2_5  and  C4_6 
REMARK    3  A    between atoms: C4_6  and  C5_7 
REMARK    4  A    between atoms: N1_15  and  C13_16 
REMARK    5  A    between atoms: N3_24  and  C19_25 
REMARK    6  A    between atoms: C19_25  and  C20_26 
REMARK    7  A    between atoms: C20_26  and  N4_27 
ROOT
HETATM    1  C13 UNL     1      -4.197  48.936 -23.733  1.00  0.00     0.043 A 
HETATM    2  C14 UNL     1      -5.522  48.475 -23.799  1.00  0.00     0.032 A 
HETATM    3  C15 UNL     1      -6.130  48.083 -25.003  1.00  0.00     0.034 A 
HETATM    4  C16 UNL     1      -5.363  48.165 -26.169  1.00  0.00     0.062 A 
HETATM    5  C17 UNL     1      -4.046  48.610 -26.154  1.00  0.00     0.011 A 
HETATM    6  C18 UNL     1      -3.626  48.527 -27.500  1.00  0.00     0.121 A 
HETATM    7  N2  UNL     1      -4.584  48.075 -28.314  1.00  0.00    -0.308 N 
ATOM      8  H2  UNL     1      -4.536  47.920 -29.320  1.00  0.00     0.186 HD
HETATM    9  N3  UNL     1      -5.632  47.873 -27.485  1.00  0.00    -0.290 N 
HETATM   10  C25 UNL     1      -3.459  49.000 -24.934  1.00  0.00     0.045 A 
ENDROOT
BRANCH   1  11
HETATM   11  N1  UNL     1      -3.599  49.354 -22.480  1.00  0.00    -0.290 N 
HETATM   12  C1  UNL     1      -2.762  48.464 -21.764  1.00  0.00     0.254 A 
HETATM   13  O1  UNL     1      -2.434  47.325 -22.096  1.00  0.00    -0.268 OA
HETATM   14  C2  UNL     1      -2.187  48.968 -20.485  1.00  0.00     0.111 A 
HETATM   15  C3  UNL     1      -2.477  50.196 -20.049  1.00  0.00     0.075 A 
HETATM   16  C11 UNL     1      -3.307  51.070 -20.826  1.00  0.00     0.054 A 
HETATM   17  C12 UNL     1      -3.832  50.639 -21.977  1.00  0.00     0.103 A 
BRANCH  15  18
HETATM   18  O2  UNL     1      -1.938  50.724 -18.899  1.00  0.00    -0.346 OA
BRANCH  18  19
HETATM   19  C4  UNL     1      -0.502  50.695 -18.906  1.00  0.00     0.214 C 
BRANCH  19  20
HETATM   20  C5  UNL     1       0.061  51.775 -19.799  1.00  0.00    -0.034 A 
HETATM   21  C6  UNL     1       0.161  53.097 -19.338  1.00  0.00     0.009 A 
HETATM   22  C7  UNL     1       0.682  54.096 -20.161  1.00  0.00     0.001 A 
HETATM   23  C8  UNL     1       1.108  53.785 -21.451  1.00  0.00     0.000 A 
HETATM   24  C9  UNL     1       1.013  52.476 -21.920  1.00  0.00     0.001 A 
HETATM   25  C10 UNL     1       0.492  51.474 -21.100  1.00  0.00     0.009 A 
ENDBRANCH  19  20
ENDBRANCH  18  19
ENDBRANCH  15  18
ENDBRANCH   1  11
BRANCH   9  26
HETATM   26  C19 UNL     1      -6.886  47.390 -28.036  1.00  0.00     0.179 C 
BRANCH  26  27
HETATM   27  C20 UNL     1      -7.076  47.857 -29.483  1.00  0.00     0.294 C 
BRANCH  27  28
HETATM   28  N4  UNL     1      -8.282  48.696 -29.650  1.00  0.00     0.090 N 
HETATM   29  C21 UNL     1      -8.529  49.053 -31.058  1.00  0.00     0.272 C 
HETATM   30  C22 UNL     1      -9.290  47.884 -31.668  1.00  0.00     0.032 C 
HETATM   31  C23 UNL     1      -9.902  47.147 -30.486  1.00  0.00     0.032 C 
HETATM   32  C24 UNL     1      -9.499  47.958 -29.264  1.00  0.00     0.272 C 
ENDBRANCH  27  28
ENDBRANCH  26  27
ENDBRANCH   9  26
TORSDOF 7
ENDMDL
MODEL 9
REMARK minimizedAffinity -8.08918095
REMARK  7 active torsions:
REMARK  status: ('A' for Active; 'I' for Inactive)
REMARK    1  A    between atoms: C3_4  and  O2_5 
REMARK    2  A    between atoms: O2_5  and  C4_6 
REMARK    3  A    between atoms: C4_6  and  C5_7 
REMARK    4  A    between atoms: N1_15  and  C13_16 
REMARK    5  A    between atoms: N3_24  and  C19_25 
REMARK    6  A    between atoms: C19_25  and  C20_26 
REMARK    7  A    between atoms: C20_26  and  N4_27 
ROOT
HETATM    1  C13 UNL     1      -3.214  48.787 -24.352  1.00  0.00     0.043 A 
HETATM    2  C14 UNL     1      -2.559  48.780 -25.593  1.00  0.00     0.032 A 
HETATM    3  C15 UNL     1      -3.224  48.512 -26.801  1.00  0.00     0.034 A 
HETATM    4  C16 UNL     1      -4.594  48.244 -26.737  1.00  0.00     0.062 A 
HETATM    5  C17 UNL     1      -5.289  48.245 -25.533  1.00  0.00     0.011 A 
HETATM    6  C18 UNL     1      -6.624  47.955 -25.890  1.00  0.00     0.121 A 
HETATM    7  N2  UNL     1      -6.780  47.778 -27.205  1.00  0.00    -0.308 N 
ATOM      8  H2  UNL     1      -7.636  47.565 -27.716  1.00  0.00     0.186 HD
HETATM    9  N3  UNL     1      -5.533  47.947 -27.696  1.00  0.00    -0.290 N 
HETATM   10  C25 UNL     1      -4.599  48.514 -24.334  1.00  0.00     0.045 A 
ENDROOT
BRANCH   1  11
HETATM   11  N1  UNL     1      -2.501  49.047 -23.116  1.00  0.00    -0.290 N 
HETATM   12  C1  UNL     1      -2.179  50.377 -22.752  1.00  0.00     0.254 A 
HETATM   13  O1  UNL     1      -2.464  51.405 -23.367  1.00  0.00    -0.268 OA
HETATM   14  C2  UNL     1      -1.444  50.561 -21.469  1.00  0.00     0.111 A 
HETATM   15  C3  UNL     1      -1.101  49.505 -20.727  1.00  0.00     0.075 A 
HETATM   16  C11 UNL     1      -1.476  48.180 -21.125  1.00  0.00     0.054 A 
HETATM   17  C12 UNL     1      -2.138  47.992 -22.272  1.00  0.00     0.103 A 
BRANCH  15  18
HETATM   18  O2  UNL     1      -0.462  49.623 -19.515  1.00  0.00    -0.346 OA
BRANCH  18  19
HETATM   19  C4  UNL     1      -0.694  50.899 -18.898  1.00  0.00     0.214 C 
BRANCH  19  20
HETATM   20  C5  UNL     1       0.163  51.073 -17.666  1.00  0.00    -0.034 A 
HETATM   21  C6  UNL     1       0.900  52.251 -17.474  1.00  0.00     0.009 A 
HETATM   22  C7  UNL     1       1.691  52.414 -16.336  1.00  0.00     0.001 A 
HETATM   23  C8  UNL     1       1.753  51.403 -15.380  1.00  0.00     0.000 A 
HETATM   24  C9  UNL     1       1.026  50.227 -15.559  1.00  0.00     0.001 A 
HETATM   25  C10 UNL     1       0.234  50.061 -16.697  1.00  0.00     0.009 A 
ENDBRANCH  19  20
ENDBRANCH  18  19
ENDBRANCH  15  18
ENDBRANCH   1  11
BRANCH   9  26
HETATM   26  C19 UNL     1      -5.310  47.805 -29.124  1.00  0.00     0.179 C 
BRANCH  26  27
HETATM   27  C20 UNL     1      -6.602  48.037 -29.916  1.00  0.00     0.294 C 
BRANCH  27  28
HETATM   28  N4  UNL     1      -6.340  48.467 -31.306  1.00  0.00     0.090 N 
HETATM   29  C21 UNL     1      -5.070  47.937 -31.831  1.00  0.00     0.272 C 
HETATM   30  C22 UNL     1      -5.374  46.537 -32.349  1.00  0.00     0.032 C 
HETATM   31  C23 UNL     1      -6.877  46.517 -32.582  1.00  0.00     0.032 C 
HETATM   32  C24 UNL     1      -7.350  47.918 -32.230  1.00  0.00     0.272 C 
ENDBRANCH  27  28
ENDBRANCH  26  27
ENDBRANCH   9  26
TORSDOF 7
ENDMDL
