MODEL 1
REMARK minimizedAffinity -8.10493851
REMARK CNNscore 0.530628204
REMARK CNNaffinity 6.9199357
REMARK  11 active torsions:
REMARK  status: ('A' for Active; 'I' for Inactive)
REMARK    1  A    between atoms: O1_2  and  C2_3 
REMARK    2  A    between atoms: C4_5  and  O2_6 
REMARK    3  A    between atoms: O2_6  and  C5_7 
REMARK    4  A    between atoms: C8_10  and  C9_11 
REMARK    5  A    between atoms: N1_12  and  C10_14 
REMARK    6  A    between atoms: C10_14  and  C11_15 
REMARK    7  A    between atoms: C11_15  and  O3_16 
REMARK    8  A    between atoms: C17_22  and  C18_23 
REMARK    9  A    between atoms: C24_31  and  O6_32 
REMARK   10  A    between atoms: C28_36  and  O7_37 
REMARK   11  A    between atoms: C32_42  and  O9_43 
ROOT
HETATM    1  C5  UNL     1      -2.787  50.042 -22.756  1.00  0.00     0.127 C 
HETATM    2  C6  UNL     1      -3.384  50.923 -21.668  1.00  0.00     0.033 C 
HETATM    3  C7  UNL     1      -4.829  50.559 -21.323  1.00  0.00     0.021 C 
HETATM    4  C8  UNL     1      -5.253  49.090 -21.657  1.00  0.00     0.026 C 
HETATM    5  C12 UNL     1      -6.471  48.703 -20.710  1.00  0.00     0.009 C 
HETATM    6  C13 UNL     1      -7.812  48.431 -21.416  1.00  0.00     0.007 C 
HETATM    7  C14 UNL     1      -8.945  48.262 -20.404  1.00  0.00     0.013 C 
HETATM    8  C15 UNL     1      -8.698  47.107 -19.407  1.00  0.00    -0.005 C 
HETATM    9  C16 UNL     1      -8.862  45.763 -20.143  1.00  0.00     0.019 C 
HETATM   10  C17 UNL     1      -9.649  47.189 -18.166  1.00  0.00     0.028 C 
HETATM   11  C22 UNL     1      -9.003  48.260 -17.266  1.00  0.00     0.013 C 
HETATM   12  C23 UNL     1      -7.519  48.315 -17.644  1.00  0.00     0.040 C 
HETATM   13  C24 UNL     1      -7.301  47.245 -18.730  1.00  0.00     0.070 C 
HETATM   14  C25 UNL     1      -6.147  47.544 -19.730  1.00  0.00     0.026 C 
HETATM   15  C26 UNL     1      -4.807  47.834 -19.034  1.00  0.00     0.011 C 
HETATM   16  C27 UNL     1      -3.628  47.996 -20.002  1.00  0.00     0.039 C 
HETATM   17  C28 UNL     1      -4.019  48.143 -21.490  1.00  0.00     0.073 C 
HETATM   18  C29 UNL     1      -2.774  48.574 -22.315  1.00  0.00     0.071 C 
ENDROOT
BRANCH   1  19
HETATM   19  O2  UNL     1      -1.470  50.531 -23.026  1.00  0.00    -0.356 OA
BRANCH  19  20
HETATM   20  C4  UNL     1      -1.439  51.785 -23.706  1.00  0.00     0.263 C 
HETATM   21  C3  UNL     1      -0.036  51.981 -24.262  1.00  0.00     0.095 C 
HETATM   22  C2  UNL     1      -0.071  52.886 -25.477  1.00  0.00     0.156 C 
HETATM   23  C32 UNL     1      -0.941  52.251 -26.583  1.00  0.00     0.175 C 
HETATM   24  C30 UNL     1      -2.120  51.432 -26.004  1.00  0.00     0.151 C 
HETATM   25  O8  UNL     1      -2.470  51.858 -24.688  1.00  0.00    -0.354 OA
HETATM   26  C31 UNL     1      -1.886  49.924 -26.065  1.00  0.00     0.042 C 
BRANCH  22  27
HETATM   27  O1  UNL     1       1.293  53.069 -25.899  1.00  0.00    -0.388 OA
HETATM   28  C1  UNL     1       1.932  51.858 -26.284  1.00  0.00     0.202 C 
ENDBRANCH  22  27
BRANCH  23  29
HETATM   29  O9  UNL     1      -1.451  53.333 -27.392  1.00  0.00    -0.390 OA
HETATM   30  H49 UNL     1      -1.993  52.941 -28.099  1.00  0.00     0.210 HD
ENDBRANCH  23  29
ENDBRANCH  19  20
ENDBRANCH   1  19
BRANCH  17  31
HETATM   31  O7  UNL     1      -4.344  46.807 -21.916  1.00  0.00    -0.389 OA
HETATM   32  H41 UNL     1      -4.702  46.882 -22.828  1.00  0.00     0.210 HD
ENDBRANCH  17  31
BRANCH   4  33
HETATM   33  C9  UNL     1      -5.733  49.098 -23.122  1.00  0.00     0.068 C 
HETATM   34  N1  UNL     1      -5.932  48.007 -23.776  1.00  0.00    -0.399 N 
ATOM     35  H1  UNL     1      -5.761  47.087 -23.373  1.00  0.00     0.158 HD
BRANCH  34  36
HETATM   36  C10 UNL     1      -6.425  48.190 -25.149  1.00  0.00     0.144 C 
BRANCH  36  37
HETATM   37  C11 UNL     1      -7.952  48.168 -25.160  1.00  0.00     0.183 C 
BRANCH  37  38
HETATM   38  O3  UNL     1      -8.467  49.491 -25.140  1.00  0.00    -0.399 OA
HETATM   39  H18 UNL     1      -8.259  49.895 -26.003  1.00  0.00     0.209 HD
ENDBRANCH  37  38
ENDBRANCH  36  37
ENDBRANCH  34  36
ENDBRANCH   4  33
BRANCH  13  40
HETATM   40  O6  UNL     1      -7.024  46.008 -18.058  1.00  0.00    -0.389 OA
HETATM   41  H35 UNL     1      -6.207  46.104 -17.544  1.00  0.00     0.210 HD
ENDBRANCH  13  40
BRANCH  10  42
HETATM   42  C18 UNL     1     -11.116  47.382 -18.442  1.00  0.00    -0.045 A 
HETATM   43  C19 UNL     1     -12.156  47.230 -17.620  1.00  0.00     0.087 A 
HETATM   44  C20 UNL     1     -13.364  47.493 -18.394  1.00  0.00     0.283 A 
HETATM   45  O4  UNL     1     -14.494  47.457 -17.945  1.00  0.00    -0.260 OA
HETATM   46  O5  UNL     1     -13.019  47.771 -19.678  1.00  0.00    -0.314 OA
HETATM   47  C21 UNL     1     -11.598  47.729 -19.801  1.00  0.00     0.213 A 
ENDBRANCH  10  42
TORSDOF 11
ENDMDL
MODEL 2
REMARK minimizedAffinity -8.17597103
REMARK CNNscore 0.433304548
REMARK CNNaffinity 6.72025251
REMARK  11 active torsions:
REMARK  status: ('A' for Active; 'I' for Inactive)
REMARK    1  A    between atoms: O1_2  and  C2_3 
REMARK    2  A    between atoms: C4_5  and  O2_6 
REMARK    3  A    between atoms: O2_6  and  C5_7 
REMARK    4  A    between atoms: C8_10  and  C9_11 
REMARK    5  A    between atoms: N1_12  and  C10_14 
REMARK    6  A    between atoms: C10_14  and  C11_15 
REMARK    7  A    between atoms: C11_15  and  O3_16 
REMARK    8  A    between atoms: C17_22  and  C18_23 
REMARK    9  A    between atoms: C24_31  and  O6_32 
REMARK   10  A    between atoms: C28_36  and  O7_37 
REMARK   11  A    between atoms: C32_42  and  O9_43 
ROOT
HETATM    1  C5  UNL     1      -4.369  49.515 -21.990  1.00  0.00     0.127 C 
HETATM    2  C6  UNL     1      -3.618  50.805 -21.686  1.00  0.00     0.033 C 
HETATM    3  C7  UNL     1      -3.413  51.044 -20.190  1.00  0.00     0.021 C 
HETATM    4  C8  UNL     1      -3.450  49.764 -19.290  1.00  0.00     0.026 C 
HETATM    5  C12 UNL     1      -2.628  50.071 -17.963  1.00  0.00     0.009 C 
HETATM    6  C13 UNL     1      -3.439  50.074 -16.655  1.00  0.00     0.007 C 
HETATM    7  C14 UNL     1      -2.592  50.568 -15.482  1.00  0.00     0.013 C 
HETATM    8  C15 UNL     1      -1.327  49.714 -15.247  1.00  0.00    -0.005 C 
HETATM    9  C16 UNL     1      -1.741  48.352 -14.655  1.00  0.00     0.019 C 
HETATM   10  C17 UNL     1      -0.293  50.438 -14.320  1.00  0.00     0.028 C 
HETATM   11  C22 UNL     1       0.414  51.439 -15.253  1.00  0.00     0.013 C 
HETATM   12  C23 UNL     1       0.256  50.898 -16.679  1.00  0.00     0.040 C 
HETATM   13  C24 UNL     1      -0.504  49.563 -16.561  1.00  0.00     0.070 C 
HETATM   14  C25 UNL     1      -1.366  49.183 -17.800  1.00  0.00     0.026 C 
HETATM   15  C26 UNL     1      -0.569  49.194 -19.114  1.00  0.00     0.011 C 
HETATM   16  C27 UNL     1      -1.364  48.690 -20.326  1.00  0.00     0.039 C 
HETATM   17  C28 UNL     1      -2.886  48.547 -20.095  1.00  0.00     0.073 C 
HETATM   18  C29 UNL     1      -3.597  48.304 -21.456  1.00  0.00     0.071 C 
ENDROOT
BRANCH   1  19
HETATM   19  O2  UNL     1      -4.550  49.452 -23.407  1.00  0.00    -0.356 OA
BRANCH  19  20
HETATM   20  C4  UNL     1      -3.381  49.069 -24.131  1.00  0.00     0.263 C 
HETATM   21  C3  UNL     1      -3.819  48.600 -25.511  1.00  0.00     0.095 C 
HETATM   22  C2  UNL     1      -2.700  48.795 -26.514  1.00  0.00     0.156 C 
HETATM   23  C32 UNL     1      -2.332  50.291 -26.611  1.00  0.00     0.175 C 
HETATM   24  C30 UNL     1      -2.502  51.025 -25.259  1.00  0.00     0.151 C 
HETATM   25  O8  UNL     1      -2.427  50.128 -24.152  1.00  0.00    -0.354 OA
HETATM   26  C31 UNL     1      -3.762  51.887 -25.201  1.00  0.00     0.042 C 
BRANCH  22  27
HETATM   27  O1  UNL     1      -3.171  48.271 -27.770  1.00  0.00    -0.388 OA
HETATM   28  C1  UNL     1      -4.564  48.468 -27.977  1.00  0.00     0.202 C 
ENDBRANCH  22  27
BRANCH  23  29
HETATM   29  O9  UNL     1      -0.954  50.360 -27.033  1.00  0.00    -0.390 OA
HETATM   30  H49 UNL     1      -0.715  51.301 -27.107  1.00  0.00     0.210 HD
ENDBRANCH  23  29
ENDBRANCH  19  20
ENDBRANCH   1  19
BRANCH  17  31
HETATM   31  O7  UNL     1      -3.028  47.330 -19.341  1.00  0.00    -0.389 OA
HETATM   32  H41 UNL     1      -3.974  47.268 -19.083  1.00  0.00     0.210 HD
ENDBRANCH  17  31
BRANCH   4  33
HETATM   33  C9  UNL     1      -4.929  49.531 -18.925  1.00  0.00     0.068 C 
HETATM   34  N1  UNL     1      -5.345  48.403 -18.463  1.00  0.00    -0.399 N 
ATOM     35  H1  UNL     1      -4.727  47.601 -18.337  1.00  0.00     0.158 HD
BRANCH  34  36
HETATM   36  C10 UNL     1      -6.776  48.359 -18.131  1.00  0.00     0.144 C 
BRANCH  36  37
HETATM   37  C11 UNL     1      -7.099  47.062 -17.392  1.00  0.00     0.183 C 
BRANCH  37  38
HETATM   38  O3  UNL     1      -7.718  47.343 -16.146  1.00  0.00    -0.399 OA
HETATM   39  H18 UNL     1      -8.606  47.698 -16.338  1.00  0.00     0.209 HD
ENDBRANCH  37  38
ENDBRANCH  36  37
ENDBRANCH  34  36
ENDBRANCH   4  33
BRANCH  13  40
HETATM   40  O6  UNL     1       0.474  48.536 -16.342  1.00  0.00    -0.389 OA
HETATM   41  H35 UNL     1       1.065  48.494 -17.111  1.00  0.00     0.210 HD
ENDBRANCH  13  40
BRANCH  10  42
HETATM   42  C18 UNL     1      -0.819  51.020 -13.034  1.00  0.00    -0.045 A 
HETATM   43  C19 UNL     1      -1.466  50.415 -12.037  1.00  0.00     0.087 A 
HETATM   44  C20 UNL     1      -1.796  51.437 -11.050  1.00  0.00     0.283 A 
HETATM   45  O4  UNL     1      -2.376  51.223 -10.003  1.00  0.00    -0.260 OA
HETATM   46  O5  UNL     1      -1.360  52.644 -11.494  1.00  0.00    -0.314 OA
HETATM   47  C21 UNL     1      -0.715  52.473 -12.756  1.00  0.00     0.213 A 
ENDBRANCH  10  42
TORSDOF 11
ENDMDL
MODEL 3
REMARK minimizedAffinity -7.46296549
REMARK CNNscore 0.401258647
REMARK CNNaffinity 6.6692481
REMARK  11 active torsions:
REMARK  status: ('A' for Active; 'I' for Inactive)
REMARK    1  A    between atoms: O1_2  and  C2_3 
REMARK    2  A    between atoms: C4_5  and  O2_6 
REMARK    3  A    between atoms: O2_6  and  C5_7 
REMARK    4  A    between atoms: C8_10  and  C9_11 
REMARK    5  A    between atoms: N1_12  and  C10_14 
REMARK    6  A    between atoms: C10_14  and  C11_15 
REMARK    7  A    between atoms: C11_15  and  O3_16 
REMARK    8  A    between atoms: C17_22  and  C18_23 
REMARK    9  A    between atoms: C24_31  and  O6_32 
REMARK   10  A    between atoms: C28_36  and  O7_37 
REMARK   11  A    between atoms: C32_42  and  O9_43 
ROOT
HETATM    1  C5  UNL     1      -5.318  45.839 -19.984  1.00  0.00     0.127 C 
HETATM    2  C6  UNL     1      -3.812  45.637 -20.077  1.00  0.00     0.033 C 
HETATM    3  C7  UNL     1      -3.138  46.576 -21.078  1.00  0.00     0.021 C 
HETATM    4  C8  UNL     1      -3.912  47.901 -21.388  1.00  0.00     0.026 C 
HETATM    5  C12 UNL     1      -2.857  48.981 -21.890  1.00  0.00     0.009 C 
HETATM    6  C13 UNL     1      -3.020  49.454 -23.346  1.00  0.00     0.007 C 
HETATM    7  C14 UNL     1      -1.847  50.334 -23.775  1.00  0.00     0.013 C 
HETATM    8  C15 UNL     1      -1.677  51.590 -22.890  1.00  0.00    -0.005 C 
HETATM    9  C16 UNL     1      -2.816  52.582 -23.199  1.00  0.00     0.019 C 
HETATM   10  C17 UNL     1      -0.277  52.262 -23.087  1.00  0.00     0.028 C 
HETATM   11  C22 UNL     1       0.679  51.397 -22.245  1.00  0.00     0.013 C 
HETATM   12  C23 UNL     1      -0.179  50.703 -21.180  1.00  0.00     0.040 C 
HETATM   13  C24 UNL     1      -1.621  51.205 -21.381  1.00  0.00     0.070 C 
HETATM   14  C25 UNL     1      -2.733  50.207 -20.947  1.00  0.00     0.026 C 
HETATM   15  C26 UNL     1      -2.569  49.715 -19.500  1.00  0.00     0.011 C 
HETATM   16  C27 UNL     1      -3.729  48.839 -19.008  1.00  0.00     0.039 C 
HETATM   17  C28 UNL     1      -4.696  48.354 -20.112  1.00  0.00     0.073 C 
HETATM   18  C29 UNL     1      -5.644  47.267 -19.532  1.00  0.00     0.071 C 
ENDROOT
BRANCH   1  19
HETATM   19  O2  UNL     1      -5.825  44.861 -19.073  1.00  0.00    -0.356 OA
BRANCH  19  20
HETATM   20  C4  UNL     1      -5.756  43.519 -19.556  1.00  0.00     0.263 C 
HETATM   21  C3  UNL     1      -6.305  42.603 -18.471  1.00  0.00     0.095 C 
HETATM   22  C2  UNL     1      -6.861  41.334 -19.085  1.00  0.00     0.156 C 
HETATM   23  C32 UNL     1      -8.015  41.677 -20.052  1.00  0.00     0.175 C 
HETATM   24  C30 UNL     1      -7.797  43.032 -20.767  1.00  0.00     0.151 C 
HETATM   25  O8  UNL     1      -6.418  43.396 -20.812  1.00  0.00    -0.354 OA
HETATM   26  C31 UNL     1      -8.657  44.156 -20.192  1.00  0.00     0.042 C 
BRANCH  22  27
HETATM   27  O1  UNL     1      -7.299  40.502 -17.994  1.00  0.00    -0.388 OA
HETATM   28  C1  UNL     1      -6.660  39.232 -17.961  1.00  0.00     0.202 C 
ENDBRANCH  22  27
BRANCH  23  29
HETATM   29  O9  UNL     1      -8.076  40.616 -21.028  1.00  0.00    -0.390 OA
HETATM   30  H49 UNL     1      -8.808  40.817 -21.637  1.00  0.00     0.210 HD
ENDBRANCH  23  29
ENDBRANCH  19  20
ENDBRANCH   1  19
BRANCH  17  31
HETATM   31  O7  UNL     1      -5.521  49.497 -20.402  1.00  0.00    -0.389 OA
HETATM   32  H41 UNL     1      -6.074  49.254 -21.178  1.00  0.00     0.210 HD
ENDBRANCH  17  31
BRANCH   4  33
HETATM   33  C9  UNL     1      -4.889  47.577 -22.535  1.00  0.00     0.068 C 
HETATM   34  N1  UNL     1      -6.001  48.210 -22.679  1.00  0.00    -0.399 N 
ATOM     35  H1  UNL     1      -6.304  48.938 -22.033  1.00  0.00     0.158 HD
BRANCH  34  36
HETATM   36  C10 UNL     1      -6.798  47.804 -23.845  1.00  0.00     0.144 C 
BRANCH  36  37
HETATM   37  C11 UNL     1      -6.040  48.127 -25.131  1.00  0.00     0.183 C 
BRANCH  37  38
HETATM   38  O3  UNL     1      -6.930  48.149 -26.238  1.00  0.00    -0.399 OA
HETATM   39  H18 UNL     1      -7.502  48.932 -26.133  1.00  0.00     0.209 HD
ENDBRANCH  37  38
ENDBRANCH  36  37
ENDBRANCH  34  36
ENDBRANCH   4  33
BRANCH  13  40
HETATM   40  O6  UNL     1      -1.760  52.415 -20.622  1.00  0.00    -0.389 OA
HETATM   41  H35 UNL     1      -1.625  52.215 -19.682  1.00  0.00     0.210 HD
ENDBRANCH  13  40
BRANCH  10  42
HETATM   42  C18 UNL     1       0.165  52.516 -24.504  1.00  0.00    -0.045 A 
HETATM   43  C19 UNL     1       0.744  51.681 -25.368  1.00  0.00     0.087 A 
HETATM   44  C20 UNL     1       1.013  52.436 -26.587  1.00  0.00     0.283 A 
HETATM   45  O4  UNL     1       1.523  51.971 -27.589  1.00  0.00    -0.260 OA
HETATM   46  O5  UNL     1       0.611  53.721 -26.414  1.00  0.00    -0.314 OA
HETATM   47  C21 UNL     1       0.050  53.864 -25.109  1.00  0.00     0.213 A 
ENDBRANCH  10  42
TORSDOF 11
ENDMDL
MODEL 4
REMARK minimizedAffinity -8.16013718
REMARK CNNscore 0.398384571
REMARK CNNaffinity 6.13981104
REMARK  11 active torsions:
REMARK  status: ('A' for Active; 'I' for Inactive)
REMARK    1  A    between atoms: O1_2  and  C2_3 
REMARK    2  A    between atoms: C4_5  and  O2_6 
REMARK    3  A    between atoms: O2_6  and  C5_7 
REMARK    4  A    between atoms: C8_10  and  C9_11 
REMARK    5  A    between atoms: N1_12  and  C10_14 
REMARK    6  A    between atoms: C10_14  and  C11_15 
REMARK    7  A    between atoms: C11_15  and  O3_16 
REMARK    8  A    between atoms: C17_22  and  C18_23 
REMARK    9  A    between atoms: C24_31  and  O6_32 
REMARK   10  A    between atoms: C28_36  and  O7_37 
REMARK   11  A    between atoms: C32_42  and  O9_43 
ROOT
HETATM    1  C5  UNL     1      -8.406  47.296 -19.282  1.00  0.00     0.127 C 
HETATM    2  C6  UNL     1      -8.531  48.710 -19.833  1.00  0.00     0.033 C 
HETATM    3  C7  UNL     1      -7.202  49.466 -19.862  1.00  0.00     0.021 C 
HETATM    4  C8  UNL     1      -5.917  48.572 -19.898  1.00  0.00     0.026 C 
HETATM    5  C12 UNL     1      -4.741  49.427 -20.543  1.00  0.00     0.009 C 
HETATM    6  C13 UNL     1      -3.555  49.747 -19.615  1.00  0.00     0.007 C 
HETATM    7  C14 UNL     1      -2.587  50.727 -20.276  1.00  0.00     0.013 C 
HETATM    8  C15 UNL     1      -2.010  50.202 -21.610  1.00  0.00    -0.005 C 
HETATM    9  C16 UNL     1      -1.004  49.072 -21.313  1.00  0.00     0.019 C 
HETATM   10  C17 UNL     1      -1.342  51.341 -22.451  1.00  0.00     0.028 C 
HETATM   11  C22 UNL     1      -2.529  52.065 -23.115  1.00  0.00     0.013 C 
HETATM   12  C23 UNL     1      -3.685  51.060 -23.163  1.00  0.00     0.040 C 
HETATM   13  C24 UNL     1      -3.150  49.744 -22.568  1.00  0.00     0.070 C 
HETATM   14  C25 UNL     1      -4.220  48.845 -21.884  1.00  0.00     0.026 C 
HETATM   15  C26 UNL     1      -5.417  48.533 -22.797  1.00  0.00     0.011 C 
HETATM   16  C27 UNL     1      -6.417  47.539 -22.191  1.00  0.00     0.039 C 
HETATM   17  C28 UNL     1      -6.224  47.255 -20.684  1.00  0.00     0.073 C 
HETATM   18  C29 UNL     1      -7.449  46.465 -20.143  1.00  0.00     0.071 C 
ENDROOT
BRANCH   1  19
HETATM   19  O2  UNL     1      -9.720  46.734 -19.248  1.00  0.00    -0.356 OA
BRANCH  19  20
HETATM   20  C4  UNL     1     -10.624  47.411 -18.376  1.00  0.00     0.263 C 
HETATM   21  C3  UNL     1     -11.986  47.454 -19.056  1.00  0.00     0.095 C 
HETATM   22  C2  UNL     1     -13.089  47.542 -18.022  1.00  0.00     0.156 C 
HETATM   23  C32 UNL     1     -13.052  46.303 -17.102  1.00  0.00     0.175 C 
HETATM   24  C30 UNL     1     -11.611  45.784 -16.876  1.00  0.00     0.151 C 
HETATM   25  O8  UNL     1     -10.637  46.806 -17.086  1.00  0.00    -0.354 OA
HETATM   26  C31 UNL     1     -11.294  44.530 -17.687  1.00  0.00     0.042 C 
BRANCH  22  27
HETATM   27  O1  UNL     1     -14.330  47.641 -18.745  1.00  0.00    -0.388 OA
HETATM   28  C1  UNL     1     -15.240  48.577 -18.180  1.00  0.00     0.202 C 
ENDBRANCH  22  27
BRANCH  23  29
HETATM   29  O9  UNL     1     -13.630  46.697 -15.840  1.00  0.00    -0.390 OA
HETATM   30  H49 UNL     1     -13.621  45.918 -15.255  1.00  0.00     0.210 HD
ENDBRANCH  23  29
ENDBRANCH  19  20
ENDBRANCH   1  19
BRANCH  17  31
HETATM   31  O7  UNL     1      -5.102  46.355 -20.622  1.00  0.00    -0.389 OA
HETATM   32  H41 UNL     1      -4.885  46.241 -19.671  1.00  0.00     0.210 HD
ENDBRANCH  17  31
BRANCH   4  33
HETATM   33  C9  UNL     1      -5.566  48.255 -18.430  1.00  0.00     0.068 C 
HETATM   34  N1  UNL     1      -4.956  47.172 -18.097  1.00  0.00    -0.399 N 
ATOM     35  H1  UNL     1      -4.695  46.458 -18.778  1.00  0.00     0.158 HD
BRANCH  34  36
HETATM   36  C10 UNL     1      -4.663  47.042 -16.663  1.00  0.00     0.144 C 
BRANCH  36  37
HETATM   37  C11 UNL     1      -5.728  46.176 -15.992  1.00  0.00     0.183 C 
BRANCH  37  38
HETATM   38  O3  UNL     1      -5.970  46.626 -14.667  1.00  0.00    -0.399 OA
HETATM   39  H18 UNL     1      -6.417  47.490 -14.733  1.00  0.00     0.209 HD
ENDBRANCH  37  38
ENDBRANCH  36  37
ENDBRANCH  34  36
ENDBRANCH   4  33
BRANCH  13  40
HETATM   40  O6  UNL     1      -2.542  49.009 -23.640  1.00  0.00    -0.389 OA
HETATM   41  H35 UNL     1      -3.220  48.801 -24.304  1.00  0.00     0.210 HD
ENDBRANCH  13  40
BRANCH  10  42
HETATM   42  C18 UNL     1      -0.365  52.235 -21.735  1.00  0.00    -0.045 A 
HETATM   43  C19 UNL     1       0.508  53.107 -22.243  1.00  0.00     0.087 A 
HETATM   44  C20 UNL     1       1.250  53.679 -21.125  1.00  0.00     0.283 A 
HETATM   45  O4  UNL     1       2.118  54.525 -21.233  1.00  0.00    -0.260 OA
HETATM   46  O5  UNL     1       0.821  53.113 -19.968  1.00  0.00    -0.314 OA
HETATM   47  C21 UNL     1      -0.218  52.179 -20.261  1.00  0.00     0.213 A 
ENDBRANCH  10  42
TORSDOF 11
ENDMDL
MODEL 5
REMARK minimizedAffinity -8.03586674
REMARK CNNscore 0.365163863
REMARK CNNaffinity 6.46338606
REMARK  11 active torsions:
REMARK  status: ('A' for Active; 'I' for Inactive)
REMARK    1  A    between atoms: O1_2  and  C2_3 
REMARK    2  A    between atoms: C4_5  and  O2_6 
REMARK    3  A    between atoms: O2_6  and  C5_7 
REMARK    4  A    between atoms: C8_10  and  C9_11 
REMARK    5  A    between atoms: N1_12  and  C10_14 
REMARK    6  A    between atoms: C10_14  and  C11_15 
REMARK    7  A    between atoms: C11_15  and  O3_16 
REMARK    8  A    between atoms: C17_22  and  C18_23 
REMARK    9  A    between atoms: C24_31  and  O6_32 
REMARK   10  A    between atoms: C28_36  and  O7_37 
REMARK   11  A    between atoms: C32_42  and  O9_43 
ROOT
HETATM    1  C5  UNL     1      -4.139  49.162 -23.337  1.00  0.00     0.127 C 
HETATM    2  C6  UNL     1      -4.749  50.253 -22.469  1.00  0.00     0.033 C 
HETATM    3  C7  UNL     1      -6.153  49.911 -21.968  1.00  0.00     0.021 C 
HETATM    4  C8  UNL     1      -6.494  48.385 -21.906  1.00  0.00     0.026 C 
HETATM    5  C12 UNL     1      -7.647  48.182 -20.829  1.00  0.00     0.009 C 
HETATM    6  C13 UNL     1      -8.993  47.672 -21.373  1.00  0.00     0.007 C 
HETATM    7  C14 UNL     1     -10.072  47.701 -20.291  1.00  0.00     0.013 C 
HETATM    8  C15 UNL     1      -9.713  46.846 -19.055  1.00  0.00    -0.005 C 
HETATM    9  C16 UNL     1      -9.819  45.354 -19.426  1.00  0.00     0.019 C 
HETATM   10  C17 UNL     1     -10.618  47.185 -17.823  1.00  0.00     0.028 C 
HETATM   11  C22 UNL     1     -10.009  48.479 -17.251  1.00  0.00     0.013 C 
HETATM   12  C23 UNL     1      -8.547  48.516 -17.710  1.00  0.00     0.040 C 
HETATM   13  C24 UNL     1      -8.303  47.222 -18.509  1.00  0.00     0.070 C 
HETATM   14  C25 UNL     1      -7.210  47.323 -19.612  1.00  0.00     0.026 C 
HETATM   15  C26 UNL     1      -5.866  47.848 -19.082  1.00  0.00     0.011 C 
HETATM   16  C27 UNL     1      -4.738  47.826 -20.122  1.00  0.00     0.039 C 
HETATM   17  C28 UNL     1      -5.195  47.576 -21.577  1.00  0.00     0.073 C 
HETATM   18  C29 UNL     1      -4.014  47.853 -22.548  1.00  0.00     0.071 C 
ENDROOT
BRANCH   1  19
HETATM   19  O2  UNL     1      -2.868  49.637 -23.789  1.00  0.00    -0.356 OA
BRANCH  19  20
HETATM   20  C4  UNL     1      -2.900  50.947 -24.354  1.00  0.00     0.263 C 
HETATM   21  C3  UNL     1      -1.465  51.364 -24.648  1.00  0.00     0.095 C 
HETATM   22  C2  UNL     1      -1.431  52.374 -25.777  1.00  0.00     0.156 C 
HETATM   23  C32 UNL     1      -2.022  51.752 -27.060  1.00  0.00     0.175 C 
HETATM   24  C30 UNL     1      -3.156  50.744 -26.755  1.00  0.00     0.151 C 
HETATM   25  O8  UNL     1      -3.763  50.992 -25.487  1.00  0.00    -0.354 OA
HETATM   26  C31 UNL     1      -2.715  49.288 -26.892  1.00  0.00     0.042 C 
BRANCH  22  27
HETATM   27  O1  UNL     1      -0.055  52.760 -25.948  1.00  0.00    -0.388 OA
HETATM   28  C1  UNL     1       0.103  54.006 -26.616  1.00  0.00     0.202 C 
ENDBRANCH  22  27
BRANCH  23  29
HETATM   29  O9  UNL     1      -2.540  52.839 -27.856  1.00  0.00    -0.390 OA
HETATM   30  H49 UNL     1      -2.906  52.458 -28.674  1.00  0.00     0.210 HD
ENDBRANCH  23  29
ENDBRANCH  19  20
ENDBRANCH   1  19
BRANCH  17  31
HETATM   31  O7  UNL     1      -5.449  46.161 -21.642  1.00  0.00    -0.389 OA
HETATM   32  H41 UNL     1      -5.847  45.987 -22.523  1.00  0.00     0.210 HD
ENDBRANCH  17  31
BRANCH   4  33
HETATM   33  C9  UNL     1      -7.030  48.001 -23.299  1.00  0.00     0.068 C 
HETATM   34  N1  UNL     1      -7.618  48.857 -24.059  1.00  0.00    -0.399 N 
ATOM     35  H1  UNL     1      -7.782  49.822 -23.774  1.00  0.00     0.158 HD
BRANCH  34  36
HETATM   36  C10 UNL     1      -8.035  48.338 -25.370  1.00  0.00     0.144 C 
BRANCH  36  37
HETATM   37  C11 UNL     1      -9.491  48.714 -25.638  1.00  0.00     0.183 C 
BRANCH  37  38
HETATM   38  O3  UNL     1      -9.598  50.098 -25.939  1.00  0.00    -0.399 OA
HETATM   39  H18 UNL     1      -9.184  50.237 -26.811  1.00  0.00     0.209 HD
ENDBRANCH  37  38
ENDBRANCH  36  37
ENDBRANCH  34  36
ENDBRANCH   4  33
BRANCH  13  40
HETATM   40  O6  UNL     1      -7.921  46.208 -17.568  1.00  0.00    -0.389 OA
HETATM   41  H35 UNL     1      -7.092  46.473 -17.138  1.00  0.00     0.210 HD
ENDBRANCH  13  40
BRANCH  10  42
HETATM   42  C18 UNL     1     -12.105  47.224 -18.059  1.00  0.00    -0.045 A 
HETATM   43  C19 UNL     1     -12.778  47.651 -19.128  1.00  0.00     0.087 A 
HETATM   44  C20 UNL     1     -14.199  47.520 -18.828  1.00  0.00     0.283 A 
HETATM   45  O4  UNL     1     -15.097  47.807 -19.597  1.00  0.00    -0.260 OA
HETATM   46  O5  UNL     1     -14.346  47.040 -17.566  1.00  0.00    -0.314 OA
HETATM   47  C21 UNL     1     -13.057  46.815 -16.998  1.00  0.00     0.213 A 
ENDBRANCH  10  42
TORSDOF 11
ENDMDL
MODEL 6
REMARK minimizedAffinity -7.32208538
REMARK CNNscore 0.364712894
REMARK CNNaffinity 5.69474411
REMARK  11 active torsions:
REMARK  status: ('A' for Active; 'I' for Inactive)
REMARK    1  A    between atoms: O1_2  and  C2_3 
REMARK    2  A    between atoms: C4_5  and  O2_6 
REMARK    3  A    between atoms: O2_6  and  C5_7 
REMARK    4  A    between atoms: C8_10  and  C9_11 
REMARK    5  A    between atoms: N1_12  and  C10_14 
REMARK    6  A    between atoms: C10_14  and  C11_15 
REMARK    7  A    between atoms: C11_15  and  O3_16 
REMARK    8  A    between atoms: C17_22  and  C18_23 
REMARK    9  A    between atoms: C24_31  and  O6_32 
REMARK   10  A    between atoms: C28_36  and  O7_37 
REMARK   11  A    between atoms: C32_42  and  O9_43 
ROOT
HETATM    1  C5  UNL     1      -9.608  46.313 -28.708  1.00  0.00     0.127 C 
HETATM    2  C6  UNL     1      -9.856  44.909 -28.176  1.00  0.00     0.033 C 
HETATM    3  C7  UNL     1     -10.812  44.877 -26.983  1.00  0.00     0.021 C 
HETATM    4  C8  UNL     1     -11.792  46.092 -26.870  1.00  0.00     0.026 C 
HETATM    5  C12 UNL     1     -13.061  45.625 -26.034  1.00  0.00     0.009 C 
HETATM    6  C13 UNL     1     -13.267  46.322 -24.677  1.00  0.00     0.007 C 
HETATM    7  C14 UNL     1     -14.394  45.663 -23.882  1.00  0.00     0.013 C 
HETATM    8  C15 UNL     1     -15.748  45.677 -24.627  1.00  0.00    -0.005 C 
HETATM    9  C16 UNL     1     -16.303  47.115 -24.636  1.00  0.00     0.019 C 
HETATM   10  C17 UNL     1     -16.777  44.681 -23.993  1.00  0.00     0.028 C 
HETATM   11  C22 UNL     1     -16.357  43.304 -24.542  1.00  0.00     0.013 C 
HETATM   12  C23 UNL     1     -15.586  43.566 -25.841  1.00  0.00     0.040 C 
HETATM   13  C24 UNL     1     -15.601  45.090 -26.063  1.00  0.00     0.070 C 
HETATM   14  C25 UNL     1     -14.382  45.655 -26.848  1.00  0.00     0.026 C 
HETATM   15  C26 UNL     1     -14.157  44.953 -28.197  1.00  0.00     0.011 C 
HETATM   16  C27 UNL     1     -13.047  45.584 -29.048  1.00  0.00     0.039 C 
HETATM   17  C28 UNL     1     -12.153  46.602 -28.304  1.00  0.00     0.073 C 
HETATM   18  C29 UNL     1     -10.919  46.950 -29.183  1.00  0.00     0.071 C 
ENDROOT
BRANCH   1  19
HETATM   19  O2  UNL     1      -8.652  46.206 -29.766  1.00  0.00    -0.356 OA
BRANCH  19  20
HETATM   20  C4  UNL     1      -7.377  46.772 -29.463  1.00  0.00     0.263 C 
HETATM   21  C3  UNL     1      -6.365  46.195 -30.443  1.00  0.00     0.095 C 
HETATM   22  C2  UNL     1      -5.209  47.156 -30.633  1.00  0.00     0.156 C 
HETATM   23  C32 UNL     1      -5.722  48.493 -31.207  1.00  0.00     0.175 C 
HETATM   24  C30 UNL     1      -7.142  48.843 -30.699  1.00  0.00     0.151 C 
HETATM   25  O8  UNL     1      -7.440  48.196 -29.462  1.00  0.00    -0.354 OA
HETATM   26  C31 UNL     1      -8.229  48.592 -31.741  1.00  0.00     0.042 C 
BRANCH  22  27
HETATM   27  O1  UNL     1      -4.274  46.511 -31.518  1.00  0.00    -0.388 OA
HETATM   28  C1  UNL     1      -4.622  46.631 -32.892  1.00  0.00     0.202 C 
ENDBRANCH  22  27
BRANCH  23  29
HETATM   29  O9  UNL     1      -4.792  49.516 -30.792  1.00  0.00    -0.390 OA
HETATM   30  H49 UNL     1      -5.102  50.363 -31.159  1.00  0.00     0.210 HD
ENDBRANCH  23  29
ENDBRANCH  19  20
ENDBRANCH   1  19
BRANCH  17  31
HETATM   31  O7  UNL     1     -12.948  47.800 -28.231  1.00  0.00    -0.389 OA
HETATM   32  H41 UNL     1     -12.450  48.433 -27.667  1.00  0.00     0.210 HD
ENDBRANCH  17  31
BRANCH   4  33
HETATM   33  C9  UNL     1     -11.041  47.184 -26.082  1.00  0.00     0.068 C 
HETATM   34  N1  UNL     1      -9.779  47.101 -25.842  1.00  0.00    -0.399 N 
ATOM     35  H1  UNL     1      -9.217  46.303 -26.135  1.00  0.00     0.158 HD
BRANCH  34  36
HETATM   36  C10 UNL     1      -9.212  48.244 -25.111  1.00  0.00     0.144 C 
BRANCH  36  37
HETATM   37  C11 UNL     1      -9.411  49.526 -25.917  1.00  0.00     0.183 C 
BRANCH  37  38
HETATM   38  O3  UNL     1      -8.934  49.356 -27.244  1.00  0.00    -0.399 OA
HETATM   39  H18 UNL     1      -9.538  48.735 -27.691  1.00  0.00     0.209 HD
ENDBRANCH  37  38
ENDBRANCH  36  37
ENDBRANCH  34  36
ENDBRANCH   4  33
BRANCH  13  40
HETATM   40  O6  UNL     1     -16.802  45.403 -26.781  1.00  0.00    -0.389 OA
HETATM   41  H35 UNL     1     -16.778  44.960 -27.645  1.00  0.00     0.210 HD
ENDBRANCH  13  40
BRANCH  10  42
HETATM   42  C18 UNL     1     -16.962  44.748 -22.500  1.00  0.00    -0.045 A 
HETATM   43  C19 UNL     1     -16.384  44.017 -21.545  1.00  0.00     0.087 A 
HETATM   44  C20 UNL     1     -16.945  44.448 -20.270  1.00  0.00     0.283 A 
HETATM   45  O4  UNL     1     -16.624  43.996 -19.187  1.00  0.00    -0.260 OA
HETATM   46  O5  UNL     1     -17.872  45.414 -20.493  1.00  0.00    -0.314 OA
HETATM   47  C21 UNL     1     -17.947  45.676 -21.894  1.00  0.00     0.213 A 
ENDBRANCH  10  42
TORSDOF 11
ENDMDL
MODEL 7
REMARK minimizedAffinity -9.4207325
REMARK CNNscore 0.358755976
REMARK CNNaffinity 7.22608566
REMARK  11 active torsions:
REMARK  status: ('A' for Active; 'I' for Inactive)
REMARK    1  A    between atoms: O1_2  and  C2_3 
REMARK    2  A    between atoms: C4_5  and  O2_6 
REMARK    3  A    between atoms: O2_6  and  C5_7 
REMARK    4  A    between atoms: C8_10  and  C9_11 
REMARK    5  A    between atoms: N1_12  and  C10_14 
REMARK    6  A    between atoms: C10_14  and  C11_15 
REMARK    7  A    between atoms: C11_15  and  O3_16 
REMARK    8  A    between atoms: C17_22  and  C18_23 
REMARK    9  A    between atoms: C24_31  and  O6_32 
REMARK   10  A    between atoms: C28_36  and  O7_37 
REMARK   11  A    between atoms: C32_42  and  O9_43 
ROOT
HETATM    1  C5  UNL     1      -2.747  49.704 -22.368  1.00  0.00     0.127 C 
HETATM    2  C6  UNL     1      -1.959  48.479 -21.926  1.00  0.00     0.033 C 
HETATM    3  C7  UNL     1      -1.066  48.742 -20.713  1.00  0.00     0.021 C 
HETATM    4  C8  UNL     1      -1.500  49.938 -19.801  1.00  0.00     0.026 C 
HETATM    5  C12 UNL     1      -0.908  49.687 -18.346  1.00  0.00     0.009 C 
HETATM    6  C13 UNL     1       0.141  50.705 -17.862  1.00  0.00     0.007 C 
HETATM    7  C14 UNL     1       0.776  50.260 -16.546  1.00  0.00     0.013 C 
HETATM    8  C15 UNL     1      -0.255  50.072 -15.410  1.00  0.00    -0.005 C 
HETATM    9  C16 UNL     1      -0.756  51.456 -14.950  1.00  0.00     0.019 C 
HETATM   10  C17 UNL     1       0.337  49.262 -14.208  1.00  0.00     0.028 C 
HETATM   11  C22 UNL     1       0.266  47.794 -14.672  1.00  0.00     0.013 C 
HETATM   12  C23 UNL     1      -0.829  47.724 -15.742  1.00  0.00     0.040 C 
HETATM   13  C24 UNL     1      -1.419  49.141 -15.862  1.00  0.00     0.070 C 
HETATM   14  C25 UNL     1      -2.000  49.498 -17.260  1.00  0.00     0.026 C 
HETATM   15  C26 UNL     1      -3.036  48.478 -17.760  1.00  0.00     0.011 C 
HETATM   16  C27 UNL     1      -3.720  48.882 -19.073  1.00  0.00     0.039 C 
HETATM   17  C28 UNL     1      -3.059  50.064 -19.818  1.00  0.00     0.073 C 
HETATM   18  C29 UNL     1      -3.669  50.187 -21.243  1.00  0.00     0.071 C 
ENDROOT
BRANCH   1  19
HETATM   19  O2  UNL     1      -3.480  49.339 -23.540  1.00  0.00    -0.356 OA
BRANCH  19  20
HETATM   20  C4  UNL     1      -2.692  49.281 -24.729  1.00  0.00     0.263 C 
HETATM   21  C3  UNL     1      -3.615  48.912 -25.883  1.00  0.00     0.095 C 
HETATM   22  C2  UNL     1      -3.060  49.441 -27.190  1.00  0.00     0.156 C 
HETATM   23  C32 UNL     1      -2.953  50.980 -27.135  1.00  0.00     0.175 C 
HETATM   24  C30 UNL     1      -2.620  51.494 -25.714  1.00  0.00     0.151 C 
HETATM   25  O8  UNL     1      -1.974  50.496 -24.923  1.00  0.00    -0.354 OA
HETATM   26  C31 UNL     1      -3.830  52.085 -24.993  1.00  0.00     0.042 C 
BRANCH  22  27
HETATM   27  O1  UNL     1      -3.952  48.998 -28.230  1.00  0.00    -0.388 OA
HETATM   28  C1  UNL     1      -4.948  48.092 -27.771  1.00  0.00     0.202 C 
ENDBRANCH  22  27
BRANCH  23  29
HETATM   29  O9  UNL     1      -1.904  51.364 -28.049  1.00  0.00    -0.390 OA
HETATM   30  H49 UNL     1      -1.836  52.335 -28.029  1.00  0.00     0.210 HD
ENDBRANCH  23  29
ENDBRANCH  19  20
ENDBRANCH   1  19
BRANCH  17  31
HETATM   31  O7  UNL     1      -3.481  51.234 -19.095  1.00  0.00    -0.389 OA
HETATM   32  H41 UNL     1      -2.989  51.994 -19.477  1.00  0.00     0.210 HD
ENDBRANCH  17  31
BRANCH   4  33
HETATM   33  C9  UNL     1      -0.850  51.201 -20.401  1.00  0.00     0.068 C 
HETATM   34  N1  UNL     1       0.228  51.142 -21.102  1.00  0.00    -0.399 N 
ATOM     35  H1  UNL     1       0.721  50.266 -21.277  1.00  0.00     0.158 HD
BRANCH  34  36
HETATM   36  C10 UNL     1       0.695  52.432 -21.631  1.00  0.00     0.144 C 
BRANCH  36  37
HETATM   37  C11 UNL     1       1.291  53.271 -20.503  1.00  0.00     0.183 C 
BRANCH  37  38
HETATM   38  O3  UNL     1       1.786  54.501 -21.009  1.00  0.00    -0.399 OA
HETATM   39  H18 UNL     1       1.014  55.034 -21.278  1.00  0.00     0.209 HD
ENDBRANCH  37  38
ENDBRANCH  36  37
ENDBRANCH  34  36
ENDBRANCH   4  33
BRANCH  13  40
HETATM   40  O6  UNL     1      -2.463  49.251 -14.883  1.00  0.00    -0.389 OA
HETATM   41  H35 UNL     1      -3.157  48.603 -15.088  1.00  0.00     0.210 HD
ENDBRANCH  13  40
BRANCH  10  42
HETATM   42  C18 UNL     1       1.675  49.704 -13.678  1.00  0.00    -0.045 A 
HETATM   43  C19 UNL     1       2.870  49.129 -13.820  1.00  0.00     0.087 A 
HETATM   44  C20 UNL     1       3.830  49.932 -13.072  1.00  0.00     0.283 A 
HETATM   45  O4  UNL     1       5.022  49.697 -13.003  1.00  0.00    -0.260 OA
HETATM   46  O5  UNL     1       3.179  50.962 -12.472  1.00  0.00    -0.314 OA
HETATM   47  C21 UNL     1       1.794  50.900 -12.810  1.00  0.00     0.213 A 
ENDBRANCH  10  42
TORSDOF 11
ENDMDL
MODEL 8
REMARK minimizedAffinity -8.68350983
REMARK CNNscore 0.34688434
REMARK CNNaffinity 6.8631649
REMARK  11 active torsions:
REMARK  status: ('A' for Active; 'I' for Inactive)
REMARK    1  A    between atoms: O1_2  and  C2_3 
REMARK    2  A    between atoms: C4_5  and  O2_6 
REMARK    3  A    between atoms: O2_6  and  C5_7 
REMARK    4  A    between atoms: C8_10  and  C9_11 
REMARK    5  A    between atoms: N1_12  and  C10_14 
REMARK    6  A    between atoms: C10_14  and  C11_15 
REMARK    7  A    between atoms: C11_15  and  O3_16 
REMARK    8  A    between atoms: C17_22  and  C18_23 
REMARK    9  A    between atoms: C24_31  and  O6_32 
REMARK   10  A    between atoms: C28_36  and  O7_37 
REMARK   11  A    between atoms: C32_42  and  O9_43 
ROOT
HETATM    1  C5  UNL     1      -3.782  49.666 -24.174  1.00  0.00     0.127 C 
HETATM    2  C6  UNL     1      -4.413  50.782 -23.352  1.00  0.00     0.033 C 
HETATM    3  C7  UNL     1      -5.744  50.382 -22.713  1.00  0.00     0.021 C 
HETATM    4  C8  UNL     1      -5.955  48.846 -22.499  1.00  0.00     0.026 C 
HETATM    5  C12 UNL     1      -7.005  48.653 -21.320  1.00  0.00     0.009 C 
HETATM    6  C13 UNL     1      -8.343  47.999 -21.710  1.00  0.00     0.007 C 
HETATM    7  C14 UNL     1      -9.338  48.043 -20.551  1.00  0.00     0.013 C 
HETATM    8  C15 UNL     1      -8.820  47.329 -19.282  1.00  0.00    -0.005 C 
HETATM    9  C16 UNL     1      -8.832  45.806 -19.520  1.00  0.00     0.019 C 
HETATM   10  C17 UNL     1      -9.657  47.707 -18.014  1.00  0.00     0.028 C 
HETATM   11  C22 UNL     1      -9.113  49.088 -17.600  1.00  0.00     0.013 C 
HETATM   12  C23 UNL     1      -7.697  49.193 -18.177  1.00  0.00     0.040 C 
HETATM   13  C24 UNL     1      -7.408  47.855 -18.884  1.00  0.00     0.070 C 
HETATM   14  C25 UNL     1      -6.412  47.940 -20.076  1.00  0.00     0.026 C 
HETATM   15  C26 UNL     1      -5.079  48.607 -19.700  1.00  0.00     0.011 C 
HETATM   16  C27 UNL     1      -4.033  48.578 -20.823  1.00  0.00     0.039 C 
HETATM   17  C28 UNL     1      -4.575  48.167 -22.211  1.00  0.00     0.073 C 
HETATM   18  C29 UNL     1      -3.495  48.445 -23.293  1.00  0.00     0.071 C 
ENDROOT
BRANCH   1  19
HETATM   19  O2  UNL     1      -2.591  50.192 -24.764  1.00  0.00    -0.356 OA
BRANCH  19  20
HETATM   20  C4  UNL     1      -2.180  51.451 -24.232  1.00  0.00     0.263 C 
HETATM   21  C3  UNL     1      -1.015  51.199 -23.284  1.00  0.00     0.095 C 
HETATM   22  C2  UNL     1      -0.136  52.430 -23.192  1.00  0.00     0.156 C 
HETATM   23  C32 UNL     1       0.442  52.771 -24.582  1.00  0.00     0.175 C 
HETATM   24  C30 UNL     1      -0.537  52.418 -25.727  1.00  0.00     0.151 C 
HETATM   25  O8  UNL     1      -1.891  52.375 -25.277  1.00  0.00    -0.354 OA
HETATM   26  C31 UNL     1      -0.150  51.141 -26.471  1.00  0.00     0.042 C 
BRANCH  22  27
HETATM   27  O1  UNL     1       0.898  52.131 -22.235  1.00  0.00    -0.388 OA
HETATM   28  C1  UNL     1       1.001  53.097 -21.196  1.00  0.00     0.202 C 
ENDBRANCH  22  27
BRANCH  23  29
HETATM   29  O9  UNL     1       0.709  54.190 -24.590  1.00  0.00    -0.390 OA
HETATM   30  H49 UNL     1       1.084  54.414 -25.460  1.00  0.00     0.210 HD
ENDBRANCH  23  29
ENDBRANCH  19  20
ENDBRANCH   1  19
BRANCH  17  31
HETATM   31  O7  UNL     1      -4.718  46.737 -22.139  1.00  0.00    -0.389 OA
HETATM   32  H41 UNL     1      -5.165  46.457 -22.968  1.00  0.00     0.210 HD
ENDBRANCH  17  31
BRANCH   4  33
HETATM   33  C9  UNL     1      -6.560  48.302 -23.809  1.00  0.00     0.068 C 
HETATM   34  N1  UNL     1      -7.372  49.001 -24.522  1.00  0.00    -0.399 N 
ATOM     35  H1  UNL     1      -7.676  49.935 -24.250  1.00  0.00     0.158 HD
BRANCH  34  36
HETATM   36  C10 UNL     1      -7.827  48.350 -25.759  1.00  0.00     0.144 C 
BRANCH  36  37
HETATM   37  C11 UNL     1      -9.310  48.640 -25.984  1.00  0.00     0.183 C 
BRANCH  37  38
HETATM   38  O3  UNL     1      -9.548  50.040 -25.971  1.00  0.00    -0.399 OA
HETATM   39  H18 UNL     1      -9.141  50.410 -26.775  1.00  0.00     0.209 HD
ENDBRANCH  37  38
ENDBRANCH  36  37
ENDBRANCH  34  36
ENDBRANCH   4  33
BRANCH  13  40
HETATM   40  O6  UNL     1      -6.878  46.959 -17.897  1.00  0.00    -0.389 OA
HETATM   41  H35 UNL     1      -6.043  47.321 -17.558  1.00  0.00     0.210 HD
ENDBRANCH  13  40
BRANCH  10  42
HETATM   42  C18 UNL     1     -11.155  47.616 -18.131  1.00  0.00    -0.045 A 
HETATM   43  C19 UNL     1     -12.040  47.113 -17.269  1.00  0.00     0.087 A 
HETATM   44  C20 UNL     1     -13.357  47.224 -17.884  1.00  0.00     0.283 A 
HETATM   45  O4  UNL     1     -14.397  46.872 -17.358  1.00  0.00    -0.260 OA
HETATM   46  O5  UNL     1     -13.228  47.769 -19.121  1.00  0.00    -0.314 OA
HETATM   47  C21 UNL     1     -11.852  48.058 -19.363  1.00  0.00     0.213 A 
ENDBRANCH  10  42
TORSDOF 11
ENDMDL
MODEL 9
REMARK minimizedAffinity -8.32607841
REMARK CNNscore 0.296853989
REMARK CNNaffinity 6.02981186
REMARK  11 active torsions:
REMARK  status: ('A' for Active; 'I' for Inactive)
REMARK    1  A    between atoms: O1_2  and  C2_3 
REMARK    2  A    between atoms: C4_5  and  O2_6 
REMARK    3  A    between atoms: O2_6  and  C5_7 
REMARK    4  A    between atoms: C8_10  and  C9_11 
REMARK    5  A    between atoms: N1_12  and  C10_14 
REMARK    6  A    between atoms: C10_14  and  C11_15 
REMARK    7  A    between atoms: C11_15  and  O3_16 
REMARK    8  A    between atoms: C17_22  and  C18_23 
REMARK    9  A    between atoms: C24_31  and  O6_32 
REMARK   10  A    between atoms: C28_36  and  O7_37 
REMARK   11  A    between atoms: C32_42  and  O9_43 
ROOT
HETATM    1  C5  UNL     1      -9.447  46.344 -29.395  1.00  0.00     0.127 C 
HETATM    2  C6  UNL     1      -9.036  45.245 -28.425  1.00  0.00     0.033 C 
HETATM    3  C7  UNL     1      -7.918  45.668 -27.471  1.00  0.00     0.021 C 
HETATM    4  C8  UNL     1      -7.786  47.209 -27.229  1.00  0.00     0.026 C 
HETATM    5  C12 UNL     1      -7.075  47.426 -25.822  1.00  0.00     0.009 C 
HETATM    6  C13 UNL     1      -5.689  48.095 -25.865  1.00  0.00     0.007 C 
HETATM    7  C14 UNL     1      -5.025  48.075 -24.489  1.00  0.00     0.013 C 
HETATM    8  C15 UNL     1      -5.859  48.793 -23.404  1.00  0.00    -0.005 C 
HETATM    9  C16 UNL     1      -5.802  50.314 -23.649  1.00  0.00     0.019 C 
HETATM   10  C17 UNL     1      -5.372  48.439 -21.959  1.00  0.00     0.028 C 
HETATM   11  C22 UNL     1      -5.988  47.055 -21.681  1.00  0.00     0.013 C 
HETATM   12  C23 UNL     1      -7.208  46.925 -22.601  1.00  0.00     0.040 C 
HETATM   13  C24 UNL     1      -7.320  48.252 -23.374  1.00  0.00     0.070 C 
HETATM   14  C25 UNL     1      -7.976  48.143 -24.781  1.00  0.00     0.026 C 
HETATM   15  C26 UNL     1      -9.353  47.461 -24.752  1.00  0.00     0.011 C 
HETATM   16  C27 UNL     1     -10.076  47.466 -26.105  1.00  0.00     0.039 C 
HETATM   17  C28 UNL     1      -9.201  47.871 -27.313  1.00  0.00     0.073 C 
HETATM   18  C29 UNL     1      -9.964  47.569 -28.633  1.00  0.00     0.071 C 
ENDROOT
BRANCH   1  19
HETATM   19  O2  UNL     1     -10.441  45.796 -30.265  1.00  0.00    -0.356 OA
BRANCH  19  20
HETATM   20  C4  UNL     1      -9.950  44.798 -31.159  1.00  0.00     0.263 C 
HETATM   21  C3  UNL     1     -11.007  44.571 -32.231  1.00  0.00     0.095 C 
HETATM   22  C2  UNL     1     -10.364  44.068 -33.507  1.00  0.00     0.156 C 
HETATM   23  C32 UNL     1      -9.359  45.111 -34.039  1.00  0.00     0.175 C 
HETATM   24  C30 UNL     1      -8.662  45.889 -32.897  1.00  0.00     0.151 C 
HETATM   25  O8  UNL     1      -8.670  45.159 -31.671  1.00  0.00    -0.354 OA
HETATM   26  C31 UNL     1      -9.214  47.302 -32.714  1.00  0.00     0.042 C 
BRANCH  22  27
HETATM   27  O1  UNL     1     -11.432  43.820 -34.442  1.00  0.00    -0.388 OA
HETATM   28  C1  UNL     1     -11.974  45.008 -35.006  1.00  0.00     0.202 C 
ENDBRANCH  22  27
BRANCH  23  29
HETATM   29  O9  UNL     1      -8.372  44.391 -34.809  1.00  0.00    -0.390 OA
HETATM   30  H49 UNL     1      -7.738  45.043 -35.159  1.00  0.00     0.210 HD
ENDBRANCH  23  29
ENDBRANCH  19  20
ENDBRANCH   1  19
BRANCH  17  31
HETATM   31  O7  UNL     1      -9.096  49.304 -27.224  1.00  0.00    -0.389 OA
HETATM   32  H41 UNL     1      -8.455  49.582 -27.915  1.00  0.00     0.210 HD
ENDBRANCH  17  31
BRANCH   4  33
HETATM   33  C9  UNL     1      -6.871  47.748 -28.346  1.00  0.00     0.068 C 
HETATM   34  N1  UNL     1      -6.163  46.964 -29.082  1.00  0.00    -0.399 N 
ATOM     35  H1  UNL     1      -6.150  45.953 -28.950  1.00  0.00     0.158 HD
BRANCH  34  36
HETATM   36  C10 UNL     1      -5.375  47.637 -30.125  1.00  0.00     0.144 C 
BRANCH  36  37
HETATM   37  C11 UNL     1      -4.672  48.859 -29.538  1.00  0.00     0.183 C 
BRANCH  37  38
HETATM   38  O3  UNL     1      -4.525  49.868 -30.526  1.00  0.00    -0.399 OA
HETATM   39  H18 UNL     1      -5.416  50.214 -30.720  1.00  0.00     0.209 HD
ENDBRANCH  37  38
ENDBRANCH  36  37
ENDBRANCH  34  36
ENDBRANCH   4  33
BRANCH  13  40
HETATM   40  O6  UNL     1      -8.096  49.150 -22.568  1.00  0.00    -0.389 OA
HETATM   41  H35 UNL     1      -8.985  48.780 -22.450  1.00  0.00     0.210 HD
ENDBRANCH  13  40
BRANCH  10  42
HETATM   42  C18 UNL     1      -3.895  48.550 -21.689  1.00  0.00    -0.045 A 
HETATM   43  C19 UNL     1      -2.992  47.581 -21.526  1.00  0.00     0.087 A 
HETATM   44  C20 UNL     1      -1.714  48.222 -21.242  1.00  0.00     0.283 A 
HETATM   45  O4  UNL     1      -0.669  47.626 -21.056  1.00  0.00    -0.260 OA
HETATM   46  O5  UNL     1      -1.885  49.568 -21.213  1.00  0.00    -0.314 OA
HETATM   47  C21 UNL     1      -3.251  49.871 -21.495  1.00  0.00     0.213 A 
ENDBRANCH  10  42
TORSDOF 11
ENDMDL
