MODEL 1
REMARK minimizedAffinity -10.9961863
REMARK  8 active torsions:
REMARK  status: ('A' for Active; 'I' for Inactive)
REMARK    1  A    between atoms: C2_2  and  C4_4 
REMARK    2  A    between atoms: C4_4  and  C6_6 
REMARK    3  A    between atoms: C7_7  and  C8_8 
REMARK    4  A    between atoms: C8_8  and  O1_10 
REMARK    5  A    between atoms: C8_8  and  C10_11 
REMARK    6  A    between atoms: C11_12  and  O2_13 
REMARK    7  A    between atoms: C27_30  and  C28_31 
REMARK    8  A    between atoms: C28_31  and  O4_32 
ROOT
HETATM    1  C10 UNL     1      -0.345  51.769 -25.507  1.00  0.00     0.063 C 
HETATM    2  C11 UNL     1       0.396  53.145 -25.540  1.00  0.00     0.126 C 
HETATM    3  C12 UNL     1       0.662  53.537 -24.075  1.00  0.00     0.038 C 
HETATM    4  C13 UNL     1       0.186  52.334 -23.270  1.00  0.00     0.003 C 
HETATM    5  C14 UNL     1      -0.126  52.503 -21.778  1.00  0.00    -0.004 C 
HETATM    6  C15 UNL     1       1.015  53.227 -21.045  1.00  0.00     0.006 C 
HETATM    7  C16 UNL     1       0.806  53.274 -19.534  1.00  0.00     0.006 C 
HETATM    8  C17 UNL     1       0.565  51.872 -18.972  1.00  0.00     0.005 C 
HETATM    9  C18 UNL     1       0.501  51.885 -17.441  1.00  0.00     0.088 C 
HETATM   10  C19 UNL     1       0.333  50.480 -16.904  1.00  0.00     0.149 C 
HETATM   11  O3  UNL     1       0.685  50.170 -15.768  1.00  0.00    -0.293 OA
HETATM   12  C20 UNL     1      -0.329  49.467 -17.762  1.00  0.00     0.047 C 
HETATM   13  C21 UNL     1      -0.785  49.785 -18.984  1.00  0.00    -0.013 C 
HETATM   14  C22 UNL     1      -0.668  51.164 -19.621  1.00  0.00    -0.018 C 
HETATM   15  C23 UNL     1      -1.996  51.897 -19.316  1.00  0.00     0.020 C 
HETATM   16  C24 UNL     1      -0.395  51.088 -21.169  1.00  0.00     0.002 C 
HETATM   17  C25 UNL     1      -1.465  50.316 -21.985  1.00  0.00     0.007 C 
HETATM   18  C26 UNL     1      -1.228  50.320 -23.508  1.00  0.00     0.013 C 
HETATM   19  C27 UNL     1      -1.000  51.740 -24.079  1.00  0.00    -0.006 C 
ENDROOT
BRANCH   1  20
HETATM   20  C8  UNL     1      -1.191  51.460 -26.778  1.00  0.00     0.079 C 
HETATM   21  C9  UNL     1      -2.297  52.489 -27.022  1.00  0.00     0.051 C 
BRANCH  20  22
HETATM   22  C7  UNL     1      -1.862  50.098 -26.629  1.00  0.00     0.007 C 
HETATM   23  C6  UNL     1      -3.145  49.802 -26.916  1.00  0.00    -0.023 C 
BRANCH  23  24
HETATM   24  C4  UNL     1      -3.847  48.460 -26.783  1.00  0.00     0.007 C 
HETATM   25  C5  UNL     1      -4.738  48.124 -27.990  1.00  0.00     0.014 C 
BRANCH  24  26
HETATM   26  C2  UNL     1      -4.625  48.376 -25.432  1.00  0.00    -0.015 C 
HETATM   27  C1  UNL     1      -4.583  49.695 -24.649  1.00  0.00     0.010 C 
HETATM   28  C3  UNL     1      -6.096  47.978 -25.634  1.00  0.00     0.010 C 
ENDBRANCH  24  26
ENDBRANCH  23  24
ENDBRANCH  20  22
BRANCH  20  29
HETATM   29  O1  UNL     1      -0.369  51.456 -27.939  1.00  0.00    -0.386 OA
HETATM   30  H17 UNL     1       0.298  50.756 -27.782  1.00  0.00     0.211 HD
ENDBRANCH  20  29
ENDBRANCH   1  20
BRANCH   2  31
HETATM   31  O2  UNL     1      -0.388  54.160 -26.167  1.00  0.00    -0.395 OA
HETATM   32  H20 UNL     1       0.132  54.986 -26.119  1.00  0.00     0.210 HD
ENDBRANCH   2  31
BRANCH  19  33
HETATM   33  C28 UNL     1      -2.340  52.532 -23.976  1.00  0.00     0.174 C 
BRANCH  33  34
HETATM   34  O4  UNL     1      -2.880  52.959 -25.216  1.00  0.00    -0.400 OA
HETATM   35  H44 UNL     1      -3.047  52.156 -25.745  1.00  0.00     0.209 HD
ENDBRANCH  33  34
ENDBRANCH  19  33
TORSDOF 8
ENDMDL
MODEL 2
REMARK minimizedAffinity -9.70545006
REMARK  8 active torsions:
REMARK  status: ('A' for Active; 'I' for Inactive)
REMARK    1  A    between atoms: C2_2  and  C4_4 
REMARK    2  A    between atoms: C4_4  and  C6_6 
REMARK    3  A    between atoms: C7_7  and  C8_8 
REMARK    4  A    between atoms: C8_8  and  O1_10 
REMARK    5  A    between atoms: C8_8  and  C10_11 
REMARK    6  A    between atoms: C11_12  and  O2_13 
REMARK    7  A    between atoms: C27_30  and  C28_31 
REMARK    8  A    between atoms: C28_31  and  O4_32 
ROOT
HETATM    1  C10 UNL     1      -1.750  50.515 -24.972  1.00  0.00     0.063 C 
HETATM    2  C11 UNL     1      -1.215  51.912 -25.424  1.00  0.00     0.126 C 
HETATM    3  C12 UNL     1      -0.697  52.617 -24.157  1.00  0.00     0.038 C 
HETATM    4  C13 UNL     1      -0.836  51.569 -23.060  1.00  0.00     0.003 C 
HETATM    5  C14 UNL     1      -0.845  52.015 -21.592  1.00  0.00    -0.004 C 
HETATM    6  C15 UNL     1       0.323  52.965 -21.287  1.00  0.00     0.006 C 
HETATM    7  C16 UNL     1       0.433  53.305 -19.803  1.00  0.00     0.006 C 
HETATM    8  C17 UNL     1       0.497  52.032 -18.955  1.00  0.00     0.005 C 
HETATM    9  C18 UNL     1       0.756  52.353 -17.481  1.00  0.00     0.088 C 
HETATM   10  C19 UNL     1       0.885  51.080 -16.673  1.00  0.00     0.149 C 
HETATM   11  O3  UNL     1       1.506  51.039 -15.613  1.00  0.00    -0.293 OA
HETATM   12  C20 UNL     1       0.191  49.860 -17.157  1.00  0.00     0.047 C 
HETATM   13  C21 UNL     1      -0.549  49.881 -18.276  1.00  0.00    -0.013 C 
HETATM   14  C22 UNL     1      -0.745  51.106 -19.162  1.00  0.00    -0.018 C 
HETATM   15  C23 UNL     1      -2.061  51.772 -18.696  1.00  0.00     0.020 C 
HETATM   16  C24 UNL     1      -0.797  50.737 -20.691  1.00  0.00     0.002 C 
HETATM   17  C25 UNL     1      -1.908  49.727 -21.083  1.00  0.00     0.007 C 
HETATM   18  C26 UNL     1      -2.000  49.439 -22.594  1.00  0.00     0.013 C 
HETATM   19  C27 UNL     1      -2.080  50.725 -23.450  1.00  0.00    -0.006 C 
ENDROOT
BRANCH   1  20
HETATM   20  C8  UNL     1      -2.799  49.882 -25.935  1.00  0.00     0.079 C 
HETATM   21  C9  UNL     1      -3.050  50.731 -27.183  1.00  0.00     0.051 C 
BRANCH  20  22
HETATM   22  C7  UNL     1      -4.134  49.731 -25.211  1.00  0.00     0.007 C 
HETATM   23  C6  UNL     1      -4.749  48.574 -24.901  1.00  0.00    -0.023 C 
BRANCH  23  24
HETATM   24  C4  UNL     1      -6.075  48.384 -24.182  1.00  0.00     0.007 C 
HETATM   25  C5  UNL     1      -5.949  47.546 -22.898  1.00  0.00     0.014 C 
BRANCH  24  26
HETATM   26  C2  UNL     1      -7.155  47.816 -25.155  1.00  0.00    -0.015 C 
HETATM   27  C1  UNL     1      -6.582  47.494 -26.542  1.00  0.00     0.010 C 
HETATM   28  C3  UNL     1      -7.824  46.547 -24.602  1.00  0.00     0.010 C 
ENDBRANCH  24  26
ENDBRANCH  23  24
ENDBRANCH  20  22
BRANCH  20  29
HETATM   29  O1  UNL     1      -2.360  48.606 -26.386  1.00  0.00    -0.386 OA
HETATM   30  H17 UNL     1      -2.256  48.066 -25.575  1.00  0.00     0.211 HD
ENDBRANCH  20  29
ENDBRANCH   1  20
BRANCH   2  31
HETATM   31  O2  UNL     1      -2.236  52.708 -26.026  1.00  0.00    -0.395 OA
HETATM   32  H20 UNL     1      -1.827  53.567 -26.251  1.00  0.00     0.210 HD
ENDBRANCH   2  31
BRANCH  19  33
HETATM   33  C28 UNL     1      -3.458  51.407 -23.185  1.00  0.00     0.174 C 
BRANCH  33  34
HETATM   34  O4  UNL     1      -3.462  52.819 -23.309  1.00  0.00    -0.400 OA
HETATM   35  H44 UNL     1      -3.198  53.024 -24.226  1.00  0.00     0.209 HD
ENDBRANCH  33  34
ENDBRANCH  19  33
TORSDOF 8
ENDMDL
MODEL 3
REMARK minimizedAffinity -9.59216976
REMARK  8 active torsions:
REMARK  status: ('A' for Active; 'I' for Inactive)
REMARK    1  A    between atoms: C2_2  and  C4_4 
REMARK    2  A    between atoms: C4_4  and  C6_6 
REMARK    3  A    between atoms: C7_7  and  C8_8 
REMARK    4  A    between atoms: C8_8  and  O1_10 
REMARK    5  A    between atoms: C8_8  and  C10_11 
REMARK    6  A    between atoms: C11_12  and  O2_13 
REMARK    7  A    between atoms: C27_30  and  C28_31 
REMARK    8  A    between atoms: C28_31  and  O4_32 
ROOT
HETATM    1  C10 UNL     1      -1.119  49.059 -19.059  1.00  0.00     0.063 C 
HETATM    2  C11 UNL     1      -2.172  47.941 -19.350  1.00  0.00     0.126 C 
HETATM    3  C12 UNL     1      -2.567  48.082 -20.832  1.00  0.00     0.038 C 
HETATM    4  C13 UNL     1      -1.650  49.177 -21.363  1.00  0.00     0.003 C 
HETATM    5  C14 UNL     1      -2.026  49.909 -22.657  1.00  0.00    -0.004 C 
HETATM    6  C15 UNL     1      -2.392  48.921 -23.775  1.00  0.00     0.006 C 
HETATM    7  C16 UNL     1      -2.621  49.610 -25.118  1.00  0.00     0.006 C 
HETATM    8  C17 UNL     1      -1.421  50.481 -25.496  1.00  0.00     0.005 C 
HETATM    9  C18 UNL     1      -1.571  51.061 -26.905  1.00  0.00     0.088 C 
HETATM   10  C19 UNL     1      -0.343  51.860 -27.286  1.00  0.00     0.149 C 
HETATM   11  O3  UNL     1      -0.023  52.046 -28.458  1.00  0.00    -0.293 OA
HETATM   12  C20 UNL     1       0.462  52.482 -26.205  1.00  0.00     0.047 C 
HETATM   13  C21 UNL     1       0.107  52.355 -24.917  1.00  0.00    -0.013 C 
HETATM   14  C22 UNL     1      -1.106  51.574 -24.424  1.00  0.00    -0.018 C 
HETATM   15  C23 UNL     1      -2.253  52.602 -24.277  1.00  0.00     0.020 C 
HETATM   16  C24 UNL     1      -0.827  50.825 -23.069  1.00  0.00     0.002 C 
HETATM   17  C25 UNL     1      -0.385  51.740 -21.895  1.00  0.00     0.007 C 
HETATM   18  C26 UNL     1      -0.195  51.005 -20.554  1.00  0.00     0.013 C 
HETATM   19  C27 UNL     1      -1.415  50.136 -20.164  1.00  0.00    -0.006 C 
ENDROOT
BRANCH   1  20
HETATM   20  C8  UNL     1      -1.007  49.466 -17.559  1.00  0.00     0.079 C 
HETATM   21  C9  UNL     1      -2.342  49.918 -16.963  1.00  0.00     0.051 C 
BRANCH  20  22
HETATM   22  C7  UNL     1      -0.027  50.627 -17.414  1.00  0.00     0.007 C 
HETATM   23  C6  UNL     1       0.705  50.924 -16.323  1.00  0.00    -0.023 C 
BRANCH  23  24
HETATM   24  C4  UNL     1       1.690  52.068 -16.143  1.00  0.00     0.007 C 
HETATM   25  C5  UNL     1       1.976  52.828 -17.449  1.00  0.00     0.014 C 
BRANCH  24  26
HETATM   26  C2  UNL     1       2.997  51.567 -15.453  1.00  0.00    -0.015 C 
HETATM   27  C1  UNL     1       4.241  52.327 -15.932  1.00  0.00     0.010 C 
HETATM   28  C3  UNL     1       2.924  51.676 -13.921  1.00  0.00     0.010 C 
ENDBRANCH  24  26
ENDBRANCH  23  24
ENDBRANCH  20  22
BRANCH  20  29
HETATM   29  O1  UNL     1      -0.557  48.368 -16.774  1.00  0.00    -0.386 OA
HETATM   30  H17 UNL     1       0.321  48.130 -17.141  1.00  0.00     0.211 HD
ENDBRANCH  20  29
ENDBRANCH   1  20
BRANCH   2  31
HETATM   31  O2  UNL     1      -3.337  48.076 -18.534  1.00  0.00    -0.395 OA
HETATM   32  H20 UNL     1      -3.949  47.362 -18.799  1.00  0.00     0.210 HD
ENDBRANCH   2  31
BRANCH  19  33
HETATM   33  C28 UNL     1      -2.606  51.086 -19.826  1.00  0.00     0.174 C 
BRANCH  33  34
HETATM   34  O4  UNL     1      -3.681  51.051 -20.750  1.00  0.00    -0.400 OA
HETATM   35  H44 UNL     1      -4.021  50.135 -20.756  1.00  0.00     0.209 HD
ENDBRANCH  33  34
ENDBRANCH  19  33
TORSDOF 8
ENDMDL
MODEL 4
REMARK minimizedAffinity -9.37773132
REMARK  8 active torsions:
REMARK  status: ('A' for Active; 'I' for Inactive)
REMARK    1  A    between atoms: C2_2  and  C4_4 
REMARK    2  A    between atoms: C4_4  and  C6_6 
REMARK    3  A    between atoms: C7_7  and  C8_8 
REMARK    4  A    between atoms: C8_8  and  O1_10 
REMARK    5  A    between atoms: C8_8  and  C10_11 
REMARK    6  A    between atoms: C11_12  and  O2_13 
REMARK    7  A    between atoms: C27_30  and  C28_31 
REMARK    8  A    between atoms: C28_31  and  O4_32 
ROOT
HETATM    1  C10 UNL     1      -1.806  48.518 -19.551  1.00  0.00     0.063 C 
HETATM    2  C11 UNL     1      -2.875  47.475 -20.015  1.00  0.00     0.126 C 
HETATM    3  C12 UNL     1      -3.124  47.734 -21.512  1.00  0.00     0.038 C 
HETATM    4  C13 UNL     1      -2.116  48.816 -21.880  1.00  0.00     0.003 C 
HETATM    5  C14 UNL     1      -2.338  49.651 -23.147  1.00  0.00    -0.004 C 
HETATM    6  C15 UNL     1      -2.640  48.759 -24.361  1.00  0.00     0.006 C 
HETATM    7  C16 UNL     1      -2.714  49.546 -25.666  1.00  0.00     0.006 C 
HETATM    8  C17 UNL     1      -1.447  50.381 -25.872  1.00  0.00     0.005 C 
HETATM    9  C18 UNL     1      -1.441  51.060 -27.245  1.00  0.00     0.088 C 
HETATM   10  C19 UNL     1      -0.150  51.821 -27.456  1.00  0.00     0.149 C 
HETATM   11  O3  UNL     1       0.285  52.069 -28.578  1.00  0.00    -0.293 OA
HETATM   12  C20 UNL     1       0.577  52.329 -26.266  1.00  0.00     0.047 C 
HETATM   13  C21 UNL     1       0.099  52.134 -25.027  1.00  0.00    -0.013 C 
HETATM   14  C22 UNL     1      -1.187  51.383 -24.702  1.00  0.00    -0.018 C 
HETATM   15  C23 UNL     1      -2.297  52.454 -24.585  1.00  0.00     0.020 C 
HETATM   16  C24 UNL     1      -1.067  50.532 -23.384  1.00  0.00     0.002 C 
HETATM   17  C25 UNL     1      -0.698  51.343 -22.113  1.00  0.00     0.007 C 
HETATM   18  C26 UNL     1      -0.665  50.512 -20.816  1.00  0.00     0.013 C 
HETATM   19  C27 UNL     1      -1.952  49.680 -20.600  1.00  0.00    -0.006 C 
ENDROOT
BRANCH   1  20
HETATM   20  C8  UNL     1      -1.816  48.818 -18.023  1.00  0.00     0.079 C 
HETATM   21  C9  UNL     1      -2.829  49.897 -17.634  1.00  0.00     0.051 C 
BRANCH  20  22
HETATM   22  C7  UNL     1      -0.439  49.308 -17.587  1.00  0.00     0.007 C 
HETATM   23  C6  UNL     1      -0.182  50.335 -16.754  1.00  0.00    -0.023 C 
BRANCH  23  24
HETATM   24  C4  UNL     1       1.174  50.851 -16.297  1.00  0.00     0.007 C 
HETATM   25  C5  UNL     1       1.413  50.661 -14.790  1.00  0.00     0.014 C 
BRANCH  24  26
HETATM   26  C2  UNL     1       1.381  52.331 -16.747  1.00  0.00    -0.015 C 
HETATM   27  C1  UNL     1       2.851  52.765 -16.675  1.00  0.00     0.010 C 
HETATM   28  C3  UNL     1       0.872  52.580 -18.176  1.00  0.00     0.010 C 
ENDBRANCH  24  26
ENDBRANCH  23  24
ENDBRANCH  20  22
BRANCH  20  29
HETATM   29  O1  UNL     1      -2.156  47.649 -17.285  1.00  0.00    -0.386 OA
HETATM   30  H17 UNL     1      -1.466  46.991 -17.510  1.00  0.00     0.211 HD
ENDBRANCH  20  29
ENDBRANCH   1  20
BRANCH   2  31
HETATM   31  O2  UNL     1      -4.103  47.613 -19.299  1.00  0.00    -0.395 OA
HETATM   32  H20 UNL     1      -4.718  46.949 -19.667  1.00  0.00     0.210 HD
ENDBRANCH   2  31
BRANCH  19  33
HETATM   33  C28 UNL     1      -3.127  50.662 -20.303  1.00  0.00     0.174 C 
BRANCH  33  34
HETATM   34  O4  UNL     1      -4.395  50.240 -20.777  1.00  0.00    -0.400 OA
HETATM   35  H44 UNL     1      -4.595  49.392 -20.335  1.00  0.00     0.209 HD
ENDBRANCH  33  34
ENDBRANCH  19  33
TORSDOF 8
ENDMDL
MODEL 5
REMARK minimizedAffinity -9.33382225
REMARK  8 active torsions:
REMARK  status: ('A' for Active; 'I' for Inactive)
REMARK    1  A    between atoms: C2_2  and  C4_4 
REMARK    2  A    between atoms: C4_4  and  C6_6 
REMARK    3  A    between atoms: C7_7  and  C8_8 
REMARK    4  A    between atoms: C8_8  and  O1_10 
REMARK    5  A    between atoms: C8_8  and  C10_11 
REMARK    6  A    between atoms: C11_12  and  O2_13 
REMARK    7  A    between atoms: C27_30  and  C28_31 
REMARK    8  A    between atoms: C28_31  and  O4_32 
ROOT
HETATM    1  C10 UNL     1      -1.553  49.817 -21.211  1.00  0.00     0.063 C 
HETATM    2  C11 UNL     1      -1.203  51.250 -21.729  1.00  0.00     0.126 C 
HETATM    3  C12 UNL     1      -0.477  51.971 -20.578  1.00  0.00     0.038 C 
HETATM    4  C13 UNL     1      -0.326  50.903 -19.502  1.00  0.00     0.003 C 
HETATM    5  C14 UNL     1      -0.059  51.330 -18.053  1.00  0.00    -0.004 C 
HETATM    6  C15 UNL     1       1.090  52.346 -17.970  1.00  0.00     0.006 C 
HETATM    7  C16 UNL     1       1.485  52.674 -16.532  1.00  0.00     0.006 C 
HETATM    8  C17 UNL     1       1.794  51.398 -15.747  1.00  0.00     0.005 C 
HETATM    9  C18 UNL     1       2.332  51.716 -14.349  1.00  0.00     0.088 C 
HETATM   10  C19 UNL     1       2.697  50.444 -13.616  1.00  0.00     0.149 C 
HETATM   11  O3  UNL     1       3.524  50.429 -12.707  1.00  0.00    -0.293 OA
HETATM   12  C20 UNL     1       1.990  49.190 -13.976  1.00  0.00     0.047 C 
HETATM   13  C21 UNL     1       1.035  49.179 -14.920  1.00  0.00    -0.013 C 
HETATM   14  C22 UNL     1       0.591  50.400 -15.717  1.00  0.00    -0.018 C 
HETATM   15  C23 UNL     1      -0.637  50.979 -14.975  1.00  0.00     0.020 C 
HETATM   16  C24 UNL     1       0.247  50.047 -17.211  1.00  0.00     0.002 C 
HETATM   17  C25 UNL     1      -0.862  48.975 -17.392  1.00  0.00     0.007 C 
HETATM   18  C26 UNL     1      -1.246  48.700 -18.859  1.00  0.00     0.013 C 
HETATM   19  C27 UNL     1      -1.574  49.989 -19.649  1.00  0.00    -0.006 C 
ENDROOT
BRANCH   1  20
HETATM   20  C8  UNL     1      -2.740  49.134 -21.953  1.00  0.00     0.079 C 
HETATM   21  C9  UNL     1      -2.961  47.684 -21.516  1.00  0.00     0.051 C 
BRANCH  20  22
HETATM   22  C7  UNL     1      -2.466  49.119 -23.455  1.00  0.00     0.007 C 
HETATM   23  C6  UNL     1      -3.313  48.711 -24.419  1.00  0.00    -0.023 C 
BRANCH  23  24
HETATM   24  C4  UNL     1      -3.077  48.683 -25.920  1.00  0.00     0.007 C 
HETATM   25  C5  UNL     1      -2.073  49.749 -26.391  1.00  0.00     0.014 C 
BRANCH  24  26
HETATM   26  C2  UNL     1      -4.430  48.764 -26.693  1.00  0.00    -0.015 C 
HETATM   27  C1  UNL     1      -4.337  48.164 -28.103  1.00  0.00     0.010 C 
HETATM   28  C3  UNL     1      -5.571  48.058 -25.942  1.00  0.00     0.010 C 
ENDBRANCH  24  26
ENDBRANCH  23  24
ENDBRANCH  20  22
BRANCH  20  29
HETATM   29  O1  UNL     1      -3.955  49.829 -21.703  1.00  0.00    -0.386 OA
HETATM   30  H17 UNL     1      -3.807  50.739 -22.038  1.00  0.00     0.211 HD
ENDBRANCH  20  29
ENDBRANCH   1  20
BRANCH   2  31
HETATM   31  O2  UNL     1      -2.370  51.989 -22.090  1.00  0.00    -0.395 OA
HETATM   32  H20 UNL     1      -2.066  52.874 -22.373  1.00  0.00     0.210 HD
ENDBRANCH   2  31
BRANCH  19  33
HETATM   33  C28 UNL     1      -2.905  50.583 -19.091  1.00  0.00     0.174 C 
BRANCH  33  34
HETATM   34  O4  UNL     1      -2.763  51.790 -18.361  1.00  0.00    -0.400 OA
HETATM   35  H44 UNL     1      -2.376  52.447 -18.972  1.00  0.00     0.209 HD
ENDBRANCH  33  34
ENDBRANCH  19  33
TORSDOF 8
ENDMDL
MODEL 6
REMARK minimizedAffinity -9.2557621
REMARK  8 active torsions:
REMARK  status: ('A' for Active; 'I' for Inactive)
REMARK    1  A    between atoms: C2_2  and  C4_4 
REMARK    2  A    between atoms: C4_4  and  C6_6 
REMARK    3  A    between atoms: C7_7  and  C8_8 
REMARK    4  A    between atoms: C8_8  and  O1_10 
REMARK    5  A    between atoms: C8_8  and  C10_11 
REMARK    6  A    between atoms: C11_12  and  O2_13 
REMARK    7  A    between atoms: C27_30  and  C28_31 
REMARK    8  A    between atoms: C28_31  and  O4_32 
ROOT
HETATM    1  C10 UNL     1      -1.436  50.320 -21.866  1.00  0.00     0.063 C 
HETATM    2  C11 UNL     1      -1.039  51.803 -22.163  1.00  0.00     0.126 C 
HETATM    3  C12 UNL     1      -0.416  52.360 -20.869  1.00  0.00     0.038 C 
HETATM    4  C13 UNL     1      -0.363  51.162 -19.930  1.00  0.00     0.003 C 
HETATM    5  C14 UNL     1      -0.224  51.395 -18.421  1.00  0.00    -0.004 C 
HETATM    6  C15 UNL     1       0.914  52.377 -18.107  1.00  0.00     0.006 C 
HETATM    7  C16 UNL     1       1.180  52.513 -16.610  1.00  0.00     0.006 C 
HETATM    8  C17 UNL     1       1.417  51.142 -15.972  1.00  0.00     0.005 C 
HETATM    9  C18 UNL     1       1.830  51.272 -14.503  1.00  0.00     0.088 C 
HETATM   10  C19 UNL     1       2.127  49.911 -13.912  1.00  0.00     0.149 C 
HETATM   11  O3  UNL     1       2.870  49.769 -12.943  1.00  0.00    -0.293 OA
HETATM   12  C20 UNL     1       1.452  48.723 -14.491  1.00  0.00     0.047 C 
HETATM   13  C21 UNL     1       0.585  48.846 -15.508  1.00  0.00    -0.013 C 
HETATM   14  C22 UNL     1       0.215  50.165 -16.177  1.00  0.00    -0.018 C 
HETATM   15  C23 UNL     1      -1.073  50.660 -15.477  1.00  0.00     0.020 C 
HETATM   16  C24 UNL     1       0.004  50.011 -17.729  1.00  0.00     0.002 C 
HETATM   17  C25 UNL     1      -1.086  48.986 -18.142  1.00  0.00     0.007 C 
HETATM   18  C26 UNL     1      -1.340  48.906 -19.660  1.00  0.00     0.013 C 
HETATM   19  C27 UNL     1      -1.594  50.291 -20.303  1.00  0.00    -0.006 C 
ENDROOT
BRANCH   1  20
HETATM   20  C8  UNL     1      -2.553  49.753 -22.792  1.00  0.00     0.079 C 
HETATM   21  C9  UNL     1      -2.828  48.267 -22.552  1.00  0.00     0.051 C 
BRANCH  20  22
HETATM   22  C7  UNL     1      -2.138  49.910 -24.252  1.00  0.00     0.007 C 
HETATM   23  C6  UNL     1      -1.873  51.067 -24.889  1.00  0.00    -0.023 C 
BRANCH  23  24
HETATM   24  C4  UNL     1      -1.456  51.261 -26.338  1.00  0.00     0.007 C 
HETATM   25  C5  UNL     1      -2.253  50.382 -27.316  1.00  0.00     0.014 C 
BRANCH  24  26
HETATM   26  C2  UNL     1       0.085  51.076 -26.499  1.00  0.00    -0.015 C 
HETATM   27  C1  UNL     1       0.585  51.502 -27.886  1.00  0.00     0.010 C 
HETATM   28  C3  UNL     1       0.877  51.858 -25.438  1.00  0.00     0.010 C 
ENDBRANCH  24  26
ENDBRANCH  23  24
ENDBRANCH  20  22
BRANCH  20  29
HETATM   29  O1  UNL     1      -3.780  50.439 -22.574  1.00  0.00    -0.386 OA
HETATM   30  H17 UNL     1      -3.593  51.378 -22.783  1.00  0.00     0.211 HD
ENDBRANCH  20  29
ENDBRANCH   1  20
BRANCH   2  31
HETATM   31  O2  UNL     1      -2.168  52.598 -22.526  1.00  0.00    -0.395 OA
HETATM   32  H20 UNL     1      -1.839  53.507 -22.664  1.00  0.00     0.210 HD
ENDBRANCH   2  31
BRANCH  19  33
HETATM   33  C28 UNL     1      -2.968  50.824 -19.791  1.00  0.00     0.174 C 
BRANCH  33  34
HETATM   34  O4  UNL     1      -2.887  51.844 -18.809  1.00  0.00    -0.400 OA
HETATM   35  H44 UNL     1      -2.408  52.591 -19.215  1.00  0.00     0.209 HD
ENDBRANCH  33  34
ENDBRANCH  19  33
TORSDOF 8
ENDMDL
MODEL 7
REMARK minimizedAffinity -8.78132725
REMARK  8 active torsions:
REMARK  status: ('A' for Active; 'I' for Inactive)
REMARK    1  A    between atoms: C2_2  and  C4_4 
REMARK    2  A    between atoms: C4_4  and  C6_6 
REMARK    3  A    between atoms: C7_7  and  C8_8 
REMARK    4  A    between atoms: C8_8  and  O1_10 
REMARK    5  A    between atoms: C8_8  and  C10_11 
REMARK    6  A    between atoms: C11_12  and  O2_13 
REMARK    7  A    between atoms: C27_30  and  C28_31 
REMARK    8  A    between atoms: C28_31  and  O4_32 
ROOT
HETATM    1  C10 UNL     1      -3.243  51.170 -22.197  1.00  0.00     0.063 C 
HETATM    2  C11 UNL     1      -4.664  50.805 -21.657  1.00  0.00     0.126 C 
HETATM    3  C12 UNL     1      -4.521  50.608 -20.137  1.00  0.00     0.038 C 
HETATM    4  C13 UNL     1      -3.073  50.983 -19.843  1.00  0.00     0.003 C 
HETATM    5  C14 UNL     1      -2.422  50.503 -18.540  1.00  0.00    -0.004 C 
HETATM    6  C15 UNL     1      -3.314  50.800 -17.325  1.00  0.00     0.006 C 
HETATM    7  C16 UNL     1      -2.630  50.476 -15.999  1.00  0.00     0.006 C 
HETATM    8  C17 UNL     1      -1.274  51.179 -15.898  1.00  0.00     0.005 C 
HETATM    9  C18 UNL     1      -0.643  50.984 -14.517  1.00  0.00     0.088 C 
HETATM   10  C19 UNL     1       0.661  51.746 -14.415  1.00  0.00     0.149 C 
HETATM   11  O3  UNL     1       1.121  52.110 -13.335  1.00  0.00    -0.293 OA
HETATM   12  C20 UNL     1       1.428  52.008 -15.658  1.00  0.00     0.047 C 
HETATM   13  C21 UNL     1       0.989  51.570 -16.849  1.00  0.00    -0.013 C 
HETATM   14  C22 UNL     1      -0.306  50.796 -17.064  1.00  0.00    -0.018 C 
HETATM   15  C23 UNL     1       0.075  49.297 -17.044  1.00  0.00     0.020 C 
HETATM   16  C24 UNL     1      -1.023  51.191 -18.408  1.00  0.00     0.002 C 
HETATM   17  C25 UNL     1      -0.170  50.986 -19.689  1.00  0.00     0.007 C 
HETATM   18  C26 UNL     1      -0.913  51.297 -21.003  1.00  0.00     0.013 C 
HETATM   19  C27 UNL     1      -2.276  50.573 -21.112  1.00  0.00    -0.006 C 
ENDROOT
BRANCH   1  20
HETATM   20  C8  UNL     1      -3.029  50.864 -23.710  1.00  0.00     0.079 C 
HETATM   21  C9  UNL     1      -2.697  49.395 -23.979  1.00  0.00     0.051 C 
BRANCH  20  22
HETATM   22  C7  UNL     1      -1.868  51.698 -24.243  1.00  0.00     0.007 C 
HETATM   23  C6  UNL     1      -0.794  51.238 -24.913  1.00  0.00    -0.023 C 
BRANCH  23  24
HETATM   24  C4  UNL     1       0.379  52.037 -25.459  1.00  0.00     0.007 C 
HETATM   25  C5  UNL     1      -0.003  53.472 -25.857  1.00  0.00     0.014 C 
BRANCH  24  26
HETATM   26  C2  UNL     1       1.076  51.267 -26.624  1.00  0.00    -0.015 C 
HETATM   27  C1  UNL     1       0.583  51.721 -28.004  1.00  0.00     0.010 C 
HETATM   28  C3  UNL     1       2.606  51.415 -26.584  1.00  0.00     0.010 C 
ENDBRANCH  24  26
ENDBRANCH  23  24
ENDBRANCH  20  22
BRANCH  20  29
HETATM   29  O1  UNL     1      -4.205  51.163 -24.453  1.00  0.00    -0.386 OA
HETATM   30  H17 UNL     1      -4.368  52.119 -24.307  1.00  0.00     0.211 HD
ENDBRANCH  20  29
ENDBRANCH   1  20
BRANCH   2  31
HETATM   31  O2  UNL     1      -5.169  49.606 -22.245  1.00  0.00    -0.395 OA
HETATM   32  H20 UNL     1      -6.040  49.437 -21.834  1.00  0.00     0.210 HD
ENDBRANCH   2  31
BRANCH  19  33
HETATM   33  C28 UNL     1      -2.009  49.044 -21.267  1.00  0.00     0.174 C 
BRANCH  33  34
HETATM   34  O4  UNL     1      -0.645  48.663 -21.190  1.00  0.00    -0.400 OA
HETATM   35  H44 UNL     1      -0.324  48.935 -20.309  1.00  0.00     0.209 HD
ENDBRANCH  33  34
ENDBRANCH  19  33
TORSDOF 8
ENDMDL
MODEL 8
REMARK minimizedAffinity -8.67461586
REMARK  8 active torsions:
REMARK  status: ('A' for Active; 'I' for Inactive)
REMARK    1  A    between atoms: C2_2  and  C4_4 
REMARK    2  A    between atoms: C4_4  and  C6_6 
REMARK    3  A    between atoms: C7_7  and  C8_8 
REMARK    4  A    between atoms: C8_8  and  O1_10 
REMARK    5  A    between atoms: C8_8  and  C10_11 
REMARK    6  A    between atoms: C11_12  and  O2_13 
REMARK    7  A    between atoms: C27_30  and  C28_31 
REMARK    8  A    between atoms: C28_31  and  O4_32 
ROOT
HETATM    1  C10 UNL     1      -4.797  48.756 -21.964  1.00  0.00     0.063 C 
HETATM    2  C11 UNL     1      -5.616  48.052 -23.094  1.00  0.00     0.126 C 
HETATM    3  C12 UNL     1      -4.939  48.423 -24.427  1.00  0.00     0.038 C 
HETATM    4  C13 UNL     1      -3.702  49.210 -24.014  1.00  0.00     0.003 C 
HETATM    5  C14 UNL     1      -3.013  50.120 -25.039  1.00  0.00    -0.004 C 
HETATM    6  C15 UNL     1      -2.768  49.385 -26.366  1.00  0.00     0.006 C 
HETATM    7  C16 UNL     1      -1.948  50.211 -27.354  1.00  0.00     0.006 C 
HETATM    8  C17 UNL     1      -0.641  50.686 -26.714  1.00  0.00     0.005 C 
HETATM    9  C18 UNL     1       0.259  51.388 -27.735  1.00  0.00     0.088 C 
HETATM   10  C19 UNL     1       1.574  51.787 -27.100  1.00  0.00     0.149 C 
HETATM   11  O3  UNL     1       2.595  51.951 -27.763  1.00  0.00    -0.293 OA
HETATM   12  C20 UNL     1       1.608  52.039 -25.638  1.00  0.00     0.047 C 
HETATM   13  C21 UNL     1       0.498  51.933 -24.890  1.00  0.00    -0.013 C 
HETATM   14  C22 UNL     1      -0.874  51.539 -25.426  1.00  0.00    -0.018 C 
HETATM   15  C23 UNL     1      -1.620  52.862 -25.723  1.00  0.00     0.020 C 
HETATM   16  C24 UNL     1      -1.676  50.640 -24.415  1.00  0.00     0.002 C 
HETATM   17  C25 UNL     1      -1.915  51.277 -23.019  1.00  0.00     0.007 C 
HETATM   18  C26 UNL     1      -2.773  50.420 -22.068  1.00  0.00     0.013 C 
HETATM   19  C27 UNL     1      -4.101  49.953 -22.709  1.00  0.00    -0.006 C 
ENDROOT
BRANCH   1  20
HETATM   20  C8  UNL     1      -5.588  48.992 -20.643  1.00  0.00     0.079 C 
HETATM   21  C9  UNL     1      -6.737  49.989 -20.807  1.00  0.00     0.051 C 
BRANCH  20  22
HETATM   22  C7  UNL     1      -4.651  49.550 -19.576  1.00  0.00     0.007 C 
HETATM   23  C6  UNL     1      -3.752  48.851 -18.856  1.00  0.00    -0.023 C 
BRANCH  23  24
HETATM   24  C4  UNL     1      -2.803  49.371 -17.788  1.00  0.00     0.007 C 
HETATM   25  C5  UNL     1      -2.764  50.906 -17.713  1.00  0.00     0.014 C 
BRANCH  24  26
HETATM   26  C2  UNL     1      -1.381  48.752 -17.966  1.00  0.00    -0.015 C 
HETATM   27  C1  UNL     1      -0.963  48.656 -19.440  1.00  0.00     0.010 C 
HETATM   28  C3  UNL     1      -0.303  49.546 -17.209  1.00  0.00     0.010 C 
ENDBRANCH  24  26
ENDBRANCH  23  24
ENDBRANCH  20  22
BRANCH  20  29
HETATM   29  O1  UNL     1      -6.161  47.776 -20.178  1.00  0.00    -0.386 OA
HETATM   30  H17 UNL     1      -5.403  47.171 -20.032  1.00  0.00     0.211 HD
ENDBRANCH  20  29
ENDBRANCH   1  20
BRANCH   2  31
HETATM   31  O2  UNL     1      -6.977  48.485 -23.118  1.00  0.00    -0.395 OA
HETATM   32  H20 UNL     1      -7.406  48.022 -23.864  1.00  0.00     0.210 HD
ENDBRANCH   2  31
BRANCH  19  33
HETATM   33  C28 UNL     1      -5.017  51.200 -22.906  1.00  0.00     0.174 C 
BRANCH  33  34
HETATM   34  O4  UNL     1      -5.852  51.156 -24.051  1.00  0.00    -0.400 OA
HETATM   35  H44 UNL     1      -6.428  50.375 -23.952  1.00  0.00     0.209 HD
ENDBRANCH  33  34
ENDBRANCH  19  33
TORSDOF 8
ENDMDL
MODEL 9
REMARK minimizedAffinity -8.61716747
REMARK  8 active torsions:
REMARK  status: ('A' for Active; 'I' for Inactive)
REMARK    1  A    between atoms: C2_2  and  C4_4 
REMARK    2  A    between atoms: C4_4  and  C6_6 
REMARK    3  A    between atoms: C7_7  and  C8_8 
REMARK    4  A    between atoms: C8_8  and  O1_10 
REMARK    5  A    between atoms: C8_8  and  C10_11 
REMARK    6  A    between atoms: C11_12  and  O2_13 
REMARK    7  A    between atoms: C27_30  and  C28_31 
REMARK    8  A    between atoms: C28_31  and  O4_32 
ROOT
HETATM    1  C10 UNL     1      -0.771  51.066 -15.430  1.00  0.00     0.063 C 
HETATM    2  C11 UNL     1       0.730  51.501 -15.426  1.00  0.00     0.126 C 
HETATM    3  C12 UNL     1       1.118  51.765 -16.892  1.00  0.00     0.038 C 
HETATM    4  C13 UNL     1      -0.187  51.598 -17.662  1.00  0.00     0.003 C 
HETATM    5  C14 UNL     1      -0.140  51.345 -19.174  1.00  0.00    -0.004 C 
HETATM    6  C15 UNL     1       0.780  52.351 -19.883  1.00  0.00     0.006 C 
HETATM    7  C16 UNL     1       0.729  52.226 -21.403  1.00  0.00     0.006 C 
HETATM    8  C17 UNL     1      -0.712  52.315 -21.910  1.00  0.00     0.005 C 
HETATM    9  C18 UNL     1      -0.767  52.340 -23.440  1.00  0.00     0.088 C 
HETATM   10  C19 UNL     1      -2.194  52.499 -23.919  1.00  0.00     0.149 C 
HETATM   11  O3  UNL     1      -2.464  52.974 -25.020  1.00  0.00    -0.293 OA
HETATM   12  C20 UNL     1      -3.293  52.013 -23.048  1.00  0.00     0.047 C 
HETATM   13  C21 UNL     1      -3.035  51.431 -21.866  1.00  0.00    -0.013 C 
HETATM   14  C22 UNL     1      -1.639  51.221 -21.290  1.00  0.00    -0.018 C 
HETATM   15  C23 UNL     1      -1.214  49.790 -21.695  1.00  0.00     0.020 C 
HETATM   16  C24 UNL     1      -1.601  51.413 -19.729  1.00  0.00     0.002 C 
HETATM   17  C25 UNL     1      -2.552  50.481 -18.931  1.00  0.00     0.007 C 
HETATM   18  C26 UNL     1      -2.443  50.622 -17.400  1.00  0.00     0.013 C 
HETATM   19  C27 UNL     1      -0.988  50.516 -16.886  1.00  0.00    -0.006 C 
ENDROOT
BRANCH   1  20
HETATM   20  C8  UNL     1      -1.205  50.230 -14.190  1.00  0.00     0.079 C 
HETATM   21  C9  UNL     1      -1.500  48.768 -14.531  1.00  0.00     0.051 C 
BRANCH  20  22
HETATM   22  C7  UNL     1      -2.477  50.823 -13.591  1.00  0.00     0.007 C 
HETATM   23  C6  UNL     1      -2.638  51.261 -12.327  1.00  0.00    -0.023 C 
BRANCH  23  24
HETATM   24  C4  UNL     1      -3.886  51.857 -11.696  1.00  0.00     0.007 C 
HETATM   25  C5  UNL     1      -3.856  53.394 -11.637  1.00  0.00     0.014 C 
BRANCH  24  26
HETATM   26  C2  UNL     1      -4.158  51.218 -10.299  1.00  0.00    -0.015 C 
HETATM   27  C1  UNL     1      -4.865  49.860 -10.403  1.00  0.00     0.010 C 
HETATM   28  C3  UNL     1      -2.867  51.030  -9.485  1.00  0.00     0.010 C 
ENDBRANCH  24  26
ENDBRANCH  23  24
ENDBRANCH  20  22
BRANCH  20  29
HETATM   29  O1  UNL     1      -0.179  50.224 -13.204  1.00  0.00    -0.386 OA
HETATM   30  H17 UNL     1      -0.044  51.165 -12.965  1.00  0.00     0.211 HD
ENDBRANCH  20  29
ENDBRANCH   1  20
BRANCH   2  31
HETATM   31  O2  UNL     1       1.580  50.487 -14.887  1.00  0.00    -0.395 OA
HETATM   32  H20 UNL     1       2.494  50.826 -14.947  1.00  0.00     0.210 HD
ENDBRANCH   2  31
BRANCH  19  33
HETATM   33  C28 UNL     1      -0.500  49.049 -17.093  1.00  0.00     0.174 C 
BRANCH  33  34
HETATM   34  O4  UNL     1      -1.380  48.224 -17.838  1.00  0.00    -0.400 OA
HETATM   35  H44 UNL     1      -1.475  48.634 -18.719  1.00  0.00     0.209 HD
ENDBRANCH  33  34
ENDBRANCH  19  33
TORSDOF 8
ENDMDL
