MODEL 1
REMARK minimizedAffinity -8.79655266
REMARK CNNscore 0.681896925
REMARK CNNaffinity 7.21550226
REMARK  8 active torsions:
REMARK  status: ('A' for Active; 'I' for Inactive)
REMARK    1  A    between atoms: C4_4  and  C5_5 
REMARK    2  A    between atoms: C5_5  and  C6_6 
REMARK    3  A    between atoms: C6_6  and  C7_7 
REMARK    4  A    between atoms: C7_7  and  C9_9 
REMARK    5  A    between atoms: C25_26  and  C27_28 
REMARK    6  A    between atoms: C27_28  and  O3_30 
REMARK    7  A    between atoms: C28_31  and  O4_32 
REMARK    8  A    between atoms: C30_34  and  O5_35 
ROOT
HETATM    1  C9  UNL     1      -5.519   6.860  14.611  1.00  0.00    -0.002 C 
HETATM    2  C10 UNL     1      -5.237   8.164  15.415  1.00  0.00     0.007 C 
HETATM    3  C11 UNL     1      -3.831   8.655  15.024  1.00  0.00     0.015 C 
HETATM    4  C12 UNL     1      -3.448   7.839  13.775  1.00  0.00    -0.005 C 
HETATM    5  C13 UNL     1      -4.095   8.554  12.547  1.00  0.00     0.021 C 
HETATM    6  C14 UNL     1      -1.984   7.662  13.382  1.00  0.00    -0.000 C 
HETATM    7  C15 UNL     1      -1.551   6.536  12.748  1.00  0.00    -0.058 C 
HETATM    8  C16 UNL     1      -2.524   5.392  12.451  1.00  0.00     0.036 C 
HETATM    9  C17 UNL     1      -3.986   5.553  12.911  1.00  0.00     0.015 C 
HETATM   10  C18 UNL     1      -4.088   6.443  14.153  1.00  0.00    -0.028 C 
HETATM   11  C19 UNL     1      -3.359   5.730  15.337  1.00  0.00     0.016 C 
HETATM   12  C20 UNL     1      -0.050   6.316  12.343  1.00  0.00     0.011 C 
HETATM   13  C21 UNL     1       0.587   5.667  13.592  1.00  0.00     0.023 C 
HETATM   14  C22 UNL     1       0.510   7.735  11.982  1.00  0.00     0.029 C 
HETATM   15  C23 UNL     1       0.394   8.689  13.172  1.00  0.00     0.090 C 
HETATM   16  C24 UNL     1      -1.034   8.792  13.655  1.00  0.00     0.157 C 
HETATM   17  O1  UNL     1      -1.395   9.796  14.268  1.00  0.00    -0.293 OA
HETATM   18  C25 UNL     1       1.849   7.805  11.148  1.00  0.00     0.072 C 
HETATM   19  C26 UNL     1       1.466   8.378   9.745  1.00  0.00     0.030 C 
HETATM   20  C28 UNL     1       2.524   6.441  10.894  1.00  0.00     0.139 C 
HETATM   21  C29 UNL     1       1.563   5.326  10.498  1.00  0.00     0.065 C 
HETATM   22  C30 UNL     1       0.139   5.418  11.071  1.00  0.00     0.133 C 
ENDROOT
BRANCH   1  23
HETATM   23  C7  UNL     1      -6.398   5.864  15.422  1.00  0.00    -0.014 C 
HETATM   24  C8  UNL     1      -7.042   6.563  16.634  1.00  0.00     0.010 C 
BRANCH  23  25
HETATM   25  C6  UNL     1      -7.491   5.135  14.608  1.00  0.00     0.008 C 
BRANCH  25  26
HETATM   26  C5  UNL     1      -7.954   5.861  13.340  1.00  0.00     0.028 C 
BRANCH  26  27
HETATM   27  C4  UNL     1      -9.444   6.074  13.347  1.00  0.00    -0.025 C 
HETATM   28  C2  UNL     1     -10.131   7.080  13.923  1.00  0.00    -0.091 C 
HETATM   29  C1  UNL     1      -9.521   8.181  14.748  1.00  0.00     0.042 C 
HETATM   30  C3  UNL     1     -11.627   7.175  13.773  1.00  0.00     0.042 C 
ENDBRANCH  26  27
ENDBRANCH  25  26
ENDBRANCH  23  25
ENDBRANCH   1  23
BRANCH  22  31
HETATM   31  O5  UNL     1      -0.311   4.073  11.254  1.00  0.00    -0.394 OA
HETATM   32  H46 UNL     1       0.249   3.652  11.929  1.00  0.00     0.210 HD
ENDBRANCH  22  31
BRANCH  18  33
HETATM   33  C27 UNL     1       2.927   8.757  11.686  1.00  0.00     0.151 C 
HETATM   34  O2  UNL     1       2.753   9.629  12.530  1.00  0.00    -0.649 OA
BRANCH  33  35
HETATM   35  O3  UNL     1       4.148   8.615  11.142  1.00  0.00    -0.776 OA
HETATM   36  H40 UNL     1       4.682   9.317  11.571  1.00  0.00     0.167 HD
ENDBRANCH  33  35
ENDBRANCH  18  33
BRANCH  20  37
HETATM   37  O4  UNL     1       3.258   5.995  12.033  1.00  0.00    -0.394 OA
HETATM   38  H42 UNL     1       3.889   5.315  11.736  1.00  0.00     0.210 HD
ENDBRANCH  20  37
TORSDOF 8
ENDMDL
MODEL 2
REMARK minimizedAffinity -9.47121525
REMARK CNNscore 0.679839551
REMARK CNNaffinity 7.15431213
REMARK  8 active torsions:
REMARK  status: ('A' for Active; 'I' for Inactive)
REMARK    1  A    between atoms: C4_4  and  C5_5 
REMARK    2  A    between atoms: C5_5  and  C6_6 
REMARK    3  A    between atoms: C6_6  and  C7_7 
REMARK    4  A    between atoms: C7_7  and  C9_9 
REMARK    5  A    between atoms: C25_26  and  C27_28 
REMARK    6  A    between atoms: C27_28  and  O3_30 
REMARK    7  A    between atoms: C28_31  and  O4_32 
REMARK    8  A    between atoms: C30_34  and  O5_35 
ROOT
HETATM    1  C9  UNL     1      -5.735   6.846  14.799  1.00  0.00    -0.002 C 
HETATM    2  C10 UNL     1      -5.520   8.224  15.493  1.00  0.00     0.007 C 
HETATM    3  C11 UNL     1      -4.136   8.747  15.067  1.00  0.00     0.015 C 
HETATM    4  C12 UNL     1      -3.707   7.849  13.891  1.00  0.00    -0.005 C 
HETATM    5  C13 UNL     1      -4.378   8.429  12.607  1.00  0.00     0.021 C 
HETATM    6  C14 UNL     1      -2.233   7.710  13.519  1.00  0.00    -0.000 C 
HETATM    7  C15 UNL     1      -1.744   6.557  12.981  1.00  0.00    -0.058 C 
HETATM    8  C16 UNL     1      -2.659   5.348  12.778  1.00  0.00     0.036 C 
HETATM    9  C17 UNL     1      -4.130   5.477  13.219  1.00  0.00     0.015 C 
HETATM   10  C18 UNL     1      -4.283   6.461  14.382  1.00  0.00    -0.028 C 
HETATM   11  C19 UNL     1      -3.529   5.884  15.624  1.00  0.00     0.016 C 
HETATM   12  C20 UNL     1      -0.231   6.376  12.601  1.00  0.00     0.011 C 
HETATM   13  C21 UNL     1       0.427   5.863  13.902  1.00  0.00     0.023 C 
HETATM   14  C22 UNL     1       0.264   7.785  12.125  1.00  0.00     0.029 C 
HETATM   15  C23 UNL     1       0.096   8.828  13.231  1.00  0.00     0.090 C 
HETATM   16  C24 UNL     1      -1.339   8.903  13.700  1.00  0.00     0.157 C 
HETATM   17  O1  UNL     1      -1.751   9.936  14.226  1.00  0.00    -0.293 OA
HETATM   18  C25 UNL     1       1.604   7.849  11.293  1.00  0.00     0.072 C 
HETATM   19  C26 UNL     1       1.204   8.286   9.846  1.00  0.00     0.030 C 
HETATM   20  C28 UNL     1       2.345   6.503  11.154  1.00  0.00     0.139 C 
HETATM   21  C29 UNL     1       1.440   5.314  10.850  1.00  0.00     0.065 C 
HETATM   22  C30 UNL     1       0.009   5.386  11.409  1.00  0.00     0.133 C 
ENDROOT
BRANCH   1  23
HETATM   23  C7  UNL     1      -6.571   5.880  15.688  1.00  0.00    -0.014 C 
HETATM   24  C8  UNL     1      -7.476   6.668  16.654  1.00  0.00     0.010 C 
BRANCH  23  25
HETATM   25  C6  UNL     1      -7.422   4.845  14.917  1.00  0.00     0.008 C 
BRANCH  25  26
HETATM   26  C5  UNL     1      -7.787   5.240  13.482  1.00  0.00     0.028 C 
BRANCH  26  27
HETATM   27  C4  UNL     1      -6.886   4.565  12.484  1.00  0.00    -0.025 C 
HETATM   28  C2  UNL     1      -6.787   3.246  12.221  1.00  0.00    -0.091 C 
HETATM   29  C1  UNL     1      -7.538   2.163  12.945  1.00  0.00     0.042 C 
HETATM   30  C3  UNL     1      -5.873   2.746  11.133  1.00  0.00     0.042 C 
ENDBRANCH  26  27
ENDBRANCH  25  26
ENDBRANCH  23  25
ENDBRANCH   1  23
BRANCH  22  31
HETATM   31  O5  UNL     1      -0.378   4.041  11.701  1.00  0.00    -0.394 OA
HETATM   32  H46 UNL     1       0.196   3.704  12.411  1.00  0.00     0.210 HD
ENDBRANCH  22  31
BRANCH  18  33
HETATM   33  C27 UNL     1       2.632   8.893  11.753  1.00  0.00     0.151 C 
HETATM   34  O2  UNL     1       3.839   8.849  11.542  1.00  0.00    -0.649 OA
BRANCH  33  35
HETATM   35  O3  UNL     1       2.136   9.916  12.471  1.00  0.00    -0.776 OA
HETATM   36  H40 UNL     1       2.926  10.447  12.704  1.00  0.00     0.167 HD
ENDBRANCH  33  35
ENDBRANCH  18  33
BRANCH  20  37
HETATM   37  O4  UNL     1       3.091   6.188  12.328  1.00  0.00    -0.394 OA
HETATM   38  H42 UNL     1       3.755   5.516  12.091  1.00  0.00     0.210 HD
ENDBRANCH  20  37
TORSDOF 8
ENDMDL
MODEL 3
REMARK minimizedAffinity -8.29502392
REMARK CNNscore 0.587790966
REMARK CNNaffinity 6.75375366
REMARK  8 active torsions:
REMARK  status: ('A' for Active; 'I' for Inactive)
REMARK    1  A    between atoms: C4_4  and  C5_5 
REMARK    2  A    between atoms: C5_5  and  C6_6 
REMARK    3  A    between atoms: C6_6  and  C7_7 
REMARK    4  A    between atoms: C7_7  and  C9_9 
REMARK    5  A    between atoms: C25_26  and  C27_28 
REMARK    6  A    between atoms: C27_28  and  O3_30 
REMARK    7  A    between atoms: C28_31  and  O4_32 
REMARK    8  A    between atoms: C30_34  and  O5_35 
ROOT
HETATM    1  C9  UNL     1      -5.338   6.955  13.906  1.00  0.00    -0.002 C 
HETATM    2  C10 UNL     1      -5.802   8.356  14.404  1.00  0.00     0.007 C 
HETATM    3  C11 UNL     1      -4.542   9.214  14.617  1.00  0.00     0.015 C 
HETATM    4  C12 UNL     1      -3.400   8.435  13.937  1.00  0.00    -0.005 C 
HETATM    5  C13 UNL     1      -3.448   8.791  12.418  1.00  0.00     0.021 C 
HETATM    6  C14 UNL     1      -1.948   8.678  14.338  1.00  0.00    -0.000 C 
HETATM    7  C15 UNL     1      -1.019   7.682  14.278  1.00  0.00    -0.058 C 
HETATM    8  C16 UNL     1      -1.424   6.272  13.844  1.00  0.00     0.036 C 
HETATM    9  C17 UNL     1      -2.907   6.020  13.506  1.00  0.00     0.015 C 
HETATM   10  C18 UNL     1      -3.828   6.955  14.295  1.00  0.00    -0.028 C 
HETATM   11  C19 UNL     1      -3.690   6.622  15.816  1.00  0.00     0.016 C 
HETATM   12  C20 UNL     1       0.479   7.895  14.697  1.00  0.00     0.011 C 
HETATM   13  C21 UNL     1       0.493   7.601  16.214  1.00  0.00     0.023 C 
HETATM   14  C22 UNL     1       0.827   9.374  14.310  1.00  0.00     0.029 C 
HETATM   15  C23 UNL     1      -0.092  10.361  15.033  1.00  0.00     0.090 C 
HETATM   16  C24 UNL     1      -1.546  10.067  14.744  1.00  0.00     0.157 C 
HETATM   17  O1  UNL     1      -2.378  10.967  14.849  1.00  0.00    -0.293 OA
HETATM   18  C25 UNL     1       2.353   9.769  14.219  1.00  0.00     0.072 C 
HETATM   19  C26 UNL     1       2.645  10.054  12.710  1.00  0.00     0.030 C 
HETATM   20  C28 UNL     1       3.335   8.660  14.652  1.00  0.00     0.139 C 
HETATM   21  C29 UNL     1       2.985   7.270  14.134  1.00  0.00     0.065 C 
HETATM   22  C30 UNL     1       1.490   6.977  13.925  1.00  0.00     0.133 C 
ENDROOT
BRANCH   1  23
HETATM   23  C7  UNL     1      -6.275   5.824  14.421  1.00  0.00    -0.014 C 
HETATM   24  C8  UNL     1      -7.272   6.368  15.460  1.00  0.00     0.010 C 
BRANCH  23  25
HETATM   25  C6  UNL     1      -7.044   5.055  13.322  1.00  0.00     0.008 C 
BRANCH  25  26
HETATM   26  C5  UNL     1      -7.531   3.658  13.723  1.00  0.00     0.028 C 
BRANCH  26  27
HETATM   27  C4  UNL     1      -7.256   2.652  12.638  1.00  0.00    -0.025 C 
HETATM   28  C2  UNL     1      -6.101   2.450  11.974  1.00  0.00    -0.091 C 
HETATM   29  C1  UNL     1      -4.847   3.260  12.157  1.00  0.00     0.042 C 
HETATM   30  C3  UNL     1      -5.983   1.345  10.956  1.00  0.00     0.042 C 
ENDBRANCH  26  27
ENDBRANCH  25  26
ENDBRANCH  23  25
ENDBRANCH   1  23
BRANCH  22  31
HETATM   31  O5  UNL     1       1.310   5.584  14.194  1.00  0.00    -0.394 OA
HETATM   32  H46 UNL     1       1.511   5.425  15.133  1.00  0.00     0.210 HD
ENDBRANCH  22  31
BRANCH  18  33
HETATM   33  C27 UNL     1       2.760  11.055  14.952  1.00  0.00     0.151 C 
HETATM   34  O2  UNL     1       3.294  12.032  14.439  1.00  0.00    -0.649 OA
BRANCH  33  35
HETATM   35  O3  UNL     1       2.522  11.066  16.276  1.00  0.00    -0.776 OA
HETATM   36  H40 UNL     1       2.875  11.932  16.573  1.00  0.00     0.167 HD
ENDBRANCH  33  35
ENDBRANCH  18  33
BRANCH  20  37
HETATM   37  O4  UNL     1       3.443   8.578  16.072  1.00  0.00    -0.394 OA
HETATM   38  H42 UNL     1       4.264   8.098  16.283  1.00  0.00     0.210 HD
ENDBRANCH  20  37
TORSDOF 8
ENDMDL
MODEL 4
REMARK minimizedAffinity -6.95412636
REMARK CNNscore 0.546797097
REMARK CNNaffinity 5.84873438
REMARK  8 active torsions:
REMARK  status: ('A' for Active; 'I' for Inactive)
REMARK    1  A    between atoms: C4_4  and  C5_5 
REMARK    2  A    between atoms: C5_5  and  C6_6 
REMARK    3  A    between atoms: C6_6  and  C7_7 
REMARK    4  A    between atoms: C7_7  and  C9_9 
REMARK    5  A    between atoms: C25_26  and  C27_28 
REMARK    6  A    between atoms: C27_28  and  O3_30 
REMARK    7  A    between atoms: C28_31  and  O4_32 
REMARK    8  A    between atoms: C30_34  and  O5_35 
ROOT
HETATM    1  C9  UNL     1     -17.502   2.493  14.770  1.00  0.00    -0.002 C 
HETATM    2  C10 UNL     1     -17.815   2.087  16.241  1.00  0.00     0.007 C 
HETATM    3  C11 UNL     1     -17.214   0.689  16.475  1.00  0.00     0.015 C 
HETATM    4  C12 UNL     1     -16.287   0.439  15.270  1.00  0.00    -0.005 C 
HETATM    5  C13 UNL     1     -14.926   1.134  15.591  1.00  0.00     0.021 C 
HETATM    6  C14 UNL     1     -15.902  -0.983  14.870  1.00  0.00    -0.000 C 
HETATM    7  C15 UNL     1     -15.654  -1.310  13.570  1.00  0.00    -0.058 C 
HETATM    8  C16 UNL     1     -15.800  -0.261  12.466  1.00  0.00     0.036 C 
HETATM    9  C17 UNL     1     -16.255   1.154  12.873  1.00  0.00     0.015 C 
HETATM   10  C18 UNL     1     -17.137   1.121  14.124  1.00  0.00    -0.028 C 
HETATM   11  C19 UNL     1     -18.452   0.347  13.786  1.00  0.00     0.016 C 
HETATM   12  C20 UNL     1     -15.270  -2.766  13.122  1.00  0.00     0.011 C 
HETATM   13  C21 UNL     1     -16.630  -3.455  12.872  1.00  0.00     0.023 C 
HETATM   14  C22 UNL     1     -14.432  -3.371  14.302  1.00  0.00     0.029 C 
HETATM   15  C23 UNL     1     -15.245  -3.390  15.598  1.00  0.00     0.090 C 
HETATM   16  C24 UNL     1     -15.738  -2.007  15.955  1.00  0.00     0.157 C 
HETATM   17  O1  UNL     1     -16.002  -1.742  17.128  1.00  0.00    -0.293 OA
HETATM   18  C25 UNL     1     -13.557  -4.649  13.999  1.00  0.00     0.072 C 
HETATM   19  C26 UNL     1     -12.064  -4.197  14.109  1.00  0.00     0.030 C 
HETATM   20  C28 UNL     1     -13.733  -5.233  12.582  1.00  0.00     0.139 C 
HETATM   21  C29 UNL     1     -13.777  -4.191  11.471  1.00  0.00     0.065 C 
HETATM   22  C30 UNL     1     -14.358  -2.817  11.848  1.00  0.00     0.133 C 
ENDROOT
BRANCH   1  23
HETATM   23  C7  UNL     1     -18.640   3.362  14.159  1.00  0.00    -0.014 C 
HETATM   24  C8  UNL     1     -19.359   4.172  15.254  1.00  0.00     0.010 C 
BRANCH  23  25
HETATM   25  C6  UNL     1     -18.205   4.311  13.019  1.00  0.00     0.008 C 
BRANCH  25  26
HETATM   26  C5  UNL     1     -16.911   5.091  13.277  1.00  0.00     0.028 C 
BRANCH  26  27
HETATM   27  C4  UNL     1     -16.934   6.428  12.589  1.00  0.00    -0.025 C 
HETATM   28  C2  UNL     1     -15.892   7.248  12.343  1.00  0.00    -0.091 C 
HETATM   29  C1  UNL     1     -14.475   6.998  12.781  1.00  0.00     0.042 C 
HETATM   30  C3  UNL     1     -16.087   8.530  11.576  1.00  0.00     0.042 C 
ENDBRANCH  26  27
ENDBRANCH  25  26
ENDBRANCH  23  25
ENDBRANCH   1  23
BRANCH  22  31
HETATM   31  O5  UNL     1     -14.997  -2.313  10.672  1.00  0.00    -0.394 OA
HETATM   32  H46 UNL     1     -15.744  -2.897  10.455  1.00  0.00     0.210 HD
ENDBRANCH  22  31
BRANCH  18  33
HETATM   33  C27 UNL     1     -13.695  -5.810  14.995  1.00  0.00     0.151 C 
HETATM   34  O2  UNL     1     -13.969  -5.703  16.184  1.00  0.00    -0.649 OA
BRANCH  33  35
HETATM   35  O3  UNL     1     -13.460  -7.035  14.491  1.00  0.00    -0.776 OA
HETATM   36  H40 UNL     1     -13.554  -7.631  15.264  1.00  0.00     0.167 HD
ENDBRANCH  33  35
ENDBRANCH  18  33
BRANCH  20  37
HETATM   37  O4  UNL     1     -14.917  -6.023  12.480  1.00  0.00    -0.394 OA
HETATM   38  H42 UNL     1     -14.831  -6.594  11.697  1.00  0.00     0.210 HD
ENDBRANCH  20  37
TORSDOF 8
ENDMDL
MODEL 5
REMARK minimizedAffinity -7.87717867
REMARK CNNscore 0.545715034
REMARK CNNaffinity 6.48572159
REMARK  8 active torsions:
REMARK  status: ('A' for Active; 'I' for Inactive)
REMARK    1  A    between atoms: C4_4  and  C5_5 
REMARK    2  A    between atoms: C5_5  and  C6_6 
REMARK    3  A    between atoms: C6_6  and  C7_7 
REMARK    4  A    between atoms: C7_7  and  C9_9 
REMARK    5  A    between atoms: C25_26  and  C27_28 
REMARK    6  A    between atoms: C27_28  and  O3_30 
REMARK    7  A    between atoms: C28_31  and  O4_32 
REMARK    8  A    between atoms: C30_34  and  O5_35 
ROOT
HETATM    1  C9  UNL     1       0.051   6.578  11.767  1.00  0.00    -0.002 C 
HETATM    2  C10 UNL     1       1.087   5.808  12.639  1.00  0.00     0.007 C 
HETATM    3  C11 UNL     1       1.175   6.528  13.998  1.00  0.00     0.015 C 
HETATM    4  C12 UNL     1      -0.028   7.489  14.027  1.00  0.00    -0.005 C 
HETATM    5  C13 UNL     1      -1.265   6.656  14.490  1.00  0.00     0.021 C 
HETATM    6  C14 UNL     1      -0.026   8.707  14.946  1.00  0.00    -0.000 C 
HETATM    7  C15 UNL     1      -0.678   9.854  14.604  1.00  0.00    -0.058 C 
HETATM    8  C16 UNL     1      -1.398   9.964  13.258  1.00  0.00     0.036 C 
HETATM    9  C17 UNL     1      -1.338   8.751  12.309  1.00  0.00     0.015 C 
HETATM   10  C18 UNL     1      -0.053   7.943  12.513  1.00  0.00    -0.028 C 
HETATM   11  C19 UNL     1       1.165   8.838  12.116  1.00  0.00     0.016 C 
HETATM   12  C20 UNL     1      -0.684  11.130  15.519  1.00  0.00     0.011 C 
HETATM   13  C21 UNL     1       0.581  11.908  15.091  1.00  0.00     0.023 C 
HETATM   14  C22 UNL     1      -0.661  10.600  16.995  1.00  0.00     0.029 C 
HETATM   15  C23 UNL     1       0.580   9.744  17.251  1.00  0.00     0.090 C 
HETATM   16  C24 UNL     1       0.663   8.593  16.275  1.00  0.00     0.157 C 
HETATM   17  O1  UNL     1       1.296   7.584  16.582  1.00  0.00    -0.293 OA
HETATM   18  C25 UNL     1      -1.075  11.604  18.141  1.00  0.00     0.072 C 
HETATM   19  C26 UNL     1      -2.427  11.077  18.722  1.00  0.00     0.030 C 
HETATM   20  C28 UNL     1      -1.336  13.051  17.671  1.00  0.00     0.139 C 
HETATM   21  C29 UNL     1      -2.142  13.159  16.382  1.00  0.00     0.065 C 
HETATM   22  C30 UNL     1      -1.974  12.009  15.375  1.00  0.00     0.133 C 
ENDROOT
BRANCH   1  23
HETATM   23  C7  UNL     1       0.432   6.542  10.258  1.00  0.00    -0.014 C 
HETATM   24  C8  UNL     1       0.170   7.906   9.594  1.00  0.00     0.010 C 
BRANCH  23  25
HETATM   25  C6  UNL     1       1.880   6.092   9.955  1.00  0.00     0.008 C 
BRANCH  25  26
HETATM   26  C5  UNL     1       2.560   6.822   8.792  1.00  0.00     0.028 C 
BRANCH  26  27
HETATM   27  C4  UNL     1       2.761   5.906   7.615  1.00  0.00    -0.025 C 
HETATM   28  C2  UNL     1       3.389   4.713   7.596  1.00  0.00    -0.091 C 
HETATM   29  C1  UNL     1       4.084   4.084   8.773  1.00  0.00     0.042 C 
HETATM   30  C3  UNL     1       3.439   3.892   6.334  1.00  0.00     0.042 C 
ENDBRANCH  26  27
ENDBRANCH  25  26
ENDBRANCH  23  25
ENDBRANCH   1  23
BRANCH  22  31
HETATM   31  O5  UNL     1      -2.125  12.586  14.074  1.00  0.00    -0.394 OA
HETATM   32  H46 UNL     1      -1.393  13.210  13.930  1.00  0.00     0.210 HD
ENDBRANCH  22  31
BRANCH  18  33
HETATM   33  C27 UNL     1      -0.126  11.677  19.346  1.00  0.00     0.151 C 
HETATM   34  O2  UNL     1       0.432  10.722  19.875  1.00  0.00    -0.649 OA
BRANCH  33  35
HETATM   35  O3  UNL     1       0.064  12.906  19.859  1.00  0.00    -0.776 OA
HETATM   36  H40 UNL     1       0.654  12.753  20.628  1.00  0.00     0.167 HD
ENDBRANCH  33  35
ENDBRANCH  18  33
BRANCH  20  37
HETATM   37  O4  UNL     1      -0.119  13.771  17.482  1.00  0.00    -0.394 OA
HETATM   38  H42 UNL     1      -0.330  14.722  17.484  1.00  0.00     0.210 HD
ENDBRANCH  20  37
TORSDOF 8
ENDMDL
MODEL 6
REMARK minimizedAffinity -6.58204412
REMARK CNNscore 0.476562321
REMARK CNNaffinity 6.18872023
REMARK  8 active torsions:
REMARK  status: ('A' for Active; 'I' for Inactive)
REMARK    1  A    between atoms: C4_4  and  C5_5 
REMARK    2  A    between atoms: C5_5  and  C6_6 
REMARK    3  A    between atoms: C6_6  and  C7_7 
REMARK    4  A    between atoms: C7_7  and  C9_9 
REMARK    5  A    between atoms: C25_26  and  C27_28 
REMARK    6  A    between atoms: C27_28  and  O3_30 
REMARK    7  A    between atoms: C28_31  and  O4_32 
REMARK    8  A    between atoms: C30_34  and  O5_35 
ROOT
HETATM    1  C9  UNL     1     -17.609   2.980  14.479  1.00  0.00    -0.002 C 
HETATM    2  C10 UNL     1     -17.713   2.720  16.011  1.00  0.00     0.007 C 
HETATM    3  C11 UNL     1     -17.094   1.338  16.290  1.00  0.00     0.015 C 
HETATM    4  C12 UNL     1     -16.349   0.958  14.997  1.00  0.00    -0.005 C 
HETATM    5  C13 UNL     1     -14.951   1.653  15.055  1.00  0.00     0.021 C 
HETATM    6  C14 UNL     1     -16.034  -0.502  14.683  1.00  0.00    -0.000 C 
HETATM    7  C15 UNL     1     -15.975  -0.954  13.399  1.00  0.00    -0.058 C 
HETATM    8  C16 UNL     1     -16.270  -0.011  12.231  1.00  0.00     0.036 C 
HETATM    9  C17 UNL     1     -16.652   1.445  12.562  1.00  0.00     0.015 C 
HETATM   10  C18 UNL     1     -17.348   1.547  13.922  1.00  0.00    -0.028 C 
HETATM   11  C19 UNL     1     -18.703   0.771  13.848  1.00  0.00     0.016 C 
HETATM   12  C20 UNL     1     -15.668  -2.453  13.042  1.00  0.00     0.011 C 
HETATM   13  C21 UNL     1     -17.054  -3.135  13.053  1.00  0.00     0.023 C 
HETATM   14  C22 UNL     1     -14.675  -2.962  14.144  1.00  0.00     0.029 C 
HETATM   15  C23 UNL     1     -15.295  -2.843  15.538  1.00  0.00     0.090 C 
HETATM   16  C24 UNL     1     -15.724  -1.423  15.828  1.00  0.00     0.157 C 
HETATM   17  O1  UNL     1     -15.817  -1.046  16.995  1.00  0.00    -0.293 OA
HETATM   18  C25 UNL     1     -13.860  -4.280  13.844  1.00  0.00     0.072 C 
HETATM   19  C26 UNL     1     -12.364  -3.850  13.700  1.00  0.00     0.030 C 
HETATM   20  C28 UNL     1     -14.240  -4.990  12.528  1.00  0.00     0.139 C 
HETATM   21  C29 UNL     1     -14.434  -4.055  11.340  1.00  0.00     0.065 C 
HETATM   22  C30 UNL     1     -14.946  -2.641  11.663  1.00  0.00     0.133 C 
ENDROOT
BRANCH   1  23
HETATM   23  C7  UNL     1     -18.816   3.811  13.955  1.00  0.00    -0.014 C 
HETATM   24  C8  UNL     1     -18.740   5.265  14.456  1.00  0.00     0.010 C 
BRANCH  23  25
HETATM   25  C6  UNL     1     -19.004   3.804  12.420  1.00  0.00     0.008 C 
BRANCH  25  26
HETATM   26  C5  UNL     1     -20.447   3.614  11.940  1.00  0.00     0.028 C 
BRANCH  26  27
HETATM   27  C4  UNL     1     -20.562   2.436  11.012  1.00  0.00    -0.025 C 
HETATM   28  C2  UNL     1     -21.133   2.400   9.791  1.00  0.00    -0.091 C 
HETATM   29  C1  UNL     1     -21.840   3.555   9.134  1.00  0.00     0.042 C 
HETATM   30  C3  UNL     1     -21.099   1.142   8.963  1.00  0.00     0.042 C 
ENDBRANCH  26  27
ENDBRANCH  25  26
ENDBRANCH  23  25
ENDBRANCH   1  23
BRANCH  22  31
HETATM   31  O5  UNL     1     -15.743  -2.236  10.546  1.00  0.00    -0.394 OA
HETATM   32  H46 UNL     1     -16.517  -2.823  10.493  1.00  0.00     0.210 HD
ENDBRANCH  22  31
BRANCH  18  33
HETATM   33  C27 UNL     1     -13.863  -5.340  14.955  1.00  0.00     0.151 C 
HETATM   34  O2  UNL     1     -14.281  -5.178  16.096  1.00  0.00    -0.649 OA
BRANCH  33  35
HETATM   35  O3  UNL     1     -13.327  -6.528  14.623  1.00  0.00    -0.776 OA
HETATM   36  H40 UNL     1     -13.380  -7.051  15.450  1.00  0.00     0.167 HD
ENDBRANCH  33  35
ENDBRANCH  18  33
BRANCH  20  37
HETATM   37  O4  UNL     1     -15.431  -5.762  12.670  1.00  0.00    -0.394 OA
HETATM   38  H42 UNL     1     -15.460  -6.406  11.940  1.00  0.00     0.210 HD
ENDBRANCH  20  37
TORSDOF 8
ENDMDL
MODEL 7
REMARK minimizedAffinity -7.01861572
REMARK CNNscore 0.471159875
REMARK CNNaffinity 6.61764002
REMARK  8 active torsions:
REMARK  status: ('A' for Active; 'I' for Inactive)
REMARK    1  A    between atoms: C4_4  and  C5_5 
REMARK    2  A    between atoms: C5_5  and  C6_6 
REMARK    3  A    between atoms: C6_6  and  C7_7 
REMARK    4  A    between atoms: C7_7  and  C9_9 
REMARK    5  A    between atoms: C25_26  and  C27_28 
REMARK    6  A    between atoms: C27_28  and  O3_30 
REMARK    7  A    between atoms: C28_31  and  O4_32 
REMARK    8  A    between atoms: C30_34  and  O5_35 
ROOT
HETATM    1  C9  UNL     1     -11.592  16.186   2.423  1.00  0.00    -0.002 C 
HETATM    2  C10 UNL     1     -10.347  16.410   1.514  1.00  0.00     0.007 C 
HETATM    3  C11 UNL     1     -10.532  15.546   0.253  1.00  0.00     0.015 C 
HETATM    4  C12 UNL     1     -12.004  15.094   0.282  1.00  0.00    -0.005 C 
HETATM    5  C13 UNL     1     -12.849  16.256  -0.328  1.00  0.00     0.021 C 
HETATM    6  C14 UNL     1     -12.450  13.855  -0.489  1.00  0.00    -0.000 C 
HETATM    7  C15 UNL     1     -13.477  13.076  -0.046  1.00  0.00    -0.058 C 
HETATM    8  C16 UNL     1     -14.185  13.404   1.271  1.00  0.00     0.036 C 
HETATM    9  C17 UNL     1     -13.683  14.618   2.075  1.00  0.00     0.015 C 
HETATM   10  C18 UNL     1     -12.191  14.871   1.836  1.00  0.00    -0.028 C 
HETATM   11  C19 UNL     1     -11.385  13.650   2.386  1.00  0.00     0.016 C 
HETATM   12  C20 UNL     1     -13.951  11.787  -0.807  1.00  0.00     0.011 C 
HETATM   13  C21 UNL     1     -13.060  10.662  -0.236  1.00  0.00     0.023 C 
HETATM   14  C22 UNL     1     -13.739  12.086  -2.332  1.00  0.00     0.029 C 
HETATM   15  C23 UNL     1     -12.270  12.392  -2.630  1.00  0.00     0.090 C 
HETATM   16  C24 UNL     1     -11.769  13.545  -1.791  1.00  0.00     0.157 C 
HETATM   17  O1  UNL     1     -10.811  14.209  -2.184  1.00  0.00    -0.293 OA
HETATM   18  C25 UNL     1     -14.494  11.168  -3.371  1.00  0.00     0.072 C 
HETATM   19  C26 UNL     1     -15.559  12.075  -4.068  1.00  0.00     0.030 C 
HETATM   20  C28 UNL     1     -15.266   9.986  -2.749  1.00  0.00     0.139 C 
HETATM   21  C29 UNL     1     -16.054  10.338  -1.493  1.00  0.00     0.065 C 
HETATM   22  C30 UNL     1     -15.475  11.464  -0.618  1.00  0.00     0.133 C 
ENDROOT
BRANCH   1  23
HETATM   23  C7  UNL     1     -11.222  16.266   3.933  1.00  0.00    -0.014 C 
HETATM   24  C8  UNL     1     -12.253  17.110   4.706  1.00  0.00     0.010 C 
BRANCH  23  25
HETATM   25  C6  UNL     1     -11.038  14.903   4.640  1.00  0.00     0.008 C 
BRANCH  25  26
HETATM   26  C5  UNL     1      -9.932  14.862   5.700  1.00  0.00     0.028 C 
BRANCH  26  27
HETATM   27  C4  UNL     1      -8.703  15.595   5.235  1.00  0.00    -0.025 C 
HETATM   28  C2  UNL     1      -8.159  16.711   5.760  1.00  0.00    -0.091 C 
HETATM   29  C1  UNL     1      -8.735  17.493   6.910  1.00  0.00     0.042 C 
HETATM   30  C3  UNL     1      -6.877  17.276   5.205  1.00  0.00     0.042 C 
ENDBRANCH  26  27
ENDBRANCH  25  26
ENDBRANCH  23  25
ENDBRANCH   1  23
BRANCH  22  31
HETATM   31  O5  UNL     1     -15.824  11.147   0.732  1.00  0.00    -0.394 OA
HETATM   32  H46 UNL     1     -15.372  10.322   0.980  1.00  0.00     0.210 HD
ENDBRANCH  22  31
BRANCH  18  33
HETATM   33  C27 UNL     1     -13.640  10.606  -4.517  1.00  0.00     0.151 C 
HETATM   34  O2  UNL     1     -13.841  10.785  -5.713  1.00  0.00    -0.649 OA
BRANCH  33  35
HETATM   35  O3  UNL     1     -12.606   9.832  -4.142  1.00  0.00    -0.776 OA
HETATM   36  H40 UNL     1     -12.209   9.540  -4.990  1.00  0.00     0.167 HD
ENDBRANCH  33  35
ENDBRANCH  18  33
BRANCH  20  37
HETATM   37  O4  UNL     1     -14.398   8.901  -2.425  1.00  0.00    -0.394 OA
HETATM   38  H42 UNL     1     -14.943   8.100  -2.326  1.00  0.00     0.210 HD
ENDBRANCH  20  37
TORSDOF 8
ENDMDL
MODEL 8
REMARK minimizedAffinity -7.23694897
REMARK CNNscore 0.464250207
REMARK CNNaffinity 5.97645426
REMARK  8 active torsions:
REMARK  status: ('A' for Active; 'I' for Inactive)
REMARK    1  A    between atoms: C4_4  and  C5_5 
REMARK    2  A    between atoms: C5_5  and  C6_6 
REMARK    3  A    between atoms: C6_6  and  C7_7 
REMARK    4  A    between atoms: C7_7  and  C9_9 
REMARK    5  A    between atoms: C25_26  and  C27_28 
REMARK    6  A    between atoms: C27_28  and  O3_30 
REMARK    7  A    between atoms: C28_31  and  O4_32 
REMARK    8  A    between atoms: C30_34  and  O5_35 
ROOT
HETATM    1  C9  UNL     1      -1.783  11.975  17.878  1.00  0.00    -0.002 C 
HETATM    2  C10 UNL     1      -0.837  11.684  19.082  1.00  0.00     0.007 C 
HETATM    3  C11 UNL     1       0.403  10.956  18.532  1.00  0.00     0.015 C 
HETATM    4  C12 UNL     1       0.328  11.124  17.003  1.00  0.00    -0.005 C 
HETATM    5  C13 UNL     1       0.936  12.523  16.667  1.00  0.00     0.021 C 
HETATM    6  C14 UNL     1       1.066  10.159  16.079  1.00  0.00    -0.000 C 
HETATM    7  C15 UNL     1       0.583   9.853  14.841  1.00  0.00    -0.058 C 
HETATM    8  C16 UNL     1      -0.746  10.441  14.362  1.00  0.00     0.036 C 
HETATM    9  C17 UNL     1      -1.516  11.362  15.328  1.00  0.00     0.015 C 
HETATM   10  C18 UNL     1      -1.234  11.002  16.790  1.00  0.00    -0.028 C 
HETATM   11  C19 UNL     1      -1.784   9.564  17.063  1.00  0.00     0.016 C 
HETATM   12  C20 UNL     1       1.309   8.853  13.873  1.00  0.00     0.011 C 
HETATM   13  C21 UNL     1       0.743   7.470  14.263  1.00  0.00     0.023 C 
HETATM   14  C22 UNL     1       2.844   9.035  14.139  1.00  0.00     0.029 C 
HETATM   15  C23 UNL     1       3.186   8.734  15.599  1.00  0.00     0.090 C 
HETATM   16  C24 UNL     1       2.380   9.598  16.541  1.00  0.00     0.157 C 
HETATM   17  O1  UNL     1       2.809   9.826  17.671  1.00  0.00    -0.293 OA
HETATM   18  C25 UNL     1       3.848   8.486  13.051  1.00  0.00     0.072 C 
HETATM   19  C26 UNL     1       4.532   9.738  12.411  1.00  0.00     0.030 C 
HETATM   20  C28 UNL     1       3.185   7.710  11.893  1.00  0.00     0.139 C 
HETATM   21  C29 UNL     1       1.915   8.352  11.349  1.00  0.00     0.065 C 
HETATM   22  C30 UNL     1       1.076   9.161  12.352  1.00  0.00     0.133 C 
ENDROOT
BRANCH   1  23
HETATM   23  C7  UNL     1      -3.280  11.910  18.296  1.00  0.00    -0.014 C 
HETATM   24  C8  UNL     1      -3.553  10.671  19.169  1.00  0.00     0.010 C 
BRANCH  23  25
HETATM   25  C6  UNL     1      -3.820  13.171  19.010  1.00  0.00     0.008 C 
BRANCH  25  26
HETATM   26  C5  UNL     1      -5.316  13.142  19.344  1.00  0.00     0.028 C 
BRANCH  26  27
HETATM   27  C4  UNL     1      -5.548  13.326  20.819  1.00  0.00    -0.025 C 
HETATM   28  C2  UNL     1      -6.729  13.386  21.467  1.00  0.00    -0.091 C 
HETATM   29  C1  UNL     1      -8.080  13.341  20.807  1.00  0.00     0.042 C 
HETATM   30  C3  UNL     1      -6.776  13.508  22.968  1.00  0.00     0.042 C 
ENDBRANCH  26  27
ENDBRANCH  25  26
ENDBRANCH  23  25
ENDBRANCH   1  23
BRANCH  22  31
HETATM   31  O5  UNL     1      -0.289   9.015  11.948  1.00  0.00    -0.394 OA
HETATM   32  H46 UNL     1      -0.539   8.080  12.044  1.00  0.00     0.210 HD
ENDBRANCH  22  31
BRANCH  18  33
HETATM   33  C27 UNL     1       5.006   7.626  13.577  1.00  0.00     0.151 C 
HETATM   34  O2  UNL     1       5.484   7.684  14.704  1.00  0.00    -0.649 OA
BRANCH  33  35
HETATM   35  O3  UNL     1       5.536   6.766  12.691  1.00  0.00    -0.776 OA
HETATM   36  H40 UNL     1       6.271   6.341  13.183  1.00  0.00     0.167 HD
ENDBRANCH  33  35
ENDBRANCH  18  33
BRANCH  20  37
HETATM   37  O4  UNL     1       2.866   6.372  12.271  1.00  0.00    -0.394 OA
HETATM   38  H42 UNL     1       2.739   5.852  11.457  1.00  0.00     0.210 HD
ENDBRANCH  20  37
TORSDOF 8
ENDMDL
MODEL 9
REMARK minimizedAffinity -7.14542866
REMARK CNNscore 0.450762004
REMARK CNNaffinity 6.46036386
REMARK  8 active torsions:
REMARK  status: ('A' for Active; 'I' for Inactive)
REMARK    1  A    between atoms: C4_4  and  C5_5 
REMARK    2  A    between atoms: C5_5  and  C6_6 
REMARK    3  A    between atoms: C6_6  and  C7_7 
REMARK    4  A    between atoms: C7_7  and  C9_9 
REMARK    5  A    between atoms: C25_26  and  C27_28 
REMARK    6  A    between atoms: C27_28  and  O3_30 
REMARK    7  A    between atoms: C28_31  and  O4_32 
REMARK    8  A    between atoms: C30_34  and  O5_35 
ROOT
HETATM    1  C9  UNL     1       1.315   9.072  12.629  1.00  0.00    -0.002 C 
HETATM    2  C10 UNL     1       0.789   9.588  14.001  1.00  0.00     0.007 C 
HETATM    3  C11 UNL     1       2.013   9.882  14.887  1.00  0.00     0.015 C 
HETATM    4  C12 UNL     1       3.221   9.856  13.933  1.00  0.00    -0.005 C 
HETATM    5  C13 UNL     1       3.303  11.264  13.263  1.00  0.00     0.021 C 
HETATM    6  C14 UNL     1       4.629   9.608  14.469  1.00  0.00    -0.000 C 
HETATM    7  C15 UNL     1       5.573   8.977  13.716  1.00  0.00    -0.058 C 
HETATM    8  C16 UNL     1       5.229   8.457  12.319  1.00  0.00     0.036 C 
HETATM    9  C17 UNL     1       3.786   8.652  11.813  1.00  0.00     0.015 C 
HETATM   10  C18 UNL     1       2.785   8.678  12.972  1.00  0.00    -0.028 C 
HETATM   11  C19 UNL     1       2.792   7.279  13.667  1.00  0.00     0.016 C 
HETATM   12  C20 UNL     1       7.025   8.694  14.243  1.00  0.00     0.011 C 
HETATM   13  C21 UNL     1       6.909   7.329  14.958  1.00  0.00     0.023 C 
HETATM   14  C22 UNL     1       7.385   9.899  15.180  1.00  0.00     0.029 C 
HETATM   15  C23 UNL     1       6.391  10.008  16.338  1.00  0.00     0.090 C 
HETATM   16  C24 UNL     1       4.972  10.137  15.832  1.00  0.00     0.157 C 
HETATM   17  O1  UNL     1       4.121  10.668  16.544  1.00  0.00    -0.293 OA
HETATM   18  C25 UNL     1       8.907  10.124  15.533  1.00  0.00     0.072 C 
HETATM   19  C26 UNL     1       9.328  11.459  14.837  1.00  0.00     0.030 C 
HETATM   20  C28 UNL     1       9.862   9.034  15.003  1.00  0.00     0.139 C 
HETATM   21  C29 UNL     1       9.580   8.590  13.573  1.00  0.00     0.065 C 
HETATM   22  C30 UNL     1       8.114   8.659  13.114  1.00  0.00     0.133 C 
ENDROOT
BRANCH   1  23
HETATM   23  C7  UNL     1       0.354   8.020  12.004  1.00  0.00    -0.014 C 
HETATM   24  C8  UNL     1      -0.678   7.535  13.040  1.00  0.00     0.010 C 
BRANCH  23  25
HETATM   25  C6  UNL     1      -0.381   8.478  10.723  1.00  0.00     0.008 C 
BRANCH  25  26
HETATM   26  C5  UNL     1       0.465   8.464   9.445  1.00  0.00     0.028 C 
BRANCH  26  27
HETATM   27  C4  UNL     1       1.423   7.303   9.438  1.00  0.00    -0.025 C 
HETATM   28  C2  UNL     1       2.086   6.786   8.384  1.00  0.00    -0.091 C 
HETATM   29  C1  UNL     1       1.940   7.249   6.961  1.00  0.00     0.042 C 
HETATM   30  C3  UNL     1       3.065   5.656   8.571  1.00  0.00     0.042 C 
ENDBRANCH  26  27
ENDBRANCH  25  26
ENDBRANCH  23  25
ENDBRANCH   1  23
BRANCH  22  31
HETATM   31  O5  UNL     1       7.931   7.590  12.183  1.00  0.00    -0.394 OA
HETATM   32  H46 UNL     1       8.050   6.748  12.655  1.00  0.00     0.210 HD
ENDBRANCH  22  31
BRANCH  18  33
HETATM   33  C27 UNL     1       9.228  10.333  17.020  1.00  0.00     0.151 C 
HETATM   34  O2  UNL     1       9.458  11.411  17.557  1.00  0.00    -0.649 OA
BRANCH  33  35
HETATM   35  O3  UNL     1       9.283   9.214  17.763  1.00  0.00    -0.776 OA
HETATM   36  H40 UNL     1       9.533   9.533  18.656  1.00  0.00     0.167 HD
ENDBRANCH  33  35
ENDBRANCH  18  33
BRANCH  20  37
HETATM   37  O4  UNL     1       9.845   7.872  15.829  1.00  0.00    -0.394 OA
HETATM   38  H42 UNL     1      10.651   7.358  15.640  1.00  0.00     0.210 HD
ENDBRANCH  20  37
TORSDOF 8
ENDMDL
