MODEL 1
REMARK minimizedAffinity -6.38451195
REMARK CNNscore 0.487599015
REMARK CNNaffinity 6.53129959
REMARK  12 active torsions:
REMARK  status: ('A' for Active; 'I' for Inactive)
REMARK    1  A    between atoms: O1_2  and  C2_3 
REMARK    2  A    between atoms: C2_3  and  C3_4 
REMARK    3  A    between atoms: C3_4  and  C4_5 
REMARK    4  A    between atoms: C4_5  and  N1_6 
REMARK    5  A    between atoms: N1_6  and  C5_7 
REMARK    6  A    between atoms: C5_7  and  C6_8 
REMARK    7  A    between atoms: C10_12  and  O2_13 
REMARK    8  A    between atoms: C24_29  and  O5_30 
REMARK    9  A    between atoms: C28_34  and  C29_35 
REMARK   10  A    between atoms: C35_41  and  O6_42 
REMARK   11  A    between atoms: C38_45  and  C39_46 
REMARK   12  A    between atoms: C40_48  and  O8_49 
ROOT
HETATM    1  C6  UNL     1      -0.689  15.622   5.424  1.00  0.00    -0.016 C 
HETATM    2  C7  UNL     1      -1.962  15.908   5.777  1.00  0.00    -0.013 C 
HETATM    3  C8  UNL     1      -3.094  15.992   4.785  1.00  0.00     0.021 C 
HETATM    4  C9  UNL     1      -3.449  17.424   4.402  1.00  0.00     0.051 C 
HETATM    5  C10 UNL     1      -4.266  17.311   3.099  1.00  0.00     0.098 C 
HETATM    6  C11 UNL     1      -3.532  16.142   2.308  1.00  0.00     0.002 C 
HETATM    7  C12 UNL     1      -2.506  16.653   1.219  1.00  0.00     0.013 C 
HETATM    8  C13 UNL     1      -1.371  17.635   1.529  1.00  0.00     0.001 C 
HETATM    9  C14 UNL     1      -0.021  17.023   1.902  1.00  0.00     0.004 C 
HETATM   10  C15 UNL     1       0.156  16.802   3.404  1.00  0.00     0.048 C 
HETATM   11  C16 UNL     1      -0.338  15.450   3.955  1.00  0.00     0.120 A 
HETATM   12  O3  UNL     1       0.724  14.500   3.782  1.00  0.00    -0.297 OA
HETATM   13  C17 UNL     1       0.322  13.499   2.961  1.00  0.00     0.284 A 
HETATM   14  O4  UNL     1       1.017  12.573   2.585  1.00  0.00    -0.260 OA
HETATM   15  C18 UNL     1      -1.091  13.667   2.644  1.00  0.00     0.089 A 
HETATM   16  C19 UNL     1      -1.472  14.798   3.238  1.00  0.00    -0.029 A 
HETATM   17  C20 UNL     1      -2.878  15.265   3.433  1.00  0.00     0.037 C 
HETATM   18  C21 UNL     1      -4.506  15.232   1.484  1.00  0.00     0.014 C 
HETATM   19  C22 UNL     1      -5.848  15.877   1.176  1.00  0.00     0.010 C 
HETATM   20  C23 UNL     1      -6.575  16.114   2.502  1.00  0.00     0.041 C 
HETATM   21  C24 UNL     1      -5.867  17.237   3.300  1.00  0.00     0.095 C 
HETATM   22  C25 UNL     1      -6.380  17.193   4.758  1.00  0.00     0.049 C 
HETATM   23  C26 UNL     1      -7.810  16.609   4.910  1.00  0.00     0.025 C 
HETATM   24  C27 UNL     1      -8.356  16.896   6.331  1.00  0.00     0.012 C 
HETATM   25  C28 UNL     1      -8.997  18.280   6.538  1.00  0.00    -0.011 C 
HETATM   26  C32 UNL     1     -10.379  18.418   5.844  1.00  0.00     0.005 C 
HETATM   27  C33 UNL     1     -10.988  17.229   5.095  1.00  0.00     0.010 C 
HETATM   28  C34 UNL     1     -10.168  16.409   4.068  1.00  0.00     0.050 C 
HETATM   29  C35 UNL     1     -10.988  16.182   2.791  1.00  0.00     0.125 C 
HETATM   30  C36 UNL     1     -10.356  15.079   1.932  1.00  0.00     0.033 C 
HETATM   31  C37 UNL     1      -8.829  14.965   2.096  1.00  0.00     0.023 C 
HETATM   32  C38 UNL     1      -8.137  16.326   2.368  1.00  0.00     0.051 C 
HETATM   33  C40 UNL     1      -8.747  16.942   3.712  1.00  0.00     0.082 C 
ENDROOT
BRANCH   1  34
HETATM   34  C5  UNL     1       0.428  15.578   6.438  1.00  0.00     0.306 C 
BRANCH  34  35
HETATM   35  N1  UNL     1       1.049  16.876   6.680  1.00  0.00     0.087 N 
HETATM   36  H10 UNL     1       1.950  16.739   7.134  1.00  0.00     0.316 HD
BRANCH  35  37
HETATM   37  C4  UNL     1       0.242  17.790   7.501  1.00  0.00     0.272 C 
BRANCH  37  38
HETATM   38  C3  UNL     1       0.010  17.296   8.935  1.00  0.00     0.056 C 
BRANCH  38  39
HETATM   39  C2  UNL     1      -1.308  17.821   9.502  1.00  0.00     0.168 C 
BRANCH  39  40
HETATM   40  O1  UNL     1      -2.438  17.128   8.969  1.00  0.00    -0.396 OA
HETATM   41  C1  UNL     1      -3.432  18.005   8.448  1.00  0.00     0.201 C 
ENDBRANCH  39  40
ENDBRANCH  38  39
ENDBRANCH  37  38
ENDBRANCH  35  37
ENDBRANCH  34  35
ENDBRANCH   1  34
BRANCH   5  42
HETATM   42  O2  UNL     1      -4.013  18.551   2.393  1.00  0.00    -0.386 OA
HETATM   43  H17 UNL     1      -4.891  18.971   2.266  1.00  0.00     0.210 HD
ENDBRANCH   5  42
BRANCH  21  44
HETATM   44  O5  UNL     1      -6.339  18.511   2.762  1.00  0.00    -0.386 OA
HETATM   45  H33 UNL     1      -7.186  18.745   3.204  1.00  0.00     0.210 HD
ENDBRANCH  21  44
BRANCH  32  46
HETATM   46  C39 UNL     1      -8.379  17.221   1.128  1.00  0.00     0.244 C 
HETATM   47  O7  UNL     1      -8.805  16.802   0.051  1.00  0.00    -0.306 OA
ENDBRANCH  32  46
BRANCH  33  48
HETATM   48  O8  UNL     1      -8.784  18.364   3.552  1.00  0.00    -0.388 OA
HETATM   49  H59 UNL     1      -9.637  18.565   3.097  1.00  0.00     0.210 HD
ENDBRANCH  33  48
BRANCH  25  50
HETATM   50  C29 UNL     1      -9.109  18.691   8.050  1.00  0.00    -0.019 C 
HETATM   51  C30 UNL     1     -10.291  18.032   8.778  1.00  0.00     0.010 C 
HETATM   52  C31 UNL     1      -7.826  18.322   8.817  1.00  0.00     0.010 C 
ENDBRANCH  25  50
BRANCH  29  53
HETATM   53  O6  UNL     1     -11.039  17.423   2.080  1.00  0.00    -0.395 OA
HETATM   54  H53 UNL     1     -11.522  17.261   1.245  1.00  0.00     0.210 HD
ENDBRANCH  29  53
TORSDOF 12
ENDMDL
MODEL 2
REMARK minimizedAffinity -7.90499783
REMARK CNNscore 0.42722702
REMARK CNNaffinity 6.95622778
REMARK  12 active torsions:
REMARK  status: ('A' for Active; 'I' for Inactive)
REMARK    1  A    between atoms: O1_2  and  C2_3 
REMARK    2  A    between atoms: C2_3  and  C3_4 
REMARK    3  A    between atoms: C3_4  and  C4_5 
REMARK    4  A    between atoms: C4_5  and  N1_6 
REMARK    5  A    between atoms: N1_6  and  C5_7 
REMARK    6  A    between atoms: C5_7  and  C6_8 
REMARK    7  A    between atoms: C10_12  and  O2_13 
REMARK    8  A    between atoms: C24_29  and  O5_30 
REMARK    9  A    between atoms: C28_34  and  C29_35 
REMARK   10  A    between atoms: C35_41  and  O6_42 
REMARK   11  A    between atoms: C38_45  and  C39_46 
REMARK   12  A    between atoms: C40_48  and  O8_49 
ROOT
HETATM    1  C6  UNL     1      -0.521  13.010  17.529  1.00  0.00    -0.016 C 
HETATM    2  C7  UNL     1       0.442  12.455  16.761  1.00  0.00    -0.013 C 
HETATM    3  C8  UNL     1       0.164  11.399  15.721  1.00  0.00     0.021 C 
HETATM    4  C9  UNL     1       0.485   9.988  16.199  1.00  0.00     0.051 C 
HETATM    5  C10 UNL     1      -0.260   9.046  15.232  1.00  0.00     0.098 C 
HETATM    6  C11 UNL     1      -1.636   9.801  14.974  1.00  0.00     0.002 C 
HETATM    7  C12 UNL     1      -2.831   9.275  15.865  1.00  0.00     0.013 C 
HETATM    8  C13 UNL     1      -2.762   9.182  17.394  1.00  0.00     0.001 C 
HETATM    9  C14 UNL     1      -3.269  10.393  18.176  1.00  0.00     0.004 C 
HETATM   10  C15 UNL     1      -2.181  11.421  18.483  1.00  0.00     0.048 C 
HETATM   11  C16 UNL     1      -1.952  12.509  17.416  1.00  0.00     0.120 A 
HETATM   12  O3  UNL     1      -2.893  13.564  17.666  1.00  0.00    -0.297 OA
HETATM   13  C17 UNL     1      -3.724  13.706  16.603  1.00  0.00     0.284 A 
HETATM   14  O4  UNL     1      -4.658  14.484  16.539  1.00  0.00    -0.260 OA
HETATM   15  C18 UNL     1      -3.290  12.828  15.524  1.00  0.00     0.089 A 
HETATM   16  C19 UNL     1      -2.249  12.144  16.000  1.00  0.00    -0.029 A 
HETATM   17  C20 UNL     1      -1.294  11.316  15.201  1.00  0.00     0.037 C 
HETATM   18  C21 UNL     1      -2.179   9.638  13.513  1.00  0.00     0.014 C 
HETATM   19  C22 UNL     1      -1.610   8.439  12.769  1.00  0.00     0.010 C 
HETATM   20  C23 UNL     1      -0.106   8.660  12.596  1.00  0.00     0.041 C 
HETATM   21  C24 UNL     1       0.607   8.541  13.965  1.00  0.00     0.095 C 
HETATM   22  C25 UNL     1       2.031   9.130  13.823  1.00  0.00     0.049 C 
HETATM   23  C26 UNL     1       2.610   9.048  12.385  1.00  0.00     0.025 C 
HETATM   24  C27 UNL     1       4.127   9.357  12.402  1.00  0.00     0.012 C 
HETATM   25  C28 UNL     1       5.050   8.174  12.743  1.00  0.00    -0.011 C 
HETATM   26  C32 UNL     1       5.149   7.132  11.597  1.00  0.00     0.005 C 
HETATM   27  C33 UNL     1       4.409   7.366  10.276  1.00  0.00     0.010 C 
HETATM   28  C34 UNL     1       2.915   7.774  10.243  1.00  0.00     0.050 C 
HETATM   29  C35 UNL     1       2.155   6.929   9.212  1.00  0.00     0.125 C 
HETATM   30  C36 UNL     1       0.791   7.556   8.899  1.00  0.00     0.033 C 
HETATM   31  C37 UNL     1       0.197   8.362  10.069  1.00  0.00     0.023 C 
HETATM   32  C38 UNL     1       0.561   7.783  11.461  1.00  0.00     0.051 C 
HETATM   33  C40 UNL     1       2.155   7.782  11.604  1.00  0.00     0.082 C 
ENDROOT
BRANCH   1  34
HETATM   34  C5  UNL     1      -0.205  14.041  18.584  1.00  0.00     0.306 C 
BRANCH  34  35
HETATM   35  N1  UNL     1       1.209  14.092  18.946  1.00  0.00     0.087 N 
HETATM   36  H10 UNL     1       1.621  13.169  18.821  1.00  0.00     0.316 HD
BRANCH  35  37
HETATM   37  C4  UNL     1       1.467  14.541  20.321  1.00  0.00     0.272 C 
BRANCH  37  38
HETATM   38  C3  UNL     1       2.114  13.474  21.213  1.00  0.00     0.056 C 
BRANCH  38  39
HETATM   39  C2  UNL     1       3.569  13.816  21.531  1.00  0.00     0.168 C 
BRANCH  39  40
HETATM   40  O1  UNL     1       3.736  14.257  22.879  1.00  0.00    -0.396 OA
HETATM   41  C1  UNL     1       2.706  13.796  23.747  1.00  0.00     0.201 C 
ENDBRANCH  39  40
ENDBRANCH  38  39
ENDBRANCH  37  38
ENDBRANCH  35  37
ENDBRANCH  34  35
ENDBRANCH   1  34
BRANCH   5  42
HETATM   42  O2  UNL     1      -0.545   7.860  16.014  1.00  0.00    -0.386 OA
HETATM   43  H17 UNL     1      -0.112   7.117  15.540  1.00  0.00     0.210 HD
ENDBRANCH   5  42
BRANCH  21  44
HETATM   44  O5  UNL     1       0.801   7.118  14.229  1.00  0.00    -0.386 OA
HETATM   45  H33 UNL     1       1.628   6.825  13.784  1.00  0.00     0.210 HD
ENDBRANCH  21  44
BRANCH  32  46
HETATM   46  C39 UNL     1      -0.056   6.366  11.546  1.00  0.00     0.244 C 
HETATM   47  O7  UNL     1      -1.032   6.083  12.241  1.00  0.00    -0.306 OA
ENDBRANCH  32  46
BRANCH  33  48
HETATM   48  O8  UNL     1       2.513   6.627  12.371  1.00  0.00    -0.388 OA
HETATM   49  H59 UNL     1       2.590   5.884  11.725  1.00  0.00     0.210 HD
ENDBRANCH  33  48
BRANCH  25  50
HETATM   50  C29 UNL     1       6.488   8.619  13.193  1.00  0.00    -0.019 C 
HETATM   51  C30 UNL     1       7.438   7.442  13.461  1.00  0.00     0.010 C 
HETATM   52  C31 UNL     1       7.146   9.514  12.126  1.00  0.00     0.010 C 
ENDBRANCH  25  50
BRANCH  29  53
HETATM   53  O6  UNL     1       2.004   5.613   9.754  1.00  0.00    -0.395 OA
HETATM   54  H53 UNL     1       1.479   5.092   9.114  1.00  0.00     0.210 HD
ENDBRANCH  29  53
TORSDOF 12
ENDMDL
MODEL 3
REMARK minimizedAffinity -7.95976496
REMARK CNNscore 0.395399392
REMARK CNNaffinity 6.79001474
REMARK  12 active torsions:
REMARK  status: ('A' for Active; 'I' for Inactive)
REMARK    1  A    between atoms: O1_2  and  C2_3 
REMARK    2  A    between atoms: C2_3  and  C3_4 
REMARK    3  A    between atoms: C3_4  and  C4_5 
REMARK    4  A    between atoms: C4_5  and  N1_6 
REMARK    5  A    between atoms: N1_6  and  C5_7 
REMARK    6  A    between atoms: C5_7  and  C6_8 
REMARK    7  A    between atoms: C10_12  and  O2_13 
REMARK    8  A    between atoms: C24_29  and  O5_30 
REMARK    9  A    between atoms: C28_34  and  C29_35 
REMARK   10  A    between atoms: C35_41  and  O6_42 
REMARK   11  A    between atoms: C38_45  and  C39_46 
REMARK   12  A    between atoms: C40_48  and  O8_49 
ROOT
HETATM    1  C6  UNL     1      -0.425  13.061  17.245  1.00  0.00    -0.016 C 
HETATM    2  C7  UNL     1       0.552  12.471  16.520  1.00  0.00    -0.013 C 
HETATM    3  C8  UNL     1       0.285  11.395  15.497  1.00  0.00     0.021 C 
HETATM    4  C9  UNL     1       0.567   9.991  16.017  1.00  0.00     0.051 C 
HETATM    5  C10 UNL     1      -0.165   9.039  15.051  1.00  0.00     0.098 C 
HETATM    6  C11 UNL     1      -1.519   9.811  14.734  1.00  0.00     0.002 C 
HETATM    7  C12 UNL     1      -2.750   9.327  15.601  1.00  0.00     0.013 C 
HETATM    8  C13 UNL     1      -2.728   9.270  17.132  1.00  0.00     0.001 C 
HETATM    9  C14 UNL     1      -3.237  10.508  17.870  1.00  0.00     0.004 C 
HETATM   10  C15 UNL     1      -2.140  11.524  18.186  1.00  0.00     0.048 C 
HETATM   11  C16 UNL     1      -1.860  12.582  17.100  1.00  0.00     0.120 A 
HETATM   12  O3  UNL     1      -2.789  13.659  17.297  1.00  0.00    -0.297 OA
HETATM   13  C17 UNL     1      -3.585  13.790  16.207  1.00  0.00     0.284 A 
HETATM   14  O4  UNL     1      -4.503  14.581  16.096  1.00  0.00    -0.260 OA
HETATM   15  C18 UNL     1      -3.135  12.878  15.163  1.00  0.00     0.089 A 
HETATM   16  C19 UNL     1      -2.121  12.188  15.685  1.00  0.00    -0.029 A 
HETATM   17  C20 UNL     1      -1.158  11.325  14.936  1.00  0.00     0.037 C 
HETATM   18  C21 UNL     1      -2.022   9.622  13.262  1.00  0.00     0.014 C 
HETATM   19  C22 UNL     1      -1.452   8.397  12.564  1.00  0.00     0.010 C 
HETATM   20  C23 UNL     1       0.060   8.587  12.431  1.00  0.00     0.041 C 
HETATM   21  C24 UNL     1       0.730   8.489  13.823  1.00  0.00     0.095 C 
HETATM   22  C25 UNL     1       2.167   9.049  13.710  1.00  0.00     0.049 C 
HETATM   23  C26 UNL     1       2.787   8.924  12.293  1.00  0.00     0.025 C 
HETATM   24  C27 UNL     1       4.309   9.207  12.349  1.00  0.00     0.012 C 
HETATM   25  C28 UNL     1       5.200   8.017  12.745  1.00  0.00    -0.011 C 
HETATM   26  C32 UNL     1       5.314   6.946  11.627  1.00  0.00     0.005 C 
HETATM   27  C33 UNL     1       4.619   7.161  10.279  1.00  0.00     0.010 C 
HETATM   28  C34 UNL     1       3.134   7.593  10.191  1.00  0.00     0.050 C 
HETATM   29  C35 UNL     1       2.390   6.737   9.158  1.00  0.00     0.125 C 
HETATM   30  C36 UNL     1       1.046   7.380   8.789  1.00  0.00     0.033 C 
HETATM   31  C37 UNL     1       0.433   8.224   9.922  1.00  0.00     0.023 C 
HETATM   32  C38 UNL     1       0.745   7.672  11.337  1.00  0.00     0.051 C 
HETATM   33  C40 UNL     1       2.333   7.647  11.528  1.00  0.00     0.082 C 
ENDROOT
BRANCH   1  34
HETATM   34  C5  UNL     1      -0.121  14.111  18.285  1.00  0.00     0.306 C 
BRANCH  34  35
HETATM   35  N1  UNL     1      -0.842  13.917  19.539  1.00  0.00     0.087 N 
HETATM   36  H10 UNL     1      -1.632  13.295  19.380  1.00  0.00     0.316 HD
BRANCH  35  37
HETATM   37  C4  UNL     1      -1.335  15.158  20.153  1.00  0.00     0.272 C 
BRANCH  37  38
HETATM   38  C3  UNL     1      -2.837  15.142  20.467  1.00  0.00     0.056 C 
BRANCH  38  39
HETATM   39  C2  UNL     1      -3.143  15.864  21.779  1.00  0.00     0.168 C 
BRANCH  39  40
HETATM   40  O1  UNL     1      -4.545  15.931  22.044  1.00  0.00    -0.396 OA
HETATM   41  C1  UNL     1      -4.885  15.476  23.350  1.00  0.00     0.201 C 
ENDBRANCH  39  40
ENDBRANCH  38  39
ENDBRANCH  37  38
ENDBRANCH  35  37
ENDBRANCH  34  35
ENDBRANCH   1  34
BRANCH   5  42
HETATM   42  O2  UNL     1      -0.495   7.877  15.852  1.00  0.00    -0.386 OA
HETATM   43  H17 UNL     1      -0.061   7.115  15.409  1.00  0.00     0.210 HD
ENDBRANCH   5  42
BRANCH  21  44
HETATM   44  O5  UNL     1       0.890   7.069  14.126  1.00  0.00    -0.386 OA
HETATM   45  H33 UNL     1       1.725   6.752  13.713  1.00  0.00     0.210 HD
ENDBRANCH  21  44
BRANCH  32  46
HETATM   46  C39 UNL     1       0.100   6.268  11.437  1.00  0.00     0.244 C 
HETATM   47  O7  UNL     1      -0.758   5.964  12.266  1.00  0.00    -0.306 OA
ENDBRANCH  32  46
BRANCH  33  48
HETATM   48  O8  UNL     1       2.648   6.505  12.333  1.00  0.00    -0.388 OA
HETATM   49  H59 UNL     1       2.731   5.745  11.707  1.00  0.00     0.210 HD
ENDBRANCH  33  48
BRANCH  25  50
HETATM   50  C29 UNL     1       6.632   8.448  13.227  1.00  0.00    -0.019 C 
HETATM   51  C30 UNL     1       6.712   9.915  13.675  1.00  0.00     0.010 C 
HETATM   52  C31 UNL     1       7.101   7.576  14.407  1.00  0.00     0.010 C 
ENDBRANCH  25  50
BRANCH  29  53
HETATM   53  O6  UNL     1       2.199   5.437   9.726  1.00  0.00    -0.395 OA
HETATM   54  H53 UNL     1       1.684   4.910   9.083  1.00  0.00     0.210 HD
ENDBRANCH  29  53
TORSDOF 12
ENDMDL
MODEL 4
REMARK minimizedAffinity -9.23544884
REMARK CNNscore 0.362618297
REMARK CNNaffinity 6.77024317
REMARK  12 active torsions:
REMARK  status: ('A' for Active; 'I' for Inactive)
REMARK    1  A    between atoms: O1_2  and  C2_3 
REMARK    2  A    between atoms: C2_3  and  C3_4 
REMARK    3  A    between atoms: C3_4  and  C4_5 
REMARK    4  A    between atoms: C4_5  and  N1_6 
REMARK    5  A    between atoms: N1_6  and  C5_7 
REMARK    6  A    between atoms: C5_7  and  C6_8 
REMARK    7  A    between atoms: C10_12  and  O2_13 
REMARK    8  A    between atoms: C24_29  and  O5_30 
REMARK    9  A    between atoms: C28_34  and  C29_35 
REMARK   10  A    between atoms: C35_41  and  O6_42 
REMARK   11  A    between atoms: C38_45  and  C39_46 
REMARK   12  A    between atoms: C40_48  and  O8_49 
ROOT
HETATM    1  C6  UNL     1       5.883   8.599  13.880  1.00  0.00    -0.016 C 
HETATM    2  C7  UNL     1       5.649   9.128  15.101  1.00  0.00    -0.013 C 
HETATM    3  C8  UNL     1       6.632  10.019  15.818  1.00  0.00     0.021 C 
HETATM    4  C9  UNL     1       7.438   9.288  16.884  1.00  0.00     0.051 C 
HETATM    5  C10 UNL     1       8.653  10.191  17.175  1.00  0.00     0.098 C 
HETATM    6  C11 UNL     1       9.040  10.755  15.738  1.00  0.00     0.002 C 
HETATM    7  C12 UNL     1      10.222   9.970  15.041  1.00  0.00     0.013 C 
HETATM    8  C13 UNL     1      10.214   8.451  14.833  1.00  0.00     0.001 C 
HETATM    9  C14 UNL     1       9.658   7.946  13.502  1.00  0.00     0.004 C 
HETATM   10  C15 UNL     1       8.159   7.653  13.539  1.00  0.00     0.048 C 
HETATM   11  C16 UNL     1       7.226   8.833  13.207  1.00  0.00     0.120 A 
HETATM   12  O3  UNL     1       7.088   8.885  11.779  1.00  0.00    -0.297 OA
HETATM   13  C17 UNL     1       7.569  10.063  11.308  1.00  0.00     0.284 A 
HETATM   14  O4  UNL     1       7.636  10.379  10.135  1.00  0.00    -0.260 OA
HETATM   15  C18 UNL     1       7.938  10.920  12.428  1.00  0.00     0.089 A 
HETATM   16  C19 UNL     1       7.722  10.202  13.531  1.00  0.00    -0.029 A 
HETATM   17  C20 UNL     1       7.694  10.720  14.933  1.00  0.00     0.037 C 
HETATM   18  C21 UNL     1       9.557  12.234  15.761  1.00  0.00     0.014 C 
HETATM   19  C22 UNL     1      10.062  12.695  17.120  1.00  0.00     0.010 C 
HETATM   20  C23 UNL     1       8.880  12.687  18.092  1.00  0.00     0.041 C 
HETATM   21  C24 UNL     1       8.456  11.229  18.397  1.00  0.00     0.095 C 
HETATM   22  C25 UNL     1       7.059  11.259  19.061  1.00  0.00     0.049 C 
HETATM   23  C26 UNL     1       6.752  12.571  19.832  1.00  0.00     0.025 C 
HETATM   24  C27 UNL     1       5.493  12.389  20.715  1.00  0.00     0.012 C 
HETATM   25  C28 UNL     1       5.726  11.741  22.092  1.00  0.00    -0.011 C 
HETATM   26  C32 UNL     1       6.443  12.686  23.093  1.00  0.00     0.005 C 
HETATM   27  C33 UNL     1       6.799  14.118  22.682  1.00  0.00     0.010 C 
HETATM   28  C34 UNL     1       7.518  14.424  21.344  1.00  0.00     0.050 C 
HETATM   29  C35 UNL     1       8.673  15.408  21.572  1.00  0.00     0.125 C 
HETATM   30  C36 UNL     1       9.147  16.004  20.241  1.00  0.00     0.033 C 
HETATM   31  C37 UNL     1       8.939  15.069  19.035  1.00  0.00     0.023 C 
HETATM   32  C38 UNL     1       9.090  13.566  19.390  1.00  0.00     0.051 C 
HETATM   33  C40 UNL     1       8.004  13.202  20.507  1.00  0.00     0.082 C 
ENDROOT
BRANCH   1  34
HETATM   34  C5  UNL     1       4.893   7.682  13.205  1.00  0.00     0.306 C 
BRANCH  34  35
HETATM   35  N1  UNL     1       5.516   6.568  12.497  1.00  0.00     0.087 N 
HETATM   36  H10 UNL     1       6.527   6.692  12.499  1.00  0.00     0.316 HD
BRANCH  35  37
HETATM   37  C4  UNL     1       5.063   6.401  11.110  1.00  0.00     0.272 C 
BRANCH  37  38
HETATM   38  C3  UNL     1       3.552   6.596  10.922  1.00  0.00     0.056 C 
BRANCH  38  39
HETATM   39  C2  UNL     1       2.893   5.342  10.350  1.00  0.00     0.168 C 
BRANCH  39  40
HETATM   40  O1  UNL     1       2.953   5.303   8.923  1.00  0.00    -0.396 OA
HETATM   41  C1  UNL     1       2.555   6.529   8.317  1.00  0.00     0.201 C 
ENDBRANCH  39  40
ENDBRANCH  38  39
ENDBRANCH  37  38
ENDBRANCH  35  37
ENDBRANCH  34  35
ENDBRANCH   1  34
BRANCH   5  42
HETATM   42  O2  UNL     1       9.701   9.282  17.592  1.00  0.00    -0.386 OA
HETATM   43  H17 UNL     1       9.960   9.569  18.495  1.00  0.00     0.210 HD
ENDBRANCH   5  42
BRANCH  21  44
HETATM   44  O5  UNL     1       9.363  10.723  19.425  1.00  0.00    -0.386 OA
HETATM   45  H33 UNL     1       9.023  10.996  20.307  1.00  0.00     0.210 HD
ENDBRANCH  21  44
BRANCH  32  46
HETATM   46  C39 UNL     1      10.546  13.350  19.867  1.00  0.00     0.244 C 
HETATM   47  O7  UNL     1      10.858  12.632  20.818  1.00  0.00    -0.306 OA
ENDBRANCH  32  46
BRANCH  33  48
HETATM   48  O8  UNL     1       8.592  12.222  21.370  1.00  0.00    -0.388 OA
HETATM   49  H59 UNL     1       9.096  12.727  22.052  1.00  0.00     0.210 HD
ENDBRANCH  33  48
BRANCH  25  50
HETATM   50  C29 UNL     1       4.413  11.168  22.737  1.00  0.00    -0.019 C 
HETATM   51  C30 UNL     1       3.307  12.220  22.912  1.00  0.00     0.010 C 
HETATM   52  C31 UNL     1       3.835  10.023  21.886  1.00  0.00     0.010 C 
ENDBRANCH  25  50
BRANCH  29  53
HETATM   53  O6  UNL     1       9.729  14.695  22.222  1.00  0.00    -0.395 OA
HETATM   54  H53 UNL     1      10.481  15.313  22.323  1.00  0.00     0.210 HD
ENDBRANCH  29  53
TORSDOF 12
ENDMDL
MODEL 5
REMARK minimizedAffinity -7.0942173
REMARK CNNscore 0.350392431
REMARK CNNaffinity 6.27840233
REMARK  12 active torsions:
REMARK  status: ('A' for Active; 'I' for Inactive)
REMARK    1  A    between atoms: O1_2  and  C2_3 
REMARK    2  A    between atoms: C2_3  and  C3_4 
REMARK    3  A    between atoms: C3_4  and  C4_5 
REMARK    4  A    between atoms: C4_5  and  N1_6 
REMARK    5  A    between atoms: N1_6  and  C5_7 
REMARK    6  A    between atoms: C5_7  and  C6_8 
REMARK    7  A    between atoms: C10_12  and  O2_13 
REMARK    8  A    between atoms: C24_29  and  O5_30 
REMARK    9  A    between atoms: C28_34  and  C29_35 
REMARK   10  A    between atoms: C35_41  and  O6_42 
REMARK   11  A    between atoms: C38_45  and  C39_46 
REMARK   12  A    between atoms: C40_48  and  O8_49 
ROOT
HETATM    1  C6  UNL     1      -7.350  14.285  21.295  1.00  0.00    -0.016 C 
HETATM    2  C7  UNL     1      -6.976  13.369  20.374  1.00  0.00    -0.013 C 
HETATM    3  C8  UNL     1      -5.621  13.368  19.713  1.00  0.00     0.021 C 
HETATM    4  C9  UNL     1      -5.635  13.975  18.315  1.00  0.00     0.051 C 
HETATM    5  C10 UNL     1      -4.163  14.301  17.992  1.00  0.00     0.098 C 
HETATM    6  C11 UNL     1      -3.593  14.826  19.381  1.00  0.00     0.002 C 
HETATM    7  C12 UNL     1      -3.559  16.402  19.504  1.00  0.00     0.013 C 
HETATM    8  C13 UNL     1      -4.787  17.289  19.270  1.00  0.00     0.001 C 
HETATM    9  C14 UNL     1      -5.626  17.634  20.500  1.00  0.00     0.004 C 
HETATM   10  C15 UNL     1      -6.759  16.643  20.764  1.00  0.00     0.048 C 
HETATM   11  C16 UNL     1      -6.408  15.426  21.642  1.00  0.00     0.120 A 
HETATM   12  O3  UNL     1      -6.559  15.826  23.013  1.00  0.00    -0.297 OA
HETATM   13  C17 UNL     1      -5.370  15.732  23.658  1.00  0.00     0.284 A 
HETATM   14  O4  UNL     1      -5.169  16.050  24.815  1.00  0.00    -0.260 OA
HETATM   15  C18 UNL     1      -4.380  15.134  22.770  1.00  0.00     0.089 A 
HETATM   16  C19 UNL     1      -4.996  14.946  21.602  1.00  0.00    -0.029 A 
HETATM   17  C20 UNL     1      -4.493  14.125  20.459  1.00  0.00     0.037 C 
HETATM   18  C21 UNL     1      -2.104  14.415  19.646  1.00  0.00     0.014 C 
HETATM   19  C22 UNL     1      -1.329  14.044  18.391  1.00  0.00     0.010 C 
HETATM   20  C23 UNL     1      -1.972  12.792  17.790  1.00  0.00     0.041 C 
HETATM   21  C24 UNL     1      -3.362  13.140  17.204  1.00  0.00     0.095 C 
HETATM   22  C25 UNL     1      -4.127  11.819  16.954  1.00  0.00     0.049 C 
HETATM   23  C26 UNL     1      -3.210  10.595  16.690  1.00  0.00     0.025 C 
HETATM   24  C27 UNL     1      -4.044   9.411  16.141  1.00  0.00     0.012 C 
HETATM   25  C28 UNL     1      -4.313   9.423  14.626  1.00  0.00    -0.011 C 
HETATM   26  C32 UNL     1      -3.053   9.087  13.784  1.00  0.00     0.005 C 
HETATM   27  C33 UNL     1      -1.732   8.740  14.478  1.00  0.00     0.010 C 
HETATM   28  C34 UNL     1      -1.159   9.618  15.620  1.00  0.00     0.050 C 
HETATM   29  C35 UNL     1       0.336   9.879  15.392  1.00  0.00     0.125 C 
HETATM   30  C36 UNL     1       0.992  10.414  16.671  1.00  0.00     0.033 C 
HETATM   31  C37 UNL     1       0.030  11.207  17.575  1.00  0.00     0.023 C 
HETATM   32  C38 UNL     1      -1.046  11.995  16.784  1.00  0.00     0.051 C 
HETATM   33  C40 UNL     1      -1.903  10.954  15.924  1.00  0.00     0.082 C 
ENDROOT
BRANCH   1  34
HETATM   34  C5  UNL     1      -8.726  14.279  21.912  1.00  0.00     0.306 C 
BRANCH  34  35
HETATM   35  N1  UNL     1      -9.512  13.095  21.577  1.00  0.00     0.087 N 
HETATM   36  H10 UNL     1     -10.438  13.383  21.266  1.00  0.00     0.316 HD
BRANCH  35  37
HETATM   37  C4  UNL     1      -9.662  12.135  22.679  1.00  0.00     0.272 C 
BRANCH  37  38
HETATM   38  C3  UNL     1     -10.572  10.946  22.348  1.00  0.00     0.056 C 
BRANCH  38  39
HETATM   39  C2  UNL     1     -10.863  10.100  23.587  1.00  0.00     0.168 C 
BRANCH  39  40
HETATM   40  O1  UNL     1     -10.681   8.705  23.342  1.00  0.00    -0.396 OA
HETATM   41  C1  UNL     1     -11.832   7.930  23.662  1.00  0.00     0.201 C 
ENDBRANCH  39  40
ENDBRANCH  38  39
ENDBRANCH  37  38
ENDBRANCH  35  37
ENDBRANCH  34  35
ENDBRANCH   1  34
BRANCH   5  42
HETATM   42  O2  UNL     1      -4.223  15.428  17.083  1.00  0.00    -0.386 OA
HETATM   43  H17 UNL     1      -3.769  15.134  16.263  1.00  0.00     0.210 HD
ENDBRANCH   5  42
BRANCH  21  44
HETATM   44  O5  UNL     1      -3.140  13.716  15.880  1.00  0.00    -0.386 OA
HETATM   45  H33 UNL     1      -3.060  12.984  15.228  1.00  0.00     0.210 HD
ENDBRANCH  21  44
BRANCH  32  46
HETATM   46  C39 UNL     1      -0.305  13.037  15.912  1.00  0.00     0.244 C 
HETATM   47  O7  UNL     1      -0.683  13.390  14.794  1.00  0.00    -0.306 OA
ENDBRANCH  32  46
BRANCH  33  48
HETATM   48  O8  UNL     1      -2.262  11.604  14.700  1.00  0.00    -0.388 OA
HETATM   49  H59 UNL     1      -1.504  11.460  14.084  1.00  0.00     0.210 HD
ENDBRANCH  33  48
BRANCH  25  50
HETATM   50  C29 UNL     1      -5.508   8.497  14.201  1.00  0.00    -0.019 C 
HETATM   51  C30 UNL     1      -5.062   7.191  13.526  1.00  0.00     0.010 C 
HETATM   52  C31 UNL     1      -6.372   8.119  15.419  1.00  0.00     0.010 C 
ENDBRANCH  25  50
BRANCH  29  53
HETATM   53  O6  UNL     1       0.454  10.820  14.321  1.00  0.00    -0.395 OA
HETATM   54  H53 UNL     1       1.406  11.019  14.211  1.00  0.00     0.210 HD
ENDBRANCH  29  53
TORSDOF 12
ENDMDL
MODEL 6
REMARK minimizedAffinity -6.62850904
REMARK CNNscore 0.319730103
REMARK CNNaffinity 6.14175797
REMARK  12 active torsions:
REMARK  status: ('A' for Active; 'I' for Inactive)
REMARK    1  A    between atoms: O1_2  and  C2_3 
REMARK    2  A    between atoms: C2_3  and  C3_4 
REMARK    3  A    between atoms: C3_4  and  C4_5 
REMARK    4  A    between atoms: C4_5  and  N1_6 
REMARK    5  A    between atoms: N1_6  and  C5_7 
REMARK    6  A    between atoms: C5_7  and  C6_8 
REMARK    7  A    between atoms: C10_12  and  O2_13 
REMARK    8  A    between atoms: C24_29  and  O5_30 
REMARK    9  A    between atoms: C28_34  and  C29_35 
REMARK   10  A    between atoms: C35_41  and  O6_42 
REMARK   11  A    between atoms: C38_45  and  C39_46 
REMARK   12  A    between atoms: C40_48  and  O8_49 
ROOT
HETATM    1  C6  UNL     1     -15.902  -0.616  13.487  1.00  0.00    -0.016 C 
HETATM    2  C7  UNL     1     -15.347   0.615  13.535  1.00  0.00    -0.013 C 
HETATM    3  C8  UNL     1     -15.918   1.746  14.353  1.00  0.00     0.021 C 
HETATM    4  C9  UNL     1     -16.729   2.734  13.524  1.00  0.00     0.051 C 
HETATM    5  C10 UNL     1     -17.580   3.523  14.540  1.00  0.00     0.098 C 
HETATM    6  C11 UNL     1     -18.003   2.414  15.600  1.00  0.00     0.002 C 
HETATM    7  C12 UNL     1     -19.449   1.821  15.364  1.00  0.00     0.013 C 
HETATM    8  C13 UNL     1     -19.903   1.222  14.028  1.00  0.00     0.001 C 
HETATM    9  C14 UNL     1     -19.719  -0.285  13.857  1.00  0.00     0.004 C 
HETATM   10  C15 UNL     1     -18.376  -0.669  13.236  1.00  0.00     0.048 C 
HETATM   11  C16 UNL     1     -17.207  -0.880  14.219  1.00  0.00     0.120 A 
HETATM   12  O3  UNL     1     -17.276  -2.236  14.686  1.00  0.00    -0.297 OA
HETATM   13  C17 UNL     1     -17.468  -2.254  16.029  1.00  0.00     0.284 A 
HETATM   14  O4  UNL     1     -17.617  -3.255  16.705  1.00  0.00    -0.260 OA
HETATM   15  C18 UNL     1     -17.406  -0.894  16.548  1.00  0.00     0.089 A 
HETATM   16  C19 UNL     1     -17.241  -0.100  15.490  1.00  0.00    -0.029 A 
HETATM   17  C20 UNL     1     -16.857   1.344  15.518  1.00  0.00     0.037 C 
HETATM   18  C21 UNL     1     -18.069   2.945  17.073  1.00  0.00     0.014 C 
HETATM   19  C22 UNL     1     -18.214   4.456  17.183  1.00  0.00     0.010 C 
HETATM   20  C23 UNL     1     -16.951   5.096  16.601  1.00  0.00     0.041 C 
HETATM   21  C24 UNL     1     -16.917   4.899  15.066  1.00  0.00     0.095 C 
HETATM   22  C25 UNL     1     -15.486   5.211  14.568  1.00  0.00     0.049 C 
HETATM   23  C26 UNL     1     -14.708   6.211  15.464  1.00  0.00     0.025 C 
HETATM   24  C27 UNL     1     -13.435   6.705  14.733  1.00  0.00     0.012 C 
HETATM   25  C28 UNL     1     -13.633   7.875  13.754  1.00  0.00    -0.011 C 
HETATM   26  C32 UNL     1     -13.895   9.227  14.471  1.00  0.00     0.005 C 
HETATM   27  C33 UNL     1     -13.888   9.303  16.001  1.00  0.00     0.010 C 
HETATM   28  C34 UNL     1     -14.682   8.294  16.868  1.00  0.00     0.050 C 
HETATM   29  C35 UNL     1     -15.463   9.031  17.964  1.00  0.00     0.125 C 
HETATM   30  C36 UNL     1     -15.943   8.050  19.041  1.00  0.00     0.033 C 
HETATM   31  C37 UNL     1     -16.191   6.625  18.512  1.00  0.00     0.023 C 
HETATM   32  C38 UNL     1     -16.706   6.593  17.050  1.00  0.00     0.051 C 
HETATM   33  C40 UNL     1     -15.614   7.296  16.116  1.00  0.00     0.082 C 
ENDROOT
BRANCH   1  34
HETATM   34  C5  UNL     1     -15.324  -1.717  12.632  1.00  0.00     0.306 C 
BRANCH  34  35
HETATM   35  N1  UNL     1     -14.280  -2.489  13.298  1.00  0.00     0.087 N 
HETATM   36  H10 UNL     1     -13.438  -1.920  13.374  1.00  0.00     0.316 HD
BRANCH  35  37
HETATM   37  C4  UNL     1     -13.938  -3.751  12.629  1.00  0.00     0.272 C 
BRANCH  37  38
HETATM   38  C3  UNL     1     -12.995  -4.649  13.440  1.00  0.00     0.056 C 
BRANCH  38  39
HETATM   39  C2  UNL     1     -12.628  -4.012  14.779  1.00  0.00     0.168 C 
BRANCH  39  40
HETATM   40  O1  UNL     1     -12.419  -4.987  15.802  1.00  0.00    -0.396 OA
HETATM   41  C1  UNL     1     -12.204  -6.296  15.285  1.00  0.00     0.201 C 
ENDBRANCH  39  40
ENDBRANCH  38  39
ENDBRANCH  37  38
ENDBRANCH  35  37
ENDBRANCH  34  35
ENDBRANCH   1  34
BRANCH   5  42
HETATM   42  O2  UNL     1     -18.769   3.911  13.807  1.00  0.00    -0.386 OA
HETATM   43  H17 UNL     1     -18.798   4.892  13.845  1.00  0.00     0.210 HD
ENDBRANCH   5  42
BRANCH  21  44
HETATM   44  O5  UNL     1     -17.766   5.933  14.480  1.00  0.00    -0.386 OA
HETATM   45  H33 UNL     1     -17.235   6.755  14.376  1.00  0.00     0.210 HD
ENDBRANCH  21  44
BRANCH  32  46
HETATM   46  C39 UNL     1     -18.076   7.313  17.028  1.00  0.00     0.244 C 
HETATM   47  O7  UNL     1     -18.712   7.610  18.040  1.00  0.00    -0.306 OA
ENDBRANCH  32  46
BRANCH  33  48
HETATM   48  O8  UNL     1     -16.320   7.978  15.073  1.00  0.00    -0.388 OA
HETATM   49  H59 UNL     1     -16.552   8.866  15.437  1.00  0.00     0.210 HD
ENDBRANCH  33  48
BRANCH  25  50
HETATM   50  C29 UNL     1     -12.455   8.030  12.726  1.00  0.00    -0.019 C 
HETATM   51  C30 UNL     1     -12.068   9.491  12.454  1.00  0.00     0.010 C 
HETATM   52  C31 UNL     1     -11.194   7.299  13.220  1.00  0.00     0.010 C 
ENDBRANCH  25  50
BRANCH  29  53
HETATM   53  O6  UNL     1     -16.569   9.692  17.340  1.00  0.00    -0.395 OA
HETATM   54  H53 UNL     1     -17.090  10.121  18.048  1.00  0.00     0.210 HD
ENDBRANCH  29  53
TORSDOF 12
ENDMDL
MODEL 7
REMARK minimizedAffinity -6.83760929
REMARK CNNscore 0.312304795
REMARK CNNaffinity 6.14293146
REMARK  12 active torsions:
REMARK  status: ('A' for Active; 'I' for Inactive)
REMARK    1  A    between atoms: O1_2  and  C2_3 
REMARK    2  A    between atoms: C2_3  and  C3_4 
REMARK    3  A    between atoms: C3_4  and  C4_5 
REMARK    4  A    between atoms: C4_5  and  N1_6 
REMARK    5  A    between atoms: N1_6  and  C5_7 
REMARK    6  A    between atoms: C5_7  and  C6_8 
REMARK    7  A    between atoms: C10_12  and  O2_13 
REMARK    8  A    between atoms: C24_29  and  O5_30 
REMARK    9  A    between atoms: C28_34  and  C29_35 
REMARK   10  A    between atoms: C35_41  and  O6_42 
REMARK   11  A    between atoms: C38_45  and  C39_46 
REMARK   12  A    between atoms: C40_48  and  O8_49 
ROOT
HETATM    1  C6  UNL     1     -13.964   9.997  13.931  1.00  0.00    -0.016 C 
HETATM    2  C7  UNL     1     -13.396  10.031  15.157  1.00  0.00    -0.013 C 
HETATM    3  C8  UNL     1     -13.951   9.284  16.345  1.00  0.00     0.021 C 
HETATM    4  C9  UNL     1     -14.758  10.169  17.286  1.00  0.00     0.051 C 
HETATM    5  C10 UNL     1     -15.594   9.201  18.146  1.00  0.00     0.098 C 
HETATM    6  C11 UNL     1     -16.021   8.070  17.113  1.00  0.00     0.002 C 
HETATM    7  C12 UNL     1     -17.475   8.260  16.521  1.00  0.00     0.013 C 
HETATM    8  C13 UNL     1     -17.943   9.551  15.842  1.00  0.00     0.001 C 
HETATM    9  C14 UNL     1     -17.775   9.627  14.325  1.00  0.00     0.004 C 
HETATM   10  C15 UNL     1     -16.440  10.230  13.888  1.00  0.00     0.048 C 
HETATM   11  C16 UNL     1     -15.267   9.243  13.728  1.00  0.00     0.120 A 
HETATM   12  O3  UNL     1     -15.347   8.689  12.406  1.00  0.00    -0.297 OA
HETATM   13  C17 UNL     1     -15.530   7.347  12.475  1.00  0.00     0.284 A 
HETATM   14  O4  UNL     1     -15.686   6.607  11.522  1.00  0.00    -0.260 OA
HETATM   15  C18 UNL     1     -15.452   6.916  13.866  1.00  0.00     0.089 A 
HETATM   16  C19 UNL     1     -15.285   8.024  14.588  1.00  0.00    -0.029 A 
HETATM   17  C20 UNL     1     -14.887   8.090  16.027  1.00  0.00     0.037 C 
HETATM   18  C21 UNL     1     -16.073   6.634  17.737  1.00  0.00     0.014 C 
HETATM   19  C22 UNL     1     -16.201   6.620  19.253  1.00  0.00     0.010 C 
HETATM   20  C23 UNL     1     -14.936   7.248  19.841  1.00  0.00     0.041 C 
HETATM   21  C24 UNL     1     -14.914   8.768  19.546  1.00  0.00     0.095 C 
HETATM   22  C25 UNL     1     -13.483   9.292  19.812  1.00  0.00     0.049 C 
HETATM   23  C26 UNL     1     -12.689   8.467  20.859  1.00  0.00     0.025 C 
HETATM   24  C27 UNL     1     -11.415   9.235  21.291  1.00  0.00     0.012 C 
HETATM   25  C28 UNL     1     -11.608  10.285  22.399  1.00  0.00    -0.011 C 
HETATM   26  C32 UNL     1     -11.852   9.655  23.796  1.00  0.00     0.005 C 
HETATM   27  C33 UNL     1     -11.834   8.133  23.969  1.00  0.00     0.010 C 
HETATM   28  C34 UNL     1     -12.633   7.199  23.026  1.00  0.00     0.050 C 
HETATM   29  C35 UNL     1     -13.400   6.148  23.840  1.00  0.00     0.125 C 
HETATM   30  C36 UNL     1     -13.882   5.008  22.934  1.00  0.00     0.033 C 
HETATM   31  C37 UNL     1     -14.148   5.443  21.481  1.00  0.00     0.023 C 
HETATM   32  C38 UNL     1     -14.673   6.898  21.362  1.00  0.00     0.051 C 
HETATM   33  C40 UNL     1     -13.580   7.881  21.992  1.00  0.00     0.082 C 
ENDROOT
BRANCH   1  34
HETATM   34  C5  UNL     1     -13.403  10.784  12.772  1.00  0.00     0.306 C 
BRANCH  34  35
HETATM   35  N1  UNL     1     -12.682   9.964  11.804  1.00  0.00     0.087 N 
HETATM   36  H10 UNL     1     -13.330   9.313  11.364  1.00  0.00     0.316 HD
BRANCH  35  37
HETATM   37  C4  UNL     1     -11.561   9.201  12.371  1.00  0.00     0.272 C 
BRANCH  37  38
HETATM   38  C3  UNL     1     -11.839   7.699  12.512  1.00  0.00     0.056 C 
BRANCH  38  39
HETATM   39  C2  UNL     1     -11.494   7.195  13.913  1.00  0.00     0.168 C 
BRANCH  39  40
HETATM   40  O1  UNL     1     -10.341   7.843  14.451  1.00  0.00    -0.396 OA
HETATM   41  C1  UNL     1      -9.232   6.963  14.607  1.00  0.00     0.201 C 
ENDBRANCH  39  40
ENDBRANCH  38  39
ENDBRANCH  37  38
ENDBRANCH  35  37
ENDBRANCH  34  35
ENDBRANCH   1  34
BRANCH   5  42
HETATM   42  O2  UNL     1     -16.784   9.950  18.499  1.00  0.00    -0.386 OA
HETATM   43  H17 UNL     1     -16.802   9.975  19.481  1.00  0.00     0.210 HD
ENDBRANCH   5  42
BRANCH  21  44
HETATM   44  O5  UNL     1     -15.756   9.414  20.550  1.00  0.00    -0.386 OA
HETATM   45  H33 UNL     1     -15.217   9.573  21.358  1.00  0.00     0.210 HD
ENDBRANCH  21  44
BRANCH  32  46
HETATM   46  C39 UNL     1     -16.036   6.957  22.093  1.00  0.00     0.244 C 
HETATM   47  O7  UNL     1     -16.431   7.934  22.730  1.00  0.00    -0.306 OA
ENDBRANCH  32  46
BRANCH  33  48
HETATM   48  O8  UNL     1     -14.286   8.961  22.613  1.00  0.00    -0.388 OA
HETATM   49  H59 UNL     1     -14.507   8.653  23.525  1.00  0.00     0.210 HD
ENDBRANCH  33  48
BRANCH  25  50
HETATM   50  C29 UNL     1     -10.436  11.328  22.475  1.00  0.00    -0.019 C 
HETATM   51  C30 UNL     1     -10.398  12.297  21.283  1.00  0.00     0.010 C 
HETATM   52  C31 UNL     1     -10.534  12.174  23.758  1.00  0.00     0.010 C 
ENDBRANCH  25  50
BRANCH  29  53
HETATM   53  O6  UNL     1     -14.503   6.807  24.471  1.00  0.00    -0.395 OA
HETATM   54  H53 UNL     1     -15.015   6.125  24.950  1.00  0.00     0.210 HD
ENDBRANCH  29  53
TORSDOF 12
ENDMDL
MODEL 8
REMARK minimizedAffinity -6.44557476
REMARK CNNscore 0.310215354
REMARK CNNaffinity 6.57067919
REMARK  12 active torsions:
REMARK  status: ('A' for Active; 'I' for Inactive)
REMARK    1  A    between atoms: O1_2  and  C2_3 
REMARK    2  A    between atoms: C2_3  and  C3_4 
REMARK    3  A    between atoms: C3_4  and  C4_5 
REMARK    4  A    between atoms: C4_5  and  N1_6 
REMARK    5  A    between atoms: N1_6  and  C5_7 
REMARK    6  A    between atoms: C5_7  and  C6_8 
REMARK    7  A    between atoms: C10_12  and  O2_13 
REMARK    8  A    between atoms: C24_29  and  O5_30 
REMARK    9  A    between atoms: C28_34  and  C29_35 
REMARK   10  A    between atoms: C35_41  and  O6_42 
REMARK   11  A    between atoms: C38_45  and  C39_46 
REMARK   12  A    between atoms: C40_48  and  O8_49 
ROOT
HETATM    1  C6  UNL     1     -11.163  11.189  22.443  1.00  0.00    -0.016 C 
HETATM    2  C7  UNL     1     -10.811  10.723  21.224  1.00  0.00    -0.013 C 
HETATM    3  C8  UNL     1     -11.765  10.653  20.059  1.00  0.00     0.021 C 
HETATM    4  C9  UNL     1     -12.333   9.257  19.833  1.00  0.00     0.051 C 
HETATM    5  C10 UNL     1     -13.579   9.457  18.946  1.00  0.00     0.098 C 
HETATM    6  C11 UNL     1     -14.222  10.795  19.518  1.00  0.00     0.002 C 
HETATM    7  C12 UNL     1     -15.407  10.551  20.536  1.00  0.00     0.013 C 
HETATM    8  C13 UNL     1     -15.276   9.664  21.779  1.00  0.00     0.001 C 
HETATM    9  C14 UNL     1     -14.868  10.360  23.076  1.00  0.00     0.004 C 
HETATM   10  C15 UNL     1     -13.357  10.393  23.303  1.00  0.00     0.048 C 
HETATM   11  C16 UNL     1     -12.605  11.596  22.702  1.00  0.00     0.120 A 
HETATM   12  O3  UNL     1     -12.679  12.669  23.652  1.00  0.00    -0.297 OA
HETATM   13  C17 UNL     1     -13.338  13.724  23.110  1.00  0.00     0.284 A 
HETATM   14  O4  UNL     1     -13.603  14.761  23.689  1.00  0.00    -0.260 OA
HETATM   15  C18 UNL     1     -13.626  13.450  21.708  1.00  0.00     0.089 A 
HETATM   16  C19 UNL     1     -13.184  12.214  21.474  1.00  0.00    -0.029 A 
HETATM   17  C20 UNL     1     -13.008  11.576  20.133  1.00  0.00     0.037 C 
HETATM   18  C21 UNL     1     -14.876  11.699  18.417  1.00  0.00     0.014 C 
HETATM   19  C22 UNL     1     -15.225  10.961  17.134  1.00  0.00     0.010 C 
HETATM   20  C23 UNL     1     -13.921  10.469  16.501  1.00  0.00     0.041 C 
HETATM   21  C24 UNL     1     -13.314   9.331  17.357  1.00  0.00     0.095 C 
HETATM   22  C25 UNL     1     -11.847   9.121  16.914  1.00  0.00     0.049 C 
HETATM   23  C26 UNL     1     -11.566   9.522  15.442  1.00  0.00     0.025 C 
HETATM   24  C27 UNL     1     -10.181   8.988  14.998  1.00  0.00     0.012 C 
HETATM   25  C28 UNL     1     -10.149   7.528  14.512  1.00  0.00    -0.011 C 
HETATM   26  C32 UNL     1     -10.807   7.337  13.119  1.00  0.00     0.005 C 
HETATM   27  C33 UNL     1     -11.360   8.545  12.356  1.00  0.00     0.010 C 
HETATM   28  C34 UNL     1     -12.290   9.581  13.037  1.00  0.00     0.050 C 
HETATM   29  C35 UNL     1     -13.494   9.890  12.137  1.00  0.00     0.125 C 
HETATM   30  C36 UNL     1     -14.211  11.161  12.611  1.00  0.00     0.033 C 
HETATM   31  C37 UNL     1     -14.084  11.415  14.125  1.00  0.00     0.023 C 
HETATM   32  C38 UNL     1     -14.031  10.111  14.964  1.00  0.00     0.051 C 
HETATM   33  C40 UNL     1     -12.766   9.257  14.486  1.00  0.00     0.082 C 
ENDROOT
BRANCH   1  34
HETATM   34  C5  UNL     1     -10.193  11.215  23.597  1.00  0.00     0.306 C 
BRANCH  34  35
HETATM   35  N1  UNL     1      -9.138  12.214  23.453  1.00  0.00     0.087 N 
HETATM   36  H10 UNL     1      -8.233  11.747  23.434  1.00  0.00     0.316 HD
BRANCH  35  37
HETATM   37  C4  UNL     1      -9.121  13.234  24.511  1.00  0.00     0.272 C 
BRANCH  37  38
HETATM   38  C3  UNL     1      -8.424  14.539  24.104  1.00  0.00     0.056 C 
BRANCH  38  39
HETATM   39  C2  UNL     1      -7.103  14.268  23.384  1.00  0.00     0.168 C 
BRANCH  39  40
HETATM   40  O1  UNL     1      -6.083  15.194  23.762  1.00  0.00    -0.396 OA
HETATM   41  C1  UNL     1      -6.430  15.964  24.908  1.00  0.00     0.201 C 
ENDBRANCH  39  40
ENDBRANCH  38  39
ENDBRANCH  37  38
ENDBRANCH  35  37
ENDBRANCH  34  35
ENDBRANCH   1  34
BRANCH   5  42
HETATM   42  O2  UNL     1     -14.460   8.360  19.289  1.00  0.00    -0.386 OA
HETATM   43  H17 UNL     1     -14.615   7.869  18.453  1.00  0.00     0.210 HD
ENDBRANCH   5  42
BRANCH  21  44
HETATM   44  O5  UNL     1     -14.010   8.099  16.992  1.00  0.00    -0.386 OA
HETATM   45  H33 UNL     1     -13.576   7.718  16.195  1.00  0.00     0.210 HD
ENDBRANCH  21  44
BRANCH  32  46
HETATM   46  C39 UNL     1     -15.375   9.373  14.754  1.00  0.00     0.244 C 
HETATM   47  O7  UNL     1     -16.359   9.877  14.211  1.00  0.00    -0.306 OA
ENDBRANCH  32  46
BRANCH  33  48
HETATM   48  O8  UNL     1     -13.123   7.873  14.586  1.00  0.00    -0.388 OA
HETATM   49  H59 UNL     1     -13.572   7.647  13.737  1.00  0.00     0.210 HD
ENDBRANCH  33  48
BRANCH  25  50
HETATM   50  C29 UNL     1      -8.707   6.905  14.516  1.00  0.00    -0.019 C 
HETATM   51  C30 UNL     1      -8.331   6.238  15.848  1.00  0.00     0.010 C 
HETATM   52  C31 UNL     1      -8.561   5.846  13.408  1.00  0.00     0.010 C 
ENDBRANCH  25  50
BRANCH  29  53
HETATM   53  O6  UNL     1     -14.369   8.759  12.178  1.00  0.00    -0.395 OA
HETATM   54  H53 UNL     1     -15.157   8.980  11.641  1.00  0.00     0.210 HD
ENDBRANCH  29  53
TORSDOF 12
ENDMDL
MODEL 9
REMARK minimizedAffinity -6.45830297
REMARK CNNscore 0.29807061
REMARK CNNaffinity 5.98203993
REMARK  12 active torsions:
REMARK  status: ('A' for Active; 'I' for Inactive)
REMARK    1  A    between atoms: O1_2  and  C2_3 
REMARK    2  A    between atoms: C2_3  and  C3_4 
REMARK    3  A    between atoms: C3_4  and  C4_5 
REMARK    4  A    between atoms: C4_5  and  N1_6 
REMARK    5  A    between atoms: N1_6  and  C5_7 
REMARK    6  A    between atoms: C5_7  and  C6_8 
REMARK    7  A    between atoms: C10_12  and  O2_13 
REMARK    8  A    between atoms: C24_29  and  O5_30 
REMARK    9  A    between atoms: C28_34  and  C29_35 
REMARK   10  A    between atoms: C35_41  and  O6_42 
REMARK   11  A    between atoms: C38_45  and  C39_46 
REMARK   12  A    between atoms: C40_48  and  O8_49 
ROOT
HETATM    1  C6  UNL     1     -19.382   1.519  12.063  1.00  0.00    -0.016 C 
HETATM    2  C7  UNL     1     -19.150   2.827  11.810  1.00  0.00    -0.013 C 
HETATM    3  C8  UNL     1     -18.085   3.628  12.516  1.00  0.00     0.021 C 
HETATM    4  C9  UNL     1     -18.636   4.498  13.639  1.00  0.00     0.051 C 
HETATM    5  C10 UNL     1     -17.418   4.870  14.508  1.00  0.00     0.098 C 
HETATM    6  C11 UNL     1     -16.554   3.534  14.514  1.00  0.00     0.002 C 
HETATM    7  C12 UNL     1     -16.768   2.640  15.800  1.00  0.00     0.013 C 
HETATM    8  C13 UNL     1     -18.147   2.168  16.275  1.00  0.00     0.001 C 
HETATM    9  C14 UNL     1     -18.616   0.806  15.767  1.00  0.00     0.004 C 
HETATM   10  C15 UNL     1     -19.416   0.881  14.467  1.00  0.00     0.048 C 
HETATM   11  C16 UNL     1     -18.600   0.818  13.161  1.00  0.00     0.120 A 
HETATM   12  O3  UNL     1     -18.393  -0.568  12.848  1.00  0.00    -0.297 OA
HETATM   13  C17 UNL     1     -17.067  -0.851  12.850  1.00  0.00     0.284 A 
HETATM   14  O4  UNL     1     -16.582  -1.953  12.670  1.00  0.00    -0.260 OA
HETATM   15  C18 UNL     1     -16.307   0.378  13.040  1.00  0.00     0.089 A 
HETATM   16  C19 UNL     1     -17.206   1.347  13.207  1.00  0.00    -0.029 A 
HETATM   17  C20 UNL     1     -16.938   2.818  13.171  1.00  0.00     0.037 C 
HETATM   18  C21 UNL     1     -15.007   3.786  14.506  1.00  0.00     0.014 C 
HETATM   19  C22 UNL     1     -14.601   5.171  14.984  1.00  0.00     0.010 C 
HETATM   20  C23 UNL     1     -15.160   6.196  13.995  1.00  0.00     0.041 C 
HETATM   21  C24 UNL     1     -16.702   6.265  14.121  1.00  0.00     0.095 C 
HETATM   22  C25 UNL     1     -17.256   7.007  12.882  1.00  0.00     0.049 C 
HETATM   23  C26 UNL     1     -16.260   8.014  12.247  1.00  0.00     0.025 C 
HETATM   24  C27 UNL     1     -16.995   8.926  11.234  1.00  0.00     0.012 C 
HETATM   25  C28 UNL     1     -17.712  10.150  11.829  1.00  0.00    -0.011 C 
HETATM   26  C32 UNL     1     -16.732  11.257  12.302  1.00  0.00     0.005 C 
HETATM   27  C33 UNL     1     -15.222  11.083  12.109  1.00  0.00     0.010 C 
HETATM   28  C34 UNL     1     -14.495   9.779  12.522  1.00  0.00     0.050 C 
HETATM   29  C35 UNL     1     -13.215  10.107  13.302  1.00  0.00     0.125 C 
HETATM   30  C36 UNL     1     -12.305   8.875  13.391  1.00  0.00     0.033 C 
HETATM   31  C37 UNL     1     -13.070   7.538  13.366  1.00  0.00     0.023 C 
HETATM   32  C38 UNL     1     -14.460   7.614  14.050  1.00  0.00     0.051 C 
HETATM   33  C40 UNL     1     -15.337   8.713  13.287  1.00  0.00     0.082 C 
ENDROOT
BRANCH   1  34
HETATM   34  C5  UNL     1     -20.478   0.754  11.363  1.00  0.00     0.306 C 
BRANCH  34  35
HETATM   35  N1  UNL     1     -21.679   1.547  11.117  1.00  0.00     0.087 N 
HETATM   36  H10 UNL     1     -22.386   1.311  11.810  1.00  0.00     0.316 HD
BRANCH  35  37
HETATM   37  C4  UNL     1     -22.255   1.373   9.777  1.00  0.00     0.272 C 
BRANCH  37  38
HETATM   38  C3  UNL     1     -21.212   1.140   8.676  1.00  0.00     0.056 C 
BRANCH  38  39
HETATM   39  C2  UNL     1     -21.539   1.940   7.416  1.00  0.00     0.168 C 
BRANCH  39  40
HETATM   40  O1  UNL     1     -20.421   2.035   6.532  1.00  0.00    -0.396 OA
HETATM   41  C1  UNL     1     -20.755   1.741   5.179  1.00  0.00     0.201 C 
ENDBRANCH  39  40
ENDBRANCH  38  39
ENDBRANCH  37  38
ENDBRANCH  35  37
ENDBRANCH  34  35
ENDBRANCH   1  34
BRANCH   5  42
HETATM   42  O2  UNL     1     -17.955   5.056  15.841  1.00  0.00    -0.386 OA
HETATM   43  H17 UNL     1     -17.729   5.978  16.093  1.00  0.00     0.210 HD
ENDBRANCH   5  42
BRANCH  21  44
HETATM   44  O5  UNL     1     -17.003   7.131  15.258  1.00  0.00    -0.386 OA
HETATM   45  H33 UNL     1     -16.997   8.066  14.953  1.00  0.00     0.210 HD
ENDBRANCH  21  44
BRANCH  32  46
HETATM   46  C39 UNL     1     -14.222   7.956  15.541  1.00  0.00     0.244 C 
HETATM   47  O7  UNL     1     -15.040   7.738  16.435  1.00  0.00    -0.306 OA
ENDBRANCH  32  46
BRANCH  33  48
HETATM   48  O8  UNL     1     -16.165   9.352  14.265  1.00  0.00    -0.388 OA
HETATM   49  H59 UNL     1     -15.619  10.081  14.648  1.00  0.00     0.210 HD
ENDBRANCH  33  48
BRANCH  25  50
HETATM   50  C29 UNL     1     -18.794  10.763  10.868  1.00  0.00    -0.019 C 
HETATM   51  C30 UNL     1     -18.516  12.225  10.487  1.00  0.00     0.010 C 
HETATM   52  C31 UNL     1     -18.892   9.953   9.562  1.00  0.00     0.010 C 
ENDBRANCH  25  50
BRANCH  29  53
HETATM   53  O6  UNL     1     -13.601  10.557  14.604  1.00  0.00    -0.395 OA
HETATM   54  H53 UNL     1     -12.781  10.719  15.112  1.00  0.00     0.210 HD
ENDBRANCH  29  53
TORSDOF 12
ENDMDL
