MODEL 1
REMARK minimizedAffinity -9.29972649
REMARK  8 active torsions:
REMARK  status: ('A' for Active; 'I' for Inactive)
REMARK    1  A    between atoms: C4_4  and  C5_5 
REMARK    2  A    between atoms: C5_5  and  C6_6 
REMARK    3  A    between atoms: C6_6  and  C7_7 
REMARK    4  A    between atoms: C7_7  and  C9_9 
REMARK    5  A    between atoms: C25_26  and  C27_28 
REMARK    6  A    between atoms: C27_28  and  O3_30 
REMARK    7  A    between atoms: C28_31  and  O4_32 
REMARK    8  A    between atoms: C30_34  and  O5_35 
ROOT
HETATM    1  C9  UNL     1      -6.134   6.902  14.308  1.00  0.00    -0.002 C 
HETATM    2  C10 UNL     1      -5.980   8.154  15.218  1.00  0.00     0.007 C 
HETATM    3  C11 UNL     1      -4.505   8.593  15.142  1.00  0.00     0.015 C 
HETATM    4  C12 UNL     1      -3.928   7.863  13.913  1.00  0.00    -0.005 C 
HETATM    5  C13 UNL     1      -4.328   8.697  12.655  1.00  0.00     0.021 C 
HETATM    6  C14 UNL     1      -2.423   7.655  13.764  1.00  0.00    -0.000 C 
HETATM    7  C15 UNL     1      -1.924   6.587  13.085  1.00  0.00    -0.058 C 
HETATM    8  C16 UNL     1      -2.874   5.520  12.512  1.00  0.00     0.036 C 
HETATM    9  C17 UNL     1      -4.383   5.674  12.784  1.00  0.00     0.015 C 
HETATM   10  C18 UNL     1      -4.656   6.465  14.064  1.00  0.00    -0.028 C 
HETATM   11  C19 UNL     1      -4.118   5.637  15.267  1.00  0.00     0.016 C 
HETATM   12  C20 UNL     1      -0.394   6.329  12.884  1.00  0.00     0.011 C 
HETATM   13  C21 UNL     1      -0.010   5.303  13.977  1.00  0.00     0.023 C 
HETATM   14  C22 UNL     1       0.371   7.689  13.013  1.00  0.00     0.029 C 
HETATM   15  C23 UNL     1      -0.014   8.438  14.289  1.00  0.00     0.090 C 
HETATM   16  C24 UNL     1      -1.500   8.672  14.364  1.00  0.00     0.157 C 
HETATM   17  O1  UNL     1      -1.933   9.660  14.959  1.00  0.00    -0.293 OA
HETATM   18  C25 UNL     1       1.929   7.649  12.763  1.00  0.00     0.072 C 
HETATM   19  C26 UNL     1       2.328   8.965  12.037  1.00  0.00     0.030 C 
HETATM   20  C28 UNL     1       2.339   6.419  11.907  1.00  0.00     0.139 C 
HETATM   21  C29 UNL     1       1.286   6.072  10.861  1.00  0.00     0.065 C 
HETATM   22  C30 UNL     1      -0.100   5.771  11.441  1.00  0.00     0.133 C 
ENDROOT
BRANCH   1  23
HETATM   23  C7  UNL     1      -7.263   5.946  14.800  1.00  0.00    -0.014 C 
HETATM   24  C8  UNL     1      -7.627   6.034  16.289  1.00  0.00     0.010 C 
BRANCH  23  25
HETATM   25  C6  UNL     1      -7.083   4.452  14.431  1.00  0.00     0.008 C 
BRANCH  25  26
HETATM   26  C5  UNL     1      -7.597   4.044  13.040  1.00  0.00     0.028 C 
BRANCH  26  27
HETATM   27  C4  UNL     1      -7.162   2.680  12.589  1.00  0.00    -0.025 C 
HETATM   28  C2  UNL     1      -6.276   2.366  11.622  1.00  0.00    -0.091 C 
HETATM   29  C1  UNL     1      -5.533   3.356  10.768  1.00  0.00     0.042 C 
HETATM   30  C3  UNL     1      -5.940   0.926  11.330  1.00  0.00     0.042 C 
ENDBRANCH  26  27
ENDBRANCH  25  26
ENDBRANCH  23  25
ENDBRANCH   1  23
BRANCH  22  31
HETATM   31  O5  UNL     1      -0.330   4.360  11.354  1.00  0.00    -0.394 OA
HETATM   32  H46 UNL     1       0.365   3.894  11.849  1.00  0.00     0.210 HD
ENDBRANCH  22  31
BRANCH  18  33
HETATM   33  C27 UNL     1       2.729   7.620  14.070  1.00  0.00     0.151 C 
HETATM   34  O2  UNL     1       3.490   8.472  14.493  1.00  0.00    -0.649 OA
BRANCH  33  35
HETATM   35  O3  UNL     1       2.496   6.535  14.831  1.00  0.00    -0.776 OA
HETATM   36  H40 UNL     1       3.079   6.677  15.609  1.00  0.00     0.167 HD
ENDBRANCH  33  35
ENDBRANCH  18  33
BRANCH  20  37
HETATM   37  O4  UNL     1       3.578   6.660  11.234  1.00  0.00    -0.394 OA
HETATM   38  H42 UNL     1       3.850   5.834  10.796  1.00  0.00     0.210 HD
ENDBRANCH  20  37
TORSDOF 8
ENDMDL
MODEL 2
REMARK minimizedAffinity -9.18541622
REMARK  8 active torsions:
REMARK  status: ('A' for Active; 'I' for Inactive)
REMARK    1  A    between atoms: C4_4  and  C5_5 
REMARK    2  A    between atoms: C5_5  and  C6_6 
REMARK    3  A    between atoms: C6_6  and  C7_7 
REMARK    4  A    between atoms: C7_7  and  C9_9 
REMARK    5  A    between atoms: C25_26  and  C27_28 
REMARK    6  A    between atoms: C27_28  and  O3_30 
REMARK    7  A    between atoms: C28_31  and  O4_32 
REMARK    8  A    between atoms: C30_34  and  O5_35 
ROOT
HETATM    1  C9  UNL     1      -1.985   6.116  13.531  1.00  0.00    -0.002 C 
HETATM    2  C10 UNL     1      -2.131   5.698  12.039  1.00  0.00     0.007 C 
HETATM    3  C11 UNL     1      -0.754   5.891  11.376  1.00  0.00     0.015 C 
HETATM    4  C12 UNL     1       0.244   6.027  12.543  1.00  0.00    -0.005 C 
HETATM    5  C13 UNL     1       0.585   4.580  13.023  1.00  0.00     0.021 C 
HETATM    6  C14 UNL     1       1.605   6.685  12.335  1.00  0.00    -0.000 C 
HETATM    7  C15 UNL     1       2.235   7.335  13.351  1.00  0.00    -0.058 C 
HETATM    8  C16 UNL     1       1.548   7.482  14.722  1.00  0.00     0.036 C 
HETATM    9  C17 UNL     1       0.120   6.926  14.877  1.00  0.00     0.015 C 
HETATM   10  C18 UNL     1      -0.629   6.889  13.544  1.00  0.00    -0.028 C 
HETATM   11  C19 UNL     1      -0.823   8.355  13.059  1.00  0.00     0.016 C 
HETATM   12  C20 UNL     1       3.636   8.015  13.205  1.00  0.00     0.011 C 
HETATM   13  C21 UNL     1       3.335   9.514  12.970  1.00  0.00     0.023 C 
HETATM   14  C22 UNL     1       4.405   7.342  12.019  1.00  0.00     0.029 C 
HETATM   15  C23 UNL     1       3.555   7.291  10.748  1.00  0.00     0.090 C 
HETATM   16  C24 UNL     1       2.249   6.581  10.987  1.00  0.00     0.157 C 
HETATM   17  O1  UNL     1       1.708   5.974  10.062  1.00  0.00    -0.293 OA
HETATM   18  C25 UNL     1       5.880   7.840  11.760  1.00  0.00     0.072 C 
HETATM   19  C26 UNL     1       6.726   6.614  11.317  1.00  0.00     0.030 C 
HETATM   20  C28 UNL     1       6.496   8.486  13.031  1.00  0.00     0.139 C 
HETATM   21  C29 UNL     1       6.028   7.799  14.308  1.00  0.00     0.065 C 
HETATM   22  C30 UNL     1       4.507   7.798  14.499  1.00  0.00     0.133 C 
ENDROOT
BRANCH   1  23
HETATM   23  C7  UNL     1      -3.316   6.666  14.126  1.00  0.00    -0.014 C 
HETATM   24  C8  UNL     1      -3.646   6.235  15.563  1.00  0.00     0.010 C 
BRANCH  23  25
HETATM   25  C6  UNL     1      -4.578   6.453  13.253  1.00  0.00     0.008 C 
BRANCH  25  26
HETATM   26  C5  UNL     1      -5.451   5.244  13.629  1.00  0.00     0.028 C 
BRANCH  26  27
HETATM   27  C4  UNL     1      -5.320   4.068  12.706  1.00  0.00    -0.025 C 
HETATM   28  C2  UNL     1      -6.244   3.131  12.415  1.00  0.00    -0.091 C 
HETATM   29  C1  UNL     1      -7.633   3.072  12.989  1.00  0.00     0.042 C 
HETATM   30  C3  UNL     1      -5.937   2.032  11.431  1.00  0.00     0.042 C 
ENDBRANCH  26  27
ENDBRANCH  25  26
ENDBRANCH  23  25
ENDBRANCH   1  23
BRANCH  22  31
HETATM   31  O5  UNL     1       4.181   8.737  15.530  1.00  0.00    -0.394 OA
HETATM   32  H46 UNL     1       4.500   9.618  15.269  1.00  0.00     0.210 HD
ENDBRANCH  22  31
BRANCH  18  33
HETATM   33  C27 UNL     1       5.960   8.853  10.613  1.00  0.00     0.151 C 
HETATM   34  O2  UNL     1       5.035   9.343   9.988  1.00  0.00    -0.649 OA
BRANCH  33  35
HETATM   35  O3  UNL     1       7.211   9.260  10.327  1.00  0.00    -0.776 OA
HETATM   36  H40 UNL     1       7.079   9.890   9.584  1.00  0.00     0.167 HD
ENDBRANCH  33  35
ENDBRANCH  18  33
BRANCH  20  37
HETATM   37  O4  UNL     1       7.925   8.428  12.987  1.00  0.00    -0.394 OA
HETATM   38  H42 UNL     1       8.271   8.932  13.746  1.00  0.00     0.210 HD
ENDBRANCH  20  37
TORSDOF 8
ENDMDL
MODEL 3
REMARK minimizedAffinity -9.17080116
REMARK  8 active torsions:
REMARK  status: ('A' for Active; 'I' for Inactive)
REMARK    1  A    between atoms: C4_4  and  C5_5 
REMARK    2  A    between atoms: C5_5  and  C6_6 
REMARK    3  A    between atoms: C6_6  and  C7_7 
REMARK    4  A    between atoms: C7_7  and  C9_9 
REMARK    5  A    between atoms: C25_26  and  C27_28 
REMARK    6  A    between atoms: C27_28  and  O3_30 
REMARK    7  A    between atoms: C28_31  and  O4_32 
REMARK    8  A    between atoms: C30_34  and  O5_35 
ROOT
HETATM    1  C9  UNL     1      -4.092   6.928  14.583  1.00  0.00    -0.002 C 
HETATM    2  C10 UNL     1      -4.519   5.627  13.845  1.00  0.00     0.007 C 
HETATM    3  C11 UNL     1      -3.373   5.250  12.887  1.00  0.00     0.015 C 
HETATM    4  C12 UNL     1      -2.162   6.079  13.357  1.00  0.00    -0.005 C 
HETATM    5  C13 UNL     1      -1.522   5.313  14.558  1.00  0.00     0.021 C 
HETATM    6  C14 UNL     1      -0.990   6.353  12.418  1.00  0.00    -0.000 C 
HETATM    7  C15 UNL     1      -0.239   7.481  12.540  1.00  0.00    -0.058 C 
HETATM    8  C16 UNL     1      -0.604   8.546  13.591  1.00  0.00     0.036 C 
HETATM    9  C17 UNL     1      -1.867   8.317  14.443  1.00  0.00     0.015 C 
HETATM   10  C18 UNL     1      -2.891   7.436  13.725  1.00  0.00    -0.028 C 
HETATM   11  C19 UNL     1      -3.393   8.205  12.469  1.00  0.00     0.016 C 
HETATM   12  C20 UNL     1       0.982   7.810  11.620  1.00  0.00     0.011 C 
HETATM   13  C21 UNL     1       0.430   8.777  10.546  1.00  0.00     0.023 C 
HETATM   14  C22 UNL     1       1.542   6.475  11.025  1.00  0.00     0.029 C 
HETATM   15  C23 UNL     1       0.438   5.631  10.386  1.00  0.00     0.090 C 
HETATM   16  C24 UNL     1      -0.667   5.337  11.367  1.00  0.00     0.157 C 
HETATM   17  O1  UNL     1      -1.318   4.297  11.257  1.00  0.00    -0.293 OA
HETATM   18  C25 UNL     1       2.833   6.590  10.125  1.00  0.00     0.072 C 
HETATM   19  C26 UNL     1       3.717   5.339  10.398  1.00  0.00     0.030 C 
HETATM   20  C28 UNL     1       3.631   7.887  10.433  1.00  0.00     0.139 C 
HETATM   21  C29 UNL     1       3.570   8.260  11.909  1.00  0.00     0.065 C 
HETATM   22  C30 UNL     1       2.150   8.470  12.445  1.00  0.00     0.133 C 
ENDROOT
BRANCH   1  23
HETATM   23  C7  UNL     1      -5.313   7.807  14.991  1.00  0.00    -0.014 C 
HETATM   24  C8  UNL     1      -4.992   9.121  15.719  1.00  0.00     0.010 C 
BRANCH  23  25
HETATM   25  C6  UNL     1      -6.430   7.076  15.779  1.00  0.00     0.008 C 
BRANCH  25  26
HETATM   26  C5  UNL     1      -7.682   6.705  14.967  1.00  0.00     0.028 C 
BRANCH  26  27
HETATM   27  C4  UNL     1      -7.728   5.277  14.510  1.00  0.00    -0.025 C 
HETATM   28  C2  UNL     1      -8.068   4.802  13.294  1.00  0.00    -0.091 C 
HETATM   29  C1  UNL     1      -8.494   5.641  12.121  1.00  0.00     0.042 C 
HETATM   30  C3  UNL     1      -8.024   3.323  13.010  1.00  0.00     0.042 C 
ENDBRANCH  26  27
ENDBRANCH  25  26
ENDBRANCH  23  25
ENDBRANCH   1  23
BRANCH  22  31
HETATM   31  O5  UNL     1       1.943   9.873  12.640  1.00  0.00    -0.394 OA
HETATM   32  H46 UNL     1       2.068  10.333  11.792  1.00  0.00     0.210 HD
ENDBRANCH  22  31
BRANCH  18  33
HETATM   33  C27 UNL     1       2.506   6.565   8.628  1.00  0.00     0.151 C 
HETATM   34  O2  UNL     1       2.071   7.478   7.948  1.00  0.00    -0.649 OA
BRANCH  33  35
HETATM   35  O3  UNL     1       2.792   5.397   8.023  1.00  0.00    -0.776 OA
HETATM   36  H40 UNL     1       2.523   5.554   7.091  1.00  0.00     0.167 HD
ENDBRANCH  33  35
ENDBRANCH  18  33
BRANCH  20  37
HETATM   37  O4  UNL     1       5.005   7.737  10.064  1.00  0.00    -0.394 OA
HETATM   38  H42 UNL     1       5.444   8.599  10.175  1.00  0.00     0.210 HD
ENDBRANCH  20  37
TORSDOF 8
ENDMDL
MODEL 4
REMARK minimizedAffinity -9.09170532
REMARK  8 active torsions:
REMARK  status: ('A' for Active; 'I' for Inactive)
REMARK    1  A    between atoms: C4_4  and  C5_5 
REMARK    2  A    between atoms: C5_5  and  C6_6 
REMARK    3  A    between atoms: C6_6  and  C7_7 
REMARK    4  A    between atoms: C7_7  and  C9_9 
REMARK    5  A    between atoms: C25_26  and  C27_28 
REMARK    6  A    between atoms: C27_28  and  O3_30 
REMARK    7  A    between atoms: C28_31  and  O4_32 
REMARK    8  A    between atoms: C30_34  and  O5_35 
ROOT
HETATM    1  C9  UNL     1      -1.649   6.966  14.118  1.00  0.00    -0.002 C 
HETATM    2  C10 UNL     1      -1.977   6.746  12.613  1.00  0.00     0.007 C 
HETATM    3  C11 UNL     1      -0.651   6.864  11.837  1.00  0.00     0.015 C 
HETATM    4  C12 UNL     1       0.455   6.749  12.903  1.00  0.00    -0.005 C 
HETATM    5  C13 UNL     1       0.660   5.227  13.188  1.00  0.00     0.021 C 
HETATM    6  C14 UNL     1       1.862   7.274  12.629  1.00  0.00    -0.000 C 
HETATM    7  C15 UNL     1       2.654   7.726  13.639  1.00  0.00    -0.058 C 
HETATM    8  C16 UNL     1       2.116   7.784  15.081  1.00  0.00     0.036 C 
HETATM    9  C17 UNL     1       0.650   7.374  15.321  1.00  0.00     0.015 C 
HETATM   10  C18 UNL     1      -0.214   7.578  14.075  1.00  0.00    -0.028 C 
HETATM   11  C19 UNL     1      -0.271   9.103  13.772  1.00  0.00     0.016 C 
HETATM   12  C20 UNL     1       4.109   8.259  13.424  1.00  0.00     0.011 C 
HETATM   13  C21 UNL     1       3.972   9.800  13.383  1.00  0.00     0.023 C 
HETATM   14  C22 UNL     1       4.682   7.651  12.100  1.00  0.00     0.029 C 
HETATM   15  C23 UNL     1       3.722   7.845  10.925  1.00  0.00     0.090 C 
HETATM   16  C24 UNL     1       2.366   7.260  11.218  1.00  0.00     0.157 C 
HETATM   17  O1  UNL     1       1.675   6.830  10.294  1.00  0.00    -0.293 OA
HETATM   18  C25 UNL     1       6.177   8.011  11.746  1.00  0.00     0.072 C 
HETATM   19  C26 UNL     1       6.825   6.759  11.091  1.00  0.00     0.030 C 
HETATM   20  C28 UNL     1       6.978   8.430  13.010  1.00  0.00     0.139 C 
HETATM   21  C29 UNL     1       6.546   7.652  14.247  1.00  0.00     0.065 C 
HETATM   22  C30 UNL     1       5.059   7.796  14.592  1.00  0.00     0.133 C 
ENDROOT
BRANCH   1  23
HETATM   23  C7  UNL     1      -2.845   7.584  14.902  1.00  0.00    -0.014 C 
HETATM   24  C8  UNL     1      -2.527   8.143  16.297  1.00  0.00     0.010 C 
BRANCH  23  25
HETATM   25  C6  UNL     1      -4.107   6.692  15.012  1.00  0.00     0.008 C 
BRANCH  25  26
HETATM   26  C5  UNL     1      -5.171   6.909  13.922  1.00  0.00     0.028 C 
BRANCH  26  27
HETATM   27  C4  UNL     1      -6.125   5.764  13.745  1.00  0.00    -0.025 C 
HETATM   28  C2  UNL     1      -5.899   4.576  13.150  1.00  0.00    -0.091 C 
HETATM   29  C1  UNL     1      -4.603   4.154  12.513  1.00  0.00     0.042 C 
HETATM   30  C3  UNL     1      -6.981   3.528  13.096  1.00  0.00     0.042 C 
ENDBRANCH  26  27
ENDBRANCH  25  26
ENDBRANCH  23  25
ENDBRANCH   1  23
BRANCH  22  31
HETATM   31  O5  UNL     1       4.942   8.637  15.745  1.00  0.00    -0.394 OA
HETATM   32  H46 UNL     1       5.341   9.502  15.549  1.00  0.00     0.210 HD
ENDBRANCH  22  31
BRANCH  18  33
HETATM   33  C27 UNL     1       6.276   9.138  10.712  1.00  0.00     0.151 C 
HETATM   34  O2  UNL     1       5.364   9.670  10.104  1.00  0.00    -0.649 OA
BRANCH  33  35
HETATM   35  O3  UNL     1       7.527   9.596  10.519  1.00  0.00    -0.776 OA
HETATM   36  H40 UNL     1       7.408  10.296   9.840  1.00  0.00     0.167 HD
ENDBRANCH  33  35
ENDBRANCH  18  33
BRANCH  20  37
HETATM   37  O4  UNL     1       8.379   8.220  12.814  1.00  0.00    -0.394 OA
HETATM   38  H42 UNL     1       8.850   8.589  13.583  1.00  0.00     0.210 HD
ENDBRANCH  20  37
TORSDOF 8
ENDMDL
MODEL 5
REMARK minimizedAffinity -8.93871403
REMARK  8 active torsions:
REMARK  status: ('A' for Active; 'I' for Inactive)
REMARK    1  A    between atoms: C4_4  and  C5_5 
REMARK    2  A    between atoms: C5_5  and  C6_6 
REMARK    3  A    between atoms: C6_6  and  C7_7 
REMARK    4  A    between atoms: C7_7  and  C9_9 
REMARK    5  A    between atoms: C25_26  and  C27_28 
REMARK    6  A    between atoms: C27_28  and  O3_30 
REMARK    7  A    between atoms: C28_31  and  O4_32 
REMARK    8  A    between atoms: C30_34  and  O5_35 
ROOT
HETATM    1  C9  UNL     1      -4.484   5.583  13.200  1.00  0.00    -0.002 C 
HETATM    2  C10 UNL     1      -5.455   6.192  14.252  1.00  0.00     0.007 C 
HETATM    3  C11 UNL     1      -4.671   7.270  15.024  1.00  0.00     0.015 C 
HETATM    4  C12 UNL     1      -3.418   7.550  14.171  1.00  0.00    -0.005 C 
HETATM    5  C13 UNL     1      -3.844   8.547  13.046  1.00  0.00     0.021 C 
HETATM    6  C14 UNL     1      -2.177   8.189  14.789  1.00  0.00    -0.000 C 
HETATM    7  C15 UNL     1      -0.934   7.931  14.300  1.00  0.00    -0.058 C 
HETATM    8  C16 UNL     1      -0.747   6.925  13.150  1.00  0.00     0.036 C 
HETATM    9  C17 UNL     1      -1.995   6.189  12.623  1.00  0.00     0.015 C 
HETATM   10  C18 UNL     1      -3.087   6.078  13.688  1.00  0.00    -0.028 C 
HETATM   11  C19 UNL     1      -2.550   5.178  14.838  1.00  0.00     0.016 C 
HETATM   12  C20 UNL     1       0.372   8.567  14.880  1.00  0.00     0.011 C 
HETATM   13  C21 UNL     1       0.960   7.492  15.825  1.00  0.00     0.023 C 
HETATM   14  C22 UNL     1       0.005   9.902  15.610  1.00  0.00     0.029 C 
HETATM   15  C23 UNL     1      -1.139   9.709  16.607  1.00  0.00     0.090 C 
HETATM   16  C24 UNL     1      -2.360   9.131  15.940  1.00  0.00     0.157 C 
HETATM   17  O1  UNL     1      -3.478   9.399  16.379  1.00  0.00    -0.293 OA
HETATM   18  C25 UNL     1       1.207  10.738  16.199  1.00  0.00     0.072 C 
HETATM   19  C26 UNL     1       0.873  12.246  16.015  1.00  0.00     0.030 C 
HETATM   20  C28 UNL     1       2.544  10.394  15.489  1.00  0.00     0.139 C 
HETATM   21  C29 UNL     1       2.346  10.092  14.008  1.00  0.00     0.065 C 
HETATM   22  C30 UNL     1       1.381   8.935  13.728  1.00  0.00     0.133 C 
ENDROOT
BRANCH   1  23
HETATM   23  C7  UNL     1      -4.823   4.098  12.870  1.00  0.00    -0.014 C 
HETATM   24  C8  UNL     1      -3.665   3.238  12.340  1.00  0.00     0.010 C 
BRANCH  23  25
HETATM   25  C6  UNL     1      -6.051   3.880  11.950  1.00  0.00     0.008 C 
BRANCH  25  26
HETATM   26  C5  UNL     1      -7.329   3.389  12.653  1.00  0.00     0.028 C 
BRANCH  26  27
HETATM   27  C4  UNL     1      -8.103   4.463  13.359  1.00  0.00    -0.025 C 
HETATM   28  C2  UNL     1      -8.756   5.512  12.818  1.00  0.00    -0.091 C 
HETATM   29  C1  UNL     1      -8.828   5.828  11.350  1.00  0.00     0.042 C 
HETATM   30  C3  UNL     1      -9.512   6.477  13.693  1.00  0.00     0.042 C 
ENDBRANCH  26  27
ENDBRANCH  25  26
ENDBRANCH  23  25
ENDBRANCH   1  23
BRANCH  22  31
HETATM   31  O5  UNL     1       2.145   7.802  13.301  1.00  0.00    -0.394 OA
HETATM   32  H46 UNL     1       2.780   7.566  13.999  1.00  0.00     0.210 HD
ENDBRANCH  22  31
BRANCH  18  33
HETATM   33  C27 UNL     1       1.386  10.519  17.705  1.00  0.00     0.151 C 
HETATM   34  O2  UNL     1       0.745  11.024  18.611  1.00  0.00    -0.649 OA
BRANCH  33  35
HETATM   35  O3  UNL     1       2.339   9.621  18.019  1.00  0.00    -0.776 OA
HETATM   36  H40 UNL     1       2.320   9.607  19.001  1.00  0.00     0.167 HD
ENDBRANCH  33  35
ENDBRANCH  18  33
BRANCH  20  37
HETATM   37  O4  UNL     1       3.473  11.477  15.605  1.00  0.00    -0.394 OA
HETATM   38  H42 UNL     1       4.327  11.182  15.240  1.00  0.00     0.210 HD
ENDBRANCH  20  37
TORSDOF 8
ENDMDL
MODEL 6
REMARK minimizedAffinity -8.93577385
REMARK  8 active torsions:
REMARK  status: ('A' for Active; 'I' for Inactive)
REMARK    1  A    between atoms: C4_4  and  C5_5 
REMARK    2  A    between atoms: C5_5  and  C6_6 
REMARK    3  A    between atoms: C6_6  and  C7_7 
REMARK    4  A    between atoms: C7_7  and  C9_9 
REMARK    5  A    between atoms: C25_26  and  C27_28 
REMARK    6  A    between atoms: C27_28  and  O3_30 
REMARK    7  A    between atoms: C28_31  and  O4_32 
REMARK    8  A    between atoms: C30_34  and  O5_35 
ROOT
HETATM    1  C9  UNL     1      -1.545   7.687  13.631  1.00  0.00    -0.002 C 
HETATM    2  C10 UNL     1      -1.441   7.350  15.146  1.00  0.00     0.007 C 
HETATM    3  C11 UNL     1       0.040   7.497  15.544  1.00  0.00     0.015 C 
HETATM    4  C12 UNL     1       0.694   8.285  14.392  1.00  0.00    -0.005 C 
HETATM    5  C13 UNL     1       0.390   9.797  14.643  1.00  0.00     0.021 C 
HETATM    6  C14 UNL     1       2.203   8.236  14.170  1.00  0.00    -0.000 C 
HETATM    7  C15 UNL     1       2.737   8.392  12.928  1.00  0.00    -0.058 C 
HETATM    8  C16 UNL     1       1.817   8.550  11.703  1.00  0.00     0.036 C 
HETATM    9  C17 UNL     1       0.295   8.466  11.926  1.00  0.00     0.015 C 
HETATM   10  C18 UNL     1      -0.058   7.633  13.160  1.00  0.00    -0.028 C 
HETATM   11  C19 UNL     1       0.387   6.166  12.896  1.00  0.00     0.016 C 
HETATM   12  C20 UNL     1       4.274   8.368  12.639  1.00  0.00     0.011 C 
HETATM   13  C21 UNL     1       4.570   6.931  12.146  1.00  0.00     0.023 C 
HETATM   14  C22 UNL     1       5.042   8.746  13.949  1.00  0.00     0.029 C 
HETATM   15  C23 UNL     1       4.577   7.909  15.142  1.00  0.00     0.090 C 
HETATM   16  C24 UNL     1       3.092   8.035  15.358  1.00  0.00     0.157 C 
HETATM   17  O1  UNL     1       2.630   7.919  16.494  1.00  0.00    -0.293 OA
HETATM   18  C25 UNL     1       6.613   8.853  13.841  1.00  0.00     0.072 C 
HETATM   19  C26 UNL     1       7.075  10.019  14.760  1.00  0.00     0.030 C 
HETATM   20  C28 UNL     1       7.069   9.111  12.378  1.00  0.00     0.139 C 
HETATM   21  C29 UNL     1       6.088   9.998  11.620  1.00  0.00     0.065 C 
HETATM   22  C30 UNL     1       4.661   9.441  11.553  1.00  0.00     0.133 C 
ENDROOT
BRANCH   1  23
HETATM   23  C7  UNL     1      -2.715   6.930  12.933  1.00  0.00    -0.014 C 
HETATM   24  C8  UNL     1      -4.111   7.554  13.078  1.00  0.00     0.010 C 
BRANCH  23  25
HETATM   25  C6  UNL     1      -2.822   5.418  13.259  1.00  0.00     0.008 C 
BRANCH  25  26
HETATM   26  C5  UNL     1      -4.252   4.862  13.364  1.00  0.00     0.028 C 
BRANCH  26  27
HETATM   27  C4  UNL     1      -4.526   3.677  12.484  1.00  0.00    -0.025 C 
HETATM   28  C2  UNL     1      -5.719   3.140  12.158  1.00  0.00    -0.091 C 
HETATM   29  C1  UNL     1      -7.056   3.634  12.640  1.00  0.00     0.042 C 
HETATM   30  C3  UNL     1      -5.799   1.958  11.227  1.00  0.00     0.042 C 
ENDBRANCH  26  27
ENDBRANCH  25  26
ENDBRANCH  23  25
ENDBRANCH   1  23
BRANCH  22  31
HETATM   31  O5  UNL     1       4.423   8.968  10.222  1.00  0.00    -0.394 OA
HETATM   32  H46 UNL     1       5.077   8.281  10.008  1.00  0.00     0.210 HD
ENDBRANCH  22  31
BRANCH  18  33
HETATM   33  C27 UNL     1       7.320   7.595  14.355  1.00  0.00     0.151 C 
HETATM   34  O2  UNL     1       8.476   7.492  14.728  1.00  0.00    -0.649 OA
BRANCH  33  35
HETATM   35  O3  UNL     1       6.524   6.512  14.434  1.00  0.00    -0.776 OA
HETATM   36  H40 UNL     1       7.127   5.813  14.771  1.00  0.00     0.167 HD
ENDBRANCH  33  35
ENDBRANCH  18  33
BRANCH  20  37
HETATM   37  O4  UNL     1       8.354   9.739  12.351  1.00  0.00    -0.394 OA
HETATM   38  H42 UNL     1       8.646   9.788  11.423  1.00  0.00     0.210 HD
ENDBRANCH  20  37
TORSDOF 8
ENDMDL
MODEL 7
REMARK minimizedAffinity -8.90993595
REMARK  8 active torsions:
REMARK  status: ('A' for Active; 'I' for Inactive)
REMARK    1  A    between atoms: C4_4  and  C5_5 
REMARK    2  A    between atoms: C5_5  and  C6_6 
REMARK    3  A    between atoms: C6_6  and  C7_7 
REMARK    4  A    between atoms: C7_7  and  C9_9 
REMARK    5  A    between atoms: C25_26  and  C27_28 
REMARK    6  A    between atoms: C27_28  and  O3_30 
REMARK    7  A    between atoms: C28_31  and  O4_32 
REMARK    8  A    between atoms: C30_34  and  O5_35 
ROOT
HETATM    1  C9  UNL     1      -1.785   5.493  12.434  1.00  0.00    -0.002 C 
HETATM    2  C10 UNL     1      -1.673   5.585  13.983  1.00  0.00     0.007 C 
HETATM    3  C11 UNL     1      -0.311   6.232  14.303  1.00  0.00     0.015 C 
HETATM    4  C12 UNL     1       0.161   6.860  12.976  1.00  0.00    -0.005 C 
HETATM    5  C13 UNL     1      -0.558   8.240  12.842  1.00  0.00     0.021 C 
HETATM    6  C14 UNL     1       1.635   7.179  12.744  1.00  0.00    -0.000 C 
HETATM    7  C15 UNL     1       2.170   7.164  11.493  1.00  0.00    -0.058 C 
HETATM    8  C16 UNL     1       1.308   6.751  10.286  1.00  0.00     0.036 C 
HETATM    9  C17 UNL     1      -0.142   6.305  10.553  1.00  0.00     0.015 C 
HETATM   10  C18 UNL     1      -0.318   5.740  11.964  1.00  0.00    -0.028 C 
HETATM   11  C19 UNL     1       0.525   4.437  12.071  1.00  0.00     0.016 C 
HETATM   12  C20 UNL     1       3.668   7.498  11.190  1.00  0.00     0.011 C 
HETATM   13  C21 UNL     1       4.372   6.125  11.071  1.00  0.00     0.023 C 
HETATM   14  C22 UNL     1       4.233   8.389  12.347  1.00  0.00     0.029 C 
HETATM   15  C23 UNL     1       3.954   7.778  13.721  1.00  0.00     0.090 C 
HETATM   16  C24 UNL     1       2.482   7.535  13.927  1.00  0.00     0.157 C 
HETATM   17  O1  UNL     1       2.010   7.581  15.064  1.00  0.00    -0.293 OA
HETATM   18  C25 UNL     1       5.718   8.898  12.184  1.00  0.00     0.072 C 
HETATM   19  C26 UNL     1       5.794  10.336  12.770  1.00  0.00     0.030 C 
HETATM   20  C28 UNL     1       6.161   8.901  10.696  1.00  0.00     0.139 C 
HETATM   21  C29 UNL     1       5.016   9.262   9.757  1.00  0.00     0.065 C 
HETATM   22  C30 UNL     1       3.802   8.332   9.860  1.00  0.00     0.133 C 
ENDROOT
BRANCH   1  23
HETATM   23  C7  UNL     1      -2.665   4.291  11.974  1.00  0.00    -0.014 C 
HETATM   24  C8  UNL     1      -2.329   3.690  10.601  1.00  0.00     0.010 C 
BRANCH  23  25
HETATM   25  C6  UNL     1      -4.196   4.517  12.045  1.00  0.00     0.008 C 
BRANCH  25  26
HETATM   26  C5  UNL     1      -4.735   4.995  13.404  1.00  0.00     0.028 C 
BRANCH  26  27
HETATM   27  C4  UNL     1      -6.111   5.592  13.354  1.00  0.00    -0.025 C 
HETATM   28  C2  UNL     1      -7.296   4.950  13.315  1.00  0.00    -0.091 C 
HETATM   29  C1  UNL     1      -7.476   3.457  13.304  1.00  0.00     0.042 C 
HETATM   30  C3  UNL     1      -8.587   5.726  13.300  1.00  0.00     0.042 C 
ENDBRANCH  26  27
ENDBRANCH  25  26
ENDBRANCH  23  25
ENDBRANCH   1  23
BRANCH  22  31
HETATM   31  O5  UNL     1       3.773   7.497   8.698  1.00  0.00    -0.394 OA
HETATM   32  H46 UNL     1       4.601   6.988   8.651  1.00  0.00     0.210 HD
ENDBRANCH  22  31
BRANCH  18  33
HETATM   33  C27 UNL     1       6.715   8.055  12.986  1.00  0.00     0.151 C 
HETATM   34  O2  UNL     1       6.797   7.955  14.198  1.00  0.00    -0.649 OA
BRANCH  33  35
HETATM   35  O3  UNL     1       7.545   7.316  12.226  1.00  0.00    -0.776 OA
HETATM   36  H40 UNL     1       8.104   6.853  12.888  1.00  0.00     0.167 HD
ENDBRANCH  33  35
ENDBRANCH  18  33
BRANCH  20  37
HETATM   37  O4  UNL     1       7.225   9.835  10.486  1.00  0.00    -0.394 OA
HETATM   38  H42 UNL     1       7.541   9.731   9.570  1.00  0.00     0.210 HD
ENDBRANCH  20  37
TORSDOF 8
ENDMDL
MODEL 8
REMARK minimizedAffinity -8.8500576
REMARK  8 active torsions:
REMARK  status: ('A' for Active; 'I' for Inactive)
REMARK    1  A    between atoms: C4_4  and  C5_5 
REMARK    2  A    between atoms: C5_5  and  C6_6 
REMARK    3  A    between atoms: C6_6  and  C7_7 
REMARK    4  A    between atoms: C7_7  and  C9_9 
REMARK    5  A    between atoms: C25_26  and  C27_28 
REMARK    6  A    between atoms: C27_28  and  O3_30 
REMARK    7  A    between atoms: C28_31  and  O4_32 
REMARK    8  A    between atoms: C30_34  and  O5_35 
ROOT
HETATM    1  C9  UNL     1      -6.208   7.007  14.868  1.00  0.00    -0.002 C 
HETATM    2  C10 UNL     1      -5.916   8.379  15.540  1.00  0.00     0.007 C 
HETATM    3  C11 UNL     1      -4.460   8.752  15.200  1.00  0.00     0.015 C 
HETATM    4  C12 UNL     1      -4.065   7.821  14.037  1.00  0.00    -0.005 C 
HETATM    5  C13 UNL     1      -4.623   8.464  12.727  1.00  0.00     0.021 C 
HETATM    6  C14 UNL     1      -2.597   7.543  13.723  1.00  0.00    -0.000 C 
HETATM    7  C15 UNL     1      -2.208   6.366  13.162  1.00  0.00    -0.058 C 
HETATM    8  C16 UNL     1      -3.241   5.255  12.895  1.00  0.00     0.036 C 
HETATM    9  C17 UNL     1      -4.696   5.501  13.337  1.00  0.00     0.015 C 
HETATM   10  C18 UNL     1      -4.782   6.488  14.502  1.00  0.00    -0.028 C 
HETATM   11  C19 UNL     1      -4.095   5.839  15.738  1.00  0.00     0.016 C 
HETATM   12  C20 UNL     1      -0.724   6.029  12.802  1.00  0.00     0.011 C 
HETATM   13  C21 UNL     1      -0.207   5.172  13.983  1.00  0.00     0.023 C 
HETATM   14  C22 UNL     1       0.068   7.366  12.612  1.00  0.00     0.029 C 
HETATM   15  C23 UNL     1      -0.130   8.317  13.794  1.00  0.00     0.090 C 
HETATM   16  C24 UNL     1      -1.589   8.608  14.028  1.00  0.00     0.157 C 
HETATM   17  O1  UNL     1      -1.924   9.690  14.510  1.00  0.00    -0.293 OA
HETATM   18  C25 UNL     1       1.577   7.236  12.166  1.00  0.00     0.072 C 
HETATM   19  C26 UNL     1       1.889   8.409  11.195  1.00  0.00     0.030 C 
HETATM   20  C28 UNL     1       1.851   5.875  11.469  1.00  0.00     0.139 C 
HETATM   21  C29 UNL     1       0.662   5.406  10.640  1.00  0.00     0.065 C 
HETATM   22  C30 UNL     1      -0.636   5.245  11.440  1.00  0.00     0.133 C 
ENDROOT
BRANCH   1  23
HETATM   23  C7  UNL     1      -7.271   6.177  15.650  1.00  0.00    -0.014 C 
HETATM   24  C8  UNL     1      -7.545   4.759  15.127  1.00  0.00     0.010 C 
BRANCH  23  25
HETATM   25  C6  UNL     1      -8.632   6.882  15.882  1.00  0.00     0.008 C 
BRANCH  25  26
HETATM   26  C5  UNL     1      -9.343   7.386  14.616  1.00  0.00     0.028 C 
BRANCH  26  27
HETATM   27  C4  UNL     1     -10.762   6.921  14.470  1.00  0.00    -0.025 C 
HETATM   28  C2  UNL     1     -11.726   7.423  13.673  1.00  0.00    -0.091 C 
HETATM   29  C1  UNL     1     -11.565   8.598  12.748  1.00  0.00     0.042 C 
HETATM   30  C3  UNL     1     -13.096   6.797  13.640  1.00  0.00     0.042 C 
ENDBRANCH  26  27
ENDBRANCH  25  26
ENDBRANCH  23  25
ENDBRANCH   1  23
BRANCH  22  31
HETATM   31  O5  UNL     1      -0.893   3.846  11.608  1.00  0.00    -0.394 OA
HETATM   32  H46 UNL     1      -0.142   3.439  12.073  1.00  0.00     0.210 HD
ENDBRANCH  22  31
BRANCH  18  33
HETATM   33  C27 UNL     1       2.547   7.383  13.343  1.00  0.00     0.151 C 
HETATM   34  O2  UNL     1       2.271   7.486  14.526  1.00  0.00    -0.649 OA
BRANCH  33  35
HETATM   35  O3  UNL     1       3.846   7.339  12.992  1.00  0.00    -0.776 OA
HETATM   36  H40 UNL     1       4.315   7.448  13.848  1.00  0.00     0.167 HD
ENDBRANCH  33  35
ENDBRANCH  18  33
BRANCH  20  37
HETATM   37  O4  UNL     1       2.990   5.968  10.608  1.00  0.00    -0.394 OA
HETATM   38  H42 UNL     1       3.189   5.075  10.273  1.00  0.00     0.210 HD
ENDBRANCH  20  37
TORSDOF 8
ENDMDL
MODEL 9
REMARK minimizedAffinity -8.80630016
REMARK  8 active torsions:
REMARK  status: ('A' for Active; 'I' for Inactive)
REMARK    1  A    between atoms: C4_4  and  C5_5 
REMARK    2  A    between atoms: C5_5  and  C6_6 
REMARK    3  A    between atoms: C6_6  and  C7_7 
REMARK    4  A    between atoms: C7_7  and  C9_9 
REMARK    5  A    between atoms: C25_26  and  C27_28 
REMARK    6  A    between atoms: C27_28  and  O3_30 
REMARK    7  A    between atoms: C28_31  and  O4_32 
REMARK    8  A    between atoms: C30_34  and  O5_35 
ROOT
HETATM    1  C9  UNL     1      -1.591   5.931  12.153  1.00  0.00    -0.002 C 
HETATM    2  C10 UNL     1      -2.159   6.799  13.312  1.00  0.00     0.007 C 
HETATM    3  C11 UNL     1      -1.085   7.845  13.667  1.00  0.00     0.015 C 
HETATM    4  C12 UNL     1      -0.102   7.835  12.479  1.00  0.00    -0.005 C 
HETATM    5  C13 UNL     1      -0.726   8.732  11.363  1.00  0.00     0.021 C 
HETATM    6  C14 UNL     1       1.320   8.366  12.638  1.00  0.00    -0.000 C 
HETATM    7  C15 UNL     1       2.342   7.876  11.886  1.00  0.00    -0.058 C 
HETATM    8  C16 UNL     1       2.095   6.717  10.903  1.00  0.00     0.036 C 
HETATM    9  C17 UNL     1       0.682   6.104  10.849  1.00  0.00     0.015 C 
HETATM   10  C18 UNL     1      -0.070   6.283  12.168  1.00  0.00    -0.028 C 
HETATM   11  C19 UNL     1       0.675   5.468  13.264  1.00  0.00     0.016 C 
HETATM   12  C20 UNL     1       3.816   8.390  11.990  1.00  0.00     0.011 C 
HETATM   13  C21 UNL     1       4.535   7.370  12.906  1.00  0.00     0.023 C 
HETATM   14  C22 UNL     1       3.806   9.845  12.568  1.00  0.00     0.029 C 
HETATM   15  C23 UNL     1       2.976   9.941  13.849  1.00  0.00     0.090 C 
HETATM   16  C24 UNL     1       1.565   9.462  13.629  1.00  0.00     0.157 C 
HETATM   17  O1  UNL     1       0.649   9.938  14.300  1.00  0.00    -0.293 OA
HETATM   18  C25 UNL     1       5.203  10.571  12.677  1.00  0.00     0.072 C 
HETATM   19  C26 UNL     1       4.985  12.075  12.349  1.00  0.00     0.030 C 
HETATM   20  C28 UNL     1       6.245   9.955  11.703  1.00  0.00     0.139 C 
HETATM   21  C29 UNL     1       5.607   9.499  10.396  1.00  0.00     0.065 C 
HETATM   22  C30 UNL     1       4.491   8.464  10.569  1.00  0.00     0.133 C 
ENDROOT
BRANCH   1  23
HETATM   23  C7  UNL     1      -2.157   4.479  12.166  1.00  0.00    -0.014 C 
HETATM   24  C8  UNL     1      -2.479   3.863  10.796  1.00  0.00     0.010 C 
BRANCH  23  25
HETATM   25  C6  UNL     1      -3.368   4.241  13.103  1.00  0.00     0.008 C 
BRANCH  25  26
HETATM   26  C5  UNL     1      -4.580   3.548  12.459  1.00  0.00     0.028 C 
BRANCH  26  27
HETATM   27  C4  UNL     1      -5.874   4.295  12.601  1.00  0.00    -0.025 C 
HETATM   28  C2  UNL     1      -7.117   3.790  12.733  1.00  0.00    -0.091 C 
HETATM   29  C1  UNL     1      -7.464   2.327  12.753  1.00  0.00     0.042 C 
HETATM   30  C3  UNL     1      -8.302   4.706  12.897  1.00  0.00     0.042 C 
ENDBRANCH  26  27
ENDBRANCH  25  26
ENDBRANCH  23  25
ENDBRANCH   1  23
BRANCH  22  31
HETATM   31  O5  UNL     1       4.985   7.190  10.142  1.00  0.00    -0.394 OA
HETATM   32  H46 UNL     1       5.765   6.957  10.676  1.00  0.00     0.210 HD
ENDBRANCH  22  31
BRANCH  18  33
HETATM   33  C27 UNL     1       5.777  10.520  14.097  1.00  0.00     0.151 C 
HETATM   34  O2  UNL     1       6.311   9.574  14.649  1.00  0.00    -0.649 OA
BRANCH  33  35
HETATM   35  O3  UNL     1       5.709  11.691  14.759  1.00  0.00    -0.776 OA
HETATM   36  H40 UNL     1       6.109  11.480  15.631  1.00  0.00     0.167 HD
ENDBRANCH  33  35
ENDBRANCH  18  33
BRANCH  20  37
HETATM   37  O4  UNL     1       7.272  10.902  11.396  1.00  0.00    -0.394 OA
HETATM   38  H42 UNL     1       7.954  10.447  10.870  1.00  0.00     0.210 HD
ENDBRANCH  20  37
TORSDOF 8
ENDMDL
