MODEL 1
REMARK minimizedAffinity -10.0998831
REMARK  8 active torsions:
REMARK  status: ('A' for Active; 'I' for Inactive)
REMARK    1  A    between atoms: C2_2  and  C3_3 
REMARK    2  A    between atoms: C2_2  and  C9_12 
REMARK    3  A    between atoms: C3_3  and  C4_4 
REMARK    4  A    between atoms: C4_4  and  C5_5 
REMARK    5  A    between atoms: C6_6  and  C7_7 
REMARK    6  A    between atoms: C6_6  and  C8_9 
REMARK    7  A    between atoms: C7_7  and  O1_8 
REMARK    8  A    between atoms: C8_9  and  O3_11 
ROOT
HETATM    1  C9  UNL     1       0.409   6.567  11.478  1.00  0.00    -0.002 C 
HETATM    2  C10 UNL     1       0.837   5.100  11.388  1.00  0.00     0.006 C 
HETATM    3  C11 UNL     1      -0.496   4.373  11.509  1.00  0.00     0.006 C 
HETATM    4  C12 UNL     1      -1.248   5.128  12.614  1.00  0.00    -0.001 C 
HETATM    5  C13 UNL     1      -2.777   5.171  12.417  1.00  0.00    -0.000 C 
HETATM    6  C14 UNL     1      -3.413   3.785  12.365  1.00  0.00     0.006 C 
HETATM    7  C15 UNL     1      -4.935   3.907  12.329  1.00  0.00     0.007 C 
HETATM    8  C16 UNL     1      -5.487   4.420  13.675  1.00  0.00     0.010 C 
HETATM    9  C17 UNL     1      -7.056   4.494  13.718  1.00  0.00     0.018 C 
HETATM   10  C18 UNL     1      -7.570   4.287  15.160  1.00  0.00     0.023 C 
HETATM   11  C19 UNL     1      -7.719   3.381  12.870  1.00  0.00     0.023 C 
HETATM   12  C20 UNL     1      -7.583   5.844  13.207  1.00  0.00     0.135 C 
HETATM   13  O4  UNL     1      -8.684   5.945  12.661  1.00  0.00    -0.297 OA
HETATM   14  C21 UNL     1      -6.733   7.077  13.380  1.00  0.00     0.080 C 
HETATM   15  C22 UNL     1      -5.687   6.881  14.455  1.00  0.00     0.018 C 
HETATM   16  C23 UNL     1      -4.772   5.737  14.081  1.00  0.00    -0.026 A 
HETATM   17  C24 UNL     1      -3.517   5.562  14.909  1.00  0.00     0.021 A 
HETATM   18  C25 UNL     1      -3.377   6.074  13.490  1.00  0.00    -0.028 A 
HETATM   19  C26 UNL     1      -2.906   7.522  13.355  1.00  0.00     0.011 C 
HETATM   20  C27 UNL     1      -1.663   7.673  12.471  1.00  0.00     0.011 C 
HETATM   21  C28 UNL     1      -0.607   6.561  12.672  1.00  0.00    -0.036 C 
HETATM   22  C29 UNL     1       0.067   6.741  14.049  1.00  0.00     0.016 C 
ENDROOT
BRANCH   1  23
HETATM   23  C2  UNL     1       1.532   7.640  11.520  1.00  0.00    -0.014 C 
HETATM   24  C1  UNL     1       1.353   8.722  12.587  1.00  0.00     0.010 C 
BRANCH  23  25
HETATM   25  C3  UNL     1       2.945   6.997  11.576  1.00  0.00     0.008 C 
BRANCH  25  26
HETATM   26  C4  UNL     1       3.879   7.216  10.376  1.00  0.00     0.028 C 
BRANCH  26  27
HETATM   27  C5  UNL     1       3.432   6.493   9.135  1.00  0.00    -0.011 C 
HETATM   28  C6  UNL     1       2.705   6.961   8.100  1.00  0.00     0.035 C 
BRANCH  28  29
HETATM   29  C7  UNL     1       2.340   6.099   6.925  1.00  0.00     0.209 C 
BRANCH  29  30
HETATM   30  O1  UNL     1       2.988   4.836   7.016  1.00  0.00    -0.396 OA
HETATM   31  H12 UNL     1       2.756   4.481   7.897  1.00  0.00     0.209 HD
ENDBRANCH  29  30
ENDBRANCH  28  29
BRANCH  28  32
HETATM   32  C8  UNL     1       2.268   8.371   8.026  1.00  0.00     0.173 C 
HETATM   33  O2  UNL     1       1.186   8.830   8.338  1.00  0.00    -0.646 OA
BRANCH  32  34
HETATM   34  O3  UNL     1       3.251   9.160   7.547  1.00  0.00    -0.773 OA
HETATM   35  H13 UNL     1       2.834  10.049   7.528  1.00  0.00     0.167 HD
ENDBRANCH  32  34
ENDBRANCH  28  32
ENDBRANCH  26  27
ENDBRANCH  25  26
ENDBRANCH  23  25
ENDBRANCH   1  23
TORSDOF 8
ENDMDL
MODEL 2
REMARK minimizedAffinity -9.61106014
REMARK  8 active torsions:
REMARK  status: ('A' for Active; 'I' for Inactive)
REMARK    1  A    between atoms: C2_2  and  C3_3 
REMARK    2  A    between atoms: C2_2  and  C9_12 
REMARK    3  A    between atoms: C3_3  and  C4_4 
REMARK    4  A    between atoms: C4_4  and  C5_5 
REMARK    5  A    between atoms: C6_6  and  C7_7 
REMARK    6  A    between atoms: C6_6  and  C8_9 
REMARK    7  A    between atoms: C7_7  and  O1_8 
REMARK    8  A    between atoms: C8_9  and  O3_11 
ROOT
HETATM    1  C9  UNL     1       0.460   6.514  11.458  1.00  0.00    -0.002 C 
HETATM    2  C10 UNL     1       0.883   5.047  11.367  1.00  0.00     0.006 C 
HETATM    3  C11 UNL     1      -0.453   4.324  11.475  1.00  0.00     0.006 C 
HETATM    4  C12 UNL     1      -1.211   5.078  12.576  1.00  0.00    -0.001 C 
HETATM    5  C13 UNL     1      -2.739   5.127  12.366  1.00  0.00    -0.000 C 
HETATM    6  C14 UNL     1      -3.379   3.743  12.304  1.00  0.00     0.006 C 
HETATM    7  C15 UNL     1      -4.901   3.870  12.255  1.00  0.00     0.007 C 
HETATM    8  C16 UNL     1      -5.462   4.381  13.599  1.00  0.00     0.010 C 
HETATM    9  C17 UNL     1      -7.031   4.460  13.628  1.00  0.00     0.018 C 
HETATM   10  C18 UNL     1      -7.558   4.251  15.066  1.00  0.00     0.023 C 
HETATM   11  C19 UNL     1      -7.691   3.351  12.771  1.00  0.00     0.023 C 
HETATM   12  C20 UNL     1      -7.549   5.813  13.117  1.00  0.00     0.135 C 
HETATM   13  O4  UNL     1      -8.645   5.920  12.562  1.00  0.00    -0.297 OA
HETATM   14  C21 UNL     1      -6.697   7.043  13.301  1.00  0.00     0.080 C 
HETATM   15  C22 UNL     1      -5.661   6.841  14.384  1.00  0.00     0.018 C 
HETATM   16  C23 UNL     1      -4.746   5.694  14.014  1.00  0.00    -0.026 A 
HETATM   17  C24 UNL     1      -3.498   5.513  14.852  1.00  0.00     0.021 A 
HETATM   18  C25 UNL     1      -3.345   6.029  13.436  1.00  0.00    -0.028 A 
HETATM   19  C26 UNL     1      -2.868   7.475  13.310  1.00  0.00     0.011 C 
HETATM   20  C27 UNL     1      -1.617   7.625  12.436  1.00  0.00     0.011 C 
HETATM   21  C28 UNL     1      -0.567   6.509  12.643  1.00  0.00    -0.036 C 
HETATM   22  C29 UNL     1       0.096   6.682  14.027  1.00  0.00     0.016 C 
ENDROOT
BRANCH   1  23
HETATM   23  C2  UNL     1       1.586   7.584  11.513  1.00  0.00    -0.014 C 
HETATM   24  C1  UNL     1       2.680   7.319  12.549  1.00  0.00     0.010 C 
BRANCH  23  25
HETATM   25  C3  UNL     1       2.176   7.874  10.106  1.00  0.00     0.008 C 
BRANCH  25  26
HETATM   26  C4  UNL     1       3.568   7.309   9.783  1.00  0.00     0.028 C 
BRANCH  26  27
HETATM   27  C5  UNL     1       4.692   8.189  10.261  1.00  0.00    -0.011 C 
HETATM   28  C6  UNL     1       5.828   7.836  10.895  1.00  0.00     0.035 C 
BRANCH  28  29
HETATM   29  C7  UNL     1       6.859   8.848  11.311  1.00  0.00     0.209 C 
BRANCH  29  30
HETATM   30  O1  UNL     1       7.188   9.697  10.217  1.00  0.00    -0.396 OA
HETATM   31  H12 UNL     1       6.338  10.058   9.895  1.00  0.00     0.209 HD
ENDBRANCH  29  30
ENDBRANCH  28  29
BRANCH  28  32
HETATM   32  C8  UNL     1       6.164   6.424  11.173  1.00  0.00     0.173 C 
HETATM   33  O2  UNL     1       6.531   5.579  10.379  1.00  0.00    -0.646 OA
BRANCH  32  34
HETATM   34  O3  UNL     1       6.016   6.137  12.482  1.00  0.00    -0.773 OA
HETATM   35  H13 UNL     1       6.245   5.183  12.528  1.00  0.00     0.167 HD
ENDBRANCH  32  34
ENDBRANCH  28  32
ENDBRANCH  26  27
ENDBRANCH  25  26
ENDBRANCH  23  25
ENDBRANCH   1  23
TORSDOF 8
ENDMDL
MODEL 3
REMARK minimizedAffinity -9.54549026
REMARK  8 active torsions:
REMARK  status: ('A' for Active; 'I' for Inactive)
REMARK    1  A    between atoms: C2_2  and  C3_3 
REMARK    2  A    between atoms: C2_2  and  C9_12 
REMARK    3  A    between atoms: C3_3  and  C4_4 
REMARK    4  A    between atoms: C4_4  and  C5_5 
REMARK    5  A    between atoms: C6_6  and  C7_7 
REMARK    6  A    between atoms: C6_6  and  C8_9 
REMARK    7  A    between atoms: C7_7  and  O1_8 
REMARK    8  A    between atoms: C8_9  and  O3_11 
ROOT
HETATM    1  C9  UNL     1      -5.662   6.893  14.017  1.00  0.00    -0.002 C 
HETATM    2  C10 UNL     1      -5.680   8.404  14.261  1.00  0.00     0.006 C 
HETATM    3  C11 UNL     1      -4.413   8.855  13.546  1.00  0.00     0.006 C 
HETATM    4  C12 UNL     1      -3.365   7.795  13.915  1.00  0.00    -0.001 C 
HETATM    5  C13 UNL     1      -2.330   7.523  12.804  1.00  0.00    -0.000 C 
HETATM    6  C14 UNL     1      -1.534   8.765  12.411  1.00  0.00     0.006 C 
HETATM    7  C15 UNL     1      -0.427   8.389  11.427  1.00  0.00     0.007 C 
HETATM    8  C16 UNL     1       0.674   7.556  12.117  1.00  0.00     0.010 C 
HETATM    9  C17 UNL     1       1.876   7.204  11.167  1.00  0.00     0.018 C 
HETATM   10  C18 UNL     1       3.182   7.057  11.979  1.00  0.00     0.023 C 
HETATM   11  C19 UNL     1       2.147   8.319  10.127  1.00  0.00     0.023 C 
HETATM   12  C20 UNL     1       1.636   5.896  10.397  1.00  0.00     0.135 C 
HETATM   13  O4  UNL     1       2.123   5.705   9.280  1.00  0.00    -0.297 OA
HETATM   14  C21 UNL     1       0.789   4.818  11.024  1.00  0.00     0.080 C 
HETATM   15  C22 UNL     1       0.686   4.998  12.522  1.00  0.00     0.018 C 
HETATM   16  C23 UNL     1       0.047   6.332  12.838  1.00  0.00    -0.026 A 
HETATM   17  C24 UNL     1      -0.369   6.571  14.274  1.00  0.00     0.021 A 
HETATM   18  C25 UNL     1      -1.453   6.353  13.238  1.00  0.00    -0.028 A 
HETATM   19  C26 UNL     1      -2.249   5.057  13.381  1.00  0.00     0.011 C 
HETATM   20  C27 UNL     1      -3.764   5.284  13.462  1.00  0.00     0.011 C 
HETATM   21  C28 UNL     1      -4.172   6.508  14.314  1.00  0.00    -0.036 C 
HETATM   22  C29 UNL     1      -3.904   6.206  15.804  1.00  0.00     0.016 C 
ENDROOT
BRANCH   1  23
HETATM   23  C2  UNL     1      -6.758   6.041  14.718  1.00  0.00    -0.014 C 
HETATM   24  C1  UNL     1      -7.134   6.503  16.127  1.00  0.00     0.010 C 
BRANCH  23  25
HETATM   25  C3  UNL     1      -8.007   5.852  13.815  1.00  0.00     0.008 C 
BRANCH  25  26
HETATM   26  C4  UNL     1      -8.088   4.576  12.963  1.00  0.00     0.028 C 
BRANCH  26  27
HETATM   27  C5  UNL     1      -6.854   4.336  12.135  1.00  0.00    -0.011 C 
HETATM   28  C6  UNL     1      -6.305   3.163  11.760  1.00  0.00     0.035 C 
BRANCH  28  29
HETATM   29  C7  UNL     1      -5.057   3.095  10.925  1.00  0.00     0.209 C 
BRANCH  29  30
HETATM   30  O1  UNL     1      -5.388   3.049   9.542  1.00  0.00    -0.396 OA
HETATM   31  H12 UNL     1      -5.971   3.818   9.382  1.00  0.00     0.209 HD
ENDBRANCH  29  30
ENDBRANCH  28  29
BRANCH  28  32
HETATM   32  C8  UNL     1      -6.926   1.865  12.096  1.00  0.00     0.173 C 
HETATM   33  O2  UNL     1      -7.681   1.620  13.018  1.00  0.00    -0.646 OA
BRANCH  32  34
HETATM   34  O3  UNL     1      -6.553   0.907  11.224  1.00  0.00    -0.773 OA
HETATM   35  H13 UNL     1      -7.008   0.106  11.564  1.00  0.00     0.167 HD
ENDBRANCH  32  34
ENDBRANCH  28  32
ENDBRANCH  26  27
ENDBRANCH  25  26
ENDBRANCH  23  25
ENDBRANCH   1  23
TORSDOF 8
ENDMDL
MODEL 4
REMARK minimizedAffinity -9.39635277
REMARK  8 active torsions:
REMARK  status: ('A' for Active; 'I' for Inactive)
REMARK    1  A    between atoms: C2_2  and  C3_3 
REMARK    2  A    between atoms: C2_2  and  C9_12 
REMARK    3  A    between atoms: C3_3  and  C4_4 
REMARK    4  A    between atoms: C4_4  and  C5_5 
REMARK    5  A    between atoms: C6_6  and  C7_7 
REMARK    6  A    between atoms: C6_6  and  C8_9 
REMARK    7  A    between atoms: C7_7  and  O1_8 
REMARK    8  A    between atoms: C8_9  and  O3_11 
ROOT
HETATM    1  C9  UNL     1      -4.242   6.173  13.447  1.00  0.00    -0.002 C 
HETATM    2  C10 UNL     1      -4.613   4.717  13.157  1.00  0.00     0.006 C 
HETATM    3  C11 UNL     1      -6.124   4.805  12.977  1.00  0.00     0.006 C 
HETATM    4  C12 UNL     1      -6.589   5.752  14.092  1.00  0.00    -0.001 C 
HETATM    5  C13 UNL     1      -7.806   6.620  13.712  1.00  0.00    -0.000 C 
HETATM    6  C14 UNL     1      -9.035   5.796  13.337  1.00  0.00     0.006 C 
HETATM    7  C15 UNL     1     -10.239   6.713  13.128  1.00  0.00     0.007 C 
HETATM    8  C16 UNL     1     -10.710   7.329  14.462  1.00  0.00     0.010 C 
HETATM    9  C17 UNL     1     -11.993   8.224  14.315  1.00  0.00     0.018 C 
HETATM   10  C18 UNL     1     -12.818   8.207  15.621  1.00  0.00     0.023 C 
HETATM   11  C19 UNL     1     -12.944   7.709  13.208  1.00  0.00     0.023 C 
HETATM   12  C20 UNL     1     -11.641   9.684  13.985  1.00  0.00     0.135 C 
HETATM   13  O4  UNL     1     -12.401  10.400  13.330  1.00  0.00    -0.297 OA
HETATM   14  C21 UNL     1     -10.337  10.256  14.480  1.00  0.00     0.080 C 
HETATM   15  C22 UNL     1      -9.779   9.446  15.629  1.00  0.00     0.018 C 
HETATM   16  C23 UNL     1      -9.522   8.024  15.180  1.00  0.00    -0.026 A 
HETATM   17  C24 UNL     1      -8.727   7.141  16.118  1.00  0.00     0.021 A 
HETATM   18  C25 UNL     1      -8.064   7.613  14.840  1.00  0.00    -0.028 A 
HETATM   19  C26 UNL     1      -6.905   8.592  15.023  1.00  0.00     0.011 C 
HETATM   20  C27 UNL     1      -5.610   8.129  14.345  1.00  0.00     0.011 C 
HETATM   21  C28 UNL     1      -5.334   6.613  14.482  1.00  0.00    -0.036 C 
HETATM   22  C29 UNL     1      -4.956   6.293  15.944  1.00  0.00     0.016 C 
ENDROOT
BRANCH   1  23
HETATM   23  C2  UNL     1      -2.763   6.475  13.820  1.00  0.00    -0.014 C 
HETATM   24  C1  UNL     1      -2.536   6.895  15.274  1.00  0.00     0.010 C 
BRANCH  23  25
HETATM   25  C3  UNL     1      -1.813   5.324  13.392  1.00  0.00     0.008 C 
BRANCH  25  26
HETATM   26  C4  UNL     1      -1.683   5.023  11.891  1.00  0.00     0.028 C 
BRANCH  26  27
HETATM   27  C5  UNL     1      -1.149   3.645  11.605  1.00  0.00    -0.011 C 
HETATM   28  C6  UNL     1      -1.812   2.558  11.163  1.00  0.00     0.035 C 
BRANCH  28  29
HETATM   29  C7  UNL     1      -1.124   1.243  10.927  1.00  0.00     0.209 C 
BRANCH  29  30
HETATM   30  O1  UNL     1       0.264   1.446  10.691  1.00  0.00    -0.396 OA
HETATM   31  H12 UNL     1       0.589   1.970  11.450  1.00  0.00     0.209 HD
ENDBRANCH  29  30
ENDBRANCH  28  29
BRANCH  28  32
HETATM   32  C8  UNL     1      -3.250   2.603  10.824  1.00  0.00     0.173 C 
HETATM   33  O2  UNL     1      -4.159   2.001  11.364  1.00  0.00    -0.646 OA
BRANCH  32  34
HETATM   34  O3  UNL     1      -3.480   3.433   9.787  1.00  0.00    -0.773 OA
HETATM   35  H13 UNL     1      -4.450   3.357   9.652  1.00  0.00     0.167 HD
ENDBRANCH  32  34
ENDBRANCH  28  32
ENDBRANCH  26  27
ENDBRANCH  25  26
ENDBRANCH  23  25
ENDBRANCH   1  23
TORSDOF 8
ENDMDL
MODEL 5
REMARK minimizedAffinity -9.26955795
REMARK  8 active torsions:
REMARK  status: ('A' for Active; 'I' for Inactive)
REMARK    1  A    between atoms: C2_2  and  C3_3 
REMARK    2  A    between atoms: C2_2  and  C9_12 
REMARK    3  A    between atoms: C3_3  and  C4_4 
REMARK    4  A    between atoms: C4_4  and  C5_5 
REMARK    5  A    between atoms: C6_6  and  C7_7 
REMARK    6  A    between atoms: C6_6  and  C8_9 
REMARK    7  A    between atoms: C7_7  and  O1_8 
REMARK    8  A    between atoms: C8_9  and  O3_11 
ROOT
HETATM    1  C9  UNL     1      -3.653   7.979  14.618  1.00  0.00    -0.002 C 
HETATM    2  C10 UNL     1      -3.079   8.791  15.780  1.00  0.00     0.006 C 
HETATM    3  C11 UNL     1      -1.689   9.143  15.264  1.00  0.00     0.006 C 
HETATM    4  C12 UNL     1      -1.186   7.853  14.602  1.00  0.00    -0.001 C 
HETATM    5  C13 UNL     1      -0.271   8.089  13.383  1.00  0.00    -0.000 C 
HETATM    6  C14 UNL     1       0.984   8.889  13.722  1.00  0.00     0.006 C 
HETATM    7  C15 UNL     1       1.913   8.947  12.511  1.00  0.00     0.007 C 
HETATM    8  C16 UNL     1       2.532   7.564  12.216  1.00  0.00     0.010 C 
HETATM    9  C17 UNL     1       3.556   7.582  11.024  1.00  0.00     0.018 C 
HETATM   10  C18 UNL     1       4.630   6.489  11.215  1.00  0.00     0.023 C 
HETATM   11  C19 UNL     1       4.327   8.922  10.932  1.00  0.00     0.023 C 
HETATM   12  C20 UNL     1       2.866   7.349   9.670  1.00  0.00     0.135 C 
HETATM   13  O4  UNL     1       3.313   7.826   8.625  1.00  0.00    -0.297 OA
HETATM   14  C21 UNL     1       1.614   6.511   9.618  1.00  0.00     0.080 C 
HETATM   15  C22 UNL     1       1.484   5.635  10.844  1.00  0.00     0.018 C 
HETATM   16  C23 UNL     1       1.416   6.494  12.087  1.00  0.00    -0.026 A 
HETATM   17  C24 UNL     1       1.029   5.804  13.378  1.00  0.00     0.021 A 
HETATM   18  C25 UNL     1       0.027   6.741  12.735  1.00  0.00    -0.028 A 
HETATM   19  C26 UNL     1      -1.232   6.077  12.178  1.00  0.00     0.011 C 
HETATM   20  C27 UNL     1      -2.528   6.680  12.733  1.00  0.00     0.011 C 
HETATM   21  C28 UNL     1      -2.469   7.023  14.240  1.00  0.00    -0.036 C 
HETATM   22  C29 UNL     1      -2.454   5.716  15.061  1.00  0.00     0.016 C 
ENDROOT
BRANCH   1  23
HETATM   23  C2  UNL     1      -5.046   7.320  14.823  1.00  0.00    -0.014 C 
HETATM   24  C1  UNL     1      -6.102   8.225  15.461  1.00  0.00     0.010 C 
BRANCH  23  25
HETATM   25  C3  UNL     1      -5.565   6.649  13.522  1.00  0.00     0.008 C 
BRANCH  25  26
HETATM   26  C4  UNL     1      -6.234   5.272  13.644  1.00  0.00     0.028 C 
BRANCH  26  27
HETATM   27  C5  UNL     1      -5.680   4.255  12.683  1.00  0.00    -0.011 C 
HETATM   28  C6  UNL     1      -6.246   3.113  12.243  1.00  0.00     0.035 C 
BRANCH  28  29
HETATM   29  C7  UNL     1      -5.552   2.198  11.274  1.00  0.00     0.209 C 
BRANCH  29  30
HETATM   30  O1  UNL     1      -5.307   2.872  10.045  1.00  0.00    -0.396 OA
HETATM   31  H12 UNL     1      -4.826   3.690  10.282  1.00  0.00     0.209 HD
ENDBRANCH  29  30
ENDBRANCH  28  29
BRANCH  28  32
HETATM   32  C8  UNL     1      -7.613   2.714  12.640  1.00  0.00     0.173 C 
HETATM   33  O2  UNL     1      -8.552   3.441  12.901  1.00  0.00    -0.646 OA
BRANCH  32  34
HETATM   34  O3  UNL     1      -7.732   1.372  12.689  1.00  0.00    -0.773 OA
HETATM   35  H13 UNL     1      -8.661   1.241  12.979  1.00  0.00     0.167 HD
ENDBRANCH  32  34
ENDBRANCH  28  32
ENDBRANCH  26  27
ENDBRANCH  25  26
ENDBRANCH  23  25
ENDBRANCH   1  23
TORSDOF 8
ENDMDL
MODEL 6
REMARK minimizedAffinity -9.23479462
REMARK  8 active torsions:
REMARK  status: ('A' for Active; 'I' for Inactive)
REMARK    1  A    between atoms: C2_2  and  C3_3 
REMARK    2  A    between atoms: C2_2  and  C9_12 
REMARK    3  A    between atoms: C3_3  and  C4_4 
REMARK    4  A    between atoms: C4_4  and  C5_5 
REMARK    5  A    between atoms: C6_6  and  C7_7 
REMARK    6  A    between atoms: C6_6  and  C8_9 
REMARK    7  A    between atoms: C7_7  and  O1_8 
REMARK    8  A    between atoms: C8_9  and  O3_11 
ROOT
HETATM    1  C9  UNL     1      -2.032   5.032  13.064  1.00  0.00    -0.002 C 
HETATM    2  C10 UNL     1      -2.174   4.555  11.617  1.00  0.00     0.006 C 
HETATM    3  C11 UNL     1      -0.763   4.751  11.078  1.00  0.00     0.006 C 
HETATM    4  C12 UNL     1      -0.320   6.107  11.644  1.00  0.00    -0.001 C 
HETATM    5  C13 UNL     1       1.189   6.198  11.950  1.00  0.00    -0.000 C 
HETATM    6  C14 UNL     1       2.064   5.963  10.722  1.00  0.00     0.006 C 
HETATM    7  C15 UNL     1       3.530   6.223  11.063  1.00  0.00     0.007 C 
HETATM    8  C16 UNL     1       3.788   7.724  11.310  1.00  0.00     0.010 C 
HETATM    9  C17 UNL     1       5.297   8.058  11.593  1.00  0.00     0.018 C 
HETATM   10  C18 UNL     1       5.633   9.490  11.120  1.00  0.00     0.023 C 
HETATM   11  C19 UNL     1       6.260   7.122  10.822  1.00  0.00     0.023 C 
HETATM   12  C20 UNL     1       5.640   7.950  13.087  1.00  0.00     0.135 C 
HETATM   13  O4  UNL     1       6.770   7.643  13.472  1.00  0.00    -0.297 OA
HETATM   14  C21 UNL     1       4.567   8.232  14.109  1.00  0.00     0.080 C 
HETATM   15  C22 UNL     1       3.434   9.037  13.514  1.00  0.00     0.018 C 
HETATM   16  C23 UNL     1       2.800   8.270  12.375  1.00  0.00    -0.026 A 
HETATM   17  C24 UNL     1       1.493   8.806  11.830  1.00  0.00     0.021 A 
HETATM   18  C25 UNL     1       1.463   7.528  12.643  1.00  0.00    -0.028 A 
HETATM   19  C26 UNL     1       0.764   7.627  13.999  1.00  0.00     0.011 C 
HETATM   20  C27 UNL     1      -0.351   6.590  14.181  1.00  0.00     0.011 C 
HETATM   21  C28 UNL     1      -1.208   6.358  12.915  1.00  0.00    -0.036 C 
HETATM   22  C29 UNL     1      -2.088   7.600  12.660  1.00  0.00     0.016 C 
ENDROOT
BRANCH   1  23
HETATM   23  C2  UNL     1      -3.325   5.105  13.925  1.00  0.00    -0.014 C 
HETATM   24  C1  UNL     1      -3.196   5.915  15.216  1.00  0.00     0.010 C 
BRANCH  23  25
HETATM   25  C3  UNL     1      -4.555   5.541  13.085  1.00  0.00     0.008 C 
BRANCH  25  26
HETATM   26  C4  UNL     1      -5.831   4.691  13.188  1.00  0.00     0.028 C 
BRANCH  26  27
HETATM   27  C5  UNL     1      -7.087   5.515  13.283  1.00  0.00    -0.011 C 
HETATM   28  C6  UNL     1      -7.829   5.801  14.372  1.00  0.00     0.035 C 
BRANCH  28  29
HETATM   29  C7  UNL     1      -9.070   6.646  14.295  1.00  0.00     0.209 C 
BRANCH  29  30
HETATM   30  O1  UNL     1      -9.802   6.562  15.512  1.00  0.00    -0.396 OA
HETATM   31  H12 UNL     1      -9.169   6.793  16.220  1.00  0.00     0.209 HD
ENDBRANCH  29  30
ENDBRANCH  28  29
BRANCH  28  32
HETATM   32  C8  UNL     1      -7.439   5.351  15.724  1.00  0.00     0.173 C 
HETATM   33  O2  UNL     1      -6.764   5.949  16.540  1.00  0.00    -0.646 OA
BRANCH  32  34
HETATM   34  O3  UNL     1      -7.938   4.127  15.992  1.00  0.00    -0.773 OA
HETATM   35  H13 UNL     1      -7.596   3.939  16.893  1.00  0.00     0.167 HD
ENDBRANCH  32  34
ENDBRANCH  28  32
ENDBRANCH  26  27
ENDBRANCH  25  26
ENDBRANCH  23  25
ENDBRANCH   1  23
TORSDOF 8
ENDMDL
MODEL 7
REMARK minimizedAffinity -9.21997261
REMARK  8 active torsions:
REMARK  status: ('A' for Active; 'I' for Inactive)
REMARK    1  A    between atoms: C2_2  and  C3_3 
REMARK    2  A    between atoms: C2_2  and  C9_12 
REMARK    3  A    between atoms: C3_3  and  C4_4 
REMARK    4  A    between atoms: C4_4  and  C5_5 
REMARK    5  A    between atoms: C6_6  and  C7_7 
REMARK    6  A    between atoms: C6_6  and  C8_9 
REMARK    7  A    between atoms: C7_7  and  O1_8 
REMARK    8  A    between atoms: C8_9  and  O3_11 
ROOT
HETATM    1  C9  UNL     1      -3.658   5.981  14.420  1.00  0.00    -0.002 C 
HETATM    2  C10 UNL     1      -4.174   4.984  13.381  1.00  0.00     0.006 C 
HETATM    3  C11 UNL     1      -2.921   4.701  12.562  1.00  0.00     0.006 C 
HETATM    4  C12 UNL     1      -2.259   6.075  12.386  1.00  0.00    -0.001 C 
HETATM    5  C13 UNL     1      -0.718   6.028  12.339  1.00  0.00    -0.000 C 
HETATM    6  C14 UNL     1      -0.180   5.167  11.200  1.00  0.00     0.006 C 
HETATM    7  C15 UNL     1       1.340   5.294  11.118  1.00  0.00     0.007 C 
HETATM    8  C16 UNL     1       1.758   6.697  10.631  1.00  0.00     0.010 C 
HETATM    9  C17 UNL     1       3.312   6.859  10.458  1.00  0.00     0.018 C 
HETATM   10  C18 UNL     1       3.629   7.893   9.354  1.00  0.00     0.023 C 
HETATM   11  C19 UNL     1       3.993   5.542  10.012  1.00  0.00     0.023 C 
HETATM   12  C20 UNL     1       3.991   7.318  11.758  1.00  0.00     0.135 C 
HETATM   13  O4  UNL     1       5.155   7.010  12.023  1.00  0.00    -0.297 OA
HETATM   14  C21 UNL     1       3.216   8.169  12.732  1.00  0.00     0.080 C 
HETATM   15  C22 UNL     1       2.035   8.838  12.063  1.00  0.00     0.018 C 
HETATM   16  C23 UNL     1       1.094   7.790  11.512  1.00  0.00    -0.026 A 
HETATM   17  C24 UNL     1      -0.263   8.266  11.038  1.00  0.00     0.021 A 
HETATM   18  C25 UNL     1      -0.191   7.459  12.318  1.00  0.00    -0.028 A 
HETATM   19  C26 UNL     1      -0.538   8.221  13.597  1.00  0.00     0.011 C 
HETATM   20  C27 UNL     1      -1.650   7.553  14.415  1.00  0.00     0.011 C 
HETATM   21  C28 UNL     1      -2.798   6.970  13.559  1.00  0.00    -0.036 C 
HETATM   22  C29 UNL     1      -3.621   8.127  12.953  1.00  0.00     0.016 C 
ENDROOT
BRANCH   1  23
HETATM   23  C2  UNL     1      -4.699   6.616  15.384  1.00  0.00    -0.014 C 
HETATM   24  C1  UNL     1      -4.589   8.133  15.546  1.00  0.00     0.010 C 
BRANCH  23  25
HETATM   25  C3  UNL     1      -6.148   6.171  15.044  1.00  0.00     0.008 C 
BRANCH  25  26
HETATM   26  C4  UNL     1      -7.197   6.233  16.163  1.00  0.00     0.028 C 
BRANCH  26  27
HETATM   27  C5  UNL     1      -8.539   6.728  15.694  1.00  0.00    -0.011 C 
HETATM   28  C6  UNL     1      -9.129   6.555  14.494  1.00  0.00     0.035 C 
BRANCH  28  29
HETATM   29  C7  UNL     1     -10.486   7.121  14.181  1.00  0.00     0.209 C 
BRANCH  29  30
HETATM   30  O1  UNL     1     -11.507   6.263  14.678  1.00  0.00    -0.396 OA
HETATM   31  H12 UNL     1     -11.305   6.130  15.626  1.00  0.00     0.209 HD
ENDBRANCH  29  30
ENDBRANCH  28  29
BRANCH  28  32
HETATM   32  C8  UNL     1      -8.506   5.748  13.424  1.00  0.00     0.173 C 
HETATM   33  O2  UNL     1      -7.912   6.149  12.442  1.00  0.00    -0.646 OA
BRANCH  32  34
HETATM   34  O3  UNL     1      -8.667   4.429  13.655  1.00  0.00    -0.773 OA
HETATM   35  H13 UNL     1      -8.236   4.012  12.877  1.00  0.00     0.167 HD
ENDBRANCH  32  34
ENDBRANCH  28  32
ENDBRANCH  26  27
ENDBRANCH  25  26
ENDBRANCH  23  25
ENDBRANCH   1  23
TORSDOF 8
ENDMDL
MODEL 8
REMARK minimizedAffinity -9.20635796
REMARK  8 active torsions:
REMARK  status: ('A' for Active; 'I' for Inactive)
REMARK    1  A    between atoms: C2_2  and  C3_3 
REMARK    2  A    between atoms: C2_2  and  C9_12 
REMARK    3  A    between atoms: C3_3  and  C4_4 
REMARK    4  A    between atoms: C4_4  and  C5_5 
REMARK    5  A    between atoms: C6_6  and  C7_7 
REMARK    6  A    between atoms: C6_6  and  C8_9 
REMARK    7  A    between atoms: C7_7  and  O1_8 
REMARK    8  A    between atoms: C8_9  and  O3_11 
ROOT
HETATM    1  C9  UNL     1      -6.626   6.951  14.026  1.00  0.00    -0.002 C 
HETATM    2  C10 UNL     1      -6.565   8.401  14.511  1.00  0.00     0.006 C 
HETATM    3  C11 UNL     1      -5.225   8.865  13.954  1.00  0.00     0.006 C 
HETATM    4  C12 UNL     1      -4.274   7.687  14.207  1.00  0.00    -0.001 C 
HETATM    5  C13 UNL     1      -3.183   7.518  13.130  1.00  0.00    -0.000 C 
HETATM    6  C14 UNL     1      -2.285   8.744  12.991  1.00  0.00     0.006 C 
HETATM    7  C15 UNL     1      -1.138   8.448  12.027  1.00  0.00     0.007 C 
HETATM    8  C16 UNL     1      -0.143   7.437  12.635  1.00  0.00     0.010 C 
HETATM    9  C17 UNL     1       1.098   7.153  11.714  1.00  0.00     0.018 C 
HETATM   10  C18 UNL     1       2.332   6.783  12.566  1.00  0.00     0.023 C 
HETATM   11  C19 UNL     1       1.511   8.394  10.886  1.00  0.00     0.023 C 
HETATM   12  C20 UNL     1       0.831   6.004  10.728  1.00  0.00     0.135 C 
HETATM   13  O4  UNL     1       1.381   5.956   9.626  1.00  0.00    -0.297 OA
HETATM   14  C21 UNL     1      -0.125   4.906  11.120  1.00  0.00     0.080 C 
HETATM   15  C22 UNL     1      -0.321   4.854  12.619  1.00  0.00     0.018 C 
HETATM   16  C23 UNL     1      -0.895   6.165  13.110  1.00  0.00    -0.026 A 
HETATM   17  C24 UNL     1      -1.395   6.204  14.538  1.00  0.00     0.021 A 
HETATM   18  C25 UNL     1      -2.415   6.233  13.418  1.00  0.00    -0.028 A 
HETATM   19  C26 UNL     1      -3.300   4.992  13.301  1.00  0.00     0.011 C 
HETATM   20  C27 UNL     1      -4.798   5.315  13.330  1.00  0.00     0.011 C 
HETATM   21  C28 UNL     1      -5.187   6.416  14.344  1.00  0.00    -0.036 C 
HETATM   22  C29 UNL     1      -5.044   5.862  15.778  1.00  0.00     0.016 C 
ENDROOT
BRANCH   1  23
HETATM   23  C2  UNL     1      -7.819   6.082  14.513  1.00  0.00    -0.014 C 
HETATM   24  C1  UNL     1      -7.561   5.290  15.796  1.00  0.00     0.010 C 
BRANCH  23  25
HETATM   25  C3  UNL     1      -9.137   6.901  14.590  1.00  0.00     0.008 C 
BRANCH  25  26
HETATM   26  C4  UNL     1     -10.201   6.648  13.511  1.00  0.00     0.028 C 
BRANCH  26  27
HETATM   27  C5  UNL     1     -10.981   7.882  13.146  1.00  0.00    -0.011 C 
HETATM   28  C6  UNL     1     -12.317   8.036  13.045  1.00  0.00     0.035 C 
BRANCH  28  29
HETATM   29  C7  UNL     1     -12.944   9.349  12.665  1.00  0.00     0.209 C 
BRANCH  29  30
HETATM   30  O1  UNL     1     -12.314   9.880  11.505  1.00  0.00    -0.396 OA
HETATM   31  H12 UNL     1     -12.357   9.173  10.831  1.00  0.00     0.209 HD
ENDBRANCH  29  30
ENDBRANCH  28  29
BRANCH  28  32
HETATM   32  C8  UNL     1     -13.258   6.940  13.357  1.00  0.00     0.173 C 
HETATM   33  O2  UNL     1     -13.156   6.103  14.233  1.00  0.00    -0.646 OA
BRANCH  32  34
HETATM   34  O3  UNL     1     -14.316   6.955  12.523  1.00  0.00    -0.773 OA
HETATM   35  H13 UNL     1     -14.843   6.181  12.817  1.00  0.00     0.167 HD
ENDBRANCH  32  34
ENDBRANCH  28  32
ENDBRANCH  26  27
ENDBRANCH  25  26
ENDBRANCH  23  25
ENDBRANCH   1  23
TORSDOF 8
ENDMDL
MODEL 9
REMARK minimizedAffinity -9.19351959
REMARK  8 active torsions:
REMARK  status: ('A' for Active; 'I' for Inactive)
REMARK    1  A    between atoms: C2_2  and  C3_3 
REMARK    2  A    between atoms: C2_2  and  C9_12 
REMARK    3  A    between atoms: C3_3  and  C4_4 
REMARK    4  A    between atoms: C4_4  and  C5_5 
REMARK    5  A    between atoms: C6_6  and  C7_7 
REMARK    6  A    between atoms: C6_6  and  C8_9 
REMARK    7  A    between atoms: C7_7  and  O1_8 
REMARK    8  A    between atoms: C8_9  and  O3_11 
ROOT
HETATM    1  C9  UNL     1      -4.139   5.980  13.119  1.00  0.00    -0.002 C 
HETATM    2  C10 UNL     1      -4.538   4.556  12.727  1.00  0.00     0.006 C 
HETATM    3  C11 UNL     1      -6.050   4.678  12.583  1.00  0.00     0.006 C 
HETATM    4  C12 UNL     1      -6.481   5.545  13.774  1.00  0.00    -0.001 C 
HETATM    5  C13 UNL     1      -7.692   6.456  13.482  1.00  0.00    -0.000 C 
HETATM    6  C14 UNL     1      -8.939   5.679  13.070  1.00  0.00     0.006 C 
HETATM    7  C15 UNL     1     -10.132   6.626  12.952  1.00  0.00     0.007 C 
HETATM    8  C16 UNL     1     -10.570   7.148  14.337  1.00  0.00     0.010 C 
HETATM    9  C17 UNL     1     -11.842   8.069  14.282  1.00  0.00     0.018 C 
HETATM   10  C18 UNL     1     -12.643   7.965  15.598  1.00  0.00     0.023 C 
HETATM   11  C19 UNL     1     -12.820   7.652  13.157  1.00  0.00     0.023 C 
HETATM   12  C20 UNL     1     -11.474   9.544  14.056  1.00  0.00     0.135 C 
HETATM   13  O4  UNL     1     -12.234  10.318  13.470  1.00  0.00    -0.297 OA
HETATM   14  C21 UNL     1     -10.152  10.059  14.567  1.00  0.00     0.080 C 
HETATM   15  C22 UNL     1      -9.586   9.157  15.642  1.00  0.00     0.018 C 
HETATM   16  C23 UNL     1      -9.359   7.770  15.083  1.00  0.00    -0.026 A 
HETATM   17  C24 UNL     1      -8.562   6.807  15.937  1.00  0.00     0.021 A 
HETATM   18  C25 UNL     1      -7.914   7.365  14.687  1.00  0.00    -0.028 A 
HETATM   19  C26 UNL     1      -6.737   8.311  14.920  1.00  0.00     0.011 C 
HETATM   20  C27 UNL     1      -5.461   7.882  14.186  1.00  0.00     0.011 C 
HETATM   21  C28 UNL     1      -5.207   6.357  14.204  1.00  0.00    -0.036 C 
HETATM   22  C29 UNL     1      -4.808   5.922  15.630  1.00  0.00     0.016 C 
ENDROOT
BRANCH   1  23
HETATM   23  C2  UNL     1      -2.650   6.233  13.486  1.00  0.00    -0.014 C 
HETATM   24  C1  UNL     1      -2.093   5.327  14.587  1.00  0.00     0.010 C 
BRANCH  23  25
HETATM   25  C3  UNL     1      -1.739   6.246  12.228  1.00  0.00     0.008 C 
BRANCH  25  26
HETATM   26  C4  UNL     1      -0.499   7.152  12.252  1.00  0.00     0.028 C 
BRANCH  26  27
HETATM   27  C5  UNL     1      -0.202   7.787  10.920  1.00  0.00    -0.011 C 
HETATM   28  C6  UNL     1       0.797   7.511  10.058  1.00  0.00     0.035 C 
BRANCH  28  29
HETATM   29  C7  UNL     1       0.956   8.246   8.756  1.00  0.00     0.209 C 
BRANCH  29  30
HETATM   30  O1  UNL     1      -0.215   9.003   8.469  1.00  0.00    -0.396 OA
HETATM   31  H12 UNL     1      -0.373   9.558   9.259  1.00  0.00     0.209 HD
ENDBRANCH  29  30
ENDBRANCH  28  29
BRANCH  28  32
HETATM   32  C8  UNL     1       1.770   6.427  10.307  1.00  0.00     0.173 C 
HETATM   33  O2  UNL     1       2.196   5.614   9.510  1.00  0.00    -0.646 OA
BRANCH  32  34
HETATM   34  O3  UNL     1       2.172   6.422  11.594  1.00  0.00    -0.773 OA
HETATM   35  H13 UNL     1       2.787   5.657  11.632  1.00  0.00     0.167 HD
ENDBRANCH  32  34
ENDBRANCH  28  32
ENDBRANCH  26  27
ENDBRANCH  25  26
ENDBRANCH  23  25
ENDBRANCH   1  23
TORSDOF 8
ENDMDL
