MODEL 1
REMARK minimizedAffinity -6.86802435
REMARK  6 active torsions:
REMARK  status: ('A' for Active; 'I' for Inactive)
REMARK    1  A    between atoms: C9_10  and  C10_11 
REMARK    2  A    between atoms: C11_13  and  O3_14 
REMARK    3  A    between atoms: C12_15  and  C13_16 
REMARK    4  A    between atoms: C14_18  and  O5_19 
REMARK    5  A    between atoms: C16_21  and  C17_22 
REMARK    6  A    between atoms: C17_22  and  C18_23 
ROOT
HETATM    1  C1  UNL     1       0.235  14.584  17.651  1.00  0.00     0.043 C 
HETATM    2  C2  UNL     1       0.595  13.408  18.526  1.00  0.00    -0.087 C 
HETATM    3  C3  UNL     1       1.031  12.265  17.962  1.00  0.00    -0.024 C 
HETATM    4  C4  UNL     1       1.432  11.002  18.658  1.00  0.00     0.030 C 
HETATM    5  C5  UNL     1       2.931  10.708  18.606  1.00  0.00     0.042 C 
HETATM    6  C6  UNL     1       3.955  11.764  19.133  1.00  0.00     0.069 C 
HETATM    7  C7  UNL     1       4.110  12.900  18.093  1.00  0.00     0.047 C 
HETATM    8  O1  UNL     1       5.221  11.026  19.023  1.00  0.00    -0.338 OA
HETATM    9  C8  UNL     1       6.236  11.443  19.834  1.00  0.00     0.095 A 
HETATM   10  C9  UNL     1       7.534  11.533  19.322  1.00  0.00     0.070 A 
HETATM   11  C11 UNL     1       8.577  11.999  20.138  1.00  0.00     0.097 A 
HETATM   12  C12 UNL     1       8.316  12.338  21.469  1.00  0.00     0.069 A 
HETATM   13  C14 UNL     1       7.016  12.198  21.983  1.00  0.00     0.091 A 
HETATM   14  C15 UNL     1       5.971  11.736  21.171  1.00  0.00     0.015 A 
HETATM   15  C16 UNL     1       4.555  11.568  21.657  1.00  0.00     0.032 C 
HETATM   16  C21 UNL     1       3.619  12.260  20.611  1.00  0.00     0.034 C 
HETATM   17  C22 UNL     1       3.731  13.777  20.770  1.00  0.00     0.006 A 
HETATM   18  C23 UNL     1       2.614  14.828  20.663  1.00  0.00    -0.001 A 
HETATM   19  C24 UNL     1       1.107  14.790  20.647  1.00  0.00     0.010 C 
HETATM   20  C25 UNL     1       0.394  13.603  20.013  1.00  0.00     0.034 C 
HETATM   21  C26 UNL     1       3.305  14.555  22.005  1.00  0.00    -0.039 A 
HETATM   22  C27 UNL     1       4.253  15.617  22.517  1.00  0.00     0.015 C 
HETATM   23  C28 UNL     1       2.552  13.870  23.125  1.00  0.00     0.015 C 
ENDROOT
BRANCH  15  24
HETATM   24  C17 UNL     1       4.129  10.103  21.925  1.00  0.00     0.014 C 
BRANCH  24  25
HETATM   25  C18 UNL     1       2.774   9.929  22.655  1.00  0.00    -0.022 C 
HETATM   26  C19 UNL     1       2.903  10.190  24.161  1.00  0.00     0.009 C 
HETATM   27  C20 UNL     1       2.246   8.504  22.445  1.00  0.00     0.009 C 
ENDBRANCH  24  25
ENDBRANCH  15  24
BRANCH  13  28
HETATM   28  O5  UNL     1       6.719  12.508  23.287  1.00  0.00    -0.359 OA
HETATM   29  H15 UNL     1       7.523  12.895  23.705  1.00  0.00     0.217 HD
ENDBRANCH  13  28
BRANCH  10  30
HETATM   30  C10 UNL     1       7.787  11.158  17.917  1.00  0.00     0.275 C 
HETATM   31  O2  UNL     1       8.050   9.996  17.628  1.00  0.00    -0.301 OA
ENDBRANCH  10  30
BRANCH  12  32
HETATM   32  C13 UNL     1       9.413  12.850  22.320  1.00  0.00     0.275 C 
HETATM   33  O4  UNL     1       9.405  12.649  23.532  1.00  0.00    -0.301 OA
ENDBRANCH  12  32
BRANCH  11  34
HETATM   34  O3  UNL     1       9.859  12.136  19.665  1.00  0.00    -0.359 OA
HETATM   35  H13 UNL     1       9.882  11.855  18.716  1.00  0.00     0.217 HD
ENDBRANCH  11  34
TORSDOF 6
ENDMDL
MODEL 2
REMARK minimizedAffinity -6.57432461
REMARK  6 active torsions:
REMARK  status: ('A' for Active; 'I' for Inactive)
REMARK    1  A    between atoms: C9_10  and  C10_11 
REMARK    2  A    between atoms: C11_13  and  O3_14 
REMARK    3  A    between atoms: C12_15  and  C13_16 
REMARK    4  A    between atoms: C14_18  and  O5_19 
REMARK    5  A    between atoms: C16_21  and  C17_22 
REMARK    6  A    between atoms: C17_22  and  C18_23 
ROOT
HETATM    1  C1  UNL     1      14.636  -8.359   1.475  1.00  0.00     0.043 C 
HETATM    2  C2  UNL     1      13.905  -8.285   2.793  1.00  0.00    -0.087 C 
HETATM    3  C3  UNL     1      14.002  -9.305   3.668  1.00  0.00    -0.024 C 
HETATM    4  C4  UNL     1      13.357  -9.414   5.014  1.00  0.00     0.030 C 
HETATM    5  C5  UNL     1      14.333  -9.314   6.186  1.00  0.00     0.042 C 
HETATM    6  C6  UNL     1      15.267  -8.068   6.323  1.00  0.00     0.069 C 
HETATM    7  C7  UNL     1      16.438  -8.187   5.317  1.00  0.00     0.047 C 
HETATM    8  O1  UNL     1      15.906  -8.322   7.622  1.00  0.00    -0.338 OA
HETATM    9  C8  UNL     1      16.397  -7.230   8.276  1.00  0.00     0.095 A 
HETATM   10  C9  UNL     1      17.644  -7.307   8.906  1.00  0.00     0.070 A 
HETATM   11  C11 UNL     1      18.174  -6.177   9.548  1.00  0.00     0.097 A 
HETATM   12  C12 UNL     1      17.436  -4.989   9.582  1.00  0.00     0.069 A 
HETATM   13  C14 UNL     1      16.164  -4.940   8.986  1.00  0.00     0.091 A 
HETATM   14  C15 UNL     1      15.632  -6.066   8.342  1.00  0.00     0.015 A 
HETATM   15  C16 UNL     1      14.279  -6.079   7.678  1.00  0.00     0.032 C 
HETATM   16  C21 UNL     1      14.468  -6.690   6.250  1.00  0.00     0.034 C 
HETATM   17  C22 UNL     1      15.147  -5.655   5.351  1.00  0.00     0.006 A 
HETATM   18  C23 UNL     1      14.870  -5.358   3.868  1.00  0.00    -0.001 A 
HETATM   19  C24 UNL     1      13.775  -5.708   2.893  1.00  0.00     0.010 C 
HETATM   20  C25 UNL     1      13.063  -7.048   3.015  1.00  0.00     0.034 C 
HETATM   21  C26 UNL     1      14.537  -4.321   4.949  1.00  0.00    -0.039 A 
HETATM   22  C27 UNL     1      15.428  -3.101   5.026  1.00  0.00     0.015 C 
HETATM   23  C28 UNL     1      13.096  -4.002   5.281  1.00  0.00     0.015 C 
ENDROOT
BRANCH  15  24
HETATM   24  C17 UNL     1      13.172  -6.815   8.474  1.00  0.00     0.014 C 
BRANCH  24  25
HETATM   25  C18 UNL     1      12.061  -5.908   9.057  1.00  0.00    -0.022 C 
HETATM   26  C19 UNL     1      11.273  -6.618  10.166  1.00  0.00     0.009 C 
HETATM   27  C20 UNL     1      11.086  -5.496   7.947  1.00  0.00     0.009 C 
ENDBRANCH  24  25
ENDBRANCH  15  24
BRANCH  13  28
HETATM   28  O5  UNL     1      15.402  -3.799   9.007  1.00  0.00    -0.359 OA
HETATM   29  H15 UNL     1      15.935  -3.077   9.413  1.00  0.00     0.217 HD
ENDBRANCH  13  28
BRANCH  10  30
HETATM   30  C10 UNL     1      18.399  -8.574   8.866  1.00  0.00     0.275 C 
HETATM   31  O2  UNL     1      18.114  -9.485   9.636  1.00  0.00    -0.301 OA
ENDBRANCH  10  30
BRANCH  12  32
HETATM   32  C13 UNL     1      18.007  -3.794  10.240  1.00  0.00     0.275 C 
HETATM   33  O4  UNL     1      18.559  -3.890  11.334  1.00  0.00    -0.301 OA
ENDBRANCH  12  32
BRANCH  11  34
HETATM   34  O3  UNL     1      19.409  -6.199  10.147  1.00  0.00    -0.359 OA
HETATM   35  H13 UNL     1      19.800  -7.102  10.042  1.00  0.00     0.217 HD
ENDBRANCH  11  34
TORSDOF 6
ENDMDL
MODEL 3
REMARK minimizedAffinity -6.352108
REMARK  6 active torsions:
REMARK  status: ('A' for Active; 'I' for Inactive)
REMARK    1  A    between atoms: C9_10  and  C10_11 
REMARK    2  A    between atoms: C11_13  and  O3_14 
REMARK    3  A    between atoms: C12_15  and  C13_16 
REMARK    4  A    between atoms: C14_18  and  O5_19 
REMARK    5  A    between atoms: C16_21  and  C17_22 
REMARK    6  A    between atoms: C17_22  and  C18_23 
ROOT
HETATM    1  C1  UNL     1       1.993   7.333   9.708  1.00  0.00     0.043 C 
HETATM    2  C2  UNL     1       3.062   6.966  10.708  1.00  0.00    -0.087 C 
HETATM    3  C3  UNL     1       4.293   6.629  10.278  1.00  0.00    -0.024 C 
HETATM    4  C4  UNL     1       5.473   6.238  11.110  1.00  0.00     0.030 C 
HETATM    5  C5  UNL     1       6.594   7.278  11.135  1.00  0.00     0.042 C 
HETATM    6  C6  UNL     1       6.292   8.744  11.585  1.00  0.00     0.069 C 
HETATM    7  C7  UNL     1       5.573   9.499  10.440  1.00  0.00     0.047 C 
HETATM    8  O1  UNL     1       7.638   9.332  11.589  1.00  0.00    -0.338 OA
HETATM    9  C8  UNL     1       7.816  10.426  12.386  1.00  0.00     0.095 A 
HETATM   10  C9  UNL     1       8.556  11.513  11.908  1.00  0.00     0.070 A 
HETATM   11  C11 UNL     1       8.711  12.657  12.705  1.00  0.00     0.097 A 
HETATM   12  C12 UNL     1       8.151  12.691  13.987  1.00  0.00     0.069 A 
HETATM   13  C14 UNL     1       7.450  11.573  14.471  1.00  0.00     0.091 A 
HETATM   14  C15 UNL     1       7.291  10.429  13.677  1.00  0.00     0.015 A 
HETATM   15  C16 UNL     1       6.547   9.200  14.133  1.00  0.00     0.032 C 
HETATM   16  C21 UNL     1       5.547   8.812  12.993  1.00  0.00     0.034 C 
HETATM   17  C22 UNL     1       4.377   9.797  13.001  1.00  0.00     0.006 A 
HETATM   18  C23 UNL     1       2.888   9.504  12.753  1.00  0.00    -0.001 A 
HETATM   19  C24 UNL     1       2.038   8.262  12.694  1.00  0.00     0.010 C 
HETATM   20  C25 UNL     1       2.637   6.968  12.161  1.00  0.00     0.034 C 
HETATM   21  C26 UNL     1       3.378   9.950  14.137  1.00  0.00    -0.039 A 
HETATM   22  C27 UNL     1       3.029  11.357  14.568  1.00  0.00     0.015 C 
HETATM   23  C28 UNL     1       3.375   8.977  15.296  1.00  0.00     0.015 C 
ENDROOT
BRANCH  15  24
HETATM   24  C17 UNL     1       7.448   8.006  14.535  1.00  0.00     0.014 C 
BRANCH  24  25
HETATM   25  C18 UNL     1       8.890   8.378  14.962  1.00  0.00    -0.022 C 
HETATM   26  C19 UNL     1       9.931   7.848  13.968  1.00  0.00     0.009 C 
HETATM   27  C20 UNL     1       9.191   7.793  16.348  1.00  0.00     0.009 C 
ENDBRANCH  24  25
ENDBRANCH  15  24
BRANCH  13  28
HETATM   28  O5  UNL     1       6.896  11.559  15.727  1.00  0.00    -0.359 OA
HETATM   29  H15 UNL     1       7.013  12.451  16.128  1.00  0.00     0.217 HD
ENDBRANCH  13  28
BRANCH  10  30
HETATM   30  C10 UNL     1       9.146  11.450  10.557  1.00  0.00     0.275 C 
HETATM   31  O2  UNL     1      10.362  11.365  10.420  1.00  0.00    -0.301 OA
ENDBRANCH  10  30
BRANCH  12  32
HETATM   32  C13 UNL     1       8.297  13.907  14.815  1.00  0.00     0.275 C 
HETATM   33  O4  UNL     1       7.780  13.967  15.929  1.00  0.00    -0.301 OA
ENDBRANCH  12  32
BRANCH  11  34
HETATM   34  O3  UNL     1       9.399  13.760  12.262  1.00  0.00    -0.359 OA
HETATM   35  H13 UNL     1       9.734  13.582  11.347  1.00  0.00     0.217 HD
ENDBRANCH  11  34
TORSDOF 6
ENDMDL
MODEL 4
REMARK minimizedAffinity -6.27867556
REMARK  6 active torsions:
REMARK  status: ('A' for Active; 'I' for Inactive)
REMARK    1  A    between atoms: C9_10  and  C10_11 
REMARK    2  A    between atoms: C11_13  and  O3_14 
REMARK    3  A    between atoms: C12_15  and  C13_16 
REMARK    4  A    between atoms: C14_18  and  O5_19 
REMARK    5  A    between atoms: C16_21  and  C17_22 
REMARK    6  A    between atoms: C17_22  and  C18_23 
ROOT
HETATM    1  C1  UNL     1       8.631  11.860  22.937  1.00  0.00     0.043 C 
HETATM    2  C2  UNL     1       7.564  12.716  22.299  1.00  0.00    -0.087 C 
HETATM    3  C3  UNL     1       7.840  13.394  21.168  1.00  0.00    -0.024 C 
HETATM    4  C4  UNL     1       6.922  14.286  20.395  1.00  0.00     0.030 C 
HETATM    5  C5  UNL     1       6.484  13.716  19.045  1.00  0.00     0.042 C 
HETATM    6  C6  UNL     1       5.790  12.317  18.974  1.00  0.00     0.069 C 
HETATM    7  C7  UNL     1       6.853  11.203  19.136  1.00  0.00     0.047 C 
HETATM    8  O1  UNL     1       5.430  12.241  17.551  1.00  0.00    -0.338 OA
HETATM    9  C8  UNL     1       4.400  11.404  17.234  1.00  0.00     0.095 A 
HETATM   10  C9  UNL     1       4.501  10.586  16.104  1.00  0.00     0.070 A 
HETATM   11  C11 UNL     1       3.463   9.694  15.792  1.00  0.00     0.097 A 
HETATM   12  C12 UNL     1       2.319   9.653  16.595  1.00  0.00     0.069 A 
HETATM   13  C14 UNL     1       2.211  10.514  17.701  1.00  0.00     0.091 A 
HETATM   14  C15 UNL     1       3.246  11.405  18.017  1.00  0.00     0.015 A 
HETATM   15  C16 UNL     1       3.197  12.350  19.190  1.00  0.00     0.032 C 
HETATM   16  C21 UNL     1       4.548  12.198  19.966  1.00  0.00     0.034 C 
HETATM   17  C22 UNL     1       4.530  10.880  20.742  1.00  0.00     0.006 A 
HETATM   18  C23 UNL     1       5.085  10.598  22.148  1.00  0.00    -0.001 A 
HETATM   19  C24 UNL     1       5.553  11.445  23.303  1.00  0.00     0.010 C 
HETATM   20  C25 UNL     1       6.239  12.776  23.027  1.00  0.00     0.034 C 
HETATM   21  C26 UNL     1       3.575  10.554  21.880  1.00  0.00    -0.039 A 
HETATM   22  C27 UNL     1       2.920   9.191  21.866  1.00  0.00     0.015 C 
HETATM   23  C28 UNL     1       2.668  11.622  22.454  1.00  0.00     0.015 C 
ENDROOT
BRANCH  15  24
HETATM   24  C17 UNL     1       2.912  13.828  18.822  1.00  0.00     0.014 C 
BRANCH  24  25
HETATM   25  C18 UNL     1       1.434  14.271  18.956  1.00  0.00    -0.022 C 
HETATM   26  C19 UNL     1       0.723  13.536  20.099  1.00  0.00     0.009 C 
HETATM   27  C20 UNL     1       0.684  13.990  17.648  1.00  0.00     0.009 C 
ENDBRANCH  24  25
ENDBRANCH  15  24
BRANCH  13  28
HETATM   28  O5  UNL     1       1.102  10.515  18.508  1.00  0.00    -0.359 OA
HETATM   29  H15 UNL     1       0.505   9.788  18.217  1.00  0.00     0.217 HD
ENDBRANCH  13  28
BRANCH  10  30
HETATM   30  C10 UNL     1       5.713  10.655  15.265  1.00  0.00     0.275 C 
HETATM   31  O2  UNL     1       6.275   9.625  14.910  1.00  0.00    -0.301 OA
ENDBRANCH  10  30
BRANCH  12  32
HETATM   32  C13 UNL     1       1.237   8.696  16.277  1.00  0.00     0.275 C 
HETATM   33  O4  UNL     1       1.406   7.489  16.440  1.00  0.00    -0.301 OA
ENDBRANCH  12  32
BRANCH  11  34
HETATM   34  O3  UNL     1       3.537   8.847  14.713  1.00  0.00    -0.359 OA
HETATM   35  H13 UNL     1       4.397   8.998  14.246  1.00  0.00     0.217 HD
ENDBRANCH  11  34
TORSDOF 6
ENDMDL
MODEL 5
REMARK minimizedAffinity -6.24443197
REMARK  6 active torsions:
REMARK  status: ('A' for Active; 'I' for Inactive)
REMARK    1  A    between atoms: C9_10  and  C10_11 
REMARK    2  A    between atoms: C11_13  and  O3_14 
REMARK    3  A    between atoms: C12_15  and  C13_16 
REMARK    4  A    between atoms: C14_18  and  O5_19 
REMARK    5  A    between atoms: C16_21  and  C17_22 
REMARK    6  A    between atoms: C17_22  and  C18_23 
ROOT
HETATM    1  C1  UNL     1     -16.905  -5.775   8.254  1.00  0.00     0.043 C 
HETATM    2  C2  UNL     1     -15.705  -5.602   9.153  1.00  0.00    -0.087 C 
HETATM    3  C3  UNL     1     -15.025  -4.439   9.142  1.00  0.00    -0.024 C 
HETATM    4  C4  UNL     1     -13.821  -4.082   9.954  1.00  0.00     0.030 C 
HETATM    5  C5  UNL     1     -14.086  -3.039  11.041  1.00  0.00     0.042 C 
HETATM    6  C6  UNL     1     -15.196  -3.290  12.113  1.00  0.00     0.069 C 
HETATM    7  C7  UNL     1     -16.588  -3.036  11.485  1.00  0.00     0.047 C 
HETATM    8  O1  UNL     1     -15.008  -2.137  13.004  1.00  0.00    -0.338 OA
HETATM    9  C8  UNL     1     -15.459  -2.285  14.284  1.00  0.00     0.095 A 
HETATM   10  C9  UNL     1     -16.144  -1.231  14.898  1.00  0.00     0.070 A 
HETATM   11  C11 UNL     1     -16.645  -1.388  16.200  1.00  0.00     0.097 A 
HETATM   12  C12 UNL     1     -16.426  -2.587  16.887  1.00  0.00     0.069 A 
HETATM   13  C14 UNL     1     -15.695  -3.619  16.274  1.00  0.00     0.091 A 
HETATM   14  C15 UNL     1     -15.195  -3.467  14.974  1.00  0.00     0.015 A 
HETATM   15  C16 UNL     1     -14.409  -4.535  14.257  1.00  0.00     0.032 C 
HETATM   16  C21 UNL     1     -15.042  -4.703  12.836  1.00  0.00     0.034 C 
HETATM   17  C22 UNL     1     -16.369  -5.452  12.967  1.00  0.00     0.006 A 
HETATM   18  C23 UNL     1     -16.953  -6.520  12.027  1.00  0.00    -0.001 A 
HETATM   19  C24 UNL     1     -16.414  -7.366  10.902  1.00  0.00     0.010 C 
HETATM   20  C25 UNL     1     -15.329  -6.802   9.994  1.00  0.00     0.034 C 
HETATM   21  C26 UNL     1     -16.513  -6.887  13.450  1.00  0.00    -0.039 A 
HETATM   22  C27 UNL     1     -17.607  -7.174  14.454  1.00  0.00     0.015 C 
HETATM   23  C28 UNL     1     -15.290  -7.751  13.670  1.00  0.00     0.015 C 
ENDROOT
BRANCH  15  24
HETATM   24  C17 UNL     1     -12.884  -4.277  14.178  1.00  0.00     0.014 C 
BRANCH  24  25
HETATM   25  C18 UNL     1     -11.988  -5.501  14.491  1.00  0.00    -0.022 C 
HETATM   26  C19 UNL     1     -12.106  -6.582  13.410  1.00  0.00     0.009 C 
HETATM   27  C20 UNL     1     -12.387  -6.109  15.842  1.00  0.00     0.009 C 
ENDBRANCH  24  25
ENDBRANCH  15  24
BRANCH  13  28
HETATM   28  O5  UNL     1     -15.448  -4.806  16.917  1.00  0.00    -0.359 OA
HETATM   29  H15 UNL     1     -15.927  -4.799  17.777  1.00  0.00     0.217 HD
ENDBRANCH  13  28
BRANCH  10  30
HETATM   30  C10 UNL     1     -16.352   0.028  14.157  1.00  0.00     0.275 C 
HETATM   31  O2  UNL     1     -15.542   0.384  13.308  1.00  0.00    -0.301 OA
ENDBRANCH  10  30
BRANCH  12  32
HETATM   32  C13 UNL     1     -16.975  -2.757  18.250  1.00  0.00     0.275 C 
HETATM   33  O4  UNL     1     -16.392  -2.278  19.220  1.00  0.00    -0.301 OA
ENDBRANCH  12  32
BRANCH  11  34
HETATM   34  O3  UNL     1     -17.354  -0.393  16.827  1.00  0.00    -0.359 OA
HETATM   35  H13 UNL     1     -17.420   0.385  16.218  1.00  0.00     0.217 HD
ENDBRANCH  11  34
TORSDOF 6
ENDMDL
MODEL 6
REMARK minimizedAffinity -6.22584009
REMARK  6 active torsions:
REMARK  status: ('A' for Active; 'I' for Inactive)
REMARK    1  A    between atoms: C9_10  and  C10_11 
REMARK    2  A    between atoms: C11_13  and  O3_14 
REMARK    3  A    between atoms: C12_15  and  C13_16 
REMARK    4  A    between atoms: C14_18  and  O5_19 
REMARK    5  A    between atoms: C16_21  and  C17_22 
REMARK    6  A    between atoms: C17_22  and  C18_23 
ROOT
HETATM    1  C1  UNL     1      16.164  -3.677  -0.668  1.00  0.00     0.043 C 
HETATM    2  C2  UNL     1      15.097  -3.593   0.396  1.00  0.00    -0.087 C 
HETATM    3  C3  UNL     1      14.180  -4.574   0.502  1.00  0.00    -0.024 C 
HETATM    4  C4  UNL     1      13.055  -4.665   1.484  1.00  0.00     0.030 C 
HETATM    5  C5  UNL     1      13.234  -5.757   2.539  1.00  0.00     0.042 C 
HETATM    6  C6  UNL     1      14.513  -5.777   3.437  1.00  0.00     0.069 C 
HETATM    7  C7  UNL     1      15.709  -6.325   2.621  1.00  0.00     0.047 C 
HETATM    8  O1  UNL     1      14.202  -6.872   4.366  1.00  0.00    -0.338 OA
HETATM    9  C8  UNL     1      14.853  -6.849   5.565  1.00  0.00     0.095 A 
HETATM   10  C9  UNL     1      15.366  -8.037   6.094  1.00  0.00     0.070 A 
HETATM   11  C11 UNL     1      16.070  -8.016   7.308  1.00  0.00     0.097 A 
HETATM   12  C12 UNL     1      16.225  -6.810   7.998  1.00  0.00     0.069 A 
HETATM   13  C14 UNL     1      15.663  -5.631   7.479  1.00  0.00     0.091 A 
HETATM   14  C15 UNL     1      14.961  -5.648   6.265  1.00  0.00     0.015 A 
HETATM   15  C16 UNL     1      14.340  -4.420   5.650  1.00  0.00     0.032 C 
HETATM   16  C21 UNL     1      14.784  -4.377   4.150  1.00  0.00     0.034 C 
HETATM   17  C22 UNL     1      16.249  -3.945   4.077  1.00  0.00     0.006 A 
HETATM   18  C23 UNL     1      16.916  -3.020   3.045  1.00  0.00    -0.001 A 
HETATM   19  C24 UNL     1      16.424  -2.058   1.995  1.00  0.00     0.010 C 
HETATM   20  C25 UNL     1      15.122  -2.351   1.261  1.00  0.00     0.034 C 
HETATM   21  C26 UNL     1      16.777  -2.585   4.510  1.00  0.00    -0.039 A 
HETATM   22  C27 UNL     1      18.039  -2.566   5.343  1.00  0.00     0.015 C 
HETATM   23  C28 UNL     1      15.822  -1.473   4.888  1.00  0.00     0.015 C 
ENDROOT
BRANCH  15  24
HETATM   24  C17 UNL     1      12.800  -4.330   5.794  1.00  0.00     0.014 C 
BRANCH  24  25
HETATM   25  C18 UNL     1      12.145  -5.455   6.633  1.00  0.00    -0.022 C 
HETATM   26  C19 UNL     1      10.734  -5.787   6.134  1.00  0.00     0.009 C 
HETATM   27  C20 UNL     1      12.059  -5.028   8.104  1.00  0.00     0.009 C 
ENDBRANCH  24  25
ENDBRANCH  15  24
BRANCH  13  28
HETATM   28  O5  UNL     1      15.781  -4.429   8.130  1.00  0.00    -0.359 OA
HETATM   29  H15 UNL     1      16.365  -4.555   8.913  1.00  0.00     0.217 HD
ENDBRANCH  13  28
BRANCH  10  30
HETATM   30  C10 UNL     1      15.181  -9.300   5.353  1.00  0.00     0.275 C 
HETATM   31  O2  UNL     1      16.071 -10.142   5.339  1.00  0.00    -0.301 OA
ENDBRANCH  10  30
BRANCH  12  32
HETATM   32  C13 UNL     1      16.987  -6.787   9.266  1.00  0.00     0.275 C 
HETATM   33  O4  UNL     1      16.565  -6.160  10.235  1.00  0.00    -0.301 OA
ENDBRANCH  12  32
BRANCH  11  34
HETATM   34  O3  UNL     1      16.622  -9.154   7.844  1.00  0.00    -0.359 OA
HETATM   35  H13 UNL     1      16.425  -9.918   7.246  1.00  0.00     0.217 HD
ENDBRANCH  11  34
TORSDOF 6
ENDMDL
MODEL 7
REMARK minimizedAffinity -6.2084198
REMARK  6 active torsions:
REMARK  status: ('A' for Active; 'I' for Inactive)
REMARK    1  A    between atoms: C9_10  and  C10_11 
REMARK    2  A    between atoms: C11_13  and  O3_14 
REMARK    3  A    between atoms: C12_15  and  C13_16 
REMARK    4  A    between atoms: C14_18  and  O5_19 
REMARK    5  A    between atoms: C16_21  and  C17_22 
REMARK    6  A    between atoms: C17_22  and  C18_23 
ROOT
HETATM    1  C1  UNL     1       7.444  17.225  23.937  1.00  0.00     0.043 C 
HETATM    2  C2  UNL     1       7.934  16.065  23.106  1.00  0.00    -0.087 C 
HETATM    3  C3  UNL     1       8.180  14.878  23.694  1.00  0.00    -0.024 C 
HETATM    4  C4  UNL     1       8.667  13.622  23.042  1.00  0.00     0.030 C 
HETATM    5  C5  UNL     1       7.621  12.510  22.967  1.00  0.00     0.042 C 
HETATM    6  C6  UNL     1       6.243  12.776  22.279  1.00  0.00     0.069 C 
HETATM    7  C7  UNL     1       5.341  13.603  23.228  1.00  0.00     0.047 C 
HETATM    8  O1  UNL     1       5.635  11.438  22.312  1.00  0.00    -0.338 OA
HETATM    9  C8  UNL     1       4.668  11.191  21.382  1.00  0.00     0.095 A 
HETATM   10  C9  UNL     1       3.509  10.506  21.760  1.00  0.00     0.070 A 
HETATM   11  C11 UNL     1       2.491  10.282  20.820  1.00  0.00     0.097 A 
HETATM   12  C12 UNL     1       2.658  10.718  19.501  1.00  0.00     0.069 A 
HETATM   13  C14 UNL     1       3.847  11.364  19.125  1.00  0.00     0.091 A 
HETATM   14  C15 UNL     1       4.865  11.591  20.062  1.00  0.00     0.015 A 
HETATM   15  C16 UNL     1       6.162  12.283  19.726  1.00  0.00     0.032 C 
HETATM   16  C21 UNL     1       6.397  13.383  20.813  1.00  0.00     0.034 C 
HETATM   17  C22 UNL     1       5.446  14.553  20.551  1.00  0.00     0.006 A 
HETATM   18  C23 UNL     1       5.728  16.057  20.700  1.00  0.00    -0.001 A 
HETATM   19  C24 UNL     1       6.965  16.903  20.864  1.00  0.00     0.010 C 
HETATM   20  C25 UNL     1       8.154  16.350  21.636  1.00  0.00     0.034 C 
HETATM   21  C26 UNL     1       5.481  15.441  19.316  1.00  0.00    -0.039 A 
HETATM   22  C27 UNL     1       4.160  15.755  18.651  1.00  0.00     0.015 C 
HETATM   23  C28 UNL     1       6.615  15.329  18.319  1.00  0.00     0.015 C 
ENDROOT
BRANCH  15  24
HETATM   24  C17 UNL     1       7.385  11.341  19.591  1.00  0.00     0.014 C 
BRANCH  24  25
HETATM   25  C18 UNL     1       7.687  10.848  18.155  1.00  0.00    -0.022 C 
HETATM   26  C19 UNL     1       9.141  10.383  18.009  1.00  0.00     0.009 C 
HETATM   27  C20 UNL     1       7.428  11.977  17.149  1.00  0.00     0.009 C 
ENDBRANCH  24  25
ENDBRANCH  15  24
BRANCH  13  28
HETATM   28  O5  UNL     1       4.057  11.797  17.839  1.00  0.00    -0.359 OA
HETATM   29  H15 UNL     1       3.232  11.647  17.323  1.00  0.00     0.217 HD
ENDBRANCH  13  28
BRANCH  10  30
HETATM   30  C10 UNL     1       3.361  10.045  23.154  1.00  0.00     0.275 C 
HETATM   31  O2  UNL     1       3.021   8.891  23.388  1.00  0.00    -0.301 OA
ENDBRANCH  10  30
BRANCH  12  32
HETATM   32  C13 UNL     1       1.574  10.501  18.518  1.00  0.00     0.275 C 
HETATM   33  O4  UNL     1       1.714   9.689  17.607  1.00  0.00    -0.301 OA
ENDBRANCH  12  32
BRANCH  11  34
HETATM   34  O3  UNL     1       1.322   9.645  21.157  1.00  0.00    -0.359 OA
HETATM   35  H13 UNL     1       1.357   9.396  22.115  1.00  0.00     0.217 HD
ENDBRANCH  11  34
TORSDOF 6
ENDMDL
MODEL 8
REMARK minimizedAffinity -6.18948746
REMARK  6 active torsions:
REMARK  status: ('A' for Active; 'I' for Inactive)
REMARK    1  A    between atoms: C9_10  and  C10_11 
REMARK    2  A    between atoms: C11_13  and  O3_14 
REMARK    3  A    between atoms: C12_15  and  C13_16 
REMARK    4  A    between atoms: C14_18  and  O5_19 
REMARK    5  A    between atoms: C16_21  and  C17_22 
REMARK    6  A    between atoms: C17_22  and  C18_23 
ROOT
HETATM    1  C1  UNL     1      -4.555  14.393  14.593  1.00  0.00     0.043 C 
HETATM    2  C2  UNL     1      -3.938  13.905  15.881  1.00  0.00    -0.087 C 
HETATM    3  C3  UNL     1      -4.410  12.787  16.466  1.00  0.00    -0.024 C 
HETATM    4  C4  UNL     1      -3.934  12.153  17.734  1.00  0.00     0.030 C 
HETATM    5  C5  UNL     1      -3.199  10.827  17.533  1.00  0.00     0.042 C 
HETATM    6  C6  UNL     1      -1.954  10.756  16.592  1.00  0.00     0.069 C 
HETATM    7  C7  UNL     1      -2.420  10.759  15.115  1.00  0.00     0.047 C 
HETATM    8  O1  UNL     1      -1.502   9.374  16.805  1.00  0.00    -0.338 OA
HETATM    9  C8  UNL     1      -0.190   9.119  16.535  1.00  0.00     0.095 A 
HETATM   10  C9  UNL     1       0.159   7.947  15.857  1.00  0.00     0.070 A 
HETATM   11  C11 UNL     1       1.503   7.695  15.540  1.00  0.00     0.097 A 
HETATM   12  C12 UNL     1       2.490   8.605  15.934  1.00  0.00     0.069 A 
HETATM   13  C14 UNL     1       2.130   9.756  16.656  1.00  0.00     0.091 A 
HETATM   14  C15 UNL     1       0.788  10.011  16.972  1.00  0.00     0.015 A 
HETATM   15  C16 UNL     1       0.334  11.228  17.737  1.00  0.00     0.032 C 
HETATM   16  C21 UNL     1      -0.857  11.859  16.942  1.00  0.00     0.034 C 
HETATM   17  C22 UNL     1      -0.308  12.568  15.703  1.00  0.00     0.006 A 
HETATM   18  C23 UNL     1      -0.773  13.897  15.085  1.00  0.00    -0.001 A 
HETATM   19  C24 UNL     1      -1.644  15.040  15.537  1.00  0.00     0.010 C 
HETATM   20  C25 UNL     1      -2.829  14.763  16.452  1.00  0.00     0.034 C 
HETATM   21  C26 UNL     1       0.614  13.778  15.730  1.00  0.00    -0.039 A 
HETATM   22  C27 UNL     1       1.805  13.762  14.799  1.00  0.00     0.015 C 
HETATM   23  C28 UNL     1       0.912  14.489  17.033  1.00  0.00     0.015 C 
ENDROOT
BRANCH  15  24
HETATM   24  C17 UNL     1      -0.042  10.962  19.217  1.00  0.00     0.014 C 
BRANCH  24  25
HETATM   25  C18 UNL     1       1.017  11.399  20.259  1.00  0.00    -0.022 C 
HETATM   26  C19 UNL     1       1.803  12.629  19.788  1.00  0.00     0.009 C 
HETATM   27  C20 UNL     1       2.004  10.253  20.513  1.00  0.00     0.009 C 
ENDBRANCH  24  25
ENDBRANCH  15  24
BRANCH  13  28
HETATM   28  O5  UNL     1       3.067  10.668  17.072  1.00  0.00    -0.359 OA
HETATM   29  H15 UNL     1       3.943  10.401  16.708  1.00  0.00     0.217 HD
ENDBRANCH  13  28
BRANCH  10  30
HETATM   30  C10 UNL     1      -0.899   6.997  15.461  1.00  0.00     0.275 C 
HETATM   31  O2  UNL     1      -1.396   7.060  14.342  1.00  0.00    -0.301 OA
ENDBRANCH  10  30
BRANCH  12  32
HETATM   32  C13 UNL     1       3.902   8.348  15.579  1.00  0.00     0.275 C 
HETATM   33  O4  UNL     1       4.764   9.196  15.803  1.00  0.00    -0.301 OA
ENDBRANCH  12  32
BRANCH  11  34
HETATM   34  O3  UNL     1       1.885   6.574  14.845  1.00  0.00    -0.359 OA
HETATM   35  H13 UNL     1       1.080   6.033  14.643  1.00  0.00     0.217 HD
ENDBRANCH  11  34
TORSDOF 6
ENDMDL
MODEL 9
REMARK minimizedAffinity -6.17341375
REMARK  6 active torsions:
REMARK  status: ('A' for Active; 'I' for Inactive)
REMARK    1  A    between atoms: C9_10  and  C10_11 
REMARK    2  A    between atoms: C11_13  and  O3_14 
REMARK    3  A    between atoms: C12_15  and  C13_16 
REMARK    4  A    between atoms: C14_18  and  O5_19 
REMARK    5  A    between atoms: C16_21  and  C17_22 
REMARK    6  A    between atoms: C17_22  and  C18_23 
ROOT
HETATM    1  C1  UNL     1     -18.544   2.391  12.716  1.00  0.00     0.043 C 
HETATM    2  C2  UNL     1     -17.238   1.664  12.927  1.00  0.00    -0.087 C 
HETATM    3  C3  UNL     1     -16.567   1.821  14.085  1.00  0.00    -0.024 C 
HETATM    4  C4  UNL     1     -15.268   1.190  14.475  1.00  0.00     0.030 C 
HETATM    5  C5  UNL     1     -15.391   0.130  15.571  1.00  0.00     0.042 C 
HETATM    6  C6  UNL     1     -16.352  -1.087  15.378  1.00  0.00     0.069 C 
HETATM    7  C7  UNL     1     -17.814  -0.634  15.607  1.00  0.00     0.047 C 
HETATM    8  O1  UNL     1     -16.052  -1.890  16.572  1.00  0.00    -0.338 OA
HETATM    9  C8  UNL     1     -16.332  -3.222  16.489  1.00  0.00     0.095 A 
HETATM   10  C9  UNL     1     -16.933  -3.868  17.574  1.00  0.00     0.070 A 
HETATM   11  C11 UNL     1     -17.261  -5.230  17.483  1.00  0.00     0.097 A 
HETATM   12  C12 UNL     1     -16.952  -5.941  16.318  1.00  0.00     0.069 A 
HETATM   13  C14 UNL     1     -16.306  -5.290  15.254  1.00  0.00     0.091 A 
HETATM   14  C15 UNL     1     -15.979  -3.929  15.340  1.00  0.00     0.015 A 
HETATM   15  C16 UNL     1     -15.292  -3.170  14.234  1.00  0.00     0.032 C 
HETATM   16  C21 UNL     1     -16.103  -1.852  14.001  1.00  0.00     0.034 C 
HETATM   17  C22 UNL     1     -17.401  -2.191  13.266  1.00  0.00     0.006 A 
HETATM   18  C23 UNL     1     -18.101  -1.388  12.156  1.00  0.00    -0.001 A 
HETATM   19  C24 UNL     1     -17.711  -0.245  11.254  1.00  0.00     0.010 C 
HETATM   20  C25 UNL     1     -16.754   0.822  11.767  1.00  0.00     0.034 C 
HETATM   21  C26 UNL     1     -17.479  -2.758  11.856  1.00  0.00    -0.039 A 
HETATM   22  C27 UNL     1     -18.432  -3.909  11.624  1.00  0.00     0.015 C 
HETATM   23  C28 UNL     1     -16.236  -2.859  10.998  1.00  0.00     0.015 C 
ENDROOT
BRANCH  15  24
HETATM   24  C17 UNL     1     -13.790  -2.881  14.481  1.00  0.00     0.014 C 
BRANCH  24  25
HETATM   25  C18 UNL     1     -12.805  -3.862  13.798  1.00  0.00    -0.022 C 
HETATM   26  C19 UNL     1     -13.413  -4.492  12.539  1.00  0.00     0.009 C 
HETATM   27  C20 UNL     1     -12.424  -4.983  14.774  1.00  0.00     0.009 C 
ENDBRANCH  24  25
ENDBRANCH  15  24
BRANCH  13  28
HETATM   28  O5  UNL     1     -15.975  -5.952  14.098  1.00  0.00    -0.359 OA
HETATM   29  H15 UNL     1     -16.338  -6.866  14.149  1.00  0.00     0.217 HD
ENDBRANCH  13  28
BRANCH  10  30
HETATM   30  C10 UNL     1     -17.238  -3.100  18.796  1.00  0.00     0.275 C 
HETATM   31  O2  UNL     1     -16.389  -2.367  19.290  1.00  0.00    -0.301 OA
ENDBRANCH  10  30
BRANCH  12  32
HETATM   32  C13 UNL     1     -17.319  -7.370  16.217  1.00  0.00     0.275 C 
HETATM   33  O4  UNL     1     -17.842  -7.947  17.167  1.00  0.00    -0.301 OA
ENDBRANCH  12  32
BRANCH  11  34
HETATM   34  O3  UNL     1     -17.884  -5.895  18.511  1.00  0.00    -0.359 OA
HETATM   35  H13 UNL     1     -18.029  -5.262  19.259  1.00  0.00     0.217 HD
ENDBRANCH  11  34
TORSDOF 6
ENDMDL
