MODEL 1
REMARK minimizedAffinity -8.20267391
REMARK CNNscore 0.668162942
REMARK CNNaffinity 6.962111
REMARK  19 active torsions:
REMARK  status: ('A' for Active; 'I' for Inactive)
REMARK    1  A    between atoms: C19_20  and  O2_21 
REMARK    2  A    between atoms: C19_20  and  C20_22 
REMARK    3  A    between atoms: C20_22  and  C21_24 
REMARK    4  A    between atoms: C21_24  and  O4_25 
REMARK    5  A    between atoms: O4_25  and  C22_26 
REMARK    6  A    between atoms: C22_26  and  C23_28 
REMARK    7  A    between atoms: C23_28  and  C24_29 
REMARK    8  A    between atoms: C24_29  and  C25_30 
REMARK       I    between atoms: C25_30  and  N1_32 
REMARK    9  A    between atoms: N1_32  and  C26_33 
REMARK   10  A    between atoms: C26_33  and  C27_34 
REMARK   11  A    between atoms: C27_34  and  C28_35 
REMARK   12  A    between atoms: C28_35  and  C29_36 
REMARK   13  A    between atoms: C29_36  and  C30_37 
REMARK   14  A    between atoms: C30_37  and  C31_38 
REMARK       I    between atoms: C31_38  and  N2_40 
REMARK   15  A    between atoms: N2_40  and  C32_41 
REMARK   16  A    between atoms: C32_41  and  C33_42 
REMARK   17  A    between atoms: C33_42  and  C34_43 
REMARK   18  A    between atoms: C37_46  and  O8_47 
REMARK   19  A    between atoms: C38_48  and  O9_49 
ROOT
HETATM    1  C22 UNL     1       1.205   7.558  10.226  1.00  0.00     0.259 C 
HETATM    2  O5  UNL     1       0.746   8.648   9.926  1.00  0.00    -0.265 OA
ENDROOT
BRANCH   1   3
HETATM    3  O4  UNL     1       0.488   6.544  10.794  1.00  0.00    -0.314 OA
BRANCH   3   4
HETATM    4  C21 UNL     1      -0.573   6.975  11.634  1.00  0.00     0.260 C 
BRANCH   4   5
HETATM    5  C20 UNL     1      -0.462   6.782  13.151  1.00  0.00     0.185 C 
HETATM    6  O3  UNL     1       0.491   6.144  13.613  1.00  0.00    -0.292 OA
BRANCH   5   7
HETATM    7  C19 UNL     1      -1.483   7.519  14.077  1.00  0.00     0.128 C 
HETATM    8  C14 UNL     1      -2.753   6.660  14.426  1.00  0.00    -0.002 C 
HETATM    9  C13 UNL     1      -3.508   7.246  15.650  1.00  0.00     0.013 C 
HETATM   10  C15 UNL     1      -2.371   5.198  14.722  1.00  0.00     0.019 C 
HETATM   11  C16 UNL     1      -3.619   6.807  13.155  1.00  0.00     0.002 C 
HETATM   12  C12 UNL     1      -4.922   6.694  15.816  1.00  0.00     0.007 C 
HETATM   13  C11 UNL     1      -5.805   6.923  14.576  1.00  0.00     0.002 C 
HETATM   14  C2  UNL     1      -7.291   6.369  14.746  1.00  0.00    -0.016 C 
HETATM   15  C10 UNL     1      -5.119   6.452  13.265  1.00  0.00    -0.004 C 
HETATM   16  C1  UNL     1      -7.431   5.303  15.860  1.00  0.00     0.020 C 
HETATM   17  C3  UNL     1      -8.188   7.590  15.111  1.00  0.00     0.022 C 
HETATM   18  C7  UNL     1      -7.804   5.713  13.461  1.00  0.00    -0.068 C 
HETATM   19  C4  UNL     1      -9.681   7.312  15.011  1.00  0.00     0.084 C 
HETATM   20  C5  UNL     1     -10.025   6.782  13.643  1.00  0.00     0.149 C 
HETATM   21  O1  UNL     1     -11.130   6.955  13.132  1.00  0.00    -0.293 OA
HETATM   22  C6  UNL     1      -9.024   5.945  12.942  1.00  0.00     0.053 C 
HETATM   23  C8  UNL     1      -6.886   4.728  12.768  1.00  0.00     0.035 C 
HETATM   24  C9  UNL     1      -5.399   4.965  13.039  1.00  0.00     0.010 C 
HETATM   25  C17 UNL     1      -3.415   8.282  12.752  1.00  0.00     0.009 C 
HETATM   26  C18 UNL     1      -2.049   8.715  13.288  1.00  0.00     0.047 C 
BRANCH   7  27
HETATM   27  O2  UNL     1      -0.884   8.028  15.263  1.00  0.00    -0.381 OA
HETATM   28  H27 UNL     1      -0.686   7.283  15.857  1.00  0.00     0.211 HD
ENDBRANCH   7  27
ENDBRANCH   5   7
ENDBRANCH   4   5
ENDBRANCH   3   4
ENDBRANCH   1   3
BRANCH   1  29
HETATM   29  C23 UNL     1       2.635   7.133  10.016  1.00  0.00     0.120 C 
BRANCH  29  30
HETATM   30  C24 UNL     1       3.229   6.584  11.306  1.00  0.00     0.112 C 
BRANCH  30  31
HETATM   31  C25 UNL     1       4.740   6.714  11.348  1.00  0.00     0.217 C 
HETATM   32  O6  UNL     1       5.455   6.618  10.359  1.00  0.00    -0.274 OA
HETATM   33  N1  UNL     1       5.220   7.013  12.608  1.00  0.00    -0.361 N 
HETATM   34  H34 UNL     1       4.599   6.891  13.397  1.00  0.00     0.162 HD
BRANCH  33  35
HETATM   35  C26 UNL     1       6.645   7.055  12.871  1.00  0.00     0.122 C 
BRANCH  35  36
HETATM   36  C27 UNL     1       7.001   8.080  13.946  1.00  0.00     0.020 C 
BRANCH  36  37
HETATM   37  C28 UNL     1       8.141   7.659  14.880  1.00  0.00     0.002 C 
BRANCH  37  38
HETATM   38  C29 UNL     1       9.328   8.628  14.973  1.00  0.00     0.009 C 
BRANCH  38  39
HETATM   39  C30 UNL     1      10.442   8.373  13.959  1.00  0.00     0.103 C 
BRANCH  39  40
HETATM   40  C31 UNL     1      11.531   9.431  13.975  1.00  0.00     0.217 C 
HETATM   41  O7  UNL     1      12.466   9.461  13.183  1.00  0.00    -0.274 OA
HETATM   42  N2  UNL     1      11.377  10.344  14.998  1.00  0.00    -0.361 N 
HETATM   43  H45 UNL     1      10.488  10.383  15.481  1.00  0.00     0.162 HD
BRANCH  42  44
HETATM   44  C32 UNL     1      12.273  11.477  15.144  1.00  0.00     0.127 C 
BRANCH  44  45
HETATM   45  C33 UNL     1      13.632  11.107  15.749  1.00  0.00     0.058 C 
BRANCH  45  46
HETATM   46  C34 UNL     1      14.745  12.028  15.301  1.00  0.00    -0.054 A 
HETATM   47  C35 UNL     1      16.045  11.853  15.806  1.00  0.00     0.010 A 
HETATM   48  C36 UNL     1      17.089  12.678  15.382  1.00  0.00     0.040 A 
HETATM   49  C37 UNL     1      16.828  13.676  14.457  1.00  0.00     0.098 A 
HETATM   50  C38 UNL     1      15.544  13.865  13.954  1.00  0.00     0.099 A 
HETATM   51  C39 UNL     1      14.497  13.047  14.366  1.00  0.00     0.046 A 
BRANCH  49  52
HETATM   52  O8  UNL     1      17.850  14.482  14.042  1.00  0.00    -0.358 OA
HETATM   53  H52 UNL     1      17.430  15.102  13.413  1.00  0.00     0.217 HD
ENDBRANCH  49  52
BRANCH  50  54
HETATM   54  O9  UNL     1      15.360  14.873  13.049  1.00  0.00    -0.358 OA
HETATM   55  H53 UNL     1      14.412  14.911  12.824  1.00  0.00     0.217 HD
ENDBRANCH  50  54
ENDBRANCH  45  46
ENDBRANCH  44  45
ENDBRANCH  42  44
ENDBRANCH  39  40
ENDBRANCH  38  39
ENDBRANCH  37  38
ENDBRANCH  36  37
ENDBRANCH  35  36
ENDBRANCH  33  35
ENDBRANCH  30  31
ENDBRANCH  29  30
ENDBRANCH   1  29
TORSDOF 19
ENDMDL
MODEL 2
REMARK minimizedAffinity -8.77612591
REMARK CNNscore 0.603289664
REMARK CNNaffinity 7.39097738
REMARK  19 active torsions:
REMARK  status: ('A' for Active; 'I' for Inactive)
REMARK    1  A    between atoms: C19_20  and  O2_21 
REMARK    2  A    between atoms: C19_20  and  C20_22 
REMARK    3  A    between atoms: C20_22  and  C21_24 
REMARK    4  A    between atoms: C21_24  and  O4_25 
REMARK    5  A    between atoms: O4_25  and  C22_26 
REMARK    6  A    between atoms: C22_26  and  C23_28 
REMARK    7  A    between atoms: C23_28  and  C24_29 
REMARK    8  A    between atoms: C24_29  and  C25_30 
REMARK       I    between atoms: C25_30  and  N1_32 
REMARK    9  A    between atoms: N1_32  and  C26_33 
REMARK   10  A    between atoms: C26_33  and  C27_34 
REMARK   11  A    between atoms: C27_34  and  C28_35 
REMARK   12  A    between atoms: C28_35  and  C29_36 
REMARK   13  A    between atoms: C29_36  and  C30_37 
REMARK   14  A    between atoms: C30_37  and  C31_38 
REMARK       I    between atoms: C31_38  and  N2_40 
REMARK   15  A    between atoms: N2_40  and  C32_41 
REMARK   16  A    between atoms: C32_41  and  C33_42 
REMARK   17  A    between atoms: C33_42  and  C34_43 
REMARK   18  A    between atoms: C37_46  and  O8_47 
REMARK   19  A    between atoms: C38_48  and  O9_49 
ROOT
HETATM    1  C22 UNL     1       1.654   6.494   9.976  1.00  0.00     0.259 C 
HETATM    2  O5  UNL     1       2.361   5.512   9.823  1.00  0.00    -0.265 OA
ENDROOT
BRANCH   1   3
HETATM    3  O4  UNL     1       0.329   6.452  10.304  1.00  0.00    -0.314 OA
BRANCH   3   4
HETATM    4  C21 UNL     1       0.068   6.474  11.700  1.00  0.00     0.260 C 
BRANCH   4   5
HETATM    5  C20 UNL     1      -1.289   5.989  12.223  1.00  0.00     0.185 C 
HETATM    6  O3  UNL     1      -1.802   4.978  11.731  1.00  0.00    -0.292 OA
BRANCH   5   7
HETATM    7  C19 UNL     1      -1.916   6.709  13.461  1.00  0.00     0.128 C 
HETATM    8  C14 UNL     1      -3.269   6.068  13.946  1.00  0.00    -0.002 C 
HETATM    9  C13 UNL     1      -3.623   6.528  15.386  1.00  0.00     0.013 C 
HETATM   10  C15 UNL     1      -3.199   4.530  13.910  1.00  0.00     0.019 C 
HETATM   11  C16 UNL     1      -4.293   6.643  12.943  1.00  0.00     0.002 C 
HETATM   12  C12 UNL     1      -5.072   6.247  15.775  1.00  0.00     0.007 C 
HETATM   13  C11 UNL     1      -6.088   6.899  14.819  1.00  0.00     0.002 C 
HETATM   14  C2  UNL     1      -7.606   6.630  15.230  1.00  0.00    -0.016 C 
HETATM   15  C10 UNL     1      -5.787   6.581  13.330  1.00  0.00    -0.004 C 
HETATM   16  C1  UNL     1      -7.789   5.407  16.162  1.00  0.00     0.020 C 
HETATM   17  C3  UNL     1      -8.103   7.904  15.977  1.00  0.00     0.022 C 
HETATM   18  C7  UNL     1      -8.488   6.369  14.005  1.00  0.00    -0.068 C 
HETATM   19  C4  UNL     1      -9.610   7.957  16.173  1.00  0.00     0.084 C 
HETATM   20  C5  UNL     1     -10.317   7.800  14.852  1.00  0.00     0.149 C 
HETATM   21  O1  UNL     1     -11.424   8.291  14.638  1.00  0.00    -0.293 OA
HETATM   22  C6  UNL     1      -9.691   6.942  13.819  1.00  0.00     0.053 C 
HETATM   23  C8  UNL     1      -7.975   5.385  12.975  1.00  0.00     0.035 C 
HETATM   24  C9  UNL     1      -6.451   5.258  12.938  1.00  0.00     0.010 C 
HETATM   25  C17 UNL     1      -3.821   8.099  12.745  1.00  0.00     0.009 C 
HETATM   26  C18 UNL     1      -2.316   8.130  13.021  1.00  0.00     0.047 C 
BRANCH   7  27
HETATM   27  O2  UNL     1      -1.006   6.832  14.547  1.00  0.00    -0.381 OA
HETATM   28  H27 UNL     1      -0.885   5.957  14.954  1.00  0.00     0.211 HD
ENDBRANCH   7  27
ENDBRANCH   5   7
ENDBRANCH   4   5
ENDBRANCH   3   4
ENDBRANCH   1   3
BRANCH   1  29
HETATM   29  C23 UNL     1       2.113   7.922   9.839  1.00  0.00     0.120 C 
BRANCH  29  30
HETATM   30  C24 UNL     1       3.415   7.998   9.056  1.00  0.00     0.112 C 
BRANCH  30  31
HETATM   31  C25 UNL     1       4.618   8.228   9.953  1.00  0.00     0.217 C 
HETATM   32  O6  UNL     1       4.972   9.336  10.337  1.00  0.00    -0.274 OA
HETATM   33  N1  UNL     1       5.234   7.055  10.339  1.00  0.00    -0.361 N 
HETATM   34  H34 UNL     1       5.005   6.207   9.838  1.00  0.00     0.162 HD
BRANCH  33  35
HETATM   35  C26 UNL     1       6.470   7.078  11.095  1.00  0.00     0.122 C 
BRANCH  35  36
HETATM   36  C27 UNL     1       6.228   6.960  12.598  1.00  0.00     0.020 C 
BRANCH  36  37
HETATM   37  C28 UNL     1       7.324   7.578  13.475  1.00  0.00     0.002 C 
BRANCH  37  38
HETATM   38  C29 UNL     1       6.843   8.518  14.589  1.00  0.00     0.009 C 
BRANCH  38  39
HETATM   39  C30 UNL     1       7.632   8.419  15.894  1.00  0.00     0.103 C 
BRANCH  39  40
HETATM   40  C31 UNL     1       7.631   9.705  16.702  1.00  0.00     0.217 C 
HETATM   41  O7  UNL     1       7.041   9.840  17.769  1.00  0.00    -0.274 OA
HETATM   42  N2  UNL     1       8.340  10.721  16.097  1.00  0.00    -0.361 N 
HETATM   43  H45 UNL     1       8.963  10.487  15.333  1.00  0.00     0.162 HD
BRANCH  42  44
HETATM   44  C32 UNL     1       8.521  12.008  16.742  1.00  0.00     0.127 C 
BRANCH  44  45
HETATM   45  C33 UNL     1       9.797  12.736  16.306  1.00  0.00     0.058 C 
BRANCH  45  46
HETATM   46  C34 UNL     1      10.912  12.629  17.323  1.00  0.00    -0.054 A 
HETATM   47  C35 UNL     1      11.953  13.572  17.323  1.00  0.00     0.010 A 
HETATM   48  C36 UNL     1      12.976  13.503  18.272  1.00  0.00     0.040 A 
HETATM   49  C37 UNL     1      12.952  12.489  19.215  1.00  0.00     0.098 A 
HETATM   50  C38 UNL     1      11.931  11.543  19.223  1.00  0.00     0.099 A 
HETATM   51  C39 UNL     1      10.906  11.605  18.284  1.00  0.00     0.046 A 
BRANCH  49  52
HETATM   52  O8  UNL     1      13.952  12.421  20.144  1.00  0.00    -0.358 OA
HETATM   53  H52 UNL     1      13.732  11.634  20.681  1.00  0.00     0.217 HD
ENDBRANCH  49  52
BRANCH  50  54
HETATM   54  O9  UNL     1      11.977  10.567  20.179  1.00  0.00    -0.358 OA
HETATM   55  H53 UNL     1      11.229   9.960  20.030  1.00  0.00     0.217 HD
ENDBRANCH  50  54
ENDBRANCH  45  46
ENDBRANCH  44  45
ENDBRANCH  42  44
ENDBRANCH  39  40
ENDBRANCH  38  39
ENDBRANCH  37  38
ENDBRANCH  36  37
ENDBRANCH  35  36
ENDBRANCH  33  35
ENDBRANCH  30  31
ENDBRANCH  29  30
ENDBRANCH   1  29
TORSDOF 19
ENDMDL
MODEL 3
REMARK minimizedAffinity -8.64789867
REMARK CNNscore 0.569486499
REMARK CNNaffinity 6.99145269
REMARK  19 active torsions:
REMARK  status: ('A' for Active; 'I' for Inactive)
REMARK    1  A    between atoms: C19_20  and  O2_21 
REMARK    2  A    between atoms: C19_20  and  C20_22 
REMARK    3  A    between atoms: C20_22  and  C21_24 
REMARK    4  A    between atoms: C21_24  and  O4_25 
REMARK    5  A    between atoms: O4_25  and  C22_26 
REMARK    6  A    between atoms: C22_26  and  C23_28 
REMARK    7  A    between atoms: C23_28  and  C24_29 
REMARK    8  A    between atoms: C24_29  and  C25_30 
REMARK       I    between atoms: C25_30  and  N1_32 
REMARK    9  A    between atoms: N1_32  and  C26_33 
REMARK   10  A    between atoms: C26_33  and  C27_34 
REMARK   11  A    between atoms: C27_34  and  C28_35 
REMARK   12  A    between atoms: C28_35  and  C29_36 
REMARK   13  A    between atoms: C29_36  and  C30_37 
REMARK   14  A    between atoms: C30_37  and  C31_38 
REMARK       I    between atoms: C31_38  and  N2_40 
REMARK   15  A    between atoms: N2_40  and  C32_41 
REMARK   16  A    between atoms: C32_41  and  C33_42 
REMARK   17  A    between atoms: C33_42  and  C34_43 
REMARK   18  A    between atoms: C37_46  and  O8_47 
REMARK   19  A    between atoms: C38_48  and  O9_49 
ROOT
HETATM    1  C22 UNL     1       2.147   6.347  10.429  1.00  0.00     0.259 C 
HETATM    2  O5  UNL     1       1.293   5.714   9.831  1.00  0.00    -0.265 OA
ENDROOT
BRANCH   1   3
HETATM    3  O4  UNL     1       1.893   7.413  11.245  1.00  0.00    -0.314 OA
BRANCH   3   4
HETATM    4  C21 UNL     1       0.548   7.502  11.692  1.00  0.00     0.260 C 
BRANCH   4   5
HETATM    5  C20 UNL     1       0.173   6.949  13.073  1.00  0.00     0.185 C 
HETATM    6  O3  UNL     1       0.771   5.961  13.513  1.00  0.00    -0.292 OA
BRANCH   5   7
HETATM    7  C19 UNL     1      -0.859   7.739  13.941  1.00  0.00     0.128 C 
HETATM    8  C14 UNL     1      -2.102   6.880  14.381  1.00  0.00    -0.002 C 
HETATM    9  C13 UNL     1      -2.861   7.553  15.557  1.00  0.00     0.013 C 
HETATM   10  C15 UNL     1      -1.675   5.461  14.802  1.00  0.00     0.019 C 
HETATM   11  C16 UNL     1      -2.983   6.887  13.113  1.00  0.00     0.002 C 
HETATM   12  C12 UNL     1      -4.257   6.979  15.788  1.00  0.00     0.007 C 
HETATM   13  C11 UNL     1      -5.158   7.071  14.543  1.00  0.00     0.002 C 
HETATM   14  C2  UNL     1      -6.626   6.494  14.781  1.00  0.00    -0.016 C 
HETATM   15  C10 UNL     1      -4.471   6.503  13.272  1.00  0.00    -0.004 C 
HETATM   16  C1  UNL     1      -6.725   5.529  15.988  1.00  0.00     0.020 C 
HETATM   17  C3  UNL     1      -7.554   7.718  15.045  1.00  0.00     0.022 C 
HETATM   18  C7  UNL     1      -7.132   5.711  13.566  1.00  0.00    -0.068 C 
HETATM   19  C4  UNL     1      -9.039   7.391  14.988  1.00  0.00     0.084 C 
HETATM   20  C5  UNL     1      -9.381   6.731  13.678  1.00  0.00     0.149 C 
HETATM   21  O1  UNL     1     -10.495   6.826  13.167  1.00  0.00    -0.293 OA
HETATM   22  C6  UNL     1      -8.363   5.862  13.043  1.00  0.00     0.053 C 
HETATM   23  C8  UNL     1      -6.193   4.693  12.954  1.00  0.00     0.035 C 
HETATM   24  C9  UNL     1      -4.711   4.994  13.184  1.00  0.00     0.010 C 
HETATM   25  C17 UNL     1      -2.826   8.325  12.576  1.00  0.00     0.009 C 
HETATM   26  C18 UNL     1      -1.467   8.842  13.054  1.00  0.00     0.047 C 
BRANCH   7  27
HETATM   27  O2  UNL     1      -0.264   8.368  15.069  1.00  0.00    -0.381 OA
HETATM   28  H27 UNL     1      -0.039   7.686  15.725  1.00  0.00     0.211 HD
ENDBRANCH   7  27
ENDBRANCH   5   7
ENDBRANCH   4   5
ENDBRANCH   3   4
ENDBRANCH   1   3
BRANCH   1  29
HETATM   29  C23 UNL     1       3.626   6.066  10.382  1.00  0.00     0.120 C 
BRANCH  29  30
HETATM   30  C24 UNL     1       4.426   7.342  10.604  1.00  0.00     0.112 C 
BRANCH  30  31
HETATM   31  C25 UNL     1       5.805   7.069  11.175  1.00  0.00     0.217 C 
HETATM   32  O6  UNL     1       6.793   6.860  10.483  1.00  0.00    -0.274 OA
HETATM   33  N1  UNL     1       5.842   7.141  12.553  1.00  0.00    -0.361 N 
HETATM   34  H34 UNL     1       4.964   7.131  13.056  1.00  0.00     0.162 HD
BRANCH  33  35
HETATM   35  C26 UNL     1       7.042   6.791  13.285  1.00  0.00     0.122 C 
BRANCH  35  36
HETATM   36  C27 UNL     1       7.758   8.020  13.841  1.00  0.00     0.020 C 
BRANCH  36  37
HETATM   37  C28 UNL     1       8.965   7.711  14.733  1.00  0.00     0.002 C 
BRANCH  37  38
HETATM   38  C29 UNL     1      10.324   8.213  14.225  1.00  0.00     0.009 C 
BRANCH  38  39
HETATM   39  C30 UNL     1      10.511   9.728  14.294  1.00  0.00     0.103 C 
BRANCH  39  40
HETATM   40  C31 UNL     1      11.854  10.198  13.762  1.00  0.00     0.217 C 
HETATM   41  O7  UNL     1      12.105  10.337  12.570  1.00  0.00    -0.274 OA
HETATM   42  N2  UNL     1      12.778  10.423  14.761  1.00  0.00    -0.361 N 
HETATM   43  H45 UNL     1      12.450  10.485  15.717  1.00  0.00     0.162 HD
BRANCH  42  44
HETATM   44  C32 UNL     1      14.100  10.945  14.467  1.00  0.00     0.127 C 
BRANCH  44  45
HETATM   45  C33 UNL     1      14.948  11.199  15.718  1.00  0.00     0.058 C 
BRANCH  45  46
HETATM   46  C34 UNL     1      14.286  12.146  16.695  1.00  0.00    -0.054 A 
HETATM   47  C35 UNL     1      13.894  13.428  16.271  1.00  0.00     0.010 A 
HETATM   48  C36 UNL     1      13.257  14.304  17.153  1.00  0.00     0.040 A 
HETATM   49  C37 UNL     1      13.017  13.896  18.454  1.00  0.00     0.098 A 
HETATM   50  C38 UNL     1      13.406  12.632  18.890  1.00  0.00     0.099 A 
HETATM   51  C39 UNL     1      14.038  11.749  18.019  1.00  0.00     0.046 A 
BRANCH  49  52
HETATM   52  O8  UNL     1      12.394  14.752  19.317  1.00  0.00    -0.358 OA
HETATM   53  H52 UNL     1      12.347  14.258  20.159  1.00  0.00     0.217 HD
ENDBRANCH  49  52
BRANCH  50  54
HETATM   54  O9  UNL     1      13.143  12.299  20.190  1.00  0.00    -0.358 OA
HETATM   55  H53 UNL     1      13.509  11.412  20.357  1.00  0.00     0.217 HD
ENDBRANCH  50  54
ENDBRANCH  45  46
ENDBRANCH  44  45
ENDBRANCH  42  44
ENDBRANCH  39  40
ENDBRANCH  38  39
ENDBRANCH  37  38
ENDBRANCH  36  37
ENDBRANCH  35  36
ENDBRANCH  33  35
ENDBRANCH  30  31
ENDBRANCH  29  30
ENDBRANCH   1  29
TORSDOF 19
ENDMDL
MODEL 4
REMARK minimizedAffinity -9.12351799
REMARK CNNscore 0.523690104
REMARK CNNaffinity 7.44275665
REMARK  19 active torsions:
REMARK  status: ('A' for Active; 'I' for Inactive)
REMARK    1  A    between atoms: C19_20  and  O2_21 
REMARK    2  A    between atoms: C19_20  and  C20_22 
REMARK    3  A    between atoms: C20_22  and  C21_24 
REMARK    4  A    between atoms: C21_24  and  O4_25 
REMARK    5  A    between atoms: O4_25  and  C22_26 
REMARK    6  A    between atoms: C22_26  and  C23_28 
REMARK    7  A    between atoms: C23_28  and  C24_29 
REMARK    8  A    between atoms: C24_29  and  C25_30 
REMARK       I    between atoms: C25_30  and  N1_32 
REMARK    9  A    between atoms: N1_32  and  C26_33 
REMARK   10  A    between atoms: C26_33  and  C27_34 
REMARK   11  A    between atoms: C27_34  and  C28_35 
REMARK   12  A    between atoms: C28_35  and  C29_36 
REMARK   13  A    between atoms: C29_36  and  C30_37 
REMARK   14  A    between atoms: C30_37  and  C31_38 
REMARK       I    between atoms: C31_38  and  N2_40 
REMARK   15  A    between atoms: N2_40  and  C32_41 
REMARK   16  A    between atoms: C32_41  and  C33_42 
REMARK   17  A    between atoms: C33_42  and  C34_43 
REMARK   18  A    between atoms: C37_46  and  O8_47 
REMARK   19  A    between atoms: C38_48  and  O9_49 
ROOT
HETATM    1  C22 UNL     1       3.410   8.309  11.885  1.00  0.00     0.259 C 
HETATM    2  O5  UNL     1       3.414   8.096  10.684  1.00  0.00    -0.265 OA
ENDROOT
BRANCH   1   3
HETATM    3  O4  UNL     1       2.301   8.254  12.679  1.00  0.00    -0.314 OA
BRANCH   3   4
HETATM    4  C21 UNL     1       1.120   7.834  12.010  1.00  0.00     0.260 C 
BRANCH   4   5
HETATM    5  C20 UNL     1       0.043   7.068  12.788  1.00  0.00     0.185 C 
HETATM    6  O3  UNL     1       0.020   5.833  12.735  1.00  0.00    -0.292 OA
BRANCH   5   7
HETATM    7  C19 UNL     1      -0.906   7.867  13.738  1.00  0.00     0.128 C 
HETATM    8  C14 UNL     1      -2.126   7.025  14.266  1.00  0.00    -0.002 C 
HETATM    9  C13 UNL     1      -2.781   7.700  15.501  1.00  0.00     0.013 C 
HETATM   10  C15 UNL     1      -1.692   5.596  14.644  1.00  0.00     0.019 C 
HETATM   11  C16 UNL     1      -3.101   7.057  13.069  1.00  0.00     0.002 C 
HETATM   12  C12 UNL     1      -4.164   7.147  15.835  1.00  0.00     0.007 C 
HETATM   13  C11 UNL     1      -5.157   7.264  14.663  1.00  0.00     0.002 C 
HETATM   14  C2  UNL     1      -6.612   6.710  15.008  1.00  0.00    -0.016 C 
HETATM   15  C10 UNL     1      -4.579   6.696  13.339  1.00  0.00    -0.004 C 
HETATM   16  C1  UNL     1      -6.635   5.736  16.213  1.00  0.00     0.020 C 
HETATM   17  C3  UNL     1      -7.496   7.946  15.351  1.00  0.00     0.022 C 
HETATM   18  C7  UNL     1      -7.222   5.945  13.830  1.00  0.00    -0.068 C 
HETATM   19  C4  UNL     1      -8.986   7.644  15.406  1.00  0.00     0.084 C 
HETATM   20  C5  UNL     1      -9.439   7.000  14.122  1.00  0.00     0.149 C 
HETATM   21  O1  UNL     1     -10.587   7.118  13.698  1.00  0.00    -0.293 OA
HETATM   22  C6  UNL     1      -8.487   6.120  13.405  1.00  0.00     0.053 C 
HETATM   23  C8  UNL     1      -6.350   4.917  13.141  1.00  0.00     0.035 C 
HETATM   24  C9  UNL     1      -4.850   5.191  13.259  1.00  0.00     0.010 C 
HETATM   25  C17 UNL     1      -2.961   8.497  12.532  1.00  0.00     0.009 C 
HETATM   26  C18 UNL     1      -1.561   8.987  12.908  1.00  0.00     0.047 C 
BRANCH   7  27
HETATM   27  O2  UNL     1      -0.216   8.478  14.821  1.00  0.00    -0.381 OA
HETATM   28  H27 UNL     1       0.047   7.786  15.453  1.00  0.00     0.211 HD
ENDBRANCH   7  27
ENDBRANCH   5   7
ENDBRANCH   4   5
ENDBRANCH   3   4
ENDBRANCH   1   3
BRANCH   1  29
HETATM   29  C23 UNL     1       4.623   8.660  12.706  1.00  0.00     0.120 C 
BRANCH  29  30
HETATM   30  C24 UNL     1       5.330   7.402  13.191  1.00  0.00     0.112 C 
BRANCH  30  31
HETATM   31  C25 UNL     1       6.832   7.587  13.299  1.00  0.00     0.217 C 
HETATM   32  O6  UNL     1       7.566   7.736  12.330  1.00  0.00    -0.274 OA
HETATM   33  N1  UNL     1       7.277   7.631  14.605  1.00  0.00    -0.361 N 
HETATM   34  H34 UNL     1       6.651   7.316  15.335  1.00  0.00     0.162 HD
BRANCH  33  35
HETATM   35  C26 UNL     1       8.694   7.679  14.908  1.00  0.00     0.122 C 
BRANCH  35  36
HETATM   36  C27 UNL     1       8.965   8.231  16.306  1.00  0.00     0.020 C 
BRANCH  36  37
HETATM   37  C28 UNL     1       8.595   9.707  16.495  1.00  0.00     0.002 C 
BRANCH  37  38
HETATM   38  C29 UNL     1       8.434  10.179  17.946  1.00  0.00     0.009 C 
BRANCH  38  39
HETATM   39  C30 UNL     1       7.285  11.160  18.176  1.00  0.00     0.103 C 
BRANCH  39  40
HETATM   40  C31 UNL     1       7.352  11.868  19.517  1.00  0.00     0.217 C 
HETATM   41  O7  UNL     1       8.399  12.158  20.086  1.00  0.00    -0.274 OA
HETATM   42  N2  UNL     1       6.106  12.127  20.050  1.00  0.00    -0.361 N 
HETATM   43  H45 UNL     1       5.297  12.048  19.447  1.00  0.00     0.162 HD
BRANCH  42  44
HETATM   44  C32 UNL     1       5.951  12.861  21.292  1.00  0.00     0.127 C 
BRANCH  44  45
HETATM   45  C33 UNL     1       5.805  11.958  22.522  1.00  0.00     0.058 C 
BRANCH  45  46
HETATM   46  C34 UNL     1       4.694  10.942  22.377  1.00  0.00    -0.054 A 
HETATM   47  C35 UNL     1       4.276  10.196  23.492  1.00  0.00     0.010 A 
HETATM   48  C36 UNL     1       3.234   9.274  23.381  1.00  0.00     0.040 A 
HETATM   49  C37 UNL     1       2.615   9.100  22.154  1.00  0.00     0.098 A 
HETATM   50  C38 UNL     1       3.023   9.826  21.039  1.00  0.00     0.099 A 
HETATM   51  C39 UNL     1       4.058  10.750  21.139  1.00  0.00     0.046 A 
BRANCH  49  52
HETATM   52  O8  UNL     1       1.595   8.198  22.046  1.00  0.00    -0.358 OA
HETATM   53  H52 UNL     1       1.331   8.241  21.105  1.00  0.00     0.217 HD
ENDBRANCH  49  52
BRANCH  50  54
HETATM   54  O9  UNL     1       2.371   9.597  19.859  1.00  0.00    -0.358 OA
HETATM   55  H53 UNL     1       2.792  10.140  19.169  1.00  0.00     0.217 HD
ENDBRANCH  50  54
ENDBRANCH  45  46
ENDBRANCH  44  45
ENDBRANCH  42  44
ENDBRANCH  39  40
ENDBRANCH  38  39
ENDBRANCH  37  38
ENDBRANCH  36  37
ENDBRANCH  35  36
ENDBRANCH  33  35
ENDBRANCH  30  31
ENDBRANCH  29  30
ENDBRANCH   1  29
TORSDOF 19
ENDMDL
MODEL 5
REMARK minimizedAffinity -8.39853191
REMARK CNNscore 0.49350667
REMARK CNNaffinity 7.162251
REMARK  19 active torsions:
REMARK  status: ('A' for Active; 'I' for Inactive)
REMARK    1  A    between atoms: C19_20  and  O2_21 
REMARK    2  A    between atoms: C19_20  and  C20_22 
REMARK    3  A    between atoms: C20_22  and  C21_24 
REMARK    4  A    between atoms: C21_24  and  O4_25 
REMARK    5  A    between atoms: O4_25  and  C22_26 
REMARK    6  A    between atoms: C22_26  and  C23_28 
REMARK    7  A    between atoms: C23_28  and  C24_29 
REMARK    8  A    between atoms: C24_29  and  C25_30 
REMARK       I    between atoms: C25_30  and  N1_32 
REMARK    9  A    between atoms: N1_32  and  C26_33 
REMARK   10  A    between atoms: C26_33  and  C27_34 
REMARK   11  A    between atoms: C27_34  and  C28_35 
REMARK   12  A    between atoms: C28_35  and  C29_36 
REMARK   13  A    between atoms: C29_36  and  C30_37 
REMARK   14  A    between atoms: C30_37  and  C31_38 
REMARK       I    between atoms: C31_38  and  N2_40 
REMARK   15  A    between atoms: N2_40  and  C32_41 
REMARK   16  A    between atoms: C32_41  and  C33_42 
REMARK   17  A    between atoms: C33_42  and  C34_43 
REMARK   18  A    between atoms: C37_46  and  O8_47 
REMARK   19  A    between atoms: C38_48  and  O9_49 
ROOT
HETATM    1  C22 UNL     1      -0.463   4.588  11.509  1.00  0.00     0.259 C 
HETATM    2  O5  UNL     1      -1.099   4.016  10.640  1.00  0.00    -0.265 OA
ENDROOT
BRANCH   1   3
HETATM    3  O4  UNL     1      -0.967   4.956  12.724  1.00  0.00    -0.314 OA
BRANCH   3   4
HETATM    4  C21 UNL     1      -1.605   6.225  12.735  1.00  0.00     0.260 C 
BRANCH   4   5
HETATM    5  C20 UNL     1      -1.192   7.269  13.779  1.00  0.00     0.185 C 
HETATM    6  O3  UNL     1      -0.003   7.363  14.106  1.00  0.00    -0.292 OA
BRANCH   5   7
HETATM    7  C19 UNL     1      -2.267   8.278  14.296  1.00  0.00     0.128 C 
HETATM    8  C14 UNL     1      -3.574   7.588  14.836  1.00  0.00    -0.002 C 
HETATM    9  C13 UNL     1      -4.409   8.567  15.704  1.00  0.00     0.013 C 
HETATM   10  C15 UNL     1      -3.237   6.337  15.669  1.00  0.00     0.019 C 
HETATM   11  C16 UNL     1      -4.339   7.253  13.537  1.00  0.00     0.002 C 
HETATM   12  C12 UNL     1      -5.839   8.094  15.952  1.00  0.00     0.007 C 
HETATM   13  C11 UNL     1      -6.623   7.847  14.650  1.00  0.00     0.002 C 
HETATM   14  C2  UNL     1      -8.127   7.374  14.897  1.00  0.00    -0.016 C 
HETATM   15  C10 UNL     1      -5.848   6.943  13.654  1.00  0.00    -0.004 C 
HETATM   16  C1  UNL     1      -8.366   6.781  16.308  1.00  0.00     0.020 C 
HETATM   17  C3  UNL     1      -9.030   8.632  14.727  1.00  0.00     0.022 C 
HETATM   18  C7  UNL     1      -8.551   6.291  13.902  1.00  0.00    -0.068 C 
HETATM   19  C4  UNL     1     -10.514   8.318  14.622  1.00  0.00     0.084 C 
HETATM   20  C5  UNL     1     -10.764   7.324  13.517  1.00  0.00     0.149 C 
HETATM   21  O1  UNL     1     -11.825   7.286  12.897  1.00  0.00    -0.293 OA
HETATM   22  C6  UNL     1      -9.726   6.303  13.244  1.00  0.00     0.053 C 
HETATM   23  C8  UNL     1      -7.599   5.133  13.684  1.00  0.00     0.035 C 
HETATM   24  C9  UNL     1      -6.133   5.471  13.962  1.00  0.00     0.010 C 
HETATM   25  C17 UNL     1      -4.084   8.485  12.643  1.00  0.00     0.009 C 
HETATM   26  C18 UNL     1      -2.755   9.099  13.088  1.00  0.00     0.047 C 
BRANCH   7  27
HETATM   27  O2  UNL     1      -1.751   9.189  15.259  1.00  0.00    -0.381 OA
HETATM   28  H27 UNL     1      -1.610   8.713  16.095  1.00  0.00     0.211 HD
ENDBRANCH   7  27
ENDBRANCH   5   7
ENDBRANCH   4   5
ENDBRANCH   3   4
ENDBRANCH   1   3
BRANCH   1  29
HETATM   29  C23 UNL     1       0.987   4.981  11.405  1.00  0.00     0.120 C 
BRANCH  29  30
HETATM   30  C24 UNL     1       1.141   6.270  10.609  1.00  0.00     0.112 C 
BRANCH  30  31
HETATM   31  C25 UNL     1       2.164   7.209  11.221  1.00  0.00     0.217 C 
HETATM   32  O6  UNL     1       1.995   8.418  11.322  1.00  0.00    -0.274 OA
HETATM   33  N1  UNL     1       3.277   6.553  11.706  1.00  0.00    -0.361 N 
HETATM   34  H34 UNL     1       3.429   5.594  11.421  1.00  0.00     0.162 HD
BRANCH  33  35
HETATM   35  C26 UNL     1       4.415   7.293  12.214  1.00  0.00     0.122 C 
BRANCH  35  36
HETATM   36  C27 UNL     1       5.500   7.479  11.156  1.00  0.00     0.020 C 
BRANCH  36  37
HETATM   37  C28 UNL     1       5.735   8.933  10.729  1.00  0.00     0.002 C 
BRANCH  37  38
HETATM   38  C29 UNL     1       6.881   9.666  11.439  1.00  0.00     0.009 C 
BRANCH  38  39
HETATM   39  C30 UNL     1       7.242   9.107  12.815  1.00  0.00     0.103 C 
BRANCH  39  40
HETATM   40  C31 UNL     1       7.976  10.099  13.700  1.00  0.00     0.217 C 
HETATM   41  O7  UNL     1       8.525  11.111  13.280  1.00  0.00    -0.274 OA
HETATM   42  N2  UNL     1       7.988   9.727  15.028  1.00  0.00    -0.361 N 
HETATM   43  H45 UNL     1       7.353   9.000  15.332  1.00  0.00     0.162 HD
BRANCH  42  44
HETATM   44  C32 UNL     1       8.577  10.576  16.047  1.00  0.00     0.127 C 
BRANCH  44  45
HETATM   45  C33 UNL     1       9.271   9.794  17.168  1.00  0.00     0.058 C 
BRANCH  45  46
HETATM   46  C34 UNL     1       9.581  10.649  18.376  1.00  0.00    -0.054 A 
HETATM   47  C35 UNL     1       8.534  11.234  19.108  1.00  0.00     0.010 A 
HETATM   48  C36 UNL     1       8.802  12.004  20.242  1.00  0.00     0.040 A 
HETATM   49  C37 UNL     1      10.117  12.187  20.638  1.00  0.00     0.098 A 
HETATM   50  C38 UNL     1      11.165  11.619  19.919  1.00  0.00     0.099 A 
HETATM   51  C39 UNL     1      10.909  10.847  18.790  1.00  0.00     0.046 A 
BRANCH  49  52
HETATM   52  O8  UNL     1      10.380  12.939  21.747  1.00  0.00    -0.358 OA
HETATM   53  H52 UNL     1      11.355  12.935  21.819  1.00  0.00     0.217 HD
ENDBRANCH  49  52
BRANCH  50  54
HETATM   54  O9  UNL     1      12.438  11.846  20.364  1.00  0.00    -0.358 OA
HETATM   55  H53 UNL     1      13.057  11.427  19.741  1.00  0.00     0.217 HD
ENDBRANCH  50  54
ENDBRANCH  45  46
ENDBRANCH  44  45
ENDBRANCH  42  44
ENDBRANCH  39  40
ENDBRANCH  38  39
ENDBRANCH  37  38
ENDBRANCH  36  37
ENDBRANCH  35  36
ENDBRANCH  33  35
ENDBRANCH  30  31
ENDBRANCH  29  30
ENDBRANCH   1  29
TORSDOF 19
ENDMDL
MODEL 6
REMARK minimizedAffinity -8.72580814
REMARK CNNscore 0.40282926
REMARK CNNaffinity 6.9062295
REMARK  19 active torsions:
REMARK  status: ('A' for Active; 'I' for Inactive)
REMARK    1  A    between atoms: C19_20  and  O2_21 
REMARK    2  A    between atoms: C19_20  and  C20_22 
REMARK    3  A    between atoms: C20_22  and  C21_24 
REMARK    4  A    between atoms: C21_24  and  O4_25 
REMARK    5  A    between atoms: O4_25  and  C22_26 
REMARK    6  A    between atoms: C22_26  and  C23_28 
REMARK    7  A    between atoms: C23_28  and  C24_29 
REMARK    8  A    between atoms: C24_29  and  C25_30 
REMARK       I    between atoms: C25_30  and  N1_32 
REMARK    9  A    between atoms: N1_32  and  C26_33 
REMARK   10  A    between atoms: C26_33  and  C27_34 
REMARK   11  A    between atoms: C27_34  and  C28_35 
REMARK   12  A    between atoms: C28_35  and  C29_36 
REMARK   13  A    between atoms: C29_36  and  C30_37 
REMARK   14  A    between atoms: C30_37  and  C31_38 
REMARK       I    between atoms: C31_38  and  N2_40 
REMARK   15  A    between atoms: N2_40  and  C32_41 
REMARK   16  A    between atoms: C32_41  and  C33_42 
REMARK   17  A    between atoms: C33_42  and  C34_43 
REMARK   18  A    between atoms: C37_46  and  O8_47 
REMARK   19  A    between atoms: C38_48  and  O9_49 
ROOT
HETATM    1  C22 UNL     1       1.169   7.663  10.282  1.00  0.00     0.259 C 
HETATM    2  O5  UNL     1       0.755   8.776  10.003  1.00  0.00    -0.265 OA
ENDROOT
BRANCH   1   3
HETATM    3  O4  UNL     1       0.404   6.660  10.805  1.00  0.00    -0.314 OA
BRANCH   3   4
HETATM    4  C21 UNL     1      -0.650   7.103  11.647  1.00  0.00     0.260 C 
BRANCH   4   5
HETATM    5  C20 UNL     1      -0.554   6.877  13.161  1.00  0.00     0.185 C 
HETATM    6  O3  UNL     1       0.393   6.227  13.618  1.00  0.00    -0.292 OA
BRANCH   5   7
HETATM    7  C19 UNL     1      -1.581   7.598  14.093  1.00  0.00     0.128 C 
HETATM    8  C14 UNL     1      -2.845   6.726  14.434  1.00  0.00    -0.002 C 
HETATM    9  C13 UNL     1      -3.605   7.294  15.662  1.00  0.00     0.013 C 
HETATM   10  C15 UNL     1      -2.451   5.264  14.716  1.00  0.00     0.019 C 
HETATM   11  C16 UNL     1      -3.711   6.876  13.163  1.00  0.00     0.002 C 
HETATM   12  C12 UNL     1      -5.014   6.729  15.822  1.00  0.00     0.007 C 
HETATM   13  C11 UNL     1      -5.899   6.962  14.583  1.00  0.00     0.002 C 
HETATM   14  C2  UNL     1      -7.381   6.394  14.748  1.00  0.00    -0.016 C 
HETATM   15  C10 UNL     1      -5.208   6.509  13.269  1.00  0.00    -0.004 C 
HETATM   16  C1  UNL     1      -7.512   5.317  15.852  1.00  0.00     0.020 C 
HETATM   17  C3  UNL     1      -8.288   7.605  15.123  1.00  0.00     0.022 C 
HETATM   18  C7  UNL     1      -7.887   5.746  13.456  1.00  0.00    -0.068 C 
HETATM   19  C4  UNL     1      -9.777   7.316  15.020  1.00  0.00     0.084 C 
HETATM   20  C5  UNL     1     -10.117   6.795  13.647  1.00  0.00     0.149 C 
HETATM   21  O1  UNL     1     -11.223   6.964  13.137  1.00  0.00    -0.293 OA
HETATM   22  C6  UNL     1      -9.109   5.973  12.939  1.00  0.00     0.053 C 
HETATM   23  C8  UNL     1      -6.961   4.775  12.756  1.00  0.00     0.035 C 
HETATM   24  C9  UNL     1      -5.475   5.021  13.029  1.00  0.00     0.010 C 
HETATM   25  C17 UNL     1      -3.519   8.357  12.774  1.00  0.00     0.009 C 
HETATM   26  C18 UNL     1      -2.157   8.796  13.315  1.00  0.00     0.047 C 
BRANCH   7  27
HETATM   27  O2  UNL     1      -0.987   8.101  15.284  1.00  0.00    -0.381 OA
HETATM   28  H27 UNL     1      -0.783   7.352  15.871  1.00  0.00     0.211 HD
ENDBRANCH   7  27
ENDBRANCH   5   7
ENDBRANCH   4   5
ENDBRANCH   3   4
ENDBRANCH   1   3
BRANCH   1  29
HETATM   29  C23 UNL     1       2.588   7.194  10.094  1.00  0.00     0.120 C 
BRANCH  29  30
HETATM   30  C24 UNL     1       3.208   6.800  11.426  1.00  0.00     0.112 C 
BRANCH  30  31
HETATM   31  C25 UNL     1       4.724   6.759  11.370  1.00  0.00     0.217 C 
HETATM   32  O6  UNL     1       5.355   6.511  10.351  1.00  0.00    -0.274 OA
HETATM   33  N1  UNL     1       5.317   7.090  12.571  1.00  0.00    -0.361 N 
HETATM   34  H34 UNL     1       4.741   7.098  13.403  1.00  0.00     0.162 HD
BRANCH  33  35
HETATM   35  C26 UNL     1       6.752   6.988  12.747  1.00  0.00     0.122 C 
BRANCH  35  36
HETATM   36  C27 UNL     1       7.293   8.052  13.699  1.00  0.00     0.020 C 
BRANCH  36  37
HETATM   37  C28 UNL     1       8.499   7.610  14.537  1.00  0.00     0.002 C 
BRANCH  37  38
HETATM   38  C29 UNL     1       9.803   8.383  14.300  1.00  0.00     0.009 C 
BRANCH  38  39
HETATM   39  C30 UNL     1       9.623   9.762  13.667  1.00  0.00     0.103 C 
BRANCH  39  40
HETATM   40  C31 UNL     1      10.913  10.359  13.135  1.00  0.00     0.217 C 
HETATM   41  O7  UNL     1      12.029   9.949  13.434  1.00  0.00    -0.274 OA
HETATM   42  N2  UNL     1      10.703  11.436  12.299  1.00  0.00    -0.361 N 
HETATM   43  H45 UNL     1       9.770  11.592  11.938  1.00  0.00     0.162 HD
BRANCH  42  44
HETATM   44  C32 UNL     1      11.804  12.103  11.630  1.00  0.00     0.127 C 
BRANCH  44  45
HETATM   45  C33 UNL     1      12.306  11.357  10.388  1.00  0.00     0.058 C 
BRANCH  45  46
HETATM   46  C34 UNL     1      11.642  11.826   9.113  1.00  0.00    -0.054 A 
HETATM   47  C35 UNL     1      11.226  13.163   8.990  1.00  0.00     0.010 A 
HETATM   48  C36 UNL     1      10.636  13.619   7.809  1.00  0.00     0.040 A 
HETATM   49  C37 UNL     1      10.463  12.735   6.757  1.00  0.00     0.098 A 
HETATM   50  C38 UNL     1      10.864  11.406   6.866  1.00  0.00     0.099 A 
HETATM   51  C39 UNL     1      11.456  10.943   8.036  1.00  0.00     0.046 A 
BRANCH  49  52
HETATM   52  O8  UNL     1       9.887  13.181   5.601  1.00  0.00    -0.358 OA
HETATM   53  H52 UNL     1       9.861  12.393   5.022  1.00  0.00     0.217 HD
ENDBRANCH  49  52
BRANCH  50  54
HETATM   54  O9  UNL     1      10.656  10.590   5.789  1.00  0.00    -0.358 OA
HETATM   55  H53 UNL     1      10.944   9.691   6.030  1.00  0.00     0.217 HD
ENDBRANCH  50  54
ENDBRANCH  45  46
ENDBRANCH  44  45
ENDBRANCH  42  44
ENDBRANCH  39  40
ENDBRANCH  38  39
ENDBRANCH  37  38
ENDBRANCH  36  37
ENDBRANCH  35  36
ENDBRANCH  33  35
ENDBRANCH  30  31
ENDBRANCH  29  30
ENDBRANCH   1  29
TORSDOF 19
ENDMDL
MODEL 7
REMARK minimizedAffinity -9.18948746
REMARK CNNscore 0.348849952
REMARK CNNaffinity 7.69183111
REMARK  19 active torsions:
REMARK  status: ('A' for Active; 'I' for Inactive)
REMARK    1  A    between atoms: C19_20  and  O2_21 
REMARK    2  A    between atoms: C19_20  and  C20_22 
REMARK    3  A    between atoms: C20_22  and  C21_24 
REMARK    4  A    between atoms: C21_24  and  O4_25 
REMARK    5  A    between atoms: O4_25  and  C22_26 
REMARK    6  A    between atoms: C22_26  and  C23_28 
REMARK    7  A    between atoms: C23_28  and  C24_29 
REMARK    8  A    between atoms: C24_29  and  C25_30 
REMARK       I    between atoms: C25_30  and  N1_32 
REMARK    9  A    between atoms: N1_32  and  C26_33 
REMARK   10  A    between atoms: C26_33  and  C27_34 
REMARK   11  A    between atoms: C27_34  and  C28_35 
REMARK   12  A    between atoms: C28_35  and  C29_36 
REMARK   13  A    between atoms: C29_36  and  C30_37 
REMARK   14  A    between atoms: C30_37  and  C31_38 
REMARK       I    between atoms: C31_38  and  N2_40 
REMARK   15  A    between atoms: N2_40  and  C32_41 
REMARK   16  A    between atoms: C32_41  and  C33_42 
REMARK   17  A    between atoms: C33_42  and  C34_43 
REMARK   18  A    between atoms: C37_46  and  O8_47 
REMARK   19  A    between atoms: C38_48  and  O9_49 
ROOT
HETATM    1  C22 UNL     1      -5.427   8.971  14.877  1.00  0.00     0.259 C 
HETATM    2  O5  UNL     1      -5.209   9.614  15.891  1.00  0.00    -0.265 OA
ENDROOT
BRANCH   1   3
HETATM    3  O4  UNL     1      -4.501   8.720  13.904  1.00  0.00    -0.314 OA
BRANCH   3   4
HETATM    4  C21 UNL     1      -3.574   7.694  14.227  1.00  0.00     0.260 C 
BRANCH   4   5
HETATM    5  C20 UNL     1      -2.165   8.070  14.701  1.00  0.00     0.185 C 
HETATM    6  O3  UNL     1      -1.988   9.147  15.281  1.00  0.00    -0.292 OA
BRANCH   5   7
HETATM    7  C19 UNL     1      -1.020   7.015  14.561  1.00  0.00     0.128 C 
HETATM    8  C14 UNL     1       0.089   7.422  13.522  1.00  0.00    -0.002 C 
HETATM    9  C13 UNL     1       1.380   6.581  13.722  1.00  0.00     0.013 C 
HETATM   10  C15 UNL     1       0.438   8.917  13.639  1.00  0.00     0.019 C 
HETATM   11  C16 UNL     1      -0.567   7.065  12.171  1.00  0.00     0.002 C 
HETATM   12  C12 UNL     1       2.346   6.660  12.542  1.00  0.00     0.007 C 
HETATM   13  C11 UNL     1       1.707   6.217  11.213  1.00  0.00     0.002 C 
HETATM   14  C2  UNL     1       2.715   6.274   9.977  1.00  0.00    -0.016 C 
HETATM   15  C10 UNL     1       0.356   6.930  10.939  1.00  0.00    -0.004 C 
HETATM   16  C1  UNL     1       3.935   7.198  10.214  1.00  0.00     0.020 C 
HETATM   17  C3  UNL     1       3.229   4.821   9.747  1.00  0.00     0.022 C 
HETATM   18  C7  UNL     1       2.029   6.789   8.709  1.00  0.00    -0.068 C 
HETATM   19  C4  UNL     1       3.957   4.625   8.426  1.00  0.00     0.084 C 
HETATM   20  C5  UNL     1       3.092   5.076   7.278  1.00  0.00     0.149 C 
HETATM   21  O1  UNL     1       3.188   4.589   6.153  1.00  0.00    -0.293 OA
HETATM   22  C6  UNL     1       2.166   6.211   7.501  1.00  0.00     0.053 C 
HETATM   23  C8  UNL     1       1.182   8.039   8.834  1.00  0.00     0.035 C 
HETATM   24  C9  UNL     1       0.608   8.265  10.234  1.00  0.00     0.010 C 
HETATM   25  C17 UNL     1      -1.306   5.743  12.469  1.00  0.00     0.009 C 
HETATM   26  C18 UNL     1      -1.636   5.736  13.963  1.00  0.00     0.047 C 
BRANCH   7  27
HETATM   27  O2  UNL     1      -0.432   6.670  15.809  1.00  0.00    -0.381 OA
HETATM   28  H27 UNL     1       0.116   7.415  16.112  1.00  0.00     0.211 HD
ENDBRANCH   7  27
ENDBRANCH   5   7
ENDBRANCH   4   5
ENDBRANCH   3   4
ENDBRANCH   1   3
BRANCH   1  29
HETATM   29  C23 UNL     1      -6.745   8.336  14.520  1.00  0.00     0.120 C 
BRANCH  29  30
HETATM   30  C24 UNL     1      -7.489   7.896  15.772  1.00  0.00     0.112 C 
BRANCH  30  31
HETATM   31  C25 UNL     1      -8.780   8.664  15.979  1.00  0.00     0.217 C 
HETATM   32  O6  UNL     1      -9.630   8.349  16.802  1.00  0.00    -0.274 OA
HETATM   33  N1  UNL     1      -8.870   9.791  15.186  1.00  0.00    -0.361 N 
HETATM   34  H34 UNL     1      -8.228   9.881  14.409  1.00  0.00     0.162 HD
BRANCH  33  35
HETATM   35  C26 UNL     1     -10.083  10.584  15.154  1.00  0.00     0.122 C 
BRANCH  35  36
HETATM   36  C27 UNL     1     -11.036  10.133  14.050  1.00  0.00     0.020 C 
BRANCH  36  37
HETATM   37  C28 UNL     1     -12.309   9.438  14.547  1.00  0.00     0.002 C 
BRANCH  37  38
HETATM   38  C29 UNL     1     -12.615   8.068  13.925  1.00  0.00     0.009 C 
BRANCH  38  39
HETATM   39  C30 UNL     1     -11.639   6.958  14.313  1.00  0.00     0.103 C 
BRANCH  39  40
HETATM   40  C31 UNL     1     -10.575   6.693  13.263  1.00  0.00     0.217 C 
HETATM   41  O7  UNL     1     -10.577   7.196  12.145  1.00  0.00    -0.274 OA
HETATM   42  N2  UNL     1      -9.614   5.798  13.686  1.00  0.00    -0.361 N 
HETATM   43  H45 UNL     1      -9.558   5.581  14.674  1.00  0.00     0.162 HD
BRANCH  42  44
HETATM   44  C32 UNL     1      -8.471   5.465  12.858  1.00  0.00     0.127 C 
BRANCH  44  45
HETATM   45  C33 UNL     1      -7.210   5.131  13.663  1.00  0.00     0.058 C 
BRANCH  45  46
HETATM   46  C34 UNL     1      -6.325   4.115  12.974  1.00  0.00    -0.054 A 
HETATM   47  C35 UNL     1      -4.934   4.311  12.934  1.00  0.00     0.010 A 
HETATM   48  C36 UNL     1      -4.100   3.369  12.326  1.00  0.00     0.040 A 
HETATM   49  C37 UNL     1      -4.662   2.237  11.760  1.00  0.00     0.098 A 
HETATM   50  C38 UNL     1      -6.039   2.033  11.786  1.00  0.00     0.099 A 
HETATM   51  C39 UNL     1      -6.878   2.962  12.392  1.00  0.00     0.046 A 
BRANCH  49  52
HETATM   52  O8  UNL     1      -3.847   1.315  11.166  1.00  0.00    -0.358 OA
HETATM   53  H52 UNL     1      -4.458   0.627  10.836  1.00  0.00     0.217 HD
ENDBRANCH  49  52
BRANCH  50  54
HETATM   54  O9  UNL     1      -6.523   0.896  11.202  1.00  0.00    -0.358 OA
HETATM   55  H53 UNL     1      -7.496   0.915  11.260  1.00  0.00     0.217 HD
ENDBRANCH  50  54
ENDBRANCH  45  46
ENDBRANCH  44  45
ENDBRANCH  42  44
ENDBRANCH  39  40
ENDBRANCH  38  39
ENDBRANCH  37  38
ENDBRANCH  36  37
ENDBRANCH  35  36
ENDBRANCH  33  35
ENDBRANCH  30  31
ENDBRANCH  29  30
ENDBRANCH   1  29
TORSDOF 19
ENDMDL
MODEL 8
REMARK minimizedAffinity -9.89765263
REMARK CNNscore 0.336697042
REMARK CNNaffinity 7.2338357
REMARK  19 active torsions:
REMARK  status: ('A' for Active; 'I' for Inactive)
REMARK    1  A    between atoms: C19_20  and  O2_21 
REMARK    2  A    between atoms: C19_20  and  C20_22 
REMARK    3  A    between atoms: C20_22  and  C21_24 
REMARK    4  A    between atoms: C21_24  and  O4_25 
REMARK    5  A    between atoms: O4_25  and  C22_26 
REMARK    6  A    between atoms: C22_26  and  C23_28 
REMARK    7  A    between atoms: C23_28  and  C24_29 
REMARK    8  A    between atoms: C24_29  and  C25_30 
REMARK       I    between atoms: C25_30  and  N1_32 
REMARK    9  A    between atoms: N1_32  and  C26_33 
REMARK   10  A    between atoms: C26_33  and  C27_34 
REMARK   11  A    between atoms: C27_34  and  C28_35 
REMARK   12  A    between atoms: C28_35  and  C29_36 
REMARK   13  A    between atoms: C29_36  and  C30_37 
REMARK   14  A    between atoms: C30_37  and  C31_38 
REMARK       I    between atoms: C31_38  and  N2_40 
REMARK   15  A    between atoms: N2_40  and  C32_41 
REMARK   16  A    between atoms: C32_41  and  C33_42 
REMARK   17  A    between atoms: C33_42  and  C34_43 
REMARK   18  A    between atoms: C37_46  and  O8_47 
REMARK   19  A    between atoms: C38_48  and  O9_49 
ROOT
HETATM    1  C22 UNL     1       0.578   8.122   9.648  1.00  0.00     0.259 C 
HETATM    2  O5  UNL     1       0.295   8.922   8.772  1.00  0.00    -0.265 OA
ENDROOT
BRANCH   1   3
HETATM    3  O4  UNL     1       0.366   8.326  10.982  1.00  0.00    -0.314 OA
BRANCH   3   4
HETATM    4  C21 UNL     1      -0.425   7.327  11.610  1.00  0.00     0.260 C 
BRANCH   4   5
HETATM    5  C20 UNL     1      -0.326   7.130  13.128  1.00  0.00     0.185 C 
HETATM    6  O3  UNL     1       0.635   6.509  13.597  1.00  0.00    -0.292 OA
BRANCH   5   7
HETATM    7  C19 UNL     1      -1.371   7.842  14.046  1.00  0.00     0.128 C 
HETATM    8  C14 UNL     1      -2.604   6.938  14.418  1.00  0.00    -0.002 C 
HETATM    9  C13 UNL     1      -3.376   7.515  15.635  1.00  0.00     0.013 C 
HETATM   10  C15 UNL     1      -2.161   5.498  14.738  1.00  0.00     0.019 C 
HETATM   11  C16 UNL     1      -3.481   7.026  13.149  1.00  0.00     0.002 C 
HETATM   12  C12 UNL     1      -4.765   6.908  15.819  1.00  0.00     0.007 C 
HETATM   13  C11 UNL     1      -5.663   7.079  14.580  1.00  0.00     0.002 C 
HETATM   14  C2  UNL     1      -7.125   6.468  14.769  1.00  0.00    -0.016 C 
HETATM   15  C10 UNL     1      -4.965   6.612  13.274  1.00  0.00    -0.004 C 
HETATM   16  C1  UNL     1      -7.215   5.417  15.903  1.00  0.00     0.020 C 
HETATM   17  C3  UNL     1      -8.069   7.658  15.116  1.00  0.00     0.022 C 
HETATM   18  C7  UNL     1      -7.616   5.768  13.499  1.00  0.00    -0.068 C 
HETATM   19  C4  UNL     1      -9.549   7.317  15.030  1.00  0.00     0.084 C 
HETATM   20  C5  UNL     1      -9.879   6.748  13.674  1.00  0.00     0.149 C 
HETATM   21  O1  UNL     1     -10.992   6.866  13.166  1.00  0.00    -0.293 OA
HETATM   22  C6  UNL     1      -8.847   5.940  12.983  1.00  0.00     0.053 C 
HETATM   23  C8  UNL     1      -6.662   4.808  12.819  1.00  0.00     0.035 C 
HETATM   24  C9  UNL     1      -5.184   5.110  13.077  1.00  0.00     0.010 C 
HETATM   25  C17 UNL     1      -3.340   8.500  12.718  1.00  0.00     0.009 C 
HETATM   26  C18 UNL     1      -1.990   8.998  13.239  1.00  0.00     0.047 C 
BRANCH   7  27
HETATM   27  O2  UNL     1      -0.788   8.396  15.219  1.00  0.00    -0.381 OA
HETATM   28  H27 UNL     1      -0.557   7.671  15.825  1.00  0.00     0.211 HD
ENDBRANCH   7  27
ENDBRANCH   5   7
ENDBRANCH   4   5
ENDBRANCH   3   4
ENDBRANCH   1   3
BRANCH   1  29
HETATM   29  C23 UNL     1       1.198   6.769   9.418  1.00  0.00     0.120 C 
BRANCH  29  30
HETATM   30  C24 UNL     1       2.542   6.903   8.716  1.00  0.00     0.112 C 
BRANCH  30  31
HETATM   31  C25 UNL     1       3.661   6.209   9.471  1.00  0.00     0.217 C 
HETATM   32  O6  UNL     1       3.861   5.002   9.422  1.00  0.00    -0.274 OA
HETATM   33  N1  UNL     1       4.466   7.086  10.169  1.00  0.00    -0.361 N 
HETATM   34  H34 UNL     1       4.131   8.030  10.313  1.00  0.00     0.162 HD
BRANCH  33  35
HETATM   35  C26 UNL     1       5.511   6.600  11.047  1.00  0.00     0.122 C 
BRANCH  35  36
HETATM   36  C27 UNL     1       5.590   7.400  12.346  1.00  0.00     0.020 C 
BRANCH  36  37
HETATM   37  C28 UNL     1       6.632   6.892  13.350  1.00  0.00     0.002 C 
BRANCH  37  38
HETATM   38  C29 UNL     1       7.877   7.770  13.529  1.00  0.00     0.009 C 
BRANCH  38  39
HETATM   39  C30 UNL     1       8.381   7.878  14.968  1.00  0.00     0.103 C 
BRANCH  39  40
HETATM   40  C31 UNL     1       7.619   8.890  15.804  1.00  0.00     0.217 C 
HETATM   41  O7  UNL     1       6.445   8.758  16.133  1.00  0.00    -0.274 OA
HETATM   42  N2  UNL     1       8.376   9.995  16.133  1.00  0.00    -0.361 N 
HETATM   43  H45 UNL     1       9.379   9.948  16.006  1.00  0.00     0.162 HD
BRANCH  42  44
HETATM   44  C32 UNL     1       7.854  11.045  16.988  1.00  0.00     0.127 C 
BRANCH  44  45
HETATM   45  C33 UNL     1       7.984  10.736  18.483  1.00  0.00     0.058 C 
BRANCH  45  46
HETATM   46  C34 UNL     1       9.334  11.120  19.047  1.00  0.00    -0.054 A 
HETATM   47  C35 UNL     1       9.410  11.904  20.212  1.00  0.00     0.010 A 
HETATM   48  C36 UNL     1      10.648  12.245  20.760  1.00  0.00     0.040 A 
HETATM   49  C37 UNL     1      11.805  11.802  20.141  1.00  0.00     0.098 A 
HETATM   50  C38 UNL     1      11.746  11.030  18.983  1.00  0.00     0.099 A 
HETATM   51  C39 UNL     1      10.518  10.682  18.430  1.00  0.00     0.046 A 
BRANCH  49  52
HETATM   52  O8  UNL     1      13.017  12.134  20.678  1.00  0.00    -0.358 OA
HETATM   53  H52 UNL     1      13.670  11.728  20.075  1.00  0.00     0.217 HD
ENDBRANCH  49  52
BRANCH  50  54
HETATM   54  O9  UNL     1      12.929  10.634  18.424  1.00  0.00    -0.358 OA
HETATM   55  H53 UNL     1      12.729  10.146  17.605  1.00  0.00     0.217 HD
ENDBRANCH  50  54
ENDBRANCH  45  46
ENDBRANCH  44  45
ENDBRANCH  42  44
ENDBRANCH  39  40
ENDBRANCH  38  39
ENDBRANCH  37  38
ENDBRANCH  36  37
ENDBRANCH  35  36
ENDBRANCH  33  35
ENDBRANCH  30  31
ENDBRANCH  29  30
ENDBRANCH   1  29
TORSDOF 19
ENDMDL
MODEL 9
REMARK minimizedAffinity -9.34665585
REMARK CNNscore 0.327923208
REMARK CNNaffinity 7.0480628
REMARK  19 active torsions:
REMARK  status: ('A' for Active; 'I' for Inactive)
REMARK    1  A    between atoms: C19_20  and  O2_21 
REMARK    2  A    between atoms: C19_20  and  C20_22 
REMARK    3  A    between atoms: C20_22  and  C21_24 
REMARK    4  A    between atoms: C21_24  and  O4_25 
REMARK    5  A    between atoms: O4_25  and  C22_26 
REMARK    6  A    between atoms: C22_26  and  C23_28 
REMARK    7  A    between atoms: C23_28  and  C24_29 
REMARK    8  A    between atoms: C24_29  and  C25_30 
REMARK       I    between atoms: C25_30  and  N1_32 
REMARK    9  A    between atoms: N1_32  and  C26_33 
REMARK   10  A    between atoms: C26_33  and  C27_34 
REMARK   11  A    between atoms: C27_34  and  C28_35 
REMARK   12  A    between atoms: C28_35  and  C29_36 
REMARK   13  A    between atoms: C29_36  and  C30_37 
REMARK   14  A    between atoms: C30_37  and  C31_38 
REMARK       I    between atoms: C31_38  and  N2_40 
REMARK   15  A    between atoms: N2_40  and  C32_41 
REMARK   16  A    between atoms: C32_41  and  C33_42 
REMARK   17  A    between atoms: C33_42  and  C34_43 
REMARK   18  A    between atoms: C37_46  and  O8_47 
REMARK   19  A    between atoms: C38_48  and  O9_49 
ROOT
HETATM    1  C22 UNL     1       1.002   8.101   9.621  1.00  0.00     0.259 C 
HETATM    2  O5  UNL     1       0.343   8.787   8.857  1.00  0.00    -0.265 OA
ENDROOT
BRANCH   1   3
HETATM    3  O4  UNL     1       0.908   8.148  10.982  1.00  0.00    -0.314 OA
BRANCH   3   4
HETATM    4  C21 UNL     1      -0.088   7.297  11.532  1.00  0.00     0.260 C 
BRANCH   4   5
HETATM    5  C20 UNL     1      -0.100   7.024  13.041  1.00  0.00     0.185 C 
HETATM    6  O3  UNL     1       0.769   6.295  13.532  1.00  0.00    -0.292 OA
BRANCH   5   7
HETATM    7  C19 UNL     1      -1.129   7.791  13.933  1.00  0.00     0.128 C 
HETATM    8  C14 UNL     1      -2.361   6.916  14.369  1.00  0.00    -0.002 C 
HETATM    9  C13 UNL     1      -3.114   7.563  15.564  1.00  0.00     0.013 C 
HETATM   10  C15 UNL     1      -1.922   5.493  14.760  1.00  0.00     0.019 C 
HETATM   11  C16 UNL     1      -3.255   6.941  13.110  1.00  0.00     0.002 C 
HETATM   12  C12 UNL     1      -4.503   6.975  15.798  1.00  0.00     0.007 C 
HETATM   13  C11 UNL     1      -5.417   7.085  14.564  1.00  0.00     0.002 C 
HETATM   14  C2  UNL     1      -6.879   6.494  14.805  1.00  0.00    -0.016 C 
HETATM   15  C10 UNL     1      -4.739   6.545  13.276  1.00  0.00    -0.004 C 
HETATM   16  C1  UNL     1      -6.960   5.506  15.995  1.00  0.00     0.020 C 
HETATM   17  C3  UNL     1      -7.812   7.707  15.100  1.00  0.00     0.022 C 
HETATM   18  C7  UNL     1      -7.392   5.730  13.581  1.00  0.00    -0.068 C 
HETATM   19  C4  UNL     1      -9.295   7.371  15.052  1.00  0.00     0.084 C 
HETATM   20  C5  UNL     1      -9.646   6.733  13.733  1.00  0.00     0.149 C 
HETATM   21  O1  UNL     1     -10.766   6.830  13.234  1.00  0.00    -0.293 OA
HETATM   22  C6  UNL     1      -8.629   5.882  13.073  1.00  0.00     0.053 C 
HETATM   23  C8  UNL     1      -6.452   4.729  12.941  1.00  0.00     0.035 C 
HETATM   24  C9  UNL     1      -4.970   5.036  13.162  1.00  0.00     0.010 C 
HETATM   25  C17 UNL     1      -3.112   8.390  12.598  1.00  0.00     0.009 C 
HETATM   26  C18 UNL     1      -1.752   8.906  13.073  1.00  0.00     0.047 C 
BRANCH   7  27
HETATM   27  O2  UNL     1      -0.527   8.404  15.067  1.00  0.00    -0.381 OA
HETATM   28  H27 UNL     1      -0.291   7.711  15.708  1.00  0.00     0.211 HD
ENDBRANCH   7  27
ENDBRANCH   5   7
ENDBRANCH   4   5
ENDBRANCH   3   4
ENDBRANCH   1   3
BRANCH   1  29
HETATM   29  C23 UNL     1       2.025   7.078   9.203  1.00  0.00     0.120 C 
BRANCH  29  30
HETATM   30  C24 UNL     1       3.403   7.712   9.080  1.00  0.00     0.112 C 
BRANCH  30  31
HETATM   31  C25 UNL     1       4.312   7.351  10.240  1.00  0.00     0.217 C 
HETATM   32  O6  UNL     1       5.124   6.436  10.202  1.00  0.00    -0.274 OA
HETATM   33  N1  UNL     1       4.170   8.199  11.320  1.00  0.00    -0.361 N 
HETATM   34  H34 UNL     1       3.360   8.804  11.350  1.00  0.00     0.162 HD
BRANCH  33  35
HETATM   35  C26 UNL     1       4.865   7.940  12.566  1.00  0.00     0.122 C 
BRANCH  35  36
HETATM   36  C27 UNL     1       5.797   9.086  12.954  1.00  0.00     0.020 C 
BRANCH  36  37
HETATM   37  C28 UNL     1       7.249   8.669  13.218  1.00  0.00     0.002 C 
BRANCH  37  38
HETATM   38  C29 UNL     1       7.478   7.766  14.438  1.00  0.00     0.009 C 
BRANCH  38  39
HETATM   39  C30 UNL     1       7.120   8.401  15.781  1.00  0.00     0.103 C 
BRANCH  39  40
HETATM   40  C31 UNL     1       8.316   8.606  16.693  1.00  0.00     0.217 C 
HETATM   41  O7  UNL     1       9.151   7.739  16.929  1.00  0.00    -0.274 OA
HETATM   42  N2  UNL     1       8.352   9.863  17.258  1.00  0.00    -0.361 N 
HETATM   43  H45 UNL     1       7.757  10.585  16.869  1.00  0.00     0.162 HD
BRANCH  42  44
HETATM   44  C32 UNL     1       9.453  10.284  18.104  1.00  0.00     0.127 C 
BRANCH  44  45
HETATM   45  C33 UNL     1       9.396  11.766  18.490  1.00  0.00     0.058 C 
BRANCH  45  46
HETATM   46  C34 UNL     1       8.657  12.007  19.788  1.00  0.00    -0.054 A 
HETATM   47  C35 UNL     1       7.254  12.097  19.788  1.00  0.00     0.010 A 
HETATM   48  C36 UNL     1       6.555  12.293  20.981  1.00  0.00     0.040 A 
HETATM   49  C37 UNL     1       7.262  12.399  22.168  1.00  0.00     0.098 A 
HETATM   50  C38 UNL     1       8.652  12.318  22.182  1.00  0.00     0.099 A 
HETATM   51  C39 UNL     1       9.358  12.120  21.000  1.00  0.00     0.046 A 
BRANCH  49  52
HETATM   52  O8  UNL     1       6.578  12.589  23.335  1.00  0.00    -0.358 OA
HETATM   53  H52 UNL     1       7.274  12.645  24.019  1.00  0.00     0.217 HD
ENDBRANCH  49  52
BRANCH  50  54
HETATM   54  O9  UNL     1       9.283  12.438  23.388  1.00  0.00    -0.358 OA
HETATM   55  H53 UNL     1      10.244  12.407  23.233  1.00  0.00     0.217 HD
ENDBRANCH  50  54
ENDBRANCH  45  46
ENDBRANCH  44  45
ENDBRANCH  42  44
ENDBRANCH  39  40
ENDBRANCH  38  39
ENDBRANCH  37  38
ENDBRANCH  36  37
ENDBRANCH  35  36
ENDBRANCH  33  35
ENDBRANCH  30  31
ENDBRANCH  29  30
ENDBRANCH   1  29
TORSDOF 19
ENDMDL
