MODEL 1
REMARK minimizedAffinity -7.13726425
REMARK CNNscore 0.55631566
REMARK CNNaffinity 6.94213295
REMARK  9 active torsions:
REMARK  status: ('A' for Active; 'I' for Inactive)
REMARK    1  A    between atoms: C2_2  and  C3_3 
REMARK    2  A    between atoms: C2_2  and  C9_12 
REMARK    3  A    between atoms: C3_3  and  C4_4 
REMARK    4  A    between atoms: C4_4  and  C5_5 
REMARK    5  A    between atoms: C5_5  and  O1_6 
REMARK    6  A    between atoms: C5_5  and  C6_7 
REMARK    7  A    between atoms: C6_7  and  O2_9 
REMARK    8  A    between atoms: C6_7  and  C8_10 
REMARK    9  A    between atoms: C8_10  and  O3_11 
ROOT
HETATM    1  C9  UNL     1      -9.880  -7.534  -4.113  1.00  0.00    -0.002 C 
HETATM    2  C10 UNL     1     -11.200  -7.645  -3.313  1.00  0.00     0.007 C 
HETATM    3  C11 UNL     1     -10.844  -8.308  -1.959  1.00  0.00     0.015 C 
HETATM    4  C12 UNL     1      -9.301  -8.284  -1.879  1.00  0.00    -0.005 C 
HETATM    5  C13 UNL     1      -8.901  -6.881  -1.327  1.00  0.00     0.021 C 
HETATM    6  C14 UNL     1      -8.534  -9.267  -1.004  1.00  0.00    -0.000 C 
HETATM    7  C15 UNL     1      -7.275  -9.664  -1.333  1.00  0.00    -0.060 C 
HETATM    8  C16 UNL     1      -6.612  -9.185  -2.635  1.00  0.00     0.036 C 
HETATM    9  C17 UNL     1      -7.450  -8.307  -3.587  1.00  0.00     0.015 C 
HETATM   10  C18 UNL     1      -8.949  -8.550  -3.392  1.00  0.00    -0.028 C 
HETATM   11  C19 UNL     1      -9.268 -10.005  -3.853  1.00  0.00     0.016 C 
HETATM   12  C20 UNL     1      -6.460 -10.667  -0.470  1.00  0.00    -0.014 C 
HETATM   13  C21 UNL     1      -6.744 -12.061  -1.075  1.00  0.00     0.020 C 
HETATM   14  C22 UNL     1      -4.938 -10.376  -0.531  1.00  0.00     0.021 C 
HETATM   15  C23 UNL     1      -4.114 -11.251   0.400  1.00  0.00     0.080 C 
HETATM   16  C24 UNL     1      -4.573 -11.101   1.827  1.00  0.00     0.135 C 
HETATM   17  O4  UNL     1      -3.741 -10.956   2.725  1.00  0.00    -0.297 OA
HETATM   18  C25 UNL     1      -6.073 -11.258   2.117  1.00  0.00     0.018 C 
HETATM   19  C26 UNL     1      -6.352 -10.616   3.501  1.00  0.00     0.023 C 
HETATM   20  C27 UNL     1      -6.376 -12.758   2.249  1.00  0.00     0.023 C 
HETATM   21  C28 UNL     1      -6.907 -10.501   1.023  1.00  0.00     0.020 C 
HETATM   22  C29 UNL     1      -8.419 -10.714   1.146  1.00  0.00     0.090 C 
HETATM   23  C30 UNL     1      -9.180  -9.759   0.256  1.00  0.00     0.157 C 
HETATM   24  O5  UNL     1     -10.321  -9.420   0.564  1.00  0.00    -0.293 OA
ENDROOT
BRANCH   1  25
HETATM   25  C2  UNL     1      -9.988  -7.594  -5.668  1.00  0.00    -0.014 C 
HETATM   26  C1  UNL     1     -11.417  -7.625  -6.225  1.00  0.00     0.010 C 
BRANCH  25  27
HETATM   27  C3  UNL     1      -9.225  -6.387  -6.274  1.00  0.00     0.007 C 
BRANCH  27  28
HETATM   28  C4  UNL     1      -9.876  -5.004  -6.137  1.00  0.00     0.035 C 
BRANCH  28  29
HETATM   29  C5  UNL     1      -9.366  -4.030  -5.063  1.00  0.00     0.154 C 
BRANCH  29  30
HETATM   30  O1  UNL     1      -9.961  -4.346  -3.796  1.00  0.00    -0.392 OA
HETATM   31  H10 UNL     1      -9.749  -3.598  -3.204  1.00  0.00     0.210 HD
ENDBRANCH  29  30
BRANCH  29  32
HETATM   32  C6  UNL     1      -9.414  -2.490  -5.297  1.00  0.00     0.101 C 
HETATM   33  C7  UNL     1      -9.814  -2.078  -6.718  1.00  0.00     0.051 C 
BRANCH  32  34
HETATM   34  O2  UNL     1     -10.503  -2.001  -4.462  1.00  0.00    -0.385 OA
HETATM   35  H14 UNL     1     -10.302  -2.241  -3.538  1.00  0.00     0.210 HD
ENDBRANCH  32  34
BRANCH  32  36
HETATM   36  C8  UNL     1      -8.126  -1.766  -4.854  1.00  0.00     0.204 C 
BRANCH  36  37
HETATM   37  O3  UNL     1      -6.950  -2.470  -5.214  1.00  0.00    -0.398 OA
HETATM   38  H17 UNL     1      -6.191  -1.899  -5.000  1.00  0.00     0.209 HD
ENDBRANCH  36  37
ENDBRANCH  32  36
ENDBRANCH  29  32
ENDBRANCH  28  29
ENDBRANCH  27  28
ENDBRANCH  25  27
ENDBRANCH   1  25
TORSDOF 9
ENDMDL
MODEL 2
REMARK minimizedAffinity -6.64459372
REMARK CNNscore 0.450111538
REMARK CNNaffinity 6.32956171
REMARK  9 active torsions:
REMARK  status: ('A' for Active; 'I' for Inactive)
REMARK    1  A    between atoms: C2_2  and  C3_3 
REMARK    2  A    between atoms: C2_2  and  C9_12 
REMARK    3  A    between atoms: C3_3  and  C4_4 
REMARK    4  A    between atoms: C4_4  and  C5_5 
REMARK    5  A    between atoms: C5_5  and  O1_6 
REMARK    6  A    between atoms: C5_5  and  C6_7 
REMARK    7  A    between atoms: C6_7  and  O2_9 
REMARK    8  A    between atoms: C6_7  and  C8_10 
REMARK    9  A    between atoms: C8_10  and  O3_11 
ROOT
HETATM    1  C9  UNL     1     -11.434  14.734   1.389  1.00  0.00    -0.002 C 
HETATM    2  C10 UNL     1     -10.258  14.838   0.390  1.00  0.00     0.007 C 
HETATM    3  C11 UNL     1      -9.080  15.488   1.156  1.00  0.00     0.015 C 
HETATM    4  C12 UNL     1      -9.491  15.462   2.646  1.00  0.00    -0.005 C 
HETATM    5  C13 UNL     1      -9.106  14.054   3.195  1.00  0.00     0.021 C 
HETATM    6  C14 UNL     1      -8.894  16.436   3.654  1.00  0.00    -0.000 C 
HETATM    7  C15 UNL     1      -9.600  16.835   4.746  1.00  0.00    -0.060 C 
HETATM    8  C16 UNL     1     -11.049  16.368   4.963  1.00  0.00     0.036 C 
HETATM    9  C17 UNL     1     -11.695  15.500   3.864  1.00  0.00     0.015 C 
HETATM   10  C18 UNL     1     -11.035  15.741   2.504  1.00  0.00    -0.028 C 
HETATM   11  C19 UNL     1     -11.359  17.201   2.062  1.00  0.00     0.016 C 
HETATM   12  C20 UNL     1      -9.029  17.829   5.795  1.00  0.00    -0.014 C 
HETATM   13  C21 UNL     1      -9.502  19.229   5.340  1.00  0.00     0.020 C 
HETATM   14  C22 UNL     1      -9.570  17.538   7.219  1.00  0.00     0.021 C 
HETATM   15  C23 UNL     1      -8.939  18.403   8.298  1.00  0.00     0.080 C 
HETATM   16  C24 UNL     1      -7.442  18.240   8.312  1.00  0.00     0.135 C 
HETATM   17  O4  UNL     1      -6.853  18.086   9.385  1.00  0.00    -0.297 OA
HETATM   18  C25 UNL     1      -6.692  18.396   6.980  1.00  0.00     0.018 C 
HETATM   19  C26 UNL     1      -5.296  17.741   7.151  1.00  0.00     0.023 C 
HETATM   20  C27 UNL     1      -6.457  19.895   6.740  1.00  0.00     0.023 C 
HETATM   21  C28 UNL     1      -7.473  17.649   5.842  1.00  0.00     0.020 C 
HETATM   22  C29 UNL     1      -6.878  17.862   4.446  1.00  0.00     0.090 C 
HETATM   23  C30 UNL     1      -7.490  16.917   3.440  1.00  0.00     0.157 C 
HETATM   24  O5  UNL     1      -6.841  16.575   2.453  1.00  0.00    -0.293 OA
ENDROOT
BRANCH   1  25
HETATM   25  C2  UNL     1     -12.875  14.808   0.796  1.00  0.00    -0.014 C 
HETATM   26  C1  UNL     1     -12.962  15.296  -0.656  1.00  0.00     0.010 C 
BRANCH  25  27
HETATM   27  C3  UNL     1     -13.542  13.412   0.913  1.00  0.00     0.007 C 
BRANCH  27  28
HETATM   28  C4  UNL     1     -14.030  12.756  -0.386  1.00  0.00     0.035 C 
BRANCH  28  29
HETATM   29  C5  UNL     1     -13.343  11.479  -0.893  1.00  0.00     0.154 C 
BRANCH  29  30
HETATM   30  O1  UNL     1     -12.854  11.683  -2.226  1.00  0.00    -0.392 OA
HETATM   31  H10 UNL     1     -12.598  10.801  -2.559  1.00  0.00     0.210 HD
ENDBRANCH  29  30
BRANCH  29  32
HETATM   32  C6  UNL     1     -14.062  10.098  -0.803  1.00  0.00     0.101 C 
HETATM   33  C7  UNL     1     -13.500   9.160   0.270  1.00  0.00     0.051 C 
BRANCH  32  34
HETATM   34  O2  UNL     1     -15.415  10.391  -0.351  1.00  0.00    -0.385 OA
HETATM   35  H14 UNL     1     -15.824  10.993  -1.000  1.00  0.00     0.210 HD
ENDBRANCH  32  34
BRANCH  32  36
HETATM   36  C8  UNL     1     -14.170   9.380  -2.164  1.00  0.00     0.204 C 
BRANCH  36  37
HETATM   37  O3  UNL     1     -13.015   8.621  -2.477  1.00  0.00    -0.398 OA
HETATM   38  H17 UNL     1     -13.208   8.117  -3.287  1.00  0.00     0.209 HD
ENDBRANCH  36  37
ENDBRANCH  32  36
ENDBRANCH  29  32
ENDBRANCH  28  29
ENDBRANCH  27  28
ENDBRANCH  25  27
ENDBRANCH   1  25
TORSDOF 9
ENDMDL
MODEL 3
REMARK minimizedAffinity -8.86780834
REMARK CNNscore 0.397276402
REMARK CNNaffinity 6.75781631
REMARK  9 active torsions:
REMARK  status: ('A' for Active; 'I' for Inactive)
REMARK    1  A    between atoms: C2_2  and  C3_3 
REMARK    2  A    between atoms: C2_2  and  C9_12 
REMARK    3  A    between atoms: C3_3  and  C4_4 
REMARK    4  A    between atoms: C4_4  and  C5_5 
REMARK    5  A    between atoms: C5_5  and  O1_6 
REMARK    6  A    between atoms: C5_5  and  C6_7 
REMARK    7  A    between atoms: C6_7  and  O2_9 
REMARK    8  A    between atoms: C6_7  and  C8_10 
REMARK    9  A    between atoms: C8_10  and  O3_11 
ROOT
HETATM    1  C9  UNL     1      -3.422   7.342  14.983  1.00  0.00    -0.002 C 
HETATM    2  C10 UNL     1      -4.059   6.055  14.409  1.00  0.00     0.007 C 
HETATM    3  C11 UNL     1      -3.062   5.492  13.367  1.00  0.00     0.015 C 
HETATM    4  C12 UNL     1      -1.750   6.281  13.581  1.00  0.00    -0.005 C 
HETATM    5  C13 UNL     1      -0.982   5.572  14.739  1.00  0.00     0.021 C 
HETATM    6  C14 UNL     1      -0.715   6.421  12.472  1.00  0.00    -0.000 C 
HETATM    7  C15 UNL     1       0.093   7.513  12.401  1.00  0.00    -0.060 C 
HETATM    8  C16 UNL     1      -0.058   8.672  13.400  1.00  0.00     0.036 C 
HETATM    9  C17 UNL     1      -1.203   8.589  14.428  1.00  0.00     0.015 C 
HETATM   10  C18 UNL     1      -2.343   7.700  13.922  1.00  0.00    -0.028 C 
HETATM   11  C19 UNL     1      -2.997   8.406  12.694  1.00  0.00     0.016 C 
HETATM   12  C20 UNL     1       1.158   7.695  11.284  1.00  0.00    -0.014 C 
HETATM   13  C21 UNL     1       0.457   8.505  10.170  1.00  0.00     0.020 C 
HETATM   14  C22 UNL     1       2.397   8.479  11.792  1.00  0.00     0.021 C 
HETATM   15  C23 UNL     1       3.519   8.569  10.772  1.00  0.00     0.080 C 
HETATM   16  C24 UNL     1       3.966   7.197  10.339  1.00  0.00     0.135 C 
HETATM   17  O4  UNL     1       5.170   6.937  10.274  1.00  0.00    -0.297 OA
HETATM   18  C25 UNL     1       2.887   6.205   9.877  1.00  0.00     0.018 C 
HETATM   19  C26 UNL     1       3.502   4.783   9.940  1.00  0.00     0.023 C 
HETATM   20  C27 UNL     1       2.578   6.495   8.400  1.00  0.00     0.023 C 
HETATM   21  C28 UNL     1       1.654   6.275  10.846  1.00  0.00     0.020 C 
HETATM   22  C29 UNL     1       0.465   5.422  10.389  1.00  0.00     0.090 C 
HETATM   23  C30 UNL     1      -0.575   5.307  11.478  1.00  0.00     0.157 C 
HETATM   24  O5  UNL     1      -1.304   4.317  11.520  1.00  0.00    -0.293 OA
ENDROOT
BRANCH   1  25
HETATM   25  C2  UNL     1      -4.397   8.461  15.463  1.00  0.00    -0.014 C 
HETATM   26  C1  UNL     1      -3.825   9.885  15.435  1.00  0.00     0.010 C 
BRANCH  25  27
HETATM   27  C3  UNL     1      -5.689   8.408  14.606  1.00  0.00     0.007 C 
BRANCH  27  28
HETATM   28  C4  UNL     1      -7.011   8.155  15.343  1.00  0.00     0.035 C 
BRANCH  28  29
HETATM   29  C5  UNL     1      -7.599   6.737  15.378  1.00  0.00     0.154 C 
BRANCH  29  30
HETATM   30  O1  UNL     1      -6.859   5.924  16.301  1.00  0.00    -0.392 OA
HETATM   31  H10 UNL     1      -7.152   5.004  16.148  1.00  0.00     0.210 HD
ENDBRANCH  29  30
BRANCH  29  32
HETATM   32  C6  UNL     1      -7.843   5.943  14.059  1.00  0.00     0.101 C 
HETATM   33  C7  UNL     1      -9.241   6.128  13.458  1.00  0.00     0.051 C 
BRANCH  32  34
HETATM   34  O2  UNL     1      -6.948   6.534  13.075  1.00  0.00    -0.385 OA
HETATM   35  H14 UNL     1      -6.036   6.448  13.409  1.00  0.00     0.210 HD
ENDBRANCH  32  34
BRANCH  32  36
HETATM   36  C8  UNL     1      -7.485   4.446  14.174  1.00  0.00     0.204 C 
BRANCH  36  37
HETATM   37  O3  UNL     1      -8.468   3.601  13.601  1.00  0.00    -0.398 OA
HETATM   38  H17 UNL     1      -8.117   2.693  13.616  1.00  0.00     0.209 HD
ENDBRANCH  36  37
ENDBRANCH  32  36
ENDBRANCH  29  32
ENDBRANCH  28  29
ENDBRANCH  27  28
ENDBRANCH  25  27
ENDBRANCH   1  25
TORSDOF 9
ENDMDL
MODEL 4
REMARK minimizedAffinity -8.82029057
REMARK CNNscore 0.341239393
REMARK CNNaffinity 6.59536552
REMARK  9 active torsions:
REMARK  status: ('A' for Active; 'I' for Inactive)
REMARK    1  A    between atoms: C2_2  and  C3_3 
REMARK    2  A    between atoms: C2_2  and  C9_12 
REMARK    3  A    between atoms: C3_3  and  C4_4 
REMARK    4  A    between atoms: C4_4  and  C5_5 
REMARK    5  A    between atoms: C5_5  and  O1_6 
REMARK    6  A    between atoms: C5_5  and  C6_7 
REMARK    7  A    between atoms: C6_7  and  O2_9 
REMARK    8  A    between atoms: C6_7  and  C8_10 
REMARK    9  A    between atoms: C8_10  and  O3_11 
ROOT
HETATM    1  C9  UNL     1      -0.616   9.332  14.429  1.00  0.00    -0.002 C 
HETATM    2  C10 UNL     1       0.086   8.187  13.660  1.00  0.00     0.007 C 
HETATM    3  C11 UNL     1      -1.021   7.190  13.240  1.00  0.00     0.015 C 
HETATM    4  C12 UNL     1      -2.357   7.922  13.500  1.00  0.00    -0.005 C 
HETATM    5  C13 UNL     1      -2.639   8.804  12.244  1.00  0.00     0.021 C 
HETATM    6  C14 UNL     1      -3.655   7.155  13.721  1.00  0.00    -0.000 C 
HETATM    7  C15 UNL     1      -4.651   7.669  14.493  1.00  0.00    -0.060 C 
HETATM    8  C16 UNL     1      -4.470   9.011  15.221  1.00  0.00     0.036 C 
HETATM    9  C17 UNL     1      -3.101   9.710  15.110  1.00  0.00     0.015 C 
HETATM   10  C18 UNL     1      -1.985   8.704  14.816  1.00  0.00    -0.028 C 
HETATM   11  C19 UNL     1      -1.828   7.777  16.060  1.00  0.00     0.016 C 
HETATM   12  C20 UNL     1      -5.987   6.917  14.746  1.00  0.00    -0.014 C 
HETATM   13  C21 UNL     1      -5.776   6.126  16.057  1.00  0.00     0.020 C 
HETATM   14  C22 UNL     1      -7.176   7.898  14.918  1.00  0.00     0.021 C 
HETATM   15  C23 UNL     1      -8.523   7.206  15.039  1.00  0.00     0.080 C 
HETATM   16  C24 UNL     1      -8.791   6.335  13.839  1.00  0.00     0.135 C 
HETATM   17  O4  UNL     1      -9.895   6.373  13.290  1.00  0.00    -0.297 OA
HETATM   18  C25 UNL     1      -7.700   5.338  13.420  1.00  0.00     0.018 C 
HETATM   19  C26 UNL     1      -7.987   4.921  11.953  1.00  0.00     0.023 C 
HETATM   20  C27 UNL     1      -7.854   4.076  14.282  1.00  0.00     0.023 C 
HETATM   21  C28 UNL     1      -6.294   6.030  13.491  1.00  0.00     0.020 C 
HETATM   22  C29 UNL     1      -5.125   5.076  13.224  1.00  0.00     0.090 C 
HETATM   23  C30 UNL     1      -3.832   5.834  13.034  1.00  0.00     0.157 C 
HETATM   24  O5  UNL     1      -2.939   5.349  12.341  1.00  0.00    -0.293 OA
ENDROOT
BRANCH   1  25
HETATM   25  C2  UNL     1       0.213  10.054  15.536  1.00  0.00    -0.014 C 
HETATM   26  C1  UNL     1      -0.609  10.853  16.554  1.00  0.00     0.010 C 
BRANCH  25  27
HETATM   27  C3  UNL     1       1.080   9.005  16.282  1.00  0.00     0.007 C 
BRANCH  27  28
HETATM   28  C4  UNL     1       2.599   9.069  16.068  1.00  0.00     0.035 C 
BRANCH  28  29
HETATM   29  C5  UNL     1       3.274   8.056  15.132  1.00  0.00     0.154 C 
BRANCH  29  30
HETATM   30  O1  UNL     1       2.916   6.721  15.517  1.00  0.00    -0.392 OA
HETATM   31  H10 UNL     1       3.508   6.127  15.015  1.00  0.00     0.210 HD
ENDBRANCH  29  30
BRANCH  29  32
HETATM   32  C6  UNL     1       4.806   8.129  14.851  1.00  0.00     0.101 C 
HETATM   33  C7  UNL     1       5.489   9.391  15.389  1.00  0.00     0.051 C 
BRANCH  32  34
HETATM   34  O2  UNL     1       5.397   7.045  15.623  1.00  0.00    -0.385 OA
HETATM   35  H14 UNL     1       4.993   6.209  15.322  1.00  0.00     0.210 HD
ENDBRANCH  32  34
BRANCH  32  36
HETATM   36  C8  UNL     1       5.165   7.897  13.369  1.00  0.00     0.204 C 
BRANCH  36  37
HETATM   37  O3  UNL     1       4.280   6.997  12.724  1.00  0.00    -0.398 OA
HETATM   38  H17 UNL     1       4.506   6.993  11.778  1.00  0.00     0.209 HD
ENDBRANCH  36  37
ENDBRANCH  32  36
ENDBRANCH  29  32
ENDBRANCH  28  29
ENDBRANCH  27  28
ENDBRANCH  25  27
ENDBRANCH   1  25
TORSDOF 9
ENDMDL
MODEL 5
REMARK minimizedAffinity -6.44695616
REMARK CNNscore 0.308925688
REMARK CNNaffinity 6.1297183
REMARK  9 active torsions:
REMARK  status: ('A' for Active; 'I' for Inactive)
REMARK    1  A    between atoms: C2_2  and  C3_3 
REMARK    2  A    between atoms: C2_2  and  C9_12 
REMARK    3  A    between atoms: C3_3  and  C4_4 
REMARK    4  A    between atoms: C4_4  and  C5_5 
REMARK    5  A    between atoms: C5_5  and  O1_6 
REMARK    6  A    between atoms: C5_5  and  C6_7 
REMARK    7  A    between atoms: C6_7  and  O2_9 
REMARK    8  A    between atoms: C6_7  and  C8_10 
REMARK    9  A    between atoms: C8_10  and  O3_11 
ROOT
HETATM    1  C9  UNL     1     -11.046  -9.371  14.590  1.00  0.00    -0.002 C 
HETATM    2  C10 UNL     1     -12.272  -8.573  14.087  1.00  0.00     0.007 C 
HETATM    3  C11 UNL     1     -13.226  -8.415  15.297  1.00  0.00     0.015 C 
HETATM    4  C12 UNL     1     -12.403  -8.848  16.532  1.00  0.00    -0.005 C 
HETATM    5  C13 UNL     1     -11.581  -7.602  16.984  1.00  0.00     0.021 C 
HETATM    6  C14 UNL     1     -13.079  -9.337  17.807  1.00  0.00    -0.000 C 
HETATM    7  C15 UNL     1     -12.463 -10.230  18.628  1.00  0.00    -0.060 C 
HETATM    8  C16 UNL     1     -11.094 -10.825  18.261  1.00  0.00     0.036 C 
HETATM    9  C17 UNL     1     -10.484 -10.436  16.899  1.00  0.00     0.015 C 
HETATM   10  C18 UNL     1     -11.569 -10.025  15.900  1.00  0.00    -0.028 C 
HETATM   11  C19 UNL     1     -12.429 -11.285  15.575  1.00  0.00     0.016 C 
HETATM   12  C20 UNL     1     -13.119 -10.757  19.934  1.00  0.00    -0.014 C 
HETATM   13  C21 UNL     1     -13.843 -12.064  19.538  1.00  0.00     0.020 C 
HETATM   14  C22 UNL     1     -12.062 -11.062  21.027  1.00  0.00     0.021 C 
HETATM   15  C23 UNL     1     -12.666 -11.456  22.365  1.00  0.00     0.080 C 
HETATM   16  C24 UNL     1     -13.588 -10.380  22.878  1.00  0.00     0.135 C 
HETATM   17  O4  UNL     1     -13.518 -10.026  24.057  1.00  0.00    -0.297 OA
HETATM   18  C25 UNL     1     -14.670  -9.851  21.925  1.00  0.00     0.018 C 
HETATM   19  C26 UNL     1     -15.154  -8.486  22.481  1.00  0.00     0.023 C 
HETATM   20  C27 UNL     1     -15.868 -10.810  21.987  1.00  0.00     0.023 C 
HETATM   21  C28 UNL     1     -14.058  -9.635  20.496  1.00  0.00     0.020 C 
HETATM   22  C29 UNL     1     -15.093  -9.239  19.437  1.00  0.00     0.090 C 
HETATM   23  C30 UNL     1     -14.425  -8.782  18.163  1.00  0.00     0.157 C 
HETATM   24  O5  UNL     1     -15.001  -7.982  17.427  1.00  0.00    -0.293 OA
ENDROOT
BRANCH   1  25
HETATM   25  C2  UNL     1     -10.310 -10.269  13.549  1.00  0.00    -0.014 C 
HETATM   26  C1  UNL     1     -10.789 -10.119  12.099  1.00  0.00     0.010 C 
BRANCH  25  27
HETATM   27  C3  UNL     1      -8.787  -9.982  13.621  1.00  0.00     0.007 C 
BRANCH  27  28
HETATM   28  C4  UNL     1      -8.188  -9.089  12.526  1.00  0.00     0.035 C 
BRANCH  28  29
HETATM   29  C5  UNL     1      -6.665  -8.897  12.454  1.00  0.00     0.154 C 
BRANCH  29  30
HETATM   30  O1  UNL     1      -6.352  -7.498  12.394  1.00  0.00    -0.392 OA
HETATM   31  H10 UNL     1      -5.402  -7.444  12.167  1.00  0.00     0.210 HD
ENDBRANCH  29  30
BRANCH  29  32
HETATM   32  C6  UNL     1      -5.814  -9.673  11.404  1.00  0.00     0.101 C 
HETATM   33  C7  UNL     1      -5.909  -9.118   9.978  1.00  0.00     0.051 C 
BRANCH  32  34
HETATM   34  O2  UNL     1      -4.426  -9.451  11.784  1.00  0.00    -0.385 OA
HETATM   35  H14 UNL     1      -4.308  -9.785  12.692  1.00  0.00     0.210 HD
ENDBRANCH  32  34
BRANCH  32  36
HETATM   36  C8  UNL     1      -6.065 -11.195  11.421  1.00  0.00     0.204 C 
BRANCH  36  37
HETATM   37  O3  UNL     1      -5.834 -11.775  12.693  1.00  0.00    -0.398 OA
HETATM   38  H17 UNL     1      -6.119 -12.705  12.646  1.00  0.00     0.209 HD
ENDBRANCH  36  37
ENDBRANCH  32  36
ENDBRANCH  29  32
ENDBRANCH  28  29
ENDBRANCH  27  28
ENDBRANCH  25  27
ENDBRANCH   1  25
TORSDOF 9
ENDMDL
MODEL 6
REMARK minimizedAffinity -9.72865295
REMARK CNNscore 0.285149604
REMARK CNNaffinity 6.96811438
REMARK  9 active torsions:
REMARK  status: ('A' for Active; 'I' for Inactive)
REMARK    1  A    between atoms: C2_2  and  C3_3 
REMARK    2  A    between atoms: C2_2  and  C9_12 
REMARK    3  A    between atoms: C3_3  and  C4_4 
REMARK    4  A    between atoms: C4_4  and  C5_5 
REMARK    5  A    between atoms: C5_5  and  O1_6 
REMARK    6  A    between atoms: C5_5  and  C6_7 
REMARK    7  A    between atoms: C6_7  and  O2_9 
REMARK    8  A    between atoms: C6_7  and  C8_10 
REMARK    9  A    between atoms: C8_10  and  O3_11 
ROOT
HETATM    1  C9  UNL     1      -2.926   8.396  15.297  1.00  0.00    -0.002 C 
HETATM    2  C10 UNL     1      -1.928   7.886  16.365  1.00  0.00     0.007 C 
HETATM    3  C11 UNL     1      -0.580   7.657  15.639  1.00  0.00     0.015 C 
HETATM    4  C12 UNL     1      -0.737   8.323  14.253  1.00  0.00    -0.005 C 
HETATM    5  C13 UNL     1      -0.408   9.836  14.442  1.00  0.00     0.021 C 
HETATM    6  C14 UNL     1       0.115   7.897  13.064  1.00  0.00    -0.000 C 
HETATM    7  C15 UNL     1      -0.355   8.003  11.792  1.00  0.00    -0.060 C 
HETATM    8  C16 UNL     1      -1.786   8.493  11.518  1.00  0.00     0.036 C 
HETATM    9  C17 UNL     1      -2.691   8.783  12.732  1.00  0.00     0.015 C 
HETATM   10  C18 UNL     1      -2.247   7.983  13.960  1.00  0.00    -0.028 C 
HETATM   11  C19 UNL     1      -2.492   6.471  13.668  1.00  0.00     0.016 C 
HETATM   12  C20 UNL     1       0.480   7.576  10.553  1.00  0.00    -0.014 C 
HETATM   13  C21 UNL     1       0.081   6.111  10.267  1.00  0.00     0.020 C 
HETATM   14  C22 UNL     1       0.159   8.451   9.313  1.00  0.00     0.021 C 
HETATM   15  C23 UNL     1       1.045   8.155   8.114  1.00  0.00     0.080 C 
HETATM   16  C24 UNL     1       2.500   8.334   8.461  1.00  0.00     0.135 C 
HETATM   17  O4  UNL     1       3.241   8.951   7.693  1.00  0.00    -0.297 OA
HETATM   18  C25 UNL     1       3.028   7.625   9.718  1.00  0.00     0.018 C 
HETATM   19  C26 UNL     1       4.360   8.313  10.117  1.00  0.00     0.023 C 
HETATM   20  C27 UNL     1       3.368   6.176   9.338  1.00  0.00     0.023 C 
HETATM   21  C28 UNL     1       1.996   7.786  10.890  1.00  0.00     0.020 C 
HETATM   22  C29 UNL     1       2.368   6.995  12.149  1.00  0.00     0.090 C 
HETATM   23  C30 UNL     1       1.504   7.396  13.321  1.00  0.00     0.157 C 
HETATM   24  O5  UNL     1       1.942   7.284  14.465  1.00  0.00    -0.293 OA
ENDROOT
BRANCH   1  25
HETATM   25  C2  UNL     1      -4.431   8.045  15.509  1.00  0.00    -0.014 C 
HETATM   26  C1  UNL     1      -5.419   8.854  14.660  1.00  0.00     0.010 C 
BRANCH  25  27
HETATM   27  C3  UNL     1      -4.639   6.531  15.240  1.00  0.00     0.007 C 
BRANCH  27  28
HETATM   28  C4  UNL     1      -5.846   5.859  15.909  1.00  0.00     0.035 C 
BRANCH  28  29
HETATM   29  C5  UNL     1      -7.165   5.728  15.132  1.00  0.00     0.154 C 
BRANCH  29  30
HETATM   30  O1  UNL     1      -8.179   5.172  15.982  1.00  0.00    -0.392 OA
HETATM   31  H10 UNL     1      -8.928   4.944  15.396  1.00  0.00     0.210 HD
ENDBRANCH  29  30
BRANCH  29  32
HETATM   32  C6  UNL     1      -7.204   5.026  13.740  1.00  0.00     0.101 C 
HETATM   33  C7  UNL     1      -8.135   5.692  12.721  1.00  0.00     0.051 C 
BRANCH  32  34
HETATM   34  O2  UNL     1      -5.872   5.199  13.177  1.00  0.00    -0.385 OA
HETATM   35  H14 UNL     1      -5.232   4.794  13.792  1.00  0.00     0.210 HD
ENDBRANCH  32  34
BRANCH  32  36
HETATM   36  C8  UNL     1      -7.479   3.511  13.831  1.00  0.00     0.204 C 
BRANCH  36  37
HETATM   37  O3  UNL     1      -8.618   3.114  13.088  1.00  0.00    -0.398 OA
HETATM   38  H17 UNL     1      -8.655   2.142  13.107  1.00  0.00     0.209 HD
ENDBRANCH  36  37
ENDBRANCH  32  36
ENDBRANCH  29  32
ENDBRANCH  28  29
ENDBRANCH  27  28
ENDBRANCH  25  27
ENDBRANCH   1  25
TORSDOF 9
ENDMDL
MODEL 7
REMARK minimizedAffinity -8.52980709
REMARK CNNscore 0.282496899
REMARK CNNaffinity 6.59942818
REMARK  9 active torsions:
REMARK  status: ('A' for Active; 'I' for Inactive)
REMARK    1  A    between atoms: C2_2  and  C3_3 
REMARK    2  A    between atoms: C2_2  and  C9_12 
REMARK    3  A    between atoms: C3_3  and  C4_4 
REMARK    4  A    between atoms: C4_4  and  C5_5 
REMARK    5  A    between atoms: C5_5  and  O1_6 
REMARK    6  A    between atoms: C5_5  and  C6_7 
REMARK    7  A    between atoms: C6_7  and  O2_9 
REMARK    8  A    between atoms: C6_7  and  C8_10 
REMARK    9  A    between atoms: C8_10  and  O3_11 
ROOT
HETATM    1  C9  UNL     1      -5.154   6.672  14.980  1.00  0.00    -0.002 C 
HETATM    2  C10 UNL     1      -5.607   5.469  14.119  1.00  0.00     0.007 C 
HETATM    3  C11 UNL     1      -4.429   5.132  13.172  1.00  0.00     0.015 C 
HETATM    4  C12 UNL     1      -3.223   5.935  13.710  1.00  0.00    -0.005 C 
HETATM    5  C13 UNL     1      -2.586   5.081  14.849  1.00  0.00     0.021 C 
HETATM    6  C14 UNL     1      -2.047   6.303  12.813  1.00  0.00    -0.000 C 
HETATM    7  C15 UNL     1      -1.317   7.428  13.042  1.00  0.00    -0.060 C 
HETATM    8  C16 UNL     1      -1.696   8.398  14.173  1.00  0.00     0.036 C 
HETATM    9  C17 UNL     1      -2.972   8.094  14.983  1.00  0.00     0.015 C 
HETATM   10  C18 UNL     1      -3.958   7.250  14.171  1.00  0.00    -0.028 C 
HETATM   11  C19 UNL     1      -4.473   8.117  12.981  1.00  0.00     0.016 C 
HETATM   12  C20 UNL     1      -0.114   7.841  12.149  1.00  0.00    -0.014 C 
HETATM   13  C21 UNL     1      -0.699   8.791  11.078  1.00  0.00     0.020 C 
HETATM   14  C22 UNL     1       0.977   8.587  12.961  1.00  0.00     0.021 C 
HETATM   15  C23 UNL     1       2.229   8.896  12.156  1.00  0.00     0.080 C 
HETATM   16  C24 UNL     1       2.830   7.636  11.591  1.00  0.00     0.135 C 
HETATM   17  O4  UNL     1       4.046   7.446  11.676  1.00  0.00    -0.297 OA
HETATM   18  C25 UNL     1       1.905   6.685  10.816  1.00  0.00     0.018 C 
HETATM   19  C26 UNL     1       2.603   5.302  10.752  1.00  0.00     0.023 C 
HETATM   20  C27 UNL     1       1.797   7.200   9.372  1.00  0.00     0.023 C 
HETATM   21  C28 UNL     1       0.540   6.537  11.577  1.00  0.00     0.020 C 
HETATM   22  C29 UNL     1      -0.505   5.717  10.812  1.00  0.00     0.090 C 
HETATM   23  C30 UNL     1      -1.683   5.377  11.693  1.00  0.00     0.157 C 
HETATM   24  O5  UNL     1      -2.339   4.361  11.465  1.00  0.00    -0.293 OA
ENDROOT
BRANCH   1  25
HETATM   25  C2  UNL     1      -6.266   7.650  15.469  1.00  0.00    -0.014 C 
HETATM   26  C1  UNL     1      -5.906   9.140  15.398  1.00  0.00     0.010 C 
BRANCH  25  27
HETATM   27  C3  UNL     1      -7.561   7.393  14.653  1.00  0.00     0.007 C 
BRANCH  27  28
HETATM   28  C4  UNL     1      -8.879   7.904  15.249  1.00  0.00     0.035 C 
BRANCH  28  29
HETATM   29  C5  UNL     1     -10.210   7.308  14.764  1.00  0.00     0.154 C 
BRANCH  29  30
HETATM   30  O1  UNL     1      -9.957   6.223  13.859  1.00  0.00    -0.392 OA
HETATM   31  H10 UNL     1     -10.818   6.008  13.448  1.00  0.00     0.210 HD
ENDBRANCH  29  30
BRANCH  29  32
HETATM   32  C6  UNL     1     -11.330   8.225  14.185  1.00  0.00     0.101 C 
HETATM   33  C7  UNL     1     -10.969   9.714  14.141  1.00  0.00     0.051 C 
BRANCH  32  34
HETATM   34  O2  UNL     1     -11.462   7.846  12.786  1.00  0.00    -0.385 OA
HETATM   35  H14 UNL     1     -11.690   6.898  12.753  1.00  0.00     0.210 HD
ENDBRANCH  32  34
BRANCH  32  36
HETATM   36  C8  UNL     1     -12.701   8.010  14.859  1.00  0.00     0.204 C 
BRANCH  36  37
HETATM   37  O3  UNL     1     -13.000   6.641  15.070  1.00  0.00    -0.398 OA
HETATM   38  H17 UNL     1     -13.820   6.598  15.593  1.00  0.00     0.209 HD
ENDBRANCH  36  37
ENDBRANCH  32  36
ENDBRANCH  29  32
ENDBRANCH  28  29
ENDBRANCH  27  28
ENDBRANCH  25  27
ENDBRANCH   1  25
TORSDOF 9
ENDMDL
MODEL 8
REMARK minimizedAffinity -9.11100101
REMARK CNNscore 0.274481118
REMARK CNNaffinity 6.40119886
REMARK  9 active torsions:
REMARK  status: ('A' for Active; 'I' for Inactive)
REMARK    1  A    between atoms: C2_2  and  C3_3 
REMARK    2  A    between atoms: C2_2  and  C9_12 
REMARK    3  A    between atoms: C3_3  and  C4_4 
REMARK    4  A    between atoms: C4_4  and  C5_5 
REMARK    5  A    between atoms: C5_5  and  O1_6 
REMARK    6  A    between atoms: C5_5  and  C6_7 
REMARK    7  A    between atoms: C6_7  and  O2_9 
REMARK    8  A    between atoms: C6_7  and  C8_10 
REMARK    9  A    between atoms: C8_10  and  O3_11 
ROOT
HETATM    1  C9  UNL     1       3.981   7.442  10.372  1.00  0.00    -0.002 C 
HETATM    2  C10 UNL     1       4.169   5.923  10.146  1.00  0.00     0.007 C 
HETATM    3  C11 UNL     1       2.845   5.243  10.572  1.00  0.00     0.015 C 
HETATM    4  C12 UNL     1       1.825   6.392  10.741  1.00  0.00    -0.005 C 
HETATM    5  C13 UNL     1       1.246   6.690   9.323  1.00  0.00     0.021 C 
HETATM    6  C14 UNL     1       0.595   6.241  11.627  1.00  0.00    -0.000 C 
HETATM    7  C15 UNL     1       0.041   7.319  12.246  1.00  0.00    -0.060 C 
HETATM    8  C16 UNL     1       0.679   8.712  12.125  1.00  0.00     0.036 C 
HETATM    9  C17 UNL     1       2.005   8.830  11.346  1.00  0.00     0.015 C 
HETATM   10  C18 UNL     1       2.767   7.502  11.342  1.00  0.00    -0.028 C 
HETATM   11  C19 UNL     1       3.221   7.200  12.803  1.00  0.00     0.016 C 
HETATM   12  C20 UNL     1      -1.210   7.207  13.161  1.00  0.00    -0.014 C 
HETATM   13  C21 UNL     1      -0.662   7.032  14.595  1.00  0.00     0.020 C 
HETATM   14  C22 UNL     1      -2.088   8.484  13.094  1.00  0.00     0.021 C 
HETATM   15  C23 UNL     1      -3.388   8.369  13.872  1.00  0.00     0.080 C 
HETATM   16  C24 UNL     1      -4.206   7.201  13.385  1.00  0.00     0.135 C 
HETATM   17  O4  UNL     1      -5.414   7.342  13.180  1.00  0.00    -0.297 OA
HETATM   18  C25 UNL     1      -3.511   5.835  13.280  1.00  0.00     0.018 C 
HETATM   19  C26 UNL     1      -4.372   4.943  12.348  1.00  0.00     0.023 C 
HETATM   20  C27 UNL     1      -3.533   5.183  14.670  1.00  0.00     0.023 C 
HETATM   21  C28 UNL     1      -2.086   6.013  12.646  1.00  0.00     0.020 C 
HETATM   22  C29 UNL     1      -1.256   4.725  12.627  1.00  0.00     0.090 C 
HETATM   23  C30 UNL     1      -0.022   4.883  11.772  1.00  0.00     0.157 C 
HETATM   24  O5  UNL     1       0.472   3.896  11.228  1.00  0.00    -0.293 OA
ENDROOT
BRANCH   1  25
HETATM   25  C2  UNL     1       5.257   8.269  10.720  1.00  0.00    -0.014 C 
HETATM   26  C1  UNL     1       5.002   9.585  11.467  1.00  0.00     0.010 C 
BRANCH  25  27
HETATM   27  C3  UNL     1       6.222   7.383  11.552  1.00  0.00     0.007 C 
BRANCH  27  28
HETATM   28  C4  UNL     1       7.137   8.094  12.557  1.00  0.00     0.035 C 
BRANCH  28  29
HETATM   29  C5  UNL     1       7.378   7.464  13.938  1.00  0.00     0.154 C 
BRANCH  29  30
HETATM   30  O1  UNL     1       6.350   6.505  14.223  1.00  0.00    -0.392 OA
HETATM   31  H10 UNL     1       6.447   6.277  15.169  1.00  0.00     0.210 HD
ENDBRANCH  29  30
BRANCH  29  32
HETATM   32  C6  UNL     1       7.623   8.360  15.190  1.00  0.00     0.101 C 
HETATM   33  C7  UNL     1       7.339   9.850  14.968  1.00  0.00     0.051 C 
BRANCH  32  34
HETATM   34  O2  UNL     1       6.626   7.947  16.168  1.00  0.00    -0.385 OA
HETATM   35  H14 UNL     1       6.758   6.997  16.346  1.00  0.00     0.210 HD
ENDBRANCH  32  34
BRANCH  32  36
HETATM   36  C8  UNL     1       9.013   8.152  15.825  1.00  0.00     0.204 C 
BRANCH  36  37
HETATM   37  O3  UNL     1       8.957   7.441  17.050  1.00  0.00    -0.398 OA
HETATM   38  H17 UNL     1       9.873   7.258  17.323  1.00  0.00     0.209 HD
ENDBRANCH  36  37
ENDBRANCH  32  36
ENDBRANCH  29  32
ENDBRANCH  28  29
ENDBRANCH  27  28
ENDBRANCH  25  27
ENDBRANCH   1  25
TORSDOF 9
ENDMDL
MODEL 9
REMARK minimizedAffinity -6.90823984
REMARK CNNscore 0.271024823
REMARK CNNaffinity 6.5318222
REMARK  9 active torsions:
REMARK  status: ('A' for Active; 'I' for Inactive)
REMARK    1  A    between atoms: C2_2  and  C3_3 
REMARK    2  A    between atoms: C2_2  and  C9_12 
REMARK    3  A    between atoms: C3_3  and  C4_4 
REMARK    4  A    between atoms: C4_4  and  C5_5 
REMARK    5  A    between atoms: C5_5  and  O1_6 
REMARK    6  A    between atoms: C5_5  and  C6_7 
REMARK    7  A    between atoms: C6_7  and  O2_9 
REMARK    8  A    between atoms: C6_7  and  C8_10 
REMARK    9  A    between atoms: C8_10  and  O3_11 
ROOT
HETATM    1  C9  UNL     1     -12.226   9.281  14.693  1.00  0.00    -0.002 C 
HETATM    2  C10 UNL     1     -12.186   9.485  13.159  1.00  0.00     0.007 C 
HETATM    3  C11 UNL     1     -13.424   8.755  12.583  1.00  0.00     0.015 C 
HETATM    4  C12 UNL     1     -14.309   8.413  13.802  1.00  0.00    -0.005 C 
HETATM    5  C13 UNL     1     -15.166   9.681  14.106  1.00  0.00     0.021 C 
HETATM    6  C14 UNL     1     -15.321   7.275  13.758  1.00  0.00    -0.000 C 
HETATM    7  C15 UNL     1     -15.658   6.592  14.885  1.00  0.00    -0.060 C 
HETATM    8  C16 UNL     1     -14.978   6.902  16.228  1.00  0.00     0.036 C 
HETATM    9  C17 UNL     1     -13.851   7.954  16.236  1.00  0.00     0.015 C 
HETATM   10  C18 UNL     1     -13.191   8.073  14.860  1.00  0.00    -0.028 C 
HETATM   11  C19 UNL     1     -12.447   6.735  14.562  1.00  0.00     0.016 C 
HETATM   12  C20 UNL     1     -16.683   5.424  14.881  1.00  0.00    -0.014 C 
HETATM   13  C21 UNL     1     -15.845   4.137  14.703  1.00  0.00     0.020 C 
HETATM   14  C22 UNL     1     -17.473   5.346  16.214  1.00  0.00     0.021 C 
HETATM   15  C23 UNL     1     -18.576   4.301  16.206  1.00  0.00     0.080 C 
HETATM   16  C24 UNL     1     -19.551   4.553  15.086  1.00  0.00     0.135 C 
HETATM   17  O4  UNL     1     -20.763   4.496  15.305  1.00  0.00    -0.297 OA
HETATM   18  C25 UNL     1     -18.981   4.755  13.673  1.00  0.00     0.018 C 
HETATM   19  C26 UNL     1     -20.080   5.442  12.821  1.00  0.00     0.023 C 
HETATM   20  C27 UNL     1     -18.738   3.369  13.057  1.00  0.00     0.023 C 
HETATM   21  C28 UNL     1     -17.722   5.689  13.738  1.00  0.00     0.020 C 
HETATM   22  C29 UNL     1     -16.998   5.840  12.396  1.00  0.00     0.090 C 
HETATM   23  C30 UNL     1     -15.974   6.948  12.448  1.00  0.00     0.157 C 
HETATM   24  O5  UNL     1     -15.674   7.548  11.417  1.00  0.00    -0.293 OA
ENDROOT
BRANCH   1  25
HETATM   25  C2  UNL     1     -10.856   9.250  15.438  1.00  0.00    -0.014 C 
HETATM   26  C1  UNL     1     -10.905   9.662  16.916  1.00  0.00     0.010 C 
BRANCH  25  27
HETATM   27  C3  UNL     1     -10.248   7.828  15.319  1.00  0.00     0.007 C 
BRANCH  27  28
HETATM   28  C4  UNL     1      -8.770   7.728  14.919  1.00  0.00     0.035 C 
BRANCH  28  29
HETATM   29  C5  UNL     1      -8.269   6.477  14.181  1.00  0.00     0.154 C 
BRANCH  29  30
HETATM   30  O1  UNL     1      -9.385   5.706  13.714  1.00  0.00    -0.392 OA
HETATM   31  H10 UNL     1      -9.018   4.848  13.422  1.00  0.00     0.210 HD
ENDBRANCH  29  30
BRANCH  29  32
HETATM   32  C6  UNL     1      -7.216   5.533  14.838  1.00  0.00     0.101 C 
HETATM   33  C7  UNL     1      -6.223   6.241  15.766  1.00  0.00     0.051 C 
BRANCH  32  34
HETATM   34  O2  UNL     1      -7.973   4.659  15.723  1.00  0.00    -0.385 OA
HETATM   35  H14 UNL     1      -8.630   4.181  15.182  1.00  0.00     0.210 HD
ENDBRANCH  32  34
BRANCH  32  36
HETATM   36  C8  UNL     1      -6.479   4.640  13.819  1.00  0.00     0.204 C 
BRANCH  36  37
HETATM   37  O3  UNL     1      -7.258   4.362  12.668  1.00  0.00    -0.398 OA
HETATM   38  H17 UNL     1      -6.687   3.894  12.034  1.00  0.00     0.209 HD
ENDBRANCH  36  37
ENDBRANCH  32  36
ENDBRANCH  29  32
ENDBRANCH  28  29
ENDBRANCH  27  28
ENDBRANCH  25  27
ENDBRANCH   1  25
TORSDOF 9
ENDMDL
