MODEL 1
REMARK minimizedAffinity -7.85995007
REMARK CNNscore 0.728710532
REMARK CNNaffinity 7.0769105
REMARK  14 active torsions:
REMARK  status: ('A' for Active; 'I' for Inactive)
REMARK    1  A    between atoms: C2_2  and  C3_3 
REMARK    2  A    between atoms: C3_3  and  N1_4 
REMARK    3  A    between atoms: N1_4  and  C4_5 
REMARK    4  A    between atoms: C4_5  and  C5_6 
REMARK    5  A    between atoms: C5_6  and  C6_7 
REMARK    6  A    between atoms: C15_17  and  O2_18 
REMARK    7  A    between atoms: C20_23  and  O3_24 
REMARK    8  A    between atoms: C22_26  and  C23_27 
REMARK    9  A    between atoms: C23_27  and  C25_29 
REMARK   10  A    between atoms: C25_29  and  C26_30 
REMARK   11  A    between atoms: C26_30  and  O4_31 
REMARK   12  A    between atoms: C26_30  and  C27_32 
REMARK   13  A    between atoms: C28_33  and  C30_35 
REMARK   14  A    between atoms: C30_35  and  O6_37 
ROOT
HETATM    1  C6  UNL     1      -2.667   8.893  15.476  1.00  0.00     0.023 C 
HETATM    2  C7  UNL     1      -2.411   9.174  13.976  1.00  0.00     0.024 C 
HETATM    3  C8  UNL     1      -4.018   9.586  15.740  1.00  0.00     0.135 C 
HETATM    4  O1  UNL     1      -5.081   8.962  15.780  1.00  0.00    -0.297 OA
HETATM    5  C9  UNL     1      -4.039  11.093  15.861  1.00  0.00     0.080 C 
HETATM    6  C10 UNL     1      -2.710  11.674  16.321  1.00  0.00     0.022 C 
HETATM    7  C11 UNL     1      -1.939  10.739  17.283  1.00  0.00    -0.008 C 
HETATM    8  C12 UNL     1      -2.828  10.282  18.478  1.00  0.00     0.021 C 
HETATM    9  C13 UNL     1      -0.704  11.467  17.880  1.00  0.00     0.002 C 
HETATM   10  C14 UNL     1       0.586  11.109  17.651  1.00  0.00    -0.029 C 
HETATM   11  C15 UNL     1       0.924   9.984  16.708  1.00  0.00     0.149 C 
HETATM   12  C16 UNL     1      -0.205   9.643  15.745  1.00  0.00     0.043 C 
HETATM   13  C17 UNL     1      -1.547   9.442  16.465  1.00  0.00     0.017 C 
HETATM   14  C18 UNL     1       1.741  11.818  18.375  1.00  0.00     0.017 C 
HETATM   15  C19 UNL     1       2.066  13.079  17.509  1.00  0.00     0.023 C 
HETATM   16  C20 UNL     1       3.063  11.042  18.654  1.00  0.00     0.132 C 
HETATM   17  C21 UNL     1       3.710  11.769  19.851  1.00  0.00     0.038 C 
HETATM   18  C22 UNL     1       2.624  12.701  20.458  1.00  0.00     0.001 C 
HETATM   19  C31 UNL     1       1.299  12.127  19.862  1.00  0.00    -0.019 C 
HETATM   20  C32 UNL     1       0.852  10.853  20.640  1.00  0.00     0.017 C 
HETATM   21  C33 UNL     1       0.113  13.087  19.806  1.00  0.00     0.094 C 
HETATM   22  C34 UNL     1      -0.975  12.608  18.854  1.00  0.00     0.157 C 
HETATM   23  O7  UNL     1      -2.077  13.157  18.882  1.00  0.00    -0.293 OA
ENDROOT
BRANCH  18  24
HETATM   24  C23 UNL     1       2.858  13.001  21.968  1.00  0.00    -0.011 C 
HETATM   25  C24 UNL     1       3.733  14.224  22.283  1.00  0.00     0.010 C 
BRANCH  24  26
HETATM   26  C25 UNL     1       3.368  11.802  22.806  1.00  0.00     0.040 C 
BRANCH  26  27
HETATM   27  C26 UNL     1       4.597  11.066  22.243  1.00  0.00     0.142 C 
BRANCH  27  28
HETATM   28  O4  UNL     1       4.422   9.677  22.524  1.00  0.00    -0.392 OA
HETATM   29  H43 UNL     1       5.210   9.214  22.193  1.00  0.00     0.210 HD
ENDBRANCH  27  28
BRANCH  27  30
HETATM   30  C27 UNL     1       5.902  11.455  22.867  1.00  0.00     0.018 C 
HETATM   31  C28 UNL     1       6.911  12.159  22.312  1.00  0.00     0.010 C 
HETATM   32  C29 UNL     1       6.941  12.735  20.929  1.00  0.00     0.055 C 
BRANCH  31  33
HETATM   33  C30 UNL     1       8.082  12.421  23.186  1.00  0.00     0.171 C 
HETATM   34  O5  UNL     1       8.380  13.483  23.703  1.00  0.00    -0.646 OA
BRANCH  33  35
HETATM   35  O6  UNL     1       8.835  11.326  23.367  1.00  0.00    -0.773 OA
HETATM   36  H48 UNL     1       9.558  11.636  23.953  1.00  0.00     0.167 HD
ENDBRANCH  33  35
ENDBRANCH  31  33
ENDBRANCH  27  30
ENDBRANCH  26  27
ENDBRANCH  24  26
ENDBRANCH  18  24
BRANCH  16  37
HETATM   37  O3  UNL     1       3.978  11.033  17.570  1.00  0.00    -0.394 OA
HETATM   38  H32 UNL     1       3.491  10.653  16.808  1.00  0.00     0.210 HD
ENDBRANCH  16  37
BRANCH  11  39
HETATM   39  O2  UNL     1       2.069  10.324  15.928  1.00  0.00    -0.391 OA
HETATM   40  H24 UNL     1       1.778  10.939  15.229  1.00  0.00     0.210 HD
ENDBRANCH  11  39
BRANCH   1  41
HETATM   41  C5  UNL     1      -2.884   7.358  15.711  1.00  0.00     0.047 C 
BRANCH  41  42
HETATM   42  C4  UNL     1      -2.375   6.366  14.656  1.00  0.00     0.270 C 
BRANCH  42  43
HETATM   43  N1  UNL     1      -3.372   5.354  14.325  1.00  0.00     0.083 N 
HETATM   44  H8  UNL     1      -3.173   4.503  14.851  1.00  0.00     0.315 HD
BRANCH  43  45
HETATM   45  C3  UNL     1      -3.378   5.052  12.893  1.00  0.00     0.269 C 
BRANCH  45  46
HETATM   46  C2  UNL     1      -3.938   3.653  12.619  1.00  0.00     0.025 C 
HETATM   47  C1  UNL     1      -5.381   3.653  12.136  1.00  0.00     0.007 C 
ENDBRANCH  45  46
ENDBRANCH  43  45
ENDBRANCH  42  43
ENDBRANCH  41  42
ENDBRANCH   1  41
TORSDOF 14
ENDMDL
MODEL 2
REMARK minimizedAffinity -7.35592842
REMARK CNNscore 0.689834237
REMARK CNNaffinity 7.85071182
REMARK  14 active torsions:
REMARK  status: ('A' for Active; 'I' for Inactive)
REMARK    1  A    between atoms: C2_2  and  C3_3 
REMARK    2  A    between atoms: C3_3  and  N1_4 
REMARK    3  A    between atoms: N1_4  and  C4_5 
REMARK    4  A    between atoms: C4_5  and  C5_6 
REMARK    5  A    between atoms: C5_6  and  C6_7 
REMARK    6  A    between atoms: C15_17  and  O2_18 
REMARK    7  A    between atoms: C20_23  and  O3_24 
REMARK    8  A    between atoms: C22_26  and  C23_27 
REMARK    9  A    between atoms: C23_27  and  C25_29 
REMARK   10  A    between atoms: C25_29  and  C26_30 
REMARK   11  A    between atoms: C26_30  and  O4_31 
REMARK   12  A    between atoms: C26_30  and  C27_32 
REMARK   13  A    between atoms: C28_33  and  C30_35 
REMARK   14  A    between atoms: C30_35  and  O6_37 
ROOT
HETATM    1  C6  UNL     1      -7.495   5.783  14.551  1.00  0.00     0.023 C 
HETATM    2  C7  UNL     1      -7.782   5.070  15.895  1.00  0.00     0.024 C 
HETATM    3  C8  UNL     1      -8.006   4.775  13.502  1.00  0.00     0.135 C 
HETATM    4  O1  UNL     1      -9.104   4.896  12.954  1.00  0.00    -0.297 OA
HETATM    5  C9  UNL     1      -7.162   3.555  13.210  1.00  0.00     0.080 C 
HETATM    6  C10 UNL     1      -5.684   3.768  13.499  1.00  0.00     0.022 C 
HETATM    7  C11 UNL     1      -5.218   5.221  13.246  1.00  0.00    -0.008 C 
HETATM    8  C12 UNL     1      -5.618   5.715  11.823  1.00  0.00     0.021 C 
HETATM    9  C13 UNL     1      -3.673   5.326  13.352  1.00  0.00     0.002 C 
HETATM   10  C14 UNL     1      -3.013   6.042  14.299  1.00  0.00    -0.029 C 
HETATM   11  C15 UNL     1      -3.761   6.752  15.398  1.00  0.00     0.149 C 
HETATM   12  C16 UNL     1      -5.174   6.224  15.605  1.00  0.00     0.043 C 
HETATM   13  C17 UNL     1      -5.967   6.143  14.292  1.00  0.00     0.017 C 
HETATM   14  C18 UNL     1      -1.483   6.182  14.259  1.00  0.00     0.017 C 
HETATM   15  C19 UNL     1      -0.930   4.922  15.001  1.00  0.00     0.023 C 
HETATM   16  C20 UNL     1      -0.813   7.455  14.854  1.00  0.00     0.132 C 
HETATM   17  C21 UNL     1       0.551   7.562  14.141  1.00  0.00     0.038 C 
HETATM   18  C22 UNL     1       0.506   6.592  12.927  1.00  0.00     0.001 C 
HETATM   19  C31 UNL     1      -1.023   6.323  12.752  1.00  0.00    -0.019 C 
HETATM   20  C32 UNL     1      -1.710   7.512  12.015  1.00  0.00     0.017 C 
HETATM   21  C33 UNL     1      -1.402   5.034  12.026  1.00  0.00     0.094 C 
HETATM   22  C34 UNL     1      -2.855   4.642  12.263  1.00  0.00     0.157 C 
HETATM   23  O7  UNL     1      -3.357   3.763  11.563  1.00  0.00    -0.293 OA
ENDROOT
BRANCH  18  24
HETATM   24  C23 UNL     1       1.468   7.015  11.777  1.00  0.00    -0.011 C 
HETATM   25  C24 UNL     1       1.138   6.454  10.386  1.00  0.00     0.010 C 
BRANCH  24  26
HETATM   26  C25 UNL     1       2.973   6.782  12.059  1.00  0.00     0.040 C 
BRANCH  26  27
HETATM   27  C26 UNL     1       3.897   6.812  10.827  1.00  0.00     0.142 C 
BRANCH  27  28
HETATM   28  O4  UNL     1       4.062   5.462  10.392  1.00  0.00    -0.392 OA
HETATM   29  H43 UNL     1       4.666   5.475   9.631  1.00  0.00     0.210 HD
ENDBRANCH  27  28
BRANCH  27  30
HETATM   30  C27 UNL     1       5.274   7.336  11.089  1.00  0.00     0.018 C 
HETATM   31  C28 UNL     1       5.633   8.587  11.446  1.00  0.00     0.010 C 
HETATM   32  C29 UNL     1       4.712   9.745  11.685  1.00  0.00     0.055 C 
BRANCH  31  33
HETATM   33  C30 UNL     1       7.083   8.813  11.667  1.00  0.00     0.171 C 
HETATM   34  O5  UNL     1       7.683   9.866  11.544  1.00  0.00    -0.646 OA
BRANCH  33  35
HETATM   35  O6  UNL     1       7.722   7.690  12.032  1.00  0.00    -0.773 OA
HETATM   36  H48 UNL     1       8.652   7.978  12.145  1.00  0.00     0.167 HD
ENDBRANCH  33  35
ENDBRANCH  31  33
ENDBRANCH  27  30
ENDBRANCH  26  27
ENDBRANCH  24  26
ENDBRANCH  18  24
BRANCH  16  37
HETATM   37  O3  UNL     1      -0.598   7.404  16.256  1.00  0.00    -0.394 OA
HETATM   38  H32 UNL     1      -1.476   7.237  16.659  1.00  0.00     0.210 HD
ENDBRANCH  16  37
BRANCH  11  39
HETATM   39  O2  UNL     1      -3.063   6.616  16.633  1.00  0.00    -0.391 OA
HETATM   40  H24 UNL     1      -3.238   5.719  16.975  1.00  0.00     0.210 HD
ENDBRANCH  11  39
BRANCH   1  41
HETATM   41  C5  UNL     1      -8.380   7.071  14.420  1.00  0.00     0.047 C 
BRANCH  41  42
HETATM   42  C4  UNL     1      -9.563   7.259  15.381  1.00  0.00     0.270 C 
BRANCH  42  43
HETATM   43  N1  UNL     1     -10.777   6.614  14.892  1.00  0.00     0.083 N 
HETATM   44  H8  UNL     1     -10.565   6.111  14.030  1.00  0.00     0.315 HD
BRANCH  43  45
HETATM   45  C3  UNL     1     -11.840   7.587  14.640  1.00  0.00     0.269 C 
BRANCH  45  46
HETATM   46  C2  UNL     1     -11.277   8.897  14.078  1.00  0.00     0.025 C 
HETATM   47  C1  UNL     1     -11.828   9.263  12.708  1.00  0.00     0.007 C 
ENDBRANCH  45  46
ENDBRANCH  43  45
ENDBRANCH  42  43
ENDBRANCH  41  42
ENDBRANCH   1  41
TORSDOF 14
ENDMDL
MODEL 3
REMARK minimizedAffinity -6.65060139
REMARK CNNscore 0.604165554
REMARK CNNaffinity 6.34741592
REMARK  14 active torsions:
REMARK  status: ('A' for Active; 'I' for Inactive)
REMARK    1  A    between atoms: C2_2  and  C3_3 
REMARK    2  A    between atoms: C3_3  and  N1_4 
REMARK    3  A    between atoms: N1_4  and  C4_5 
REMARK    4  A    between atoms: C4_5  and  C5_6 
REMARK    5  A    between atoms: C5_6  and  C6_7 
REMARK    6  A    between atoms: C15_17  and  O2_18 
REMARK    7  A    between atoms: C20_23  and  O3_24 
REMARK    8  A    between atoms: C22_26  and  C23_27 
REMARK    9  A    between atoms: C23_27  and  C25_29 
REMARK   10  A    between atoms: C25_29  and  C26_30 
REMARK   11  A    between atoms: C26_30  and  O4_31 
REMARK   12  A    between atoms: C26_30  and  C27_32 
REMARK   13  A    between atoms: C28_33  and  C30_35 
REMARK   14  A    between atoms: C30_35  and  O6_37 
ROOT
HETATM    1  C6  UNL     1     -15.455   4.228  23.937  1.00  0.00     0.023 C 
HETATM    2  C7  UNL     1     -16.583   4.061  22.890  1.00  0.00     0.024 C 
HETATM    3  C8  UNL     1     -16.222   4.335  25.269  1.00  0.00     0.135 C 
HETATM    4  O1  UNL     1     -16.343   3.378  26.038  1.00  0.00    -0.297 OA
HETATM    5  C9  UNL     1     -16.923   5.636  25.590  1.00  0.00     0.080 C 
HETATM    6  C10 UNL     1     -16.295   6.838  24.900  1.00  0.00     0.022 C 
HETATM    7  C11 UNL     1     -14.766   6.702  24.714  1.00  0.00    -0.008 C 
HETATM    8  C12 UNL     1     -14.051   6.353  26.055  1.00  0.00     0.021 C 
HETATM    9  C13 UNL     1     -14.158   8.036  24.203  1.00  0.00     0.002 C 
HETATM   10  C14 UNL     1     -13.566   8.198  22.991  1.00  0.00    -0.029 C 
HETATM   11  C15 UNL     1     -13.522   7.071  21.992  1.00  0.00     0.149 C 
HETATM   12  C16 UNL     1     -14.551   5.983  22.264  1.00  0.00     0.043 C 
HETATM   13  C17 UNL     1     -14.518   5.496  23.721  1.00  0.00     0.017 C 
HETATM   14  C18 UNL     1     -12.889   9.525  22.615  1.00  0.00     0.017 C 
HETATM   15  C19 UNL     1     -14.030  10.427  22.041  1.00  0.00     0.023 C 
HETATM   16  C20 UNL     1     -11.696   9.521  21.614  1.00  0.00     0.132 C 
HETATM   17  C21 UNL     1     -10.909  10.812  21.922  1.00  0.00     0.038 C 
HETATM   18  C22 UNL     1     -11.431  11.348  23.285  1.00  0.00     0.001 C 
HETATM   19  C31 UNL     1     -12.159  10.107  23.892  1.00  0.00    -0.019 C 
HETATM   20  C32 UNL     1     -11.130   9.113  24.509  1.00  0.00     0.017 C 
HETATM   21  C33 UNL     1     -13.225  10.398  24.946  1.00  0.00     0.094 C 
HETATM   22  C34 UNL     1     -14.157   9.214  25.170  1.00  0.00     0.157 C 
HETATM   23  O7  UNL     1     -14.910   9.224  26.144  1.00  0.00    -0.293 OA
ENDROOT
BRANCH  18  24
HETATM   24  C23 UNL     1     -10.378  12.213  24.039  1.00  0.00    -0.011 C 
HETATM   25  C24 UNL     1     -10.888  13.545  24.610  1.00  0.00     0.010 C 
BRANCH  24  26
HETATM   26  C25 UNL     1      -9.066  12.481  23.261  1.00  0.00     0.040 C 
BRANCH  26  27
HETATM   27  C26 UNL     1      -8.941  13.875  22.620  1.00  0.00     0.142 C 
BRANCH  27  28
HETATM   28  O4  UNL     1      -8.775  13.679  21.215  1.00  0.00    -0.392 OA
HETATM   29  H43 UNL     1      -8.668  14.557  20.811  1.00  0.00     0.210 HD
ENDBRANCH  27  28
BRANCH  27  30
HETATM   30  C27 UNL     1      -7.755  14.669  23.072  1.00  0.00     0.018 C 
HETATM   31  C28 UNL     1      -6.449  14.349  22.960  1.00  0.00     0.010 C 
HETATM   32  C29 UNL     1      -5.885  13.113  22.327  1.00  0.00     0.055 C 
BRANCH  31  33
HETATM   33  C30 UNL     1      -5.484  15.352  23.477  1.00  0.00     0.171 C 
HETATM   34  O5  UNL     1      -5.753  16.413  24.010  1.00  0.00    -0.646 OA
BRANCH  33  35
HETATM   35  O6  UNL     1      -4.210  14.972  23.293  1.00  0.00    -0.773 OA
HETATM   36  H48 UNL     1      -3.690  15.711  23.674  1.00  0.00     0.167 HD
ENDBRANCH  33  35
ENDBRANCH  31  33
ENDBRANCH  27  30
ENDBRANCH  26  27
ENDBRANCH  24  26
ENDBRANCH  18  24
BRANCH  16  37
HETATM   37  O3  UNL     1     -12.075   9.527  20.248  1.00  0.00    -0.394 OA
HETATM   38  H32 UNL     1     -12.652   8.744  20.123  1.00  0.00     0.210 HD
ENDBRANCH  16  37
BRANCH  11  39
HETATM   39  O2  UNL     1     -13.758   7.571  20.678  1.00  0.00    -0.391 OA
HETATM   40  H24 UNL     1     -14.716   7.728  20.589  1.00  0.00     0.210 HD
ENDBRANCH  11  39
BRANCH   1  41
HETATM   41  C5  UNL     1     -14.585   2.925  24.010  1.00  0.00     0.047 C 
BRANCH  41  42
HETATM   42  C4  UNL     1     -13.057   3.055  24.077  1.00  0.00     0.270 C 
BRANCH  42  43
HETATM   43  N1  UNL     1     -12.394   1.755  24.093  1.00  0.00     0.083 N 
HETATM   44  H8  UNL     1     -13.093   1.022  23.979  1.00  0.00     0.315 HD
BRANCH  43  45
HETATM   45  C3  UNL     1     -11.659   1.541  25.340  1.00  0.00     0.269 C 
BRANCH  45  46
HETATM   46  C2  UNL     1     -12.457   2.037  26.551  1.00  0.00     0.025 C 
HETATM   47  C1  UNL     1     -11.872   1.609  27.888  1.00  0.00     0.007 C 
ENDBRANCH  45  46
ENDBRANCH  43  45
ENDBRANCH  42  43
ENDBRANCH  41  42
ENDBRANCH   1  41
TORSDOF 14
ENDMDL
MODEL 4
REMARK minimizedAffinity -6.77964735
REMARK CNNscore 0.602591455
REMARK CNNaffinity 6.65401649
REMARK  14 active torsions:
REMARK  status: ('A' for Active; 'I' for Inactive)
REMARK    1  A    between atoms: C2_2  and  C3_3 
REMARK    2  A    between atoms: C3_3  and  N1_4 
REMARK    3  A    between atoms: N1_4  and  C4_5 
REMARK    4  A    between atoms: C4_5  and  C5_6 
REMARK    5  A    between atoms: C5_6  and  C6_7 
REMARK    6  A    between atoms: C15_17  and  O2_18 
REMARK    7  A    between atoms: C20_23  and  O3_24 
REMARK    8  A    between atoms: C22_26  and  C23_27 
REMARK    9  A    between atoms: C23_27  and  C25_29 
REMARK   10  A    between atoms: C25_29  and  C26_30 
REMARK   11  A    between atoms: C26_30  and  O4_31 
REMARK   12  A    between atoms: C26_30  and  C27_32 
REMARK   13  A    between atoms: C28_33  and  C30_35 
REMARK   14  A    between atoms: C30_35  and  O6_37 
ROOT
HETATM    1  C6  UNL     1      -3.194   7.849  13.714  1.00  0.00     0.023 C 
HETATM    2  C7  UNL     1      -4.007   8.520  12.581  1.00  0.00     0.024 C 
HETATM    3  C8  UNL     1      -4.279   7.163  14.567  1.00  0.00     0.135 C 
HETATM    4  O1  UNL     1      -4.523   5.957  14.476  1.00  0.00    -0.297 OA
HETATM    5  C9  UNL     1      -5.126   8.024  15.477  1.00  0.00     0.080 C 
HETATM    6  C10 UNL     1      -4.429   9.307  15.903  1.00  0.00     0.022 C 
HETATM    7  C11 UNL     1      -2.897   9.150  16.041  1.00  0.00    -0.008 C 
HETATM    8  C12 UNL     1      -2.521   7.945  16.955  1.00  0.00     0.021 C 
HETATM    9  C13 UNL     1      -2.273  10.421  16.678  1.00  0.00     0.002 C 
HETATM   10  C14 UNL     1      -1.407  11.254  16.044  1.00  0.00    -0.029 C 
HETATM   11  C15 UNL     1      -1.034  11.034  14.601  1.00  0.00     0.149 C 
HETATM   12  C16 UNL     1      -2.021  10.151  13.850  1.00  0.00     0.043 C 
HETATM   13  C17 UNL     1      -2.323   8.844  14.599  1.00  0.00     0.017 C 
HETATM   14  C18 UNL     1      -0.750  12.426  16.790  1.00  0.00     0.017 C 
HETATM   15  C19 UNL     1      -1.769  13.608  16.689  1.00  0.00     0.023 C 
HETATM   16  C20 UNL     1       0.654  12.929  16.344  1.00  0.00     0.132 C 
HETATM   17  C21 UNL     1       1.246  13.622  17.589  1.00  0.00     0.038 C 
HETATM   18  C22 UNL     1       0.362  13.215  18.800  1.00  0.00     0.001 C 
HETATM   19  C31 UNL     1      -0.409  11.966  18.265  1.00  0.00    -0.019 C 
HETATM   20  C32 UNL     1       0.498  10.699  18.311  1.00  0.00     0.017 C 
HETATM   21  C33 UNL     1      -1.724  11.633  18.966  1.00  0.00     0.094 C 
HETATM   22  C34 UNL     1      -2.598  10.695  18.141  1.00  0.00     0.157 C 
HETATM   23  O7  UNL     1      -3.571  10.164  18.676  1.00  0.00    -0.293 OA
ENDROOT
BRANCH  18  24
HETATM   24  C23 UNL     1       1.127  13.269  20.155  1.00  0.00    -0.011 C 
HETATM   25  C24 UNL     1       2.154  14.402  20.302  1.00  0.00     0.010 C 
BRANCH  24  26
HETATM   26  C25 UNL     1       1.795  11.940  20.588  1.00  0.00     0.040 C 
BRANCH  26  27
HETATM   27  C26 UNL     1       3.239  11.726  20.099  1.00  0.00     0.142 C 
BRANCH  27  28
HETATM   28  O4  UNL     1       3.434  10.317  19.965  1.00  0.00    -0.392 OA
HETATM   29  H43 UNL     1       4.353  10.178  19.682  1.00  0.00     0.210 HD
ENDBRANCH  27  28
BRANCH  27  30
HETATM   30  C27 UNL     1       4.299  12.205  21.041  1.00  0.00     0.018 C 
HETATM   31  C28 UNL     1       4.633  11.694  22.245  1.00  0.00     0.010 C 
HETATM   32  C29 UNL     1       4.019  10.498  22.908  1.00  0.00     0.055 C 
BRANCH  31  33
HETATM   33  C30 UNL     1       5.753  12.365  22.951  1.00  0.00     0.171 C 
HETATM   34  O5  UNL     1       6.806  11.856  23.293  1.00  0.00    -0.646 OA
BRANCH  33  35
HETATM   35  O6  UNL     1       5.495  13.658  23.200  1.00  0.00    -0.773 OA
HETATM   36  H48 UNL     1       6.303  13.971  23.658  1.00  0.00     0.167 HD
ENDBRANCH  33  35
ENDBRANCH  31  33
ENDBRANCH  27  30
ENDBRANCH  26  27
ENDBRANCH  24  26
ENDBRANCH  18  24
BRANCH  16  37
HETATM   37  O3  UNL     1       0.633  13.853  15.268  1.00  0.00    -0.394 OA
HETATM   38  H32 UNL     1       0.161  13.404  14.534  1.00  0.00     0.210 HD
ENDBRANCH  16  37
BRANCH  11  39
HETATM   39  O2  UNL     1      -0.964  12.283  13.917  1.00  0.00    -0.391 OA
HETATM   40  H24 UNL     1      -1.878  12.568  13.728  1.00  0.00     0.210 HD
ENDBRANCH  11  39
BRANCH   1  41
HETATM   41  C5  UNL     1      -2.283   6.714  13.129  1.00  0.00     0.047 C 
BRANCH  41  42
HETATM   42  C4  UNL     1      -1.117   6.187  13.976  1.00  0.00     0.270 C 
BRANCH  42  43
HETATM   43  N1  UNL     1       0.152   6.808  13.613  1.00  0.00     0.083 N 
HETATM   44  H8  UNL     1       0.126   7.796  13.863  1.00  0.00     0.315 HD
BRANCH  43  45
HETATM   45  C3  UNL     1       0.428   6.673  12.182  1.00  0.00     0.269 C 
BRANCH  45  46
HETATM   46  C2  UNL     1       1.026   5.301  11.855  1.00  0.00     0.025 C 
HETATM   47  C1  UNL     1       2.051   5.330  10.732  1.00  0.00     0.007 C 
ENDBRANCH  45  46
ENDBRANCH  43  45
ENDBRANCH  42  43
ENDBRANCH  41  42
ENDBRANCH   1  41
TORSDOF 14
ENDMDL
MODEL 5
REMARK minimizedAffinity -7.54083395
REMARK CNNscore 0.51267767
REMARK CNNaffinity 6.6901679
REMARK  14 active torsions:
REMARK  status: ('A' for Active; 'I' for Inactive)
REMARK    1  A    between atoms: C2_2  and  C3_3 
REMARK    2  A    between atoms: C3_3  and  N1_4 
REMARK    3  A    between atoms: N1_4  and  C4_5 
REMARK    4  A    between atoms: C4_5  and  C5_6 
REMARK    5  A    between atoms: C5_6  and  C6_7 
REMARK    6  A    between atoms: C15_17  and  O2_18 
REMARK    7  A    between atoms: C20_23  and  O3_24 
REMARK    8  A    between atoms: C22_26  and  C23_27 
REMARK    9  A    between atoms: C23_27  and  C25_29 
REMARK   10  A    between atoms: C25_29  and  C26_30 
REMARK   11  A    between atoms: C26_30  and  O4_31 
REMARK   12  A    between atoms: C26_30  and  C27_32 
REMARK   13  A    between atoms: C28_33  and  C30_35 
REMARK   14  A    between atoms: C30_35  and  O6_37 
ROOT
HETATM    1  C6  UNL     1      -8.198  -8.806  -2.957  1.00  0.00     0.023 C 
HETATM    2  C7  UNL     1      -9.685  -9.173  -3.177  1.00  0.00     0.024 C 
HETATM    3  C8  UNL     1      -7.462  -9.680  -3.992  1.00  0.00     0.135 C 
HETATM    4  O1  UNL     1      -7.072  -9.232  -5.073  1.00  0.00    -0.297 OA
HETATM    5  C9  UNL     1      -7.300 -11.154  -3.699  1.00  0.00     0.080 C 
HETATM    6  C10 UNL     1      -7.315 -11.472  -2.211  1.00  0.00     0.022 C 
HETATM    7  C11 UNL     1      -6.708 -10.345  -1.343  1.00  0.00    -0.008 C 
HETATM    8  C12 UNL     1      -5.290  -9.933  -1.843  1.00  0.00     0.021 C 
HETATM    9  C13 UNL     1      -6.557 -10.811   0.130  1.00  0.00     0.002 C 
HETATM   10  C14 UNL     1      -7.230 -10.274   1.181  1.00  0.00    -0.029 C 
HETATM   11  C15 UNL     1      -8.262  -9.197   0.972  1.00  0.00     0.149 C 
HETATM   12  C16 UNL     1      -8.781  -9.126  -0.457  1.00  0.00     0.043 C 
HETATM   13  C17 UNL     1      -7.645  -9.080  -1.491  1.00  0.00     0.017 C 
HETATM   14  C18 UNL     1      -6.933 -10.722   2.620  1.00  0.00     0.017 C 
HETATM   15  C19 UNL     1      -7.823 -11.986   2.855  1.00  0.00     0.023 C 
HETATM   16  C20 UNL     1      -7.152  -9.724   3.795  1.00  0.00     0.132 C 
HETATM   17  C21 UNL     1      -6.235 -10.230   4.928  1.00  0.00     0.038 C 
HETATM   18  C22 UNL     1      -5.264 -11.266   4.298  1.00  0.00     0.001 C 
HETATM   19  C31 UNL     1      -5.378 -10.967   2.769  1.00  0.00    -0.019 C 
HETATM   20  C32 UNL     1      -4.527  -9.717   2.389  1.00  0.00     0.017 C 
HETATM   21  C33 UNL     1      -4.992 -12.105   1.827  1.00  0.00     0.094 C 
HETATM   22  C34 UNL     1      -5.519 -11.891   0.414  1.00  0.00     0.157 C 
HETATM   23  O7  UNL     1      -5.094 -12.604  -0.495  1.00  0.00    -0.293 OA
ENDROOT
BRANCH  18  24
HETATM   24  C23 UNL     1      -3.921 -11.391   5.078  1.00  0.00    -0.011 C 
HETATM   25  C24 UNL     1      -2.984 -12.521   4.625  1.00  0.00     0.010 C 
BRANCH  24  26
HETATM   26  C25 UNL     1      -4.058 -11.453   6.619  1.00  0.00     0.040 C 
BRANCH  26  27
HETATM   27  C26 UNL     1      -3.797 -10.133   7.368  1.00  0.00     0.142 C 
BRANCH  27  28
HETATM   28  O4  UNL     1      -2.435  -9.775   7.127  1.00  0.00    -0.392 OA
HETATM   29  H43 UNL     1      -2.260  -8.956   7.621  1.00  0.00     0.210 HD
ENDBRANCH  27  28
BRANCH  27  30
HETATM   30  C27 UNL     1      -3.949 -10.214   8.855  1.00  0.00     0.018 C 
HETATM   31  C28 UNL     1      -5.085 -10.140   9.579  1.00  0.00     0.010 C 
HETATM   32  C29 UNL     1      -6.475  -9.977   9.043  1.00  0.00     0.055 C 
BRANCH  31  33
HETATM   33  C30 UNL     1      -4.934 -10.282  11.049  1.00  0.00     0.171 C 
HETATM   34  O5  UNL     1      -5.541 -11.051  11.772  1.00  0.00    -0.646 OA
BRANCH  33  35
HETATM   35  O6  UNL     1      -4.018  -9.438  11.549  1.00  0.00    -0.773 OA
HETATM   36  H48 UNL     1      -4.019  -9.637  12.509  1.00  0.00     0.167 HD
ENDBRANCH  33  35
ENDBRANCH  31  33
ENDBRANCH  27  30
ENDBRANCH  26  27
ENDBRANCH  24  26
ENDBRANCH  18  24
BRANCH  16  37
HETATM   37  O3  UNL     1      -8.486  -9.664   4.274  1.00  0.00    -0.394 OA
HETATM   38  H32 UNL     1      -9.042  -9.435   3.498  1.00  0.00     0.210 HD
ENDBRANCH  16  37
BRANCH  11  39
HETATM   39  O2  UNL     1      -9.381  -9.416   1.828  1.00  0.00    -0.391 OA
HETATM   40  H24 UNL     1      -9.918 -10.129   1.435  1.00  0.00     0.210 HD
ENDBRANCH  11  39
BRANCH   1  41
HETATM   41  C5  UNL     1      -7.944  -7.310  -3.356  1.00  0.00     0.047 C 
BRANCH  41  42
HETATM   42  C4  UNL     1      -9.137  -6.345  -3.416  1.00  0.00     0.270 C 
BRANCH  42  43
HETATM   43  N1  UNL     1      -8.878  -5.204  -4.287  1.00  0.00     0.083 N 
HETATM   44  H8  UNL     1      -9.091  -4.343  -3.783  1.00  0.00     0.315 HD
BRANCH  43  45
HETATM   45  C3  UNL     1      -9.681  -5.267  -5.509  1.00  0.00     0.269 C 
BRANCH  45  46
HETATM   46  C2  UNL     1      -9.342  -6.510  -6.337  1.00  0.00     0.025 C 
HETATM   47  C1  UNL     1     -10.562  -7.306  -6.777  1.00  0.00     0.007 C 
ENDBRANCH  45  46
ENDBRANCH  43  45
ENDBRANCH  42  43
ENDBRANCH  41  42
ENDBRANCH   1  41
TORSDOF 14
ENDMDL
MODEL 6
REMARK minimizedAffinity -8.92963409
REMARK CNNscore 0.507430613
REMARK CNNaffinity 7.01765394
REMARK  14 active torsions:
REMARK  status: ('A' for Active; 'I' for Inactive)
REMARK    1  A    between atoms: C2_2  and  C3_3 
REMARK    2  A    between atoms: C3_3  and  N1_4 
REMARK    3  A    between atoms: N1_4  and  C4_5 
REMARK    4  A    between atoms: C4_5  and  C5_6 
REMARK    5  A    between atoms: C5_6  and  C6_7 
REMARK    6  A    between atoms: C15_17  and  O2_18 
REMARK    7  A    between atoms: C20_23  and  O3_24 
REMARK    8  A    between atoms: C22_26  and  C23_27 
REMARK    9  A    between atoms: C23_27  and  C25_29 
REMARK   10  A    between atoms: C25_29  and  C26_30 
REMARK   11  A    between atoms: C26_30  and  O4_31 
REMARK   12  A    between atoms: C26_30  and  C27_32 
REMARK   13  A    between atoms: C28_33  and  C30_35 
REMARK   14  A    between atoms: C30_35  and  O6_37 
ROOT
HETATM    1  C6  UNL     1      -0.727   4.984  12.019  1.00  0.00     0.023 C 
HETATM    2  C7  UNL     1      -0.332   3.491  12.118  1.00  0.00     0.024 C 
HETATM    3  C8  UNL     1       0.151   5.653  13.095  1.00  0.00     0.135 C 
HETATM    4  O1  UNL     1       1.194   6.250  12.815  1.00  0.00    -0.297 OA
HETATM    5  C9  UNL     1      -0.241   5.488  14.545  1.00  0.00     0.080 C 
HETATM    6  C10 UNL     1      -1.729   5.233  14.736  1.00  0.00     0.022 C 
HETATM    7  C11 UNL     1      -2.607   5.940  13.677  1.00  0.00    -0.008 C 
HETATM    8  C12 UNL     1      -2.278   7.460  13.578  1.00  0.00     0.021 C 
HETATM    9  C13 UNL     1      -4.111   5.818  14.045  1.00  0.00     0.002 C 
HETATM   10  C14 UNL     1      -5.031   5.142  13.310  1.00  0.00    -0.029 C 
HETATM   11  C15 UNL     1      -4.628   4.373  12.078  1.00  0.00     0.149 C 
HETATM   12  C16 UNL     1      -3.141   4.053  12.026  1.00  0.00     0.043 C 
HETATM   13  C17 UNL     1      -2.267   5.292  12.275  1.00  0.00     0.017 C 
HETATM   14  C18 UNL     1      -6.520   5.170  13.690  1.00  0.00     0.017 C 
HETATM   15  C19 UNL     1      -6.703   4.029  14.742  1.00  0.00     0.023 C 
HETATM   16  C20 UNL     1      -7.599   5.011  12.578  1.00  0.00     0.132 C 
HETATM   17  C21 UNL     1      -8.870   5.668  13.155  1.00  0.00     0.038 C 
HETATM   18  C22 UNL     1      -8.432   6.487  14.402  1.00  0.00     0.001 C 
HETATM   19  C31 UNL     1      -6.888   6.619  14.208  1.00  0.00    -0.019 C 
HETATM   20  C32 UNL     1      -6.556   7.736  13.173  1.00  0.00     0.017 C 
HETATM   21  C33 UNL     1      -6.069   6.885  15.469  1.00  0.00     0.094 C 
HETATM   22  C34 UNL     1      -4.589   6.584  15.273  1.00  0.00     0.157 C 
HETATM   23  O7  UNL     1      -3.785   6.967  16.123  1.00  0.00    -0.293 OA
ENDROOT
BRANCH  18  24
HETATM   24  C23 UNL     1      -9.389   7.676  14.713  1.00  0.00    -0.011 C 
HETATM   25  C24 UNL     1      -9.346   8.215  16.151  1.00  0.00     0.010 C 
BRANCH  24  26
HETATM   26  C25 UNL     1     -10.869   7.451  14.316  1.00  0.00     0.040 C 
BRANCH  26  27
HETATM   27  C26 UNL     1     -11.373   8.272  13.115  1.00  0.00     0.142 C 
BRANCH  27  28
HETATM   28  O4  UNL     1     -11.236   9.651  13.461  1.00  0.00    -0.392 OA
HETATM   29  H43 UNL     1     -11.578  10.172  12.715  1.00  0.00     0.210 HD
ENDBRANCH  27  28
BRANCH  27  30
HETATM   30  C27 UNL     1     -12.818   8.070  12.777  1.00  0.00     0.018 C 
HETATM   31  C28 UNL     1     -13.638   7.084  13.196  1.00  0.00     0.010 C 
HETATM   32  C29 UNL     1     -13.283   5.963  14.126  1.00  0.00     0.055 C 
BRANCH  31  33
HETATM   33  C30 UNL     1     -15.041   7.155  12.718  1.00  0.00     0.171 C 
HETATM   34  O5  UNL     1     -15.414   7.202  11.559  1.00  0.00    -0.646 OA
BRANCH  33  35
HETATM   35  O6  UNL     1     -15.923   7.167  13.730  1.00  0.00    -0.773 OA
HETATM   36  H48 UNL     1     -16.792   7.213  13.280  1.00  0.00     0.167 HD
ENDBRANCH  33  35
ENDBRANCH  31  33
ENDBRANCH  27  30
ENDBRANCH  26  27
ENDBRANCH  24  26
ENDBRANCH  18  24
BRANCH  16  37
HETATM   37  O3  UNL     1      -7.891   3.667  12.232  1.00  0.00    -0.394 OA
HETATM   38  H32 UNL     1      -7.037   3.264  11.966  1.00  0.00     0.210 HD
ENDBRANCH  16  37
BRANCH  11  39
HETATM   39  O2  UNL     1      -5.338   3.139  12.016  1.00  0.00    -0.391 OA
HETATM   40  H24 UNL     1      -4.916   2.523  12.645  1.00  0.00     0.210 HD
ENDBRANCH  11  39
BRANCH   1  41
HETATM   41  C5  UNL     1      -0.284   5.571  10.634  1.00  0.00     0.047 C 
BRANCH  41  42
HETATM   42  C4  UNL     1      -0.124   7.091  10.489  1.00  0.00     0.270 C 
BRANCH  42  43
HETATM   43  N1  UNL     1       1.161   7.455   9.901  1.00  0.00     0.083 N 
HETATM   44  H8  UNL     1       1.722   7.943  10.600  1.00  0.00     0.315 HD
BRANCH  43  45
HETATM   45  C3  UNL     1       0.993   8.309   8.725  1.00  0.00     0.269 C 
BRANCH  45  46
HETATM   46  C2  UNL     1       2.146   8.126   7.733  1.00  0.00     0.025 C 
HETATM   47  C1  UNL     1       1.970   6.936   6.801  1.00  0.00     0.007 C 
ENDBRANCH  45  46
ENDBRANCH  43  45
ENDBRANCH  42  43
ENDBRANCH  41  42
ENDBRANCH   1  41
TORSDOF 14
ENDMDL
MODEL 7
REMARK minimizedAffinity -7.47059536
REMARK CNNscore 0.477116287
REMARK CNNaffinity 6.60249472
REMARK  14 active torsions:
REMARK  status: ('A' for Active; 'I' for Inactive)
REMARK    1  A    between atoms: C2_2  and  C3_3 
REMARK    2  A    between atoms: C3_3  and  N1_4 
REMARK    3  A    between atoms: N1_4  and  C4_5 
REMARK    4  A    between atoms: C4_5  and  C5_6 
REMARK    5  A    between atoms: C5_6  and  C6_7 
REMARK    6  A    between atoms: C15_17  and  O2_18 
REMARK    7  A    between atoms: C20_23  and  O3_24 
REMARK    8  A    between atoms: C22_26  and  C23_27 
REMARK    9  A    between atoms: C23_27  and  C25_29 
REMARK   10  A    between atoms: C25_29  and  C26_30 
REMARK   11  A    between atoms: C26_30  and  O4_31 
REMARK   12  A    between atoms: C26_30  and  C27_32 
REMARK   13  A    between atoms: C28_33  and  C30_35 
REMARK   14  A    between atoms: C30_35  and  O6_37 
ROOT
HETATM    1  C6  UNL     1      -3.255   7.817  13.577  1.00  0.00     0.023 C 
HETATM    2  C7  UNL     1      -4.243   8.567  12.650  1.00  0.00     0.024 C 
HETATM    3  C8  UNL     1      -4.186   7.020  14.513  1.00  0.00     0.135 C 
HETATM    4  O1  UNL     1      -4.421   5.821  14.342  1.00  0.00    -0.297 OA
HETATM    5  C9  UNL     1      -4.898   7.764  15.620  1.00  0.00     0.080 C 
HETATM    6  C10 UNL     1      -4.165   9.023  16.060  1.00  0.00     0.022 C 
HETATM    7  C11 UNL     1      -2.627   8.901  15.949  1.00  0.00    -0.008 C 
HETATM    8  C12 UNL     1      -2.097   7.627  16.674  1.00  0.00     0.021 C 
HETATM    9  C13 UNL     1      -1.934  10.125  16.606  1.00  0.00     0.002 C 
HETATM   10  C14 UNL     1      -1.189  11.041  15.934  1.00  0.00    -0.029 C 
HETATM   11  C15 UNL     1      -1.038  10.970  14.436  1.00  0.00     0.149 C 
HETATM   12  C16 UNL     1      -2.113  10.131  13.760  1.00  0.00     0.043 C 
HETATM   13  C17 UNL     1      -2.276   8.751  14.414  1.00  0.00     0.017 C 
HETATM   14  C18 UNL     1      -0.445  12.157  16.684  1.00  0.00     0.017 C 
HETATM   15  C19 UNL     1      -1.487  13.311  16.853  1.00  0.00     0.023 C 
HETATM   16  C20 UNL     1       0.866  12.743  16.083  1.00  0.00     0.132 C 
HETATM   17  C21 UNL     1       1.630  13.334  17.286  1.00  0.00     0.038 C 
HETATM   18  C22 UNL     1       0.948  12.787  18.570  1.00  0.00     0.001 C 
HETATM   19  C31 UNL     1       0.125  11.571  18.038  1.00  0.00    -0.019 C 
HETATM   20  C32 UNL     1       1.049  10.334  17.823  1.00  0.00     0.017 C 
HETATM   21  C33 UNL     1      -1.061  11.132  18.893  1.00  0.00     0.094 C 
HETATM   22  C34 UNL     1      -2.036  10.250  18.122  1.00  0.00     0.157 C 
HETATM   23  O7  UNL     1      -2.907   9.641  18.742  1.00  0.00    -0.293 OA
ENDROOT
BRANCH  18  24
HETATM   24  C23 UNL     1       1.911  12.737  19.794  1.00  0.00    -0.011 C 
HETATM   25  C24 UNL     1       1.938  13.991  20.679  1.00  0.00     0.010 C 
BRANCH  24  26
HETATM   26  C25 UNL     1       3.370  12.332  19.467  1.00  0.00     0.040 C 
BRANCH  26  27
HETATM   27  C26 UNL     1       4.106  11.540  20.563  1.00  0.00     0.142 C 
BRANCH  27  28
HETATM   28  O4  UNL     1       5.232  10.914  19.946  1.00  0.00    -0.392 OA
HETATM   29  H43 UNL     1       5.683  10.392  20.630  1.00  0.00     0.210 HD
ENDBRANCH  27  28
BRANCH  27  30
HETATM   30  C27 UNL     1       3.307  10.438  21.186  1.00  0.00     0.018 C 
HETATM   31  C28 UNL     1       3.528   9.814  22.362  1.00  0.00     0.010 C 
HETATM   32  C29 UNL     1       4.631  10.105  23.333  1.00  0.00     0.055 C 
BRANCH  31  33
HETATM   33  C30 UNL     1       2.544   8.769  22.741  1.00  0.00     0.171 C 
HETATM   34  O5  UNL     1       1.914   8.054  21.983  1.00  0.00    -0.646 OA
BRANCH  33  35
HETATM   35  O6  UNL     1       2.394   8.672  24.071  1.00  0.00    -0.773 OA
HETATM   36  H48 UNL     1       1.731   7.957  24.178  1.00  0.00     0.167 HD
ENDBRANCH  33  35
ENDBRANCH  31  33
ENDBRANCH  27  30
ENDBRANCH  26  27
ENDBRANCH  24  26
ENDBRANCH  18  24
BRANCH  16  37
HETATM   37  O3  UNL     1       0.665  13.764  15.118  1.00  0.00    -0.394 OA
HETATM   38  H32 UNL     1       0.095  13.371  14.423  1.00  0.00     0.210 HD
ENDBRANCH  16  37
BRANCH  11  39
HETATM   39  O2  UNL     1      -1.094  12.279  13.875  1.00  0.00    -0.391 OA
HETATM   40  H24 UNL     1      -2.030  12.552  13.855  1.00  0.00     0.210 HD
ENDBRANCH  11  39
BRANCH   1  41
HETATM   41  C5  UNL     1      -2.426   6.771  12.753  1.00  0.00     0.047 C 
BRANCH  41  42
HETATM   42  C4  UNL     1      -1.082   6.284  13.311  1.00  0.00     0.270 C 
BRANCH  42  43
HETATM   43  N1  UNL     1      -0.804   4.899  12.947  1.00  0.00     0.083 N 
HETATM   44  H8  UNL     1       0.184   4.703  13.108  1.00  0.00     0.315 HD
BRANCH  43  45
HETATM   45  C3  UNL     1      -1.135   4.632  11.547  1.00  0.00     0.269 C 
BRANCH  45  46
HETATM   46  C2  UNL     1      -1.821   3.272  11.385  1.00  0.00     0.025 C 
HETATM   47  C1  UNL     1      -3.205   3.204  12.013  1.00  0.00     0.007 C 
ENDBRANCH  45  46
ENDBRANCH  43  45
ENDBRANCH  42  43
ENDBRANCH  41  42
ENDBRANCH   1  41
TORSDOF 14
ENDMDL
MODEL 8
REMARK minimizedAffinity -7.00307941
REMARK CNNscore 0.464053154
REMARK CNNaffinity 6.32753706
REMARK  14 active torsions:
REMARK  status: ('A' for Active; 'I' for Inactive)
REMARK    1  A    between atoms: C2_2  and  C3_3 
REMARK    2  A    between atoms: C3_3  and  N1_4 
REMARK    3  A    between atoms: N1_4  and  C4_5 
REMARK    4  A    between atoms: C4_5  and  C5_6 
REMARK    5  A    between atoms: C5_6  and  C6_7 
REMARK    6  A    between atoms: C15_17  and  O2_18 
REMARK    7  A    between atoms: C20_23  and  O3_24 
REMARK    8  A    between atoms: C22_26  and  C23_27 
REMARK    9  A    between atoms: C23_27  and  C25_29 
REMARK   10  A    between atoms: C25_29  and  C26_30 
REMARK   11  A    between atoms: C26_30  and  O4_31 
REMARK   12  A    between atoms: C26_30  and  C27_32 
REMARK   13  A    between atoms: C28_33  and  C30_35 
REMARK   14  A    between atoms: C30_35  and  O6_37 
ROOT
HETATM    1  C6  UNL     1       1.069   7.960  12.980  1.00  0.00     0.023 C 
HETATM    2  C7  UNL     1       0.469   6.541  12.829  1.00  0.00     0.024 C 
HETATM    3  C8  UNL     1       2.416   7.700  13.683  1.00  0.00     0.135 C 
HETATM    4  O1  UNL     1       3.484   7.672  13.068  1.00  0.00    -0.297 OA
HETATM    5  C9  UNL     1       2.403   7.381  15.161  1.00  0.00     0.080 C 
HETATM    6  C10 UNL     1       1.191   7.949  15.884  1.00  0.00     0.022 C 
HETATM    7  C11 UNL     1       0.695   9.285  15.283  1.00  0.00    -0.008 C 
HETATM    8  C12 UNL     1       1.850  10.325  15.163  1.00  0.00     0.021 C 
HETATM    9  C13 UNL     1      -0.400   9.916  16.184  1.00  0.00     0.002 C 
HETATM   10  C14 UNL     1      -1.693  10.099  15.811  1.00  0.00    -0.029 C 
HETATM   11  C15 UNL     1      -2.191   9.617  14.474  1.00  0.00     0.149 C 
HETATM   12  C16 UNL     1      -1.296   8.560  13.842  1.00  0.00     0.043 C 
HETATM   13  C17 UNL     1       0.181   8.980  13.818  1.00  0.00     0.017 C 
HETATM   14  C18 UNL     1      -2.682  10.837  16.728  1.00  0.00     0.017 C 
HETATM   15  C19 UNL     1      -3.244   9.747  17.698  1.00  0.00     0.023 C 
HETATM   16  C20 UNL     1      -3.873  11.618  16.100  1.00  0.00     0.132 C 
HETATM   17  C21 UNL     1      -4.261  12.675  17.155  1.00  0.00     0.038 C 
HETATM   18  C22 UNL     1      -3.104  12.728  18.191  1.00  0.00     0.001 C 
HETATM   19  C31 UNL     1      -1.927  12.033  17.436  1.00  0.00    -0.019 C 
HETATM   20  C32 UNL     1      -1.265  13.017  16.426  1.00  0.00     0.017 C 
HETATM   21  C33 UNL     1      -0.824  11.437  18.308  1.00  0.00     0.094 C 
HETATM   22  C34 UNL     1       0.039  10.438  17.548  1.00  0.00     0.157 C 
HETATM   23  O7  UNL     1       1.095  10.058  18.052  1.00  0.00    -0.293 OA
ENDROOT
BRANCH  18  24
HETATM   24  C23 UNL     1      -3.002  14.103  18.916  1.00  0.00    -0.011 C 
HETATM   25  C24 UNL     1      -1.643  14.427  19.554  1.00  0.00     0.010 C 
BRANCH  24  26
HETATM   26  C25 UNL     1      -4.114  14.383  19.957  1.00  0.00     0.040 C 
BRANCH  26  27
HETATM   27  C26 UNL     1      -5.418  14.982  19.398  1.00  0.00     0.142 C 
BRANCH  27  28
HETATM   28  O4  UNL     1      -5.495  16.330  19.864  1.00  0.00    -0.392 OA
HETATM   29  H43 UNL     1      -6.331  16.702  19.535  1.00  0.00     0.210 HD
ENDBRANCH  27  28
BRANCH  27  30
HETATM   30  C27 UNL     1      -6.670  14.308  19.867  1.00  0.00     0.018 C 
HETATM   31  C28 UNL     1      -6.863  13.616  21.009  1.00  0.00     0.010 C 
HETATM   32  C29 UNL     1      -5.853  13.382  22.092  1.00  0.00     0.055 C 
BRANCH  31  33
HETATM   33  C30 UNL     1      -8.230  13.078  21.224  1.00  0.00     0.171 C 
HETATM   34  O5  UNL     1      -8.685  12.643  22.267  1.00  0.00    -0.646 OA
BRANCH  33  35
HETATM   35  O6  UNL     1      -8.968  13.107  20.104  1.00  0.00    -0.773 OA
HETATM   36  H48 UNL     1      -9.830  12.732  20.385  1.00  0.00     0.167 HD
ENDBRANCH  33  35
ENDBRANCH  31  33
ENDBRANCH  27  30
ENDBRANCH  26  27
ENDBRANCH  24  26
ENDBRANCH  18  24
BRANCH  16  37
HETATM   37  O3  UNL     1      -5.009  10.821  15.806  1.00  0.00    -0.394 OA
HETATM   38  H32 UNL     1      -4.693  10.107  15.212  1.00  0.00     0.210 HD
ENDBRANCH  16  37
BRANCH  11  39
HETATM   39  O2  UNL     1      -3.494   9.057  14.608  1.00  0.00    -0.391 OA
HETATM   40  H24 UNL     1      -3.395   8.165  14.990  1.00  0.00     0.210 HD
ENDBRANCH  11  39
BRANCH   1  41
HETATM   41  C5  UNL     1       1.395   8.564  11.570  1.00  0.00     0.047 C 
BRANCH  41  42
HETATM   42  C4  UNL     1       0.308   8.548  10.486  1.00  0.00     0.270 C 
BRANCH  42  43
HETATM   43  N1  UNL     1       0.593   7.577   9.435  1.00  0.00     0.083 N 
HETATM   44  H8  UNL     1       1.384   6.999   9.719  1.00  0.00     0.315 HD
BRANCH  43  45
HETATM   45  C3  UNL     1       0.897   8.234   8.164  1.00  0.00     0.269 C 
BRANCH  45  46
HETATM   46  C2  UNL     1       2.227   7.740   7.585  1.00  0.00     0.025 C 
HETATM   47  C1  UNL     1       2.574   6.311   7.976  1.00  0.00     0.007 C 
ENDBRANCH  45  46
ENDBRANCH  43  45
ENDBRANCH  42  43
ENDBRANCH  41  42
ENDBRANCH   1  41
TORSDOF 14
ENDMDL
MODEL 9
REMARK minimizedAffinity -7.00703764
REMARK CNNscore 0.336938262
REMARK CNNaffinity 6.45004272
REMARK  14 active torsions:
REMARK  status: ('A' for Active; 'I' for Inactive)
REMARK    1  A    between atoms: C2_2  and  C3_3 
REMARK    2  A    between atoms: C3_3  and  N1_4 
REMARK    3  A    between atoms: N1_4  and  C4_5 
REMARK    4  A    between atoms: C4_5  and  C5_6 
REMARK    5  A    between atoms: C5_6  and  C6_7 
REMARK    6  A    between atoms: C15_17  and  O2_18 
REMARK    7  A    between atoms: C20_23  and  O3_24 
REMARK    8  A    between atoms: C22_26  and  C23_27 
REMARK    9  A    between atoms: C23_27  and  C25_29 
REMARK   10  A    between atoms: C25_29  and  C26_30 
REMARK   11  A    between atoms: C26_30  and  O4_31 
REMARK   12  A    between atoms: C26_30  and  C27_32 
REMARK   13  A    between atoms: C28_33  and  C30_35 
REMARK   14  A    between atoms: C30_35  and  O6_37 
ROOT
HETATM    1  C6  UNL     1      -6.762 -10.486   1.486  1.00  0.00     0.023 C 
HETATM    2  C7  UNL     1      -6.035 -11.837   1.275  1.00  0.00     0.024 C 
HETATM    3  C8  UNL     1      -7.962 -10.867   2.376  1.00  0.00     0.135 C 
HETATM    4  O1  UNL     1      -7.962 -10.681   3.595  1.00  0.00    -0.297 OA
HETATM    5  C9  UNL     1      -9.135 -11.572   1.733  1.00  0.00     0.080 C 
HETATM    6  C10 UNL     1      -9.270 -11.274   0.248  1.00  0.00     0.022 C 
HETATM    7  C11 UNL     1      -8.806  -9.848  -0.131  1.00  0.00    -0.008 C 
HETATM    8  C12 UNL     1      -9.494  -8.765   0.752  1.00  0.00     0.021 C 
HETATM    9  C13 UNL     1      -9.163  -9.532  -1.608  1.00  0.00     0.002 C 
HETATM   10  C14 UNL     1      -8.251  -9.312  -2.591  1.00  0.00    -0.029 C 
HETATM   11  C15 UNL     1      -6.774  -9.437  -2.322  1.00  0.00     0.149 C 
HETATM   12  C16 UNL     1      -6.454 -10.245  -1.072  1.00  0.00     0.043 C 
HETATM   13  C17 UNL     1      -7.251  -9.769   0.153  1.00  0.00     0.017 C 
HETATM   14  C18 UNL     1      -8.696  -8.893  -4.001  1.00  0.00     0.017 C 
HETATM   15  C19 UNL     1      -9.005 -10.228  -4.755  1.00  0.00     0.023 C 
HETATM   16  C20 UNL     1      -7.747  -8.024  -4.878  1.00  0.00     0.132 C 
HETATM   17  C21 UNL     1      -8.673  -7.309  -5.884  1.00  0.00     0.038 C 
HETATM   18  C22 UNL     1     -10.128  -7.487  -5.367  1.00  0.00     0.001 C 
HETATM   19  C31 UNL     1      -9.921  -7.900  -3.876  1.00  0.00    -0.019 C 
HETATM   20  C32 UNL     1      -9.604  -6.652  -2.998  1.00  0.00     0.017 C 
HETATM   21  C33 UNL     1     -11.072  -8.659  -3.220  1.00  0.00     0.094 C 
HETATM   22  C34 UNL     1     -10.641  -9.378  -1.947  1.00  0.00     0.157 C 
HETATM   23  O7  UNL     1     -11.505  -9.834  -1.198  1.00  0.00    -0.293 OA
ENDROOT
BRANCH  18  24
HETATM   24  C23 UNL     1     -11.084  -6.354  -5.848  1.00  0.00    -0.011 C 
HETATM   25  C24 UNL     1     -12.082  -6.740  -6.950  1.00  0.00     0.010 C 
BRANCH  24  26
HETATM   26  C25 UNL     1     -10.387  -5.033  -6.255  1.00  0.00     0.040 C 
BRANCH  26  27
HETATM   27  C26 UNL     1     -10.292  -3.960  -5.155  1.00  0.00     0.142 C 
BRANCH  27  28
HETATM   28  O4  UNL     1     -11.626  -3.552  -4.847  1.00  0.00    -0.392 OA
HETATM   29  H43 UNL     1     -11.566  -2.856  -4.171  1.00  0.00     0.210 HD
ENDBRANCH  27  28
BRANCH  27  30
HETATM   30  C27 UNL     1      -9.559  -2.716  -5.553  1.00  0.00     0.018 C 
HETATM   31  C28 UNL     1      -9.843  -1.441  -5.216  1.00  0.00     0.010 C 
HETATM   32  C29 UNL     1     -10.964  -0.979  -4.335  1.00  0.00     0.055 C 
BRANCH  31  33
HETATM   33  C30 UNL     1      -8.916  -0.405  -5.738  1.00  0.00     0.171 C 
HETATM   34  O5  UNL     1      -7.797  -0.589  -6.183  1.00  0.00    -0.646 OA
BRANCH  33  35
HETATM   35  O6  UNL     1      -9.442   0.827  -5.672  1.00  0.00    -0.773 OA
HETATM   36  H48 UNL     1      -8.739   1.400  -6.044  1.00  0.00     0.167 HD
ENDBRANCH  33  35
ENDBRANCH  31  33
ENDBRANCH  27  30
ENDBRANCH  26  27
ENDBRANCH  24  26
ENDBRANCH  18  24
BRANCH  16  37
HETATM   37  O3  UNL     1      -6.770  -8.762  -5.595  1.00  0.00    -0.394 OA
HETATM   38  H32 UNL     1      -6.271  -9.275  -4.923  1.00  0.00     0.210 HD
ENDBRANCH  16  37
BRANCH  11  39
HETATM   39  O2  UNL     1      -6.126 -10.070  -3.423  1.00  0.00    -0.391 OA
HETATM   40  H24 UNL     1      -6.307 -11.027  -3.362  1.00  0.00     0.210 HD
ENDBRANCH  11  39
BRANCH   1  41
HETATM   41  C5  UNL     1      -5.861  -9.511   2.321  1.00  0.00     0.047 C 
BRANCH  41  42
HETATM   42  C4  UNL     1      -4.492 -10.001   2.813  1.00  0.00     0.270 C 
BRANCH  42  43
HETATM   43  N1  UNL     1      -4.298  -9.753   4.237  1.00  0.00     0.083 N 
HETATM   44  H8  UNL     1      -4.788  -8.897   4.498  1.00  0.00     0.315 HD
BRANCH  43  45
HETATM   45  C3  UNL     1      -2.879  -9.625   4.573  1.00  0.00     0.269 C 
BRANCH  45  46
HETATM   46  C2  UNL     1      -2.625  -9.930   6.052  1.00  0.00     0.025 C 
HETATM   47  C1  UNL     1      -3.597  -9.239   6.997  1.00  0.00     0.007 C 
ENDBRANCH  45  46
ENDBRANCH  43  45
ENDBRANCH  42  43
ENDBRANCH  41  42
ENDBRANCH   1  41
TORSDOF 14
ENDMDL
