MODEL 1
REMARK minimizedAffinity -9.32522297
REMARK CNNscore 0.534228146
REMARK CNNaffinity 6.88172007
REMARK  11 active torsions:
REMARK  status: ('A' for Active; 'I' for Inactive)
REMARK    1  A    between atoms: C19_20  and  O2_21 
REMARK    2  A    between atoms: C19_20  and  C20_22 
REMARK    3  A    between atoms: C20_22  and  C21_24 
REMARK    4  A    between atoms: C21_24  and  O4_25 
REMARK    5  A    between atoms: O4_25  and  C22_26 
REMARK    6  A    between atoms: C22_26  and  C23_28 
REMARK    7  A    between atoms: C23_28  and  C24_29 
REMARK    8  A    between atoms: C24_29  and  C25_30 
REMARK       I    between atoms: C25_30  and  N1_32 
REMARK    9  A    between atoms: N1_32  and  C26_33 
REMARK   10  A    between atoms: C26_33  and  C27_34 
REMARK   11  A    between atoms: C27_34  and  C28_35 
ROOT
HETATM    1  C20 UNL     1      -1.787   7.711  15.063  1.00  0.00     0.185 C 
HETATM    2  O3  UNL     1      -0.797   7.924  15.782  1.00  0.00    -0.292 OA
ENDROOT
BRANCH   1   3
HETATM    3  C19 UNL     1      -1.605   7.670  13.523  1.00  0.00     0.128 C 
HETATM    4  C14 UNL     1      -0.188   7.449  12.907  1.00  0.00    -0.002 C 
HETATM    5  C13 UNL     1       0.371   6.017  12.987  1.00  0.00     0.013 C 
HETATM    6  C15 UNL     1       0.864   8.438  13.468  1.00  0.00     0.019 C 
HETATM    7  C16 UNL     1      -0.513   7.729  11.413  1.00  0.00     0.002 C 
HETATM    8  C12 UNL     1       1.600   5.828  12.077  1.00  0.00     0.007 C 
HETATM    9  C11 UNL     1       1.344   6.235  10.600  1.00  0.00     0.002 C 
HETATM   10  C2  UNL     1       2.597   6.047   9.658  1.00  0.00    -0.016 C 
HETATM   11  C10 UNL     1       0.713   7.658  10.492  1.00  0.00    -0.004 C 
HETATM   12  C1  UNL     1       3.822   6.842  10.162  1.00  0.00     0.020 C 
HETATM   13  C3  UNL     1       2.952   4.532   9.618  1.00  0.00     0.022 C 
HETATM   14  C7  UNL     1       2.261   6.537   8.243  1.00  0.00    -0.068 C 
HETATM   15  C4  UNL     1       3.911   4.151   8.499  1.00  0.00     0.084 C 
HETATM   16  C5  UNL     1       3.391   4.621   7.167  1.00  0.00     0.149 C 
HETATM   17  O1  UNL     1       3.670   4.045   6.117  1.00  0.00    -0.293 OA
HETATM   18  C6  UNL     1       2.589   5.865   7.125  1.00  0.00     0.053 C 
HETATM   19  C8  UNL     1       1.555   7.867   8.126  1.00  0.00     0.035 C 
HETATM   20  C9  UNL     1       0.335   7.952   9.034  1.00  0.00     0.010 C 
HETATM   21  C17 UNL     1      -1.320   9.022  11.469  1.00  0.00     0.009 C 
HETATM   22  C18 UNL     1      -2.148   8.900  12.765  1.00  0.00     0.047 C 
BRANCH   3  23
HETATM   23  O2  UNL     1      -2.433   6.553  13.090  1.00  0.00    -0.381 OA
HETATM   24  H27 UNL     1      -3.157   6.488  13.748  1.00  0.00     0.211 HD
ENDBRANCH   3  23
ENDBRANCH   1   3
BRANCH   1  25
HETATM   25  C21 UNL     1      -3.149   7.531  15.728  1.00  0.00     0.260 C 
BRANCH  25  26
HETATM   26  O4  UNL     1      -4.303   7.570  14.904  1.00  0.00    -0.314 OA
BRANCH  26  27
HETATM   27  C22 UNL     1      -5.045   6.427  14.881  1.00  0.00     0.259 C 
HETATM   28  O5  UNL     1      -4.882   5.498  14.105  1.00  0.00    -0.265 OA
BRANCH  27  29
HETATM   29  C23 UNL     1      -6.053   6.431  16.005  1.00  0.00     0.120 C 
BRANCH  29  30
HETATM   30  C24 UNL     1      -7.391   5.871  15.540  1.00  0.00     0.112 C 
BRANCH  30  31
HETATM   31  C25 UNL     1      -8.337   6.965  15.083  1.00  0.00     0.218 C 
HETATM   32  O6  UNL     1      -7.949   8.013  14.580  1.00  0.00    -0.274 OA
HETATM   33  N1  UNL     1      -9.657   6.677  15.344  1.00  0.00    -0.361 N 
HETATM   34  H34 UNL     1      -9.885   5.827  15.847  1.00  0.00     0.162 HD
BRANCH  33  35
HETATM   35  C26 UNL     1     -10.736   7.609  15.056  1.00  0.00     0.127 C 
BRANCH  35  36
HETATM   36  C27 UNL     1     -11.035   7.725  13.559  1.00  0.00     0.060 C 
BRANCH  36  37
HETATM   37  C28 UNL     1     -12.493   7.858  13.247  1.00  0.00    -0.029 A 
HETATM   38  C29 UNL     1     -13.077   8.890  12.536  1.00  0.00     0.096 A 
HETATM   39  N2  UNL     1     -14.425   8.666  12.474  1.00  0.00    -0.365 N 
HETATM   40  C30 UNL     1     -14.744   7.507  13.140  1.00  0.00     0.042 A 
HETATM   41  H40 UNL     1     -15.094   9.256  12.000  1.00  0.00     0.165 HD
HETATM   42  C31 UNL     1     -15.990   6.899  13.337  1.00  0.00     0.030 A 
HETATM   43  C35 UNL     1     -13.551   6.968  13.624  1.00  0.00    -0.002 A 
HETATM   44  C32 UNL     1     -16.014   5.688  14.034  1.00  0.00     0.002 A 
HETATM   45  C33 UNL     1     -14.842   5.119  14.524  1.00  0.00     0.001 A 
HETATM   46  C34 UNL     1     -13.607   5.751  14.335  1.00  0.00     0.014 A 
ENDBRANCH  36  37
ENDBRANCH  35  36
ENDBRANCH  33  35
ENDBRANCH  30  31
ENDBRANCH  29  30
ENDBRANCH  27  29
ENDBRANCH  26  27
ENDBRANCH  25  26
ENDBRANCH   1  25
TORSDOF 11
ENDMDL
MODEL 2
REMARK minimizedAffinity -8.68532753
REMARK CNNscore 0.450887293
REMARK CNNaffinity 7.18690538
REMARK  11 active torsions:
REMARK  status: ('A' for Active; 'I' for Inactive)
REMARK    1  A    between atoms: C19_20  and  O2_21 
REMARK    2  A    between atoms: C19_20  and  C20_22 
REMARK    3  A    between atoms: C20_22  and  C21_24 
REMARK    4  A    between atoms: C21_24  and  O4_25 
REMARK    5  A    between atoms: O4_25  and  C22_26 
REMARK    6  A    between atoms: C22_26  and  C23_28 
REMARK    7  A    between atoms: C23_28  and  C24_29 
REMARK    8  A    between atoms: C24_29  and  C25_30 
REMARK       I    between atoms: C25_30  and  N1_32 
REMARK    9  A    between atoms: N1_32  and  C26_33 
REMARK   10  A    between atoms: C26_33  and  C27_34 
REMARK   11  A    between atoms: C27_34  and  C28_35 
ROOT
HETATM    1  C20 UNL     1      -5.930   4.555  13.599  1.00  0.00     0.185 C 
HETATM    2  O3  UNL     1      -6.319   3.577  12.940  1.00  0.00    -0.292 OA
ENDROOT
BRANCH   1   3
HETATM    3  C19 UNL     1      -6.896   5.200  14.629  1.00  0.00     0.128 C 
HETATM    4  C14 UNL     1      -7.884   6.321  14.181  1.00  0.00    -0.002 C 
HETATM    5  C13 UNL     1      -9.104   5.864  13.360  1.00  0.00     0.013 C 
HETATM    6  C15 UNL     1      -7.173   7.476  13.433  1.00  0.00     0.019 C 
HETATM    7  C16 UNL     1      -8.413   6.767  15.574  1.00  0.00     0.002 C 
HETATM    8  C12 UNL     1     -10.172   6.968  13.252  1.00  0.00     0.007 C 
HETATM    9  C11 UNL     1     -10.618   7.533  14.629  1.00  0.00     0.002 C 
HETATM   10  C2  UNL     1     -11.712   8.667  14.532  1.00  0.00    -0.016 C 
HETATM   11  C10 UNL     1      -9.398   7.942  15.511  1.00  0.00    -0.004 C 
HETATM   12  C1  UNL     1     -11.236   9.854  13.666  1.00  0.00     0.020 C 
HETATM   13  C3  UNL     1     -12.994   8.052  13.897  1.00  0.00     0.022 C 
HETATM   14  C7  UNL     1     -12.034   9.200  15.935  1.00  0.00    -0.068 C 
HETATM   15  C4  UNL     1     -14.235   8.920  14.049  1.00  0.00     0.084 C 
HETATM   16  C5  UNL     1     -14.465   9.277  15.493  1.00  0.00     0.149 C 
HETATM   17  O1  UNL     1     -15.586   9.509  15.939  1.00  0.00    -0.293 OA
HETATM   18  C6  UNL     1     -13.284   9.434  16.373  1.00  0.00     0.053 C 
HETATM   19  C8  UNL     1     -10.863   9.503  16.839  1.00  0.00     0.035 C 
HETATM   20  C9  UNL     1      -9.878   8.344  16.912  1.00  0.00     0.010 C 
HETATM   21  C17 UNL     1      -7.138   6.915  16.398  1.00  0.00     0.009 C 
HETATM   22  C18 UNL     1      -6.219   5.786  15.885  1.00  0.00     0.047 C 
BRANCH   3  23
HETATM   23  O2  UNL     1      -7.706   4.090  15.109  1.00  0.00    -0.381 OA
HETATM   24  H27 UNL     1      -7.140   3.293  15.029  1.00  0.00     0.211 HD
ENDBRANCH   3  23
ENDBRANCH   1   3
BRANCH   1  25
HETATM   25  C21 UNL     1      -4.529   5.102  13.343  1.00  0.00     0.260 C 
BRANCH  25  26
HETATM   26  O4  UNL     1      -4.401   6.471  12.993  1.00  0.00    -0.314 OA
BRANCH  26  27
HETATM   27  C22 UNL     1      -3.498   7.181  13.727  1.00  0.00     0.259 C 
HETATM   28  O5  UNL     1      -3.090   6.867  14.834  1.00  0.00    -0.265 OA
BRANCH  27  29
HETATM   29  C23 UNL     1      -3.007   8.375  12.944  1.00  0.00     0.120 C 
BRANCH  29  30
HETATM   30  C24 UNL     1      -2.234   9.334  13.842  1.00  0.00     0.112 C 
BRANCH  30  31
HETATM   31  C25 UNL     1      -0.804   8.879  14.059  1.00  0.00     0.218 C 
HETATM   32  O6  UNL     1      -0.263   8.884  15.159  1.00  0.00    -0.274 OA
HETATM   33  N1  UNL     1      -0.171   8.519  12.891  1.00  0.00    -0.361 N 
HETATM   34  H34 UNL     1      -0.661   8.633  12.011  1.00  0.00     0.162 HD
BRANCH  33  35
HETATM   35  C26 UNL     1       1.226   8.117  12.846  1.00  0.00     0.127 C 
BRANCH  35  36
HETATM   36  C27 UNL     1       1.946   8.616  11.590  1.00  0.00     0.060 C 
BRANCH  36  37
HETATM   37  C28 UNL     1       2.423   7.516  10.694  1.00  0.00    -0.029 A 
HETATM   38  C29 UNL     1       3.203   6.441  11.079  1.00  0.00     0.096 A 
HETATM   39  N2  UNL     1       3.443   5.664   9.980  1.00  0.00    -0.365 N 
HETATM   40  C30 UNL     1       2.842   6.211   8.871  1.00  0.00     0.042 A 
HETATM   41  H40 UNL     1       3.975   4.804   9.977  1.00  0.00     0.165 HD
HETATM   42  C31 UNL     1       2.828   5.764   7.545  1.00  0.00     0.030 A 
HETATM   43  C35 UNL     1       2.181   7.367   9.290  1.00  0.00    -0.002 A 
HETATM   44  C32 UNL     1       2.096   6.511   6.619  1.00  0.00     0.002 A 
HETATM   45  C33 UNL     1       1.419   7.665   7.004  1.00  0.00     0.001 A 
HETATM   46  C34 UNL     1       1.460   8.109   8.331  1.00  0.00     0.014 A 
ENDBRANCH  36  37
ENDBRANCH  35  36
ENDBRANCH  33  35
ENDBRANCH  30  31
ENDBRANCH  29  30
ENDBRANCH  27  29
ENDBRANCH  26  27
ENDBRANCH  25  26
ENDBRANCH   1  25
TORSDOF 11
ENDMDL
MODEL 3
REMARK minimizedAffinity -8.8934164
REMARK CNNscore 0.440853536
REMARK CNNaffinity 7.03562784
REMARK  11 active torsions:
REMARK  status: ('A' for Active; 'I' for Inactive)
REMARK    1  A    between atoms: C19_20  and  O2_21 
REMARK    2  A    between atoms: C19_20  and  C20_22 
REMARK    3  A    between atoms: C20_22  and  C21_24 
REMARK    4  A    between atoms: C21_24  and  O4_25 
REMARK    5  A    between atoms: O4_25  and  C22_26 
REMARK    6  A    between atoms: C22_26  and  C23_28 
REMARK    7  A    between atoms: C23_28  and  C24_29 
REMARK    8  A    between atoms: C24_29  and  C25_30 
REMARK       I    between atoms: C25_30  and  N1_32 
REMARK    9  A    between atoms: N1_32  and  C26_33 
REMARK   10  A    between atoms: C26_33  and  C27_34 
REMARK   11  A    between atoms: C27_34  and  C28_35 
ROOT
HETATM    1  C20 UNL     1      -6.991   5.507  14.914  1.00  0.00     0.185 C 
HETATM    2  O3  UNL     1      -7.227   4.331  14.591  1.00  0.00    -0.292 OA
ENDROOT
BRANCH   1   3
HETATM    3  C19 UNL     1      -6.050   6.358  14.020  1.00  0.00     0.128 C 
HETATM    4  C14 UNL     1      -4.505   6.152  14.090  1.00  0.00    -0.002 C 
HETATM    5  C13 UNL     1      -3.958   4.882  13.413  1.00  0.00     0.013 C 
HETATM    6  C15 UNL     1      -3.960   6.232  15.536  1.00  0.00     0.019 C 
HETATM    7  C16 UNL     1      -4.047   7.361  13.226  1.00  0.00     0.002 C 
HETATM    8  C12 UNL     1      -2.427   4.932  13.245  1.00  0.00     0.007 C 
HETATM    9  C11 UNL     1      -1.929   6.205  12.506  1.00  0.00     0.002 C 
HETATM   10  C2  UNL     1      -0.362   6.270  12.330  1.00  0.00    -0.016 C 
HETATM   11  C10 UNL     1      -2.522   7.507  13.129  1.00  0.00    -0.004 C 
HETATM   12  C1  UNL     1       0.375   6.190  13.685  1.00  0.00     0.020 C 
HETATM   13  C3  UNL     1       0.077   5.071  11.438  1.00  0.00     0.022 C 
HETATM   14  C7  UNL     1       0.031   7.589  11.651  1.00  0.00    -0.068 C 
HETATM   15  C4  UNL     1       1.496   5.187  10.900  1.00  0.00     0.084 C 
HETATM   16  C5  UNL     1       1.689   6.495  10.181  1.00  0.00     0.149 C 
HETATM   17  O1  UNL     1       2.504   6.626   9.270  1.00  0.00    -0.293 OA
HETATM   18  C6  UNL     1       0.930   7.675  10.654  1.00  0.00     0.053 C 
HETATM   19  C8  UNL     1      -0.616   8.850  12.175  1.00  0.00     0.035 C 
HETATM   20  C9  UNL     1      -2.130   8.720  12.276  1.00  0.00     0.010 C 
HETATM   21  C17 UNL     1      -4.865   8.519  13.789  1.00  0.00     0.009 C 
HETATM   22  C18 UNL     1      -6.224   7.885  14.153  1.00  0.00     0.047 C 
BRANCH   3  23
HETATM   23  O2  UNL     1      -6.459   6.040  12.659  1.00  0.00    -0.381 OA
HETATM   24  H27 UNL     1      -7.409   5.805  12.714  1.00  0.00     0.211 HD
ENDBRANCH   3  23
ENDBRANCH   1   3
BRANCH   1  25
HETATM   25  C21 UNL     1      -7.610   6.052  16.197  1.00  0.00     0.260 C 
BRANCH  25  26
HETATM   26  O4  UNL     1      -9.015   6.248  16.228  1.00  0.00    -0.314 OA
BRANCH  26  27
HETATM   27  C22 UNL     1      -9.488   7.230  15.409  1.00  0.00     0.259 C 
HETATM   28  O5  UNL     1      -9.957   7.050  14.295  1.00  0.00    -0.265 OA
BRANCH  27  29
HETATM   29  C23 UNL     1      -9.426   8.569  16.101  1.00  0.00     0.120 C 
BRANCH  29  30
HETATM   30  C24 UNL     1      -9.601   9.708  15.104  1.00  0.00     0.112 C 
BRANCH  30  31
HETATM   31  C25 UNL     1     -10.307  10.899  15.720  1.00  0.00     0.218 C 
HETATM   32  O6  UNL     1     -11.522  11.050  15.675  1.00  0.00    -0.274 OA
HETATM   33  N1  UNL     1      -9.438  11.808  16.280  1.00  0.00    -0.361 N 
HETATM   34  H34 UNL     1      -8.440  11.653  16.193  1.00  0.00     0.162 HD
BRANCH  33  35
HETATM   35  C26 UNL     1      -9.884  13.062  16.868  1.00  0.00     0.127 C 
BRANCH  35  36
HETATM   36  C27 UNL     1      -8.833  13.693  17.785  1.00  0.00     0.060 C 
BRANCH  36  37
HETATM   37  C28 UNL     1      -9.029  13.371  19.234  1.00  0.00    -0.029 A 
HETATM   38  C29 UNL     1     -10.231  13.037  19.832  1.00  0.00     0.096 A 
HETATM   39  N2  UNL     1     -10.008  12.830  21.165  1.00  0.00    -0.365 N 
HETATM   40  C30 UNL     1      -8.681  13.030  21.462  1.00  0.00     0.042 A 
HETATM   41  H40 UNL     1     -10.711  12.558  21.839  1.00  0.00     0.165 HD
HETATM   42  C31 UNL     1      -8.011  12.936  22.687  1.00  0.00     0.030 A 
HETATM   43  C35 UNL     1      -8.037  13.357  20.267  1.00  0.00    -0.002 A 
HETATM   44  C32 UNL     1      -6.632  13.162  22.689  1.00  0.00     0.002 A 
HETATM   45  C33 UNL     1      -5.958  13.482  21.514  1.00  0.00     0.001 A 
HETATM   46  C34 UNL     1      -6.647  13.592  20.300  1.00  0.00     0.014 A 
ENDBRANCH  36  37
ENDBRANCH  35  36
ENDBRANCH  33  35
ENDBRANCH  30  31
ENDBRANCH  29  30
ENDBRANCH  27  29
ENDBRANCH  26  27
ENDBRANCH  25  26
ENDBRANCH   1  25
TORSDOF 11
ENDMDL
MODEL 4
REMARK minimizedAffinity -9.10388279
REMARK CNNscore 0.376780003
REMARK CNNaffinity 6.96585274
REMARK  11 active torsions:
REMARK  status: ('A' for Active; 'I' for Inactive)
REMARK    1  A    between atoms: C19_20  and  O2_21 
REMARK    2  A    between atoms: C19_20  and  C20_22 
REMARK    3  A    between atoms: C20_22  and  C21_24 
REMARK    4  A    between atoms: C21_24  and  O4_25 
REMARK    5  A    between atoms: O4_25  and  C22_26 
REMARK    6  A    between atoms: C22_26  and  C23_28 
REMARK    7  A    between atoms: C23_28  and  C24_29 
REMARK    8  A    between atoms: C24_29  and  C25_30 
REMARK       I    between atoms: C25_30  and  N1_32 
REMARK    9  A    between atoms: N1_32  and  C26_33 
REMARK   10  A    between atoms: C26_33  and  C27_34 
REMARK   11  A    between atoms: C27_34  and  C28_35 
ROOT
HETATM    1  C20 UNL     1      -6.873   5.578  14.974  1.00  0.00     0.185 C 
HETATM    2  O3  UNL     1      -7.072   4.386  14.689  1.00  0.00    -0.292 OA
ENDROOT
BRANCH   1   3
HETATM    3  C19 UNL     1      -5.944   6.425  14.064  1.00  0.00     0.128 C 
HETATM    4  C14 UNL     1      -4.400   6.207  14.101  1.00  0.00    -0.002 C 
HETATM    5  C13 UNL     1      -3.876   4.934  13.410  1.00  0.00     0.013 C 
HETATM    6  C15 UNL     1      -3.825   6.280  15.537  1.00  0.00     0.019 C 
HETATM    7  C16 UNL     1      -3.951   7.415  13.231  1.00  0.00     0.002 C 
HETATM    8  C12 UNL     1      -2.349   4.974  13.211  1.00  0.00     0.007 C 
HETATM    9  C11 UNL     1      -1.856   6.245  12.466  1.00  0.00     0.002 C 
HETATM   10  C2  UNL     1      -0.293   6.299  12.257  1.00  0.00    -0.016 C 
HETATM   11  C10 UNL     1      -2.427   7.549  13.104  1.00  0.00    -0.004 C 
HETATM   12  C1  UNL     1       0.471   6.211  13.597  1.00  0.00     0.020 C 
HETATM   13  C3  UNL     1       0.119   5.099  11.354  1.00  0.00     0.022 C 
HETATM   14  C7  UNL     1       0.096   7.617  11.574  1.00  0.00    -0.068 C 
HETATM   15  C4  UNL     1       1.527   5.206  10.788  1.00  0.00     0.084 C 
HETATM   16  C5  UNL     1       1.716   6.514  10.068  1.00  0.00     0.149 C 
HETATM   17  O1  UNL     1       2.513   6.641   9.141  1.00  0.00    -0.293 OA
HETATM   18  C6  UNL     1       0.975   7.698  10.558  1.00  0.00     0.053 C 
HETATM   19  C8  UNL     1      -0.531   8.881  12.114  1.00  0.00     0.035 C 
HETATM   20  C9  UNL     1      -2.043   8.762  12.245  1.00  0.00     0.010 C 
HETATM   21  C17 UNL     1      -4.749   8.577  13.813  1.00  0.00     0.009 C 
HETATM   22  C18 UNL     1      -6.105   7.953  14.203  1.00  0.00     0.047 C 
BRANCH   3  23
HETATM   23  O2  UNL     1      -6.383   6.113  12.711  1.00  0.00    -0.381 OA
HETATM   24  H27 UNL     1      -7.334   5.885  12.785  1.00  0.00     0.211 HD
ENDBRANCH   3  23
ENDBRANCH   1   3
BRANCH   1  25
HETATM   25  C21 UNL     1      -7.524   6.149  16.230  1.00  0.00     0.260 C 
BRANCH  25  26
HETATM   26  O4  UNL     1      -8.939   6.234  16.268  1.00  0.00    -0.314 OA
BRANCH  26  27
HETATM   27  C22 UNL     1      -9.485   7.255  15.548  1.00  0.00     0.259 C 
HETATM   28  O5  UNL     1      -9.817   7.187  14.375  1.00  0.00    -0.265 OA
BRANCH  27  29
HETATM   29  C23 UNL     1      -9.698   8.463  16.427  1.00  0.00     0.120 C 
BRANCH  29  30
HETATM   30  C24 UNL     1     -10.850   9.316  15.909  1.00  0.00     0.112 C 
BRANCH  30  31
HETATM   31  C25 UNL     1     -11.757   9.785  17.030  1.00  0.00     0.218 C 
HETATM   32  O6  UNL     1     -12.958   9.976  16.880  1.00  0.00    -0.274 OA
HETATM   33  N1  UNL     1     -11.081  10.023  18.205  1.00  0.00    -0.361 N 
HETATM   34  H34 UNL     1     -10.072   9.928  18.219  1.00  0.00     0.162 HD
BRANCH  33  35
HETATM   35  C26 UNL     1     -11.733  10.545  19.395  1.00  0.00     0.127 C 
BRANCH  35  36
HETATM   36  C27 UNL     1     -10.842  11.509  20.184  1.00  0.00     0.060 C 
BRANCH  36  37
HETATM   37  C28 UNL     1     -10.716  11.159  21.634  1.00  0.00    -0.029 A 
HETATM   38  C29 UNL     1      -9.996  11.869  22.577  1.00  0.00     0.096 A 
HETATM   39  N2  UNL     1     -10.109  11.230  23.781  1.00  0.00    -0.365 N 
HETATM   40  C30 UNL     1     -10.883  10.102  23.648  1.00  0.00     0.042 A 
HETATM   41  H40 UNL     1      -9.694  11.540  24.649  1.00  0.00     0.165 HD
HETATM   42  C31 UNL     1     -11.255   9.151  24.605  1.00  0.00     0.030 A 
HETATM   43  C35 UNL     1     -11.292  10.038  22.315  1.00  0.00    -0.002 A 
HETATM   44  C32 UNL     1     -12.091   8.110  24.191  1.00  0.00     0.002 A 
HETATM   45  C33 UNL     1     -12.523   8.021  22.871  1.00  0.00     0.001 A 
HETATM   46  C34 UNL     1     -12.125   8.970  21.922  1.00  0.00     0.014 A 
ENDBRANCH  36  37
ENDBRANCH  35  36
ENDBRANCH  33  35
ENDBRANCH  30  31
ENDBRANCH  29  30
ENDBRANCH  27  29
ENDBRANCH  26  27
ENDBRANCH  25  26
ENDBRANCH   1  25
TORSDOF 11
ENDMDL
MODEL 5
REMARK minimizedAffinity -8.6395607
REMARK CNNscore 0.36603573
REMARK CNNaffinity 6.97262192
REMARK  11 active torsions:
REMARK  status: ('A' for Active; 'I' for Inactive)
REMARK    1  A    between atoms: C19_20  and  O2_21 
REMARK    2  A    between atoms: C19_20  and  C20_22 
REMARK    3  A    between atoms: C20_22  and  C21_24 
REMARK    4  A    between atoms: C21_24  and  O4_25 
REMARK    5  A    between atoms: O4_25  and  C22_26 
REMARK    6  A    between atoms: C22_26  and  C23_28 
REMARK    7  A    between atoms: C23_28  and  C24_29 
REMARK    8  A    between atoms: C24_29  and  C25_30 
REMARK       I    between atoms: C25_30  and  N1_32 
REMARK    9  A    between atoms: N1_32  and  C26_33 
REMARK   10  A    between atoms: C26_33  and  C27_34 
REMARK   11  A    between atoms: C27_34  and  C28_35 
ROOT
HETATM    1  C20 UNL     1      -7.457   5.811  15.121  1.00  0.00     0.185 C 
HETATM    2  O3  UNL     1      -7.365   4.572  15.124  1.00  0.00    -0.292 OA
ENDROOT
BRANCH   1   3
HETATM    3  C19 UNL     1      -6.469   6.636  14.255  1.00  0.00     0.128 C 
HETATM    4  C14 UNL     1      -4.946   6.299  14.268  1.00  0.00    -0.002 C 
HETATM    5  C13 UNL     1      -4.524   5.033  13.499  1.00  0.00     0.013 C 
HETATM    6  C15 UNL     1      -4.363   6.242  15.701  1.00  0.00     0.019 C 
HETATM    7  C16 UNL     1      -4.408   7.519  13.467  1.00  0.00     0.002 C 
HETATM    8  C12 UNL     1      -2.999   4.968  13.291  1.00  0.00     0.007 C 
HETATM    9  C11 UNL     1      -2.412   6.239  12.618  1.00  0.00     0.002 C 
HETATM   10  C2  UNL     1      -0.849   6.185  12.402  1.00  0.00    -0.016 C 
HETATM   11  C10 UNL     1      -2.879   7.543  13.337  1.00  0.00    -0.004 C 
HETATM   12  C1  UNL     1      -0.090   5.959  13.728  1.00  0.00     0.020 C 
HETATM   13  C3  UNL     1      -0.534   5.013  11.426  1.00  0.00     0.022 C 
HETATM   14  C7  UNL     1      -0.362   7.508  11.794  1.00  0.00    -0.068 C 
HETATM   15  C4  UNL     1       0.877   5.045  10.857  1.00  0.00     0.084 C 
HETATM   16  C5  UNL     1       1.164   6.376  10.214  1.00  0.00     0.149 C 
HETATM   17  O1  UNL     1       1.965   6.496   9.290  1.00  0.00    -0.293 OA
HETATM   18  C6  UNL     1       0.517   7.582  10.779  1.00  0.00     0.053 C 
HETATM   19  C8  UNL     1      -0.888   8.782  12.413  1.00  0.00     0.035 C 
HETATM   20  C9  UNL     1      -2.405   8.772  12.548  1.00  0.00     0.010 C 
HETATM   21  C17 UNL     1      -5.112   8.702  14.123  1.00  0.00     0.009 C 
HETATM   22  C18 UNL     1      -6.511   8.161  14.486  1.00  0.00     0.047 C 
BRANCH   3  23
HETATM   23  O2  UNL     1      -6.934   6.440  12.889  1.00  0.00    -0.381 OA
HETATM   24  H27 UNL     1      -7.900   6.282  12.956  1.00  0.00     0.211 HD
ENDBRANCH   3  23
ENDBRANCH   1   3
BRANCH   1  25
HETATM   25  C21 UNL     1      -8.519   6.469  15.997  1.00  0.00     0.260 C 
BRANCH  25  26
HETATM   26  O4  UNL     1      -9.836   6.576  15.481  1.00  0.00    -0.314 OA
BRANCH  26  27
HETATM   27  C22 UNL     1      -9.986   7.428  14.428  1.00  0.00     0.259 C 
HETATM   28  O5  UNL     1      -9.969   7.100  13.252  1.00  0.00    -0.265 OA
BRANCH  27  29
HETATM   29  C23 UNL     1     -10.257   8.829  14.919  1.00  0.00     0.120 C 
BRANCH  29  30
HETATM   30  C24 UNL     1     -11.318   9.511  14.063  1.00  0.00     0.112 C 
BRANCH  30  31
HETATM   31  C25 UNL     1     -12.231   8.508  13.386  1.00  0.00     0.218 C 
HETATM   32  O6  UNL     1     -12.267   8.352  12.171  1.00  0.00    -0.274 OA
HETATM   33  N1  UNL     1     -13.046   7.840  14.272  1.00  0.00    -0.361 N 
HETATM   34  H34 UNL     1     -13.019   8.095  15.253  1.00  0.00     0.162 HD
BRANCH  33  35
HETATM   35  C26 UNL     1     -14.052   6.881  13.845  1.00  0.00     0.127 C 
BRANCH  35  36
HETATM   36  C27 UNL     1     -14.673   6.112  15.014  1.00  0.00     0.060 C 
BRANCH  36  37
HETATM   37  C28 UNL     1     -15.547   4.974  14.588  1.00  0.00    -0.029 A 
HETATM   38  C29 UNL     1     -15.291   3.633  14.806  1.00  0.00     0.096 A 
HETATM   39  N2  UNL     1     -16.310   2.903  14.258  1.00  0.00    -0.365 N 
HETATM   40  C30 UNL     1     -17.232   3.739  13.673  1.00  0.00     0.042 A 
HETATM   41  H40 UNL     1     -16.387   1.896  14.285  1.00  0.00     0.165 HD
HETATM   42  C31 UNL     1     -18.417   3.433  12.995  1.00  0.00     0.030 A 
HETATM   43  C35 UNL     1     -16.788   5.047  13.876  1.00  0.00    -0.002 A 
HETATM   44  C32 UNL     1     -19.188   4.501  12.528  1.00  0.00     0.002 A 
HETATM   45  C33 UNL     1     -18.779   5.818  12.720  1.00  0.00     0.001 A 
HETATM   46  C34 UNL     1     -17.580   6.105  13.383  1.00  0.00     0.014 A 
ENDBRANCH  36  37
ENDBRANCH  35  36
ENDBRANCH  33  35
ENDBRANCH  30  31
ENDBRANCH  29  30
ENDBRANCH  27  29
ENDBRANCH  26  27
ENDBRANCH  25  26
ENDBRANCH   1  25
TORSDOF 11
ENDMDL
MODEL 6
REMARK minimizedAffinity -10.2952957
REMARK CNNscore 0.319892704
REMARK CNNaffinity 7.30578756
REMARK  11 active torsions:
REMARK  status: ('A' for Active; 'I' for Inactive)
REMARK    1  A    between atoms: C19_20  and  O2_21 
REMARK    2  A    between atoms: C19_20  and  C20_22 
REMARK    3  A    between atoms: C20_22  and  C21_24 
REMARK    4  A    between atoms: C21_24  and  O4_25 
REMARK    5  A    between atoms: O4_25  and  C22_26 
REMARK    6  A    between atoms: C22_26  and  C23_28 
REMARK    7  A    between atoms: C23_28  and  C24_29 
REMARK    8  A    between atoms: C24_29  and  C25_30 
REMARK       I    between atoms: C25_30  and  N1_32 
REMARK    9  A    between atoms: N1_32  and  C26_33 
REMARK   10  A    between atoms: C26_33  and  C27_34 
REMARK   11  A    between atoms: C27_34  and  C28_35 
ROOT
HETATM    1  C20 UNL     1      -1.284   8.121  15.150  1.00  0.00     0.185 C 
HETATM    2  O3  UNL     1      -0.232   8.285  15.788  1.00  0.00    -0.292 OA
ENDROOT
BRANCH   1   3
HETATM    3  C19 UNL     1      -1.212   7.958  13.609  1.00  0.00     0.128 C 
HETATM    4  C14 UNL     1       0.163   7.730  12.909  1.00  0.00    -0.002 C 
HETATM    5  C13 UNL     1       0.780   6.328  13.061  1.00  0.00     0.013 C 
HETATM    6  C15 UNL     1       1.215   8.794  13.307  1.00  0.00     0.019 C 
HETATM    7  C16 UNL     1      -0.279   7.874  11.425  1.00  0.00     0.002 C 
HETATM    8  C12 UNL     1       1.946   6.101  12.081  1.00  0.00     0.007 C 
HETATM    9  C11 UNL     1       1.569   6.376  10.599  1.00  0.00     0.002 C 
HETATM   10  C2  UNL     1       2.757   6.150   9.584  1.00  0.00    -0.016 C 
HETATM   11  C10 UNL     1       0.880   7.764  10.424  1.00  0.00    -0.004 C 
HETATM   12  C1  UNL     1       3.985   7.021   9.929  1.00  0.00     0.020 C 
HETATM   13  C3  UNL     1       3.164   4.648   9.640  1.00  0.00     0.022 C 
HETATM   14  C7  UNL     1       2.302   6.509   8.163  1.00  0.00    -0.068 C 
HETATM   15  C4  UNL     1       4.053   4.205   8.487  1.00  0.00     0.084 C 
HETATM   16  C5  UNL     1       3.422   4.545   7.164  1.00  0.00     0.149 C 
HETATM   17  O1  UNL     1       3.645   3.893   6.146  1.00  0.00    -0.293 OA
HETATM   18  C6  UNL     1       2.574   5.756   7.082  1.00  0.00     0.053 C 
HETATM   19  C8  UNL     1       1.540   7.802   7.992  1.00  0.00     0.035 C 
HETATM   20  C9  UNL     1       0.387   7.924   8.979  1.00  0.00     0.010 C 
HETATM   21  C17 UNL     1      -1.127   9.142  11.437  1.00  0.00     0.009 C 
HETATM   22  C18 UNL     1      -1.854   9.102  12.797  1.00  0.00     0.047 C 
BRANCH   3  23
HETATM   23  O2  UNL     1      -2.027   6.783  13.331  1.00  0.00    -0.381 OA
HETATM   24  H27 UNL     1      -2.699   6.750  14.044  1.00  0.00     0.211 HD
ENDBRANCH   3  23
ENDBRANCH   1   3
BRANCH   1  25
HETATM   25  C21 UNL     1      -2.608   8.120  15.908  1.00  0.00     0.260 C 
BRANCH  25  26
HETATM   26  O4  UNL     1      -3.801   8.320  15.167  1.00  0.00    -0.314 OA
BRANCH  26  27
HETATM   27  C22 UNL     1      -4.796   7.418  15.403  1.00  0.00     0.259 C 
HETATM   28  O5  UNL     1      -4.640   6.211  15.500  1.00  0.00    -0.265 OA
BRANCH  27  29
HETATM   29  C23 UNL     1      -6.112   8.128  15.609  1.00  0.00     0.120 C 
BRANCH  29  30
HETATM   30  C24 UNL     1      -7.173   7.596  14.653  1.00  0.00     0.112 C 
BRANCH  30  31
HETATM   31  C25 UNL     1      -7.558   6.164  14.971  1.00  0.00     0.218 C 
HETATM   32  O6  UNL     1      -8.033   5.826  16.049  1.00  0.00    -0.274 OA
HETATM   33  N1  UNL     1      -7.266   5.290  13.949  1.00  0.00    -0.361 N 
HETATM   34  H34 UNL     1      -6.787   5.637  13.126  1.00  0.00     0.162 HD
BRANCH  33  35
HETATM   35  C26 UNL     1      -7.483   3.856  14.057  1.00  0.00     0.127 C 
BRANCH  35  36
HETATM   36  C27 UNL     1      -7.707   3.187  12.697  1.00  0.00     0.060 C 
BRANCH  36  37
HETATM   37  C28 UNL     1      -6.478   2.545  12.134  1.00  0.00    -0.029 A 
HETATM   38  C29 UNL     1      -6.421   1.304  11.526  1.00  0.00     0.096 A 
HETATM   39  N2  UNL     1      -5.126   1.061  11.159  1.00  0.00    -0.365 N 
HETATM   40  C30 UNL     1      -4.323   2.116  11.522  1.00  0.00     0.042 A 
HETATM   41  H40 UNL     1      -4.800   0.233  10.680  1.00  0.00     0.165 HD
HETATM   42  C31 UNL     1      -2.945   2.295  11.354  1.00  0.00     0.030 A 
HETATM   43  C35 UNL     1      -5.145   3.070  12.124  1.00  0.00    -0.002 A 
HETATM   44  C32 UNL     1      -2.391   3.499  11.796  1.00  0.00     0.002 A 
HETATM   45  C33 UNL     1      -3.184   4.475  12.393  1.00  0.00     0.001 A 
HETATM   46  C34 UNL     1      -4.557   4.271  12.572  1.00  0.00     0.014 A 
ENDBRANCH  36  37
ENDBRANCH  35  36
ENDBRANCH  33  35
ENDBRANCH  30  31
ENDBRANCH  29  30
ENDBRANCH  27  29
ENDBRANCH  26  27
ENDBRANCH  25  26
ENDBRANCH   1  25
TORSDOF 11
ENDMDL
MODEL 7
REMARK minimizedAffinity -9.63310051
REMARK CNNscore 0.292681456
REMARK CNNaffinity 6.85073233
REMARK  11 active torsions:
REMARK  status: ('A' for Active; 'I' for Inactive)
REMARK    1  A    between atoms: C19_20  and  O2_21 
REMARK    2  A    between atoms: C19_20  and  C20_22 
REMARK    3  A    between atoms: C20_22  and  C21_24 
REMARK    4  A    between atoms: C21_24  and  O4_25 
REMARK    5  A    between atoms: O4_25  and  C22_26 
REMARK    6  A    between atoms: C22_26  and  C23_28 
REMARK    7  A    between atoms: C23_28  and  C24_29 
REMARK    8  A    between atoms: C24_29  and  C25_30 
REMARK       I    between atoms: C25_30  and  N1_32 
REMARK    9  A    between atoms: N1_32  and  C26_33 
REMARK   10  A    between atoms: C26_33  and  C27_34 
REMARK   11  A    between atoms: C27_34  and  C28_35 
ROOT
HETATM    1  C20 UNL     1      -0.740   8.675  14.148  1.00  0.00     0.185 C 
HETATM    2  O3  UNL     1       0.373   8.229  13.826  1.00  0.00    -0.292 OA
ENDROOT
BRANCH   1   3
HETATM    3  C19 UNL     1      -2.014   8.032  13.539  1.00  0.00     0.128 C 
HETATM    4  C14 UNL     1      -3.280   7.810  14.424  1.00  0.00    -0.002 C 
HETATM    5  C13 UNL     1      -4.104   9.066  14.758  1.00  0.00     0.013 C 
HETATM    6  C15 UNL     1      -2.962   7.046  15.733  1.00  0.00     0.019 C 
HETATM    7  C16 UNL     1      -4.131   6.955  13.442  1.00  0.00     0.002 C 
HETATM    8  C12 UNL     1      -5.485   8.710  15.341  1.00  0.00     0.007 C 
HETATM    9  C11 UNL     1      -6.303   7.741  14.444  1.00  0.00     0.002 C 
HETATM   10  C2  UNL     1      -7.719   7.368  15.031  1.00  0.00    -0.016 C 
HETATM   11  C10 UNL     1      -5.469   6.489  14.032  1.00  0.00    -0.004 C 
HETATM   12  C1  UNL     1      -7.613   6.735  16.436  1.00  0.00     0.020 C 
HETATM   13  C3  UNL     1      -8.568   8.671  15.121  1.00  0.00     0.022 C 
HETATM   14  C7  UNL     1      -8.417   6.360  14.107  1.00  0.00    -0.068 C 
HETATM   15  C4  UNL     1     -10.053   8.427  15.343  1.00  0.00     0.084 C 
HETATM   16  C5  UNL     1     -10.604   7.494  14.298  1.00  0.00     0.149 C 
HETATM   17  O1  UNL     1     -11.781   7.529  13.944  1.00  0.00    -0.293 OA
HETATM   18  C6  UNL     1      -9.710   6.448  13.749  1.00  0.00     0.053 C 
HETATM   19  C8  UNL     1      -7.590   5.195  13.614  1.00  0.00     0.035 C 
HETATM   20  C9  UNL     1      -6.259   5.643  13.025  1.00  0.00     0.010 C 
HETATM   21  C17 UNL     1      -3.139   5.909  12.944  1.00  0.00     0.009 C 
HETATM   22  C18 UNL     1      -1.797   6.665  12.856  1.00  0.00     0.047 C 
BRANCH   3  23
HETATM   23  O2  UNL     1      -2.401   8.940  12.468  1.00  0.00    -0.381 OA
HETATM   24  H27 UNL     1      -1.569   9.361  12.162  1.00  0.00     0.211 HD
ENDBRANCH   3  23
ENDBRANCH   1   3
BRANCH   1  25
HETATM   25  C21 UNL     1      -0.805   9.861  15.105  1.00  0.00     0.260 C 
BRANCH  25  26
HETATM   26  O4  UNL     1      -0.858   9.593  16.497  1.00  0.00    -0.314 OA
BRANCH  26  27
HETATM   27  C22 UNL     1      -1.020  10.683  17.299  1.00  0.00     0.259 C 
HETATM   28  O5  UNL     1      -2.094  11.175  17.608  1.00  0.00    -0.265 OA
BRANCH  27  29
HETATM   29  C23 UNL     1       0.316  11.155  17.821  1.00  0.00     0.120 C 
BRANCH  29  30
HETATM   30  C24 UNL     1       0.428  10.920  19.322  1.00  0.00     0.112 C 
BRANCH  30  31
HETATM   31  C25 UNL     1       1.829  10.507  19.729  1.00  0.00     0.218 C 
HETATM   32  O6  UNL     1       2.542   9.794  19.033  1.00  0.00    -0.274 OA
HETATM   33  N1  UNL     1       2.185  10.970  20.975  1.00  0.00    -0.361 N 
HETATM   34  H34 UNL     1       1.501  11.477  21.525  1.00  0.00     0.162 HD
BRANCH  33  35
HETATM   35  C26 UNL     1       3.456  10.641  21.602  1.00  0.00     0.127 C 
BRANCH  35  36
HETATM   36  C27 UNL     1       3.603  11.251  22.998  1.00  0.00     0.060 C 
BRANCH  36  37
HETATM   37  C28 UNL     1       4.349  12.549  23.011  1.00  0.00    -0.029 A 
HETATM   38  C29 UNL     1       3.779  13.809  22.982  1.00  0.00     0.096 A 
HETATM   39  N2  UNL     1       4.783  14.739  22.990  1.00  0.00    -0.365 N 
HETATM   40  C30 UNL     1       6.007  14.115  23.012  1.00  0.00     0.042 A 
HETATM   41  H40 UNL     1       4.650  15.741  22.989  1.00  0.00     0.165 HD
HETATM   42  C31 UNL     1       7.294  14.665  23.020  1.00  0.00     0.030 A 
HETATM   43  C35 UNL     1       5.768  12.740  23.041  1.00  0.00    -0.002 A 
HETATM   44  C32 UNL     1       8.375  13.780  23.081  1.00  0.00     0.002 A 
HETATM   45  C33 UNL     1       8.171  12.404  23.118  1.00  0.00     0.001 A 
HETATM   46  C34 UNL     1       6.878  11.870  23.089  1.00  0.00     0.014 A 
ENDBRANCH  36  37
ENDBRANCH  35  36
ENDBRANCH  33  35
ENDBRANCH  30  31
ENDBRANCH  29  30
ENDBRANCH  27  29
ENDBRANCH  26  27
ENDBRANCH  25  26
ENDBRANCH   1  25
TORSDOF 11
ENDMDL
MODEL 8
REMARK minimizedAffinity -9.5409584
REMARK CNNscore 0.259717315
REMARK CNNaffinity 6.460289
REMARK  11 active torsions:
REMARK  status: ('A' for Active; 'I' for Inactive)
REMARK    1  A    between atoms: C19_20  and  O2_21 
REMARK    2  A    between atoms: C19_20  and  C20_22 
REMARK    3  A    between atoms: C20_22  and  C21_24 
REMARK    4  A    between atoms: C21_24  and  O4_25 
REMARK    5  A    between atoms: O4_25  and  C22_26 
REMARK    6  A    between atoms: C22_26  and  C23_28 
REMARK    7  A    between atoms: C23_28  and  C24_29 
REMARK    8  A    between atoms: C24_29  and  C25_30 
REMARK       I    between atoms: C25_30  and  N1_32 
REMARK    9  A    between atoms: N1_32  and  C26_33 
REMARK   10  A    between atoms: C26_33  and  C27_34 
REMARK   11  A    between atoms: C27_34  and  C28_35 
ROOT
HETATM    1  C20 UNL     1      -0.461  10.942  14.952  1.00  0.00     0.185 C 
HETATM    2  O3  UNL     1      -1.052  12.031  14.877  1.00  0.00    -0.292 OA
ENDROOT
BRANCH   1   3
HETATM    3  C19 UNL     1      -1.020   9.726  14.167  1.00  0.00     0.128 C 
HETATM    4  C14 UNL     1      -2.218   8.907  14.742  1.00  0.00    -0.002 C 
HETATM    5  C13 UNL     1      -3.603   9.573  14.650  1.00  0.00     0.013 C 
HETATM    6  C15 UNL     1      -1.973   8.440  16.197  1.00  0.00     0.019 C 
HETATM    7  C16 UNL     1      -2.217   7.718  13.739  1.00  0.00     0.002 C 
HETATM    8  C12 UNL     1      -4.742   8.573  14.930  1.00  0.00     0.007 C 
HETATM    9  C11 UNL     1      -4.683   7.304  14.035  1.00  0.00     0.002 C 
HETATM   10  C2  UNL     1      -5.844   6.272  14.314  1.00  0.00    -0.016 C 
HETATM   11  C10 UNL     1      -3.269   6.646  14.055  1.00  0.00    -0.004 C 
HETATM   12  C1  UNL     1      -5.865   5.811  15.788  1.00  0.00     0.020 C 
HETATM   13  C3  UNL     1      -7.199   6.960  13.974  1.00  0.00     0.022 C 
HETATM   14  C7  UNL     1      -5.659   5.030  13.430  1.00  0.00    -0.068 C 
HETATM   15  C4  UNL     1      -8.371   5.996  13.865  1.00  0.00     0.084 C 
HETATM   16  C5  UNL     1      -8.066   4.891  12.889  1.00  0.00     0.149 C 
HETATM   17  O1  UNL     1      -8.950   4.314  12.259  1.00  0.00    -0.293 OA
HETATM   18  C6  UNL     1      -6.663   4.438  12.758  1.00  0.00     0.053 C 
HETATM   19  C8  UNL     1      -4.270   4.442  13.356  1.00  0.00     0.035 C 
HETATM   20  C9  UNL     1      -3.215   5.494  13.042  1.00  0.00     0.010 C 
HETATM   21  C17 UNL     1      -0.747   7.315  13.681  1.00  0.00     0.009 C 
HETATM   22  C18 UNL     1       0.020   8.649  13.797  1.00  0.00     0.047 C 
BRANCH   3  23
HETATM   23  O2  UNL     1      -1.462  10.288  12.898  1.00  0.00    -0.381 OA
HETATM   24  H27 UNL     1      -0.890  11.068  12.738  1.00  0.00     0.211 HD
ENDBRANCH   3  23
ENDBRANCH   1   3
BRANCH   1  25
HETATM   25  C21 UNL     1       0.774  10.839  15.842  1.00  0.00     0.260 C 
BRANCH  25  26
HETATM   26  O4  UNL     1       0.683  10.055  17.021  1.00  0.00    -0.314 OA
BRANCH  26  27
HETATM   27  C22 UNL     1       1.662  10.269  17.945  1.00  0.00     0.259 C 
HETATM   28  O5  UNL     1       2.691   9.619  18.042  1.00  0.00    -0.265 OA
BRANCH  27  29
HETATM   29  C23 UNL     1       1.335  11.479  18.787  1.00  0.00     0.120 C 
BRANCH  29  30
HETATM   30  C24 UNL     1       0.862  11.065  20.175  1.00  0.00     0.112 C 
BRANCH  30  31
HETATM   31  C25 UNL     1       1.909  10.256  20.914  1.00  0.00     0.218 C 
HETATM   32  O6  UNL     1       1.653   9.210  21.499  1.00  0.00    -0.274 OA
HETATM   33  N1  UNL     1       3.152  10.847  20.902  1.00  0.00    -0.361 N 
HETATM   34  H34 UNL     1       3.259  11.759  20.473  1.00  0.00     0.162 HD
BRANCH  33  35
HETATM   35  C26 UNL     1       4.296  10.287  21.605  1.00  0.00     0.127 C 
BRANCH  35  36
HETATM   36  C27 UNL     1       4.461  10.859  23.016  1.00  0.00     0.060 C 
BRANCH  36  37
HETATM   37  C28 UNL     1       5.043  12.238  23.041  1.00  0.00    -0.029 A 
HETATM   38  C29 UNL     1       4.324  13.419  23.030  1.00  0.00     0.096 A 
HETATM   39  N2  UNL     1       5.207  14.463  23.044  1.00  0.00    -0.365 N 
HETATM   40  C30 UNL     1       6.498  13.994  23.054  1.00  0.00     0.042 A 
HETATM   41  H40 UNL     1       4.953  15.442  23.057  1.00  0.00     0.165 HD
HETATM   42  C31 UNL     1       7.709  14.696  23.063  1.00  0.00     0.030 A 
HETATM   43  C35 UNL     1       6.429  12.600  23.067  1.00  0.00    -0.002 A 
HETATM   44  C32 UNL     1       8.889  13.949  23.108  1.00  0.00     0.002 A 
HETATM   45  C33 UNL     1       8.856  12.558  23.129  1.00  0.00     0.001 A 
HETATM   46  C34 UNL     1       7.636  11.871  23.100  1.00  0.00     0.014 A 
ENDBRANCH  36  37
ENDBRANCH  35  36
ENDBRANCH  33  35
ENDBRANCH  30  31
ENDBRANCH  29  30
ENDBRANCH  27  29
ENDBRANCH  26  27
ENDBRANCH  25  26
ENDBRANCH   1  25
TORSDOF 11
ENDMDL
MODEL 9
REMARK minimizedAffinity -9.29966164
REMARK CNNscore 0.244096562
REMARK CNNaffinity 6.80712891
REMARK  11 active torsions:
REMARK  status: ('A' for Active; 'I' for Inactive)
REMARK    1  A    between atoms: C19_20  and  O2_21 
REMARK    2  A    between atoms: C19_20  and  C20_22 
REMARK    3  A    between atoms: C20_22  and  C21_24 
REMARK    4  A    between atoms: C21_24  and  O4_25 
REMARK    5  A    between atoms: O4_25  and  C22_26 
REMARK    6  A    between atoms: C22_26  and  C23_28 
REMARK    7  A    between atoms: C23_28  and  C24_29 
REMARK    8  A    between atoms: C24_29  and  C25_30 
REMARK       I    between atoms: C25_30  and  N1_32 
REMARK    9  A    between atoms: N1_32  and  C26_33 
REMARK   10  A    between atoms: C26_33  and  C27_34 
REMARK   11  A    between atoms: C27_34  and  C28_35 
ROOT
HETATM    1  C20 UNL     1      -0.259   6.221  13.436  1.00  0.00     0.185 C 
HETATM    2  O3  UNL     1       0.652   5.531  12.950  1.00  0.00    -0.292 OA
ENDROOT
BRANCH   1   3
HETATM    3  C19 UNL     1      -1.711   6.014  12.930  1.00  0.00     0.128 C 
HETATM    4  C14 UNL     1      -2.908   6.097  13.928  1.00  0.00    -0.002 C 
HETATM    5  C13 UNL     1      -3.300   7.508  14.403  1.00  0.00     0.013 C 
HETATM    6  C15 UNL     1      -2.717   5.181  15.161  1.00  0.00     0.019 C 
HETATM    7  C16 UNL     1      -4.050   5.595  13.000  1.00  0.00     0.002 C 
HETATM    8  C12 UNL     1      -4.671   7.519  15.106  1.00  0.00     0.007 C 
HETATM    9  C11 UNL     1      -5.808   6.892  14.253  1.00  0.00     0.002 C 
HETATM   10  C2  UNL     1      -7.217   6.895  14.963  1.00  0.00    -0.016 C 
HETATM   11  C10 UNL     1      -5.411   5.488  13.701  1.00  0.00    -0.004 C 
HETATM   12  C1  UNL     1      -7.181   6.157  16.319  1.00  0.00     0.020 C 
HETATM   13  C3  UNL     1      -7.639   8.376  15.199  1.00  0.00     0.022 C 
HETATM   14  C7  UNL     1      -8.252   6.199  14.069  1.00  0.00    -0.068 C 
HETATM   15  C4  UNL     1      -9.107   8.550  15.559  1.00  0.00     0.084 C 
HETATM   16  C5  UNL     1      -9.991   7.891  14.534  1.00  0.00     0.149 C 
HETATM   17  O1  UNL     1     -11.132   8.287  14.304  1.00  0.00    -0.293 OA
HETATM   18  C6  UNL     1      -9.489   6.678  13.850  1.00  0.00     0.053 C 
HETATM   19  C8  UNL     1      -7.844   4.887  13.442  1.00  0.00     0.035 C 
HETATM   20  C9  UNL     1      -6.495   4.979  12.741  1.00  0.00     0.010 C 
HETATM   21  C17 UNL     1      -3.451   4.349  12.356  1.00  0.00     0.009 C 
HETATM   22  C18 UNL     1      -1.959   4.696  12.167  1.00  0.00     0.047 C 
BRANCH   3  23
HETATM   23  O2  UNL     1      -1.906   7.071  11.948  1.00  0.00    -0.381 OA
HETATM   24  H27 UNL     1      -1.017   7.259  11.578  1.00  0.00     0.211 HD
ENDBRANCH   3  23
ENDBRANCH   1   3
BRANCH   1  25
HETATM   25  C21 UNL     1       0.096   7.268  14.487  1.00  0.00     0.260 C 
BRANCH  25  26
HETATM   26  O4  UNL     1       0.656   8.494  14.044  1.00  0.00    -0.314 OA
BRANCH  26  27
HETATM   27  C22 UNL     1       1.995   8.637  14.254  1.00  0.00     0.259 C 
HETATM   28  O5  UNL     1       2.871   8.130  13.570  1.00  0.00    -0.265 OA
BRANCH  27  29
HETATM   29  C23 UNL     1       2.250   9.578  15.406  1.00  0.00     0.120 C 
BRANCH  29  30
HETATM   30  C24 UNL     1       0.956   9.902  16.142  1.00  0.00     0.112 C 
BRANCH  30  31
HETATM   31  C25 UNL     1       1.193  10.170  17.616  1.00  0.00     0.218 C 
HETATM   32  O6  UNL     1       2.196   9.790  18.209  1.00  0.00    -0.274 OA
HETATM   33  N1  UNL     1       0.145  10.830  18.217  1.00  0.00    -0.361 N 
HETATM   34  H34 UNL     1      -0.688  11.026  17.674  1.00  0.00     0.162 HD
BRANCH  33  35
HETATM   35  C26 UNL     1       0.120  11.132  19.639  1.00  0.00     0.127 C 
BRANCH  35  36
HETATM   36  C27 UNL     1       0.857  12.429  19.982  1.00  0.00     0.060 C 
BRANCH  36  37
HETATM   37  C28 UNL     1       1.962  12.247  20.975  1.00  0.00    -0.029 A 
HETATM   38  C29 UNL     1       2.798  13.243  21.445  1.00  0.00     0.096 A 
HETATM   39  N2  UNL     1       3.686  12.685  22.324  1.00  0.00    -0.365 N 
HETATM   40  C30 UNL     1       3.458  11.334  22.435  1.00  0.00     0.042 A 
HETATM   41  H40 UNL     1       4.402  13.188  22.829  1.00  0.00     0.165 HD
HETATM   42  C31 UNL     1       4.121  10.372  23.205  1.00  0.00     0.030 A 
HETATM   43  C35 UNL     1       2.372  11.031  21.611  1.00  0.00    -0.002 A 
HETATM   44  C32 UNL     1       3.646   9.059  23.149  1.00  0.00     0.002 A 
HETATM   45  C33 UNL     1       2.561   8.724  22.345  1.00  0.00     0.001 A 
HETATM   46  C34 UNL     1       1.921   9.695  21.565  1.00  0.00     0.014 A 
ENDBRANCH  36  37
ENDBRANCH  35  36
ENDBRANCH  33  35
ENDBRANCH  30  31
ENDBRANCH  29  30
ENDBRANCH  27  29
ENDBRANCH  26  27
ENDBRANCH  25  26
ENDBRANCH   1  25
TORSDOF 11
ENDMDL
