MODEL 1
REMARK minimizedAffinity -9.62365723
REMARK  5 active torsions:
REMARK  status: ('A' for Active; 'I' for Inactive)
REMARK    1  A    between atoms: O1_1  and  C1_2 
REMARK    2  A    between atoms: C4_5  and  C5_6 
REMARK    3  A    between atoms: C9_10  and  O2_11 
REMARK    4  A    between atoms: C13_16  and  C14_17 
REMARK    5  A    between atoms: C18_21  and  O4_22 
ROOT
HETATM    1  C5  UNL     1      -1.880  50.769 -23.064  1.00  0.00     0.065 C 
HETATM    2  C6  UNL     1      -0.995  51.683 -22.224  1.00  0.00    -0.015 A 
HETATM    3  C7  UNL     1      -1.353  52.009 -20.904  1.00  0.00     0.013 A 
HETATM    4  C8  UNL     1      -0.534  52.830 -20.126  1.00  0.00     0.037 A 
HETATM    5  C9  UNL     1       0.642  53.335 -20.664  1.00  0.00     0.068 A 
HETATM    6  C10 UNL     1       1.005  53.046 -21.973  1.00  0.00     0.073 A 
HETATM    7  C11 UNL     1       0.174  52.241 -22.756  1.00  0.00     0.078 A 
HETATM    8  O3  UNL     1       0.595  52.030 -24.042  1.00  0.00    -0.350 OA
HETATM    9  C12 UNL     1      -0.466  51.667 -24.930  1.00  0.00     0.186 C 
HETATM   10  C13 UNL     1      -1.215  50.432 -24.425  1.00  0.00     0.056 C 
ENDROOT
BRANCH   1  11
HETATM   11  C4  UNL     1      -2.292  49.486 -22.340  1.00  0.00    -0.049 A 
HETATM   12  C3  UNL     1      -3.647  49.243 -22.063  1.00  0.00     0.011 A 
HETATM   13  C2  UNL     1      -4.040  48.071 -21.415  1.00  0.00     0.037 A 
HETATM   14  C1  UNL     1      -3.085  47.136 -21.041  1.00  0.00     0.065 A 
HETATM   15  C21 UNL     1      -1.736  47.350 -21.308  1.00  0.00     0.037 A 
HETATM   16  C20 UNL     1      -1.342  48.522 -21.957  1.00  0.00     0.011 A 
BRANCH  14  17
HETATM   17  O1  UNL     1      -3.512  46.007 -20.409  1.00  0.00    -0.361 OA
HETATM   18  H1  UNL     1      -2.741  45.446 -20.227  1.00  0.00     0.217 HD
ENDBRANCH  14  17
ENDBRANCH   1  11
BRANCH  10  19
HETATM   19  C14 UNL     1      -2.204  49.915 -25.461  1.00  0.00    -0.048 A 
HETATM   20  C15 UNL     1      -2.974  48.761 -25.244  1.00  0.00     0.008 A 
HETATM   21  C16 UNL     1      -3.867  48.308 -26.219  1.00  0.00     0.003 A 
HETATM   22  C17 UNL     1      -4.003  48.998 -27.423  1.00  0.00     0.036 A 
HETATM   23  C18 UNL     1      -3.240  50.138 -27.642  1.00  0.00     0.066 A 
HETATM   24  C19 UNL     1      -2.348  50.598 -26.678  1.00  0.00     0.044 A 
BRANCH  23  25
HETATM   25  O4  UNL     1      -3.338  50.845 -28.805  1.00  0.00    -0.361 OA
HETATM   26  H15 UNL     1      -3.960  50.388 -29.393  1.00  0.00     0.217 HD
ENDBRANCH  23  25
ENDBRANCH  10  19
BRANCH   5  27
HETATM   27  O2  UNL     1       1.418  54.124 -19.867  1.00  0.00    -0.361 OA
HETATM   28  H7  UNL     1       2.204  54.392 -20.372  1.00  0.00     0.217 HD
ENDBRANCH   5  27
TORSDOF 5
ENDMDL
MODEL 2
REMARK minimizedAffinity -9.61584091
REMARK  5 active torsions:
REMARK  status: ('A' for Active; 'I' for Inactive)
REMARK    1  A    between atoms: O1_1  and  C1_2 
REMARK    2  A    between atoms: C4_5  and  C5_6 
REMARK    3  A    between atoms: C9_10  and  O2_11 
REMARK    4  A    between atoms: C13_16  and  C14_17 
REMARK    5  A    between atoms: C18_21  and  O4_22 
ROOT
HETATM    1  C5  UNL     1      -0.993  51.274 -23.405  1.00  0.00     0.065 C 
HETATM    2  C6  UNL     1      -0.685  51.581 -24.866  1.00  0.00    -0.015 A 
HETATM    3  C7  UNL     1      -1.245  50.803 -25.895  1.00  0.00     0.013 A 
HETATM    4  C8  UNL     1      -0.980  51.095 -27.234  1.00  0.00     0.037 A 
HETATM    5  C9  UNL     1      -0.149  52.160 -27.554  1.00  0.00     0.068 A 
HETATM    6  C10 UNL     1       0.435  52.929 -26.555  1.00  0.00     0.073 A 
HETATM    7  C11 UNL     1       0.184  52.622 -25.215  1.00  0.00     0.078 A 
HETATM    8  O3  UNL     1       0.822  53.415 -24.298  1.00  0.00    -0.350 OA
HETATM    9  C12 UNL     1       0.965  52.791 -23.019  1.00  0.00     0.186 C 
HETATM   10  C13 UNL     1      -0.389  52.348 -22.462  1.00  0.00     0.056 C 
ENDROOT
BRANCH   1  11
HETATM   11  C4  UNL     1      -2.486  51.095 -23.122  1.00  0.00    -0.049 A 
HETATM   12  C3  UNL     1      -3.328  52.218 -23.074  1.00  0.00     0.011 A 
HETATM   13  C2  UNL     1      -4.694  52.070 -22.831  1.00  0.00     0.037 A 
HETATM   14  C1  UNL     1      -5.227  50.802 -22.635  1.00  0.00     0.065 A 
HETATM   15  C21 UNL     1      -4.415  49.674 -22.683  1.00  0.00     0.037 A 
HETATM   16  C20 UNL     1      -3.048  49.821 -22.928  1.00  0.00     0.011 A 
BRANCH  14  17
HETATM   17  O1  UNL     1      -6.566  50.704 -22.398  1.00  0.00    -0.361 OA
HETATM   18  H1  UNL     1      -6.791  49.764 -22.300  1.00  0.00     0.217 HD
ENDBRANCH  14  17
ENDBRANCH   1  11
BRANCH  10  19
HETATM   19  C14 UNL     1      -0.273  51.876 -21.018  1.00  0.00    -0.048 A 
HETATM   20  C15 UNL     1      -0.562  50.556 -20.642  1.00  0.00     0.008 A 
HETATM   21  C16 UNL     1      -0.455  50.156 -19.307  1.00  0.00     0.003 A 
HETATM   22  C17 UNL     1      -0.060  51.069 -18.330  1.00  0.00     0.036 A 
HETATM   23  C18 UNL     1       0.224  52.378 -18.699  1.00  0.00     0.066 A 
HETATM   24  C19 UNL     1       0.121  52.786 -20.025  1.00  0.00     0.044 A 
BRANCH  23  25
HETATM   25  O4  UNL     1       0.613  53.306 -17.778  1.00  0.00    -0.361 OA
HETATM   26  H15 UNL     1       0.601  52.895 -16.899  1.00  0.00     0.217 HD
ENDBRANCH  23  25
ENDBRANCH  10  19
BRANCH   5  27
HETATM   27  O2  UNL     1       0.076  52.417 -28.874  1.00  0.00    -0.361 OA
HETATM   28  H7  UNL     1       0.662  53.189 -28.942  1.00  0.00     0.217 HD
ENDBRANCH   5  27
TORSDOF 5
ENDMDL
MODEL 3
REMARK minimizedAffinity -9.6090107
REMARK  5 active torsions:
REMARK  status: ('A' for Active; 'I' for Inactive)
REMARK    1  A    between atoms: O1_1  and  C1_2 
REMARK    2  A    between atoms: C4_5  and  C5_6 
REMARK    3  A    between atoms: C9_10  and  O2_11 
REMARK    4  A    between atoms: C13_16  and  C14_17 
REMARK    5  A    between atoms: C18_21  and  O4_22 
ROOT
HETATM    1  C5  UNL     1      -1.644  50.603 -23.882  1.00  0.00     0.065 C 
HETATM    2  C6  UNL     1      -2.252  50.353 -25.257  1.00  0.00    -0.015 A 
HETATM    3  C7  UNL     1      -2.554  49.046 -25.680  1.00  0.00     0.013 A 
HETATM    4  C8  UNL     1      -3.130  48.817 -26.931  1.00  0.00     0.037 A 
HETATM    5  C9  UNL     1      -3.399  49.889 -27.770  1.00  0.00     0.068 A 
HETATM    6  C10 UNL     1      -3.089  51.187 -27.385  1.00  0.00     0.073 A 
HETATM    7  C11 UNL     1      -2.495  51.412 -26.140  1.00  0.00     0.078 A 
HETATM    8  O3  UNL     1      -2.198  52.718 -25.854  1.00  0.00    -0.350 OA
HETATM    9  C12 UNL     1      -1.172  52.859 -24.867  1.00  0.00     0.186 C 
HETATM   10  C13 UNL     1      -1.537  52.120 -23.578  1.00  0.00     0.056 C 
ENDROOT
BRANCH   1  11
HETATM   11  C4  UNL     1      -2.381  49.883 -22.750  1.00  0.00    -0.049 A 
HETATM   12  C3  UNL     1      -3.627  50.361 -22.312  1.00  0.00     0.011 A 
HETATM   13  C2  UNL     1      -4.318  49.709 -21.290  1.00  0.00     0.037 A 
HETATM   14  C1  UNL     1      -3.771  48.576 -20.702  1.00  0.00     0.065 A 
HETATM   15  C21 UNL     1      -2.541  48.079 -21.121  1.00  0.00     0.037 A 
HETATM   16  C20 UNL     1      -1.850  48.731 -22.145  1.00  0.00     0.011 A 
BRANCH  14  17
HETATM   17  O1  UNL     1      -4.478  47.971 -19.706  1.00  0.00    -0.361 OA
HETATM   18  H1  UNL     1      -3.983  47.191 -19.408  1.00  0.00     0.217 HD
ENDBRANCH  14  17
ENDBRANCH   1  11
BRANCH  10  19
HETATM   19  C14 UNL     1      -0.556  52.436 -22.456  1.00  0.00    -0.048 A 
HETATM   20  C15 UNL     1      -0.571  51.740 -21.237  1.00  0.00     0.008 A 
HETATM   21  C16 UNL     1       0.336  52.060 -20.223  1.00  0.00     0.003 A 
HETATM   22  C17 UNL     1       1.268  53.079 -20.411  1.00  0.00     0.036 A 
HETATM   23  C18 UNL     1       1.283  53.774 -21.615  1.00  0.00     0.066 A 
HETATM   24  C19 UNL     1       0.385  53.462 -22.630  1.00  0.00     0.044 A 
BRANCH  23  25
HETATM   25  O4  UNL     1       2.176  54.779 -21.843  1.00  0.00    -0.361 OA
HETATM   26  H15 UNL     1       2.706  54.911 -21.041  1.00  0.00     0.217 HD
ENDBRANCH  23  25
ENDBRANCH  10  19
BRANCH   5  27
HETATM   27  O2  UNL     1      -3.971  49.622 -28.979  1.00  0.00    -0.361 OA
HETATM   28  H7  UNL     1      -4.108  50.463 -29.446  1.00  0.00     0.217 HD
ENDBRANCH   5  27
TORSDOF 5
ENDMDL
MODEL 4
REMARK minimizedAffinity -9.47033215
REMARK  5 active torsions:
REMARK  status: ('A' for Active; 'I' for Inactive)
REMARK    1  A    between atoms: O1_1  and  C1_2 
REMARK    2  A    between atoms: C4_5  and  C5_6 
REMARK    3  A    between atoms: C9_10  and  O2_11 
REMARK    4  A    between atoms: C13_16  and  C14_17 
REMARK    5  A    between atoms: C18_21  and  O4_22 
ROOT
HETATM    1  C5  UNL     1      -1.413  51.457 -24.079  1.00  0.00     0.065 C 
HETATM    2  C6  UNL     1      -2.749  51.208 -23.388  1.00  0.00    -0.015 A 
HETATM    3  C7  UNL     1      -2.794  50.684 -22.084  1.00  0.00     0.013 A 
HETATM    4  C8  UNL     1      -4.016  50.475 -21.442  1.00  0.00     0.037 A 
HETATM    5  C9  UNL     1      -5.199  50.780 -22.101  1.00  0.00     0.068 A 
HETATM    6  C10 UNL     1      -5.181  51.277 -23.398  1.00  0.00     0.073 A 
HETATM    7  C11 UNL     1      -3.958  51.467 -24.045  1.00  0.00     0.078 A 
HETATM    8  O3  UNL     1      -4.035  51.935 -25.330  1.00  0.00    -0.350 OA
HETATM    9  C12 UNL     1      -2.873  51.636 -26.109  1.00  0.00     0.186 C 
HETATM   10  C13 UNL     1      -1.605  52.173 -25.442  1.00  0.00     0.056 C 
ENDROOT
BRANCH   1  11
HETATM   11  C4  UNL     1      -0.411  52.222 -23.211  1.00  0.00    -0.049 A 
HETATM   12  C3  UNL     1       0.004  53.508 -23.591  1.00  0.00     0.011 A 
HETATM   13  C2  UNL     1       0.906  54.225 -22.804  1.00  0.00     0.037 A 
HETATM   14  C1  UNL     1       1.397  53.662 -21.633  1.00  0.00     0.065 A 
HETATM   15  C21 UNL     1       0.998  52.392 -21.231  1.00  0.00     0.037 A 
HETATM   16  C20 UNL     1       0.094  51.675 -22.019  1.00  0.00     0.011 A 
BRANCH  14  17
HETATM   17  O1  UNL     1       2.278  54.396 -20.895  1.00  0.00    -0.361 OA
HETATM   18  H1  UNL     1       2.517  53.884 -20.105  1.00  0.00     0.217 HD
ENDBRANCH  14  17
ENDBRANCH   1  11
BRANCH  10  19
HETATM   19  C14 UNL     1      -0.395  52.046 -26.358  1.00  0.00    -0.048 A 
HETATM   20  C15 UNL     1      -0.435  52.445 -27.703  1.00  0.00     0.008 A 
HETATM   21  C16 UNL     1       0.690  52.307 -28.521  1.00  0.00     0.003 A 
HETATM   22  C17 UNL     1       1.869  51.767 -28.008  1.00  0.00     0.036 A 
HETATM   23  C18 UNL     1       1.911  51.368 -26.678  1.00  0.00     0.066 A 
HETATM   24  C19 UNL     1       0.797  51.502 -25.856  1.00  0.00     0.044 A 
BRANCH  23  25
HETATM   25  O4  UNL     1       3.042  50.834 -26.133  1.00  0.00    -0.361 OA
HETATM   26  H15 UNL     1       3.717  50.763 -26.827  1.00  0.00     0.217 HD
ENDBRANCH  23  25
ENDBRANCH  10  19
BRANCH   5  27
HETATM   27  O2  UNL     1      -6.371  50.571 -21.435  1.00  0.00    -0.361 OA
HETATM   28  H7  UNL     1      -7.105  50.837 -22.012  1.00  0.00     0.217 HD
ENDBRANCH   5  27
TORSDOF 5
ENDMDL
MODEL 5
REMARK minimizedAffinity -9.23509312
REMARK  5 active torsions:
REMARK  status: ('A' for Active; 'I' for Inactive)
REMARK    1  A    between atoms: O1_1  and  C1_2 
REMARK    2  A    between atoms: C4_5  and  C5_6 
REMARK    3  A    between atoms: C9_10  and  O2_11 
REMARK    4  A    between atoms: C13_16  and  C14_17 
REMARK    5  A    between atoms: C18_21  and  O4_22 
ROOT
HETATM    1  C5  UNL     1      -1.664  50.560 -23.788  1.00  0.00     0.065 C 
HETATM    2  C6  UNL     1      -2.194  50.456 -25.213  1.00  0.00    -0.015 A 
HETATM    3  C7  UNL     1      -2.442  49.199 -25.795  1.00  0.00     0.013 A 
HETATM    4  C8  UNL     1      -2.946  49.102 -27.093  1.00  0.00     0.037 A 
HETATM    5  C9  UNL     1      -3.198  50.257 -27.821  1.00  0.00     0.068 A 
HETATM    6  C10 UNL     1      -2.940  51.509 -27.276  1.00  0.00     0.073 A 
HETATM    7  C11 UNL     1      -2.417  51.603 -25.984  1.00  0.00     0.078 A 
HETATM    8  O3  UNL     1      -2.168  52.873 -25.538  1.00  0.00    -0.350 OA
HETATM    9  C12 UNL     1      -1.199  52.922 -24.488  1.00  0.00     0.186 C 
HETATM   10  C13 UNL     1      -1.611  52.035 -23.311  1.00  0.00     0.056 C 
ENDROOT
BRANCH   1  11
HETATM   11  C4  UNL     1      -2.440  49.703 -22.786  1.00  0.00    -0.049 A 
HETATM   12  C3  UNL     1      -3.782  50.004 -22.499  1.00  0.00     0.011 A 
HETATM   13  C2  UNL     1      -4.507  49.225 -21.597  1.00  0.00     0.037 A 
HETATM   14  C1  UNL     1      -3.899  48.140 -20.979  1.00  0.00     0.065 A 
HETATM   15  C21 UNL     1      -2.573  47.817 -21.249  1.00  0.00     0.037 A 
HETATM   16  C20 UNL     1      -1.847  48.597 -22.152  1.00  0.00     0.011 A 
BRANCH  14  17
HETATM   17  O1  UNL     1      -4.644  47.407 -20.104  1.00  0.00    -0.361 OA
HETATM   18  H1  UNL     1      -4.095  46.680 -19.767  1.00  0.00     0.217 HD
ENDBRANCH  14  17
ENDBRANCH   1  11
BRANCH  10  19
HETATM   19  C14 UNL     1      -0.697  52.241 -22.109  1.00  0.00    -0.048 A 
HETATM   20  C15 UNL     1       0.627  52.685 -22.248  1.00  0.00     0.008 A 
HETATM   21  C16 UNL     1       1.442  52.855 -21.127  1.00  0.00     0.003 A 
HETATM   22  C17 UNL     1       0.949  52.582 -19.852  1.00  0.00     0.036 A 
HETATM   23  C18 UNL     1      -0.360  52.137 -19.710  1.00  0.00     0.066 A 
HETATM   24  C19 UNL     1      -1.180  51.966 -20.821  1.00  0.00     0.044 A 
BRANCH  23  25
HETATM   25  O4  UNL     1      -0.885  51.857 -18.483  1.00  0.00    -0.361 OA
HETATM   26  H15 UNL     1      -0.193  51.980 -17.814  1.00  0.00     0.217 HD
ENDBRANCH  23  25
ENDBRANCH  10  19
BRANCH   5  27
HETATM   27  O2  UNL     1      -3.700  50.119 -29.081  1.00  0.00    -0.361 OA
HETATM   28  H7  UNL     1      -3.834  51.004 -29.458  1.00  0.00     0.217 HD
ENDBRANCH   5  27
TORSDOF 5
ENDMDL
MODEL 6
REMARK minimizedAffinity -9.21018887
REMARK  5 active torsions:
REMARK  status: ('A' for Active; 'I' for Inactive)
REMARK    1  A    between atoms: O1_1  and  C1_2 
REMARK    2  A    between atoms: C4_5  and  C5_6 
REMARK    3  A    between atoms: C9_10  and  O2_11 
REMARK    4  A    between atoms: C13_16  and  C14_17 
REMARK    5  A    between atoms: C18_21  and  O4_22 
ROOT
HETATM    1  C5  UNL     1      -1.840  51.659 -23.540  1.00  0.00     0.065 C 
HETATM    2  C6  UNL     1      -2.093  51.605 -22.038  1.00  0.00    -0.015 A 
HETATM    3  C7  UNL     1      -3.405  51.581 -21.533  1.00  0.00     0.013 A 
HETATM    4  C8  UNL     1      -3.639  51.512 -20.159  1.00  0.00     0.037 A 
HETATM    5  C9  UNL     1      -2.565  51.474 -19.280  1.00  0.00     0.068 A 
HETATM    6  C10 UNL     1      -1.260  51.520 -19.753  1.00  0.00     0.073 A 
HETATM    7  C11 UNL     1      -1.029  51.609 -21.128  1.00  0.00     0.078 A 
HETATM    8  O3  UNL     1       0.286  51.677 -21.504  1.00  0.00    -0.350 OA
HETATM    9  C12 UNL     1       0.475  52.267 -22.793  1.00  0.00     0.186 C 
HETATM   10  C13 UNL     1      -0.328  51.527 -23.865  1.00  0.00     0.056 C 
ENDROOT
BRANCH   1  11
HETATM   11  C4  UNL     1      -2.647  50.627 -24.331  1.00  0.00    -0.049 A 
HETATM   12  C3  UNL     1      -3.193  50.972 -25.578  1.00  0.00     0.011 A 
HETATM   13  C2  UNL     1      -3.920  50.039 -26.318  1.00  0.00     0.037 A 
HETATM   14  C1  UNL     1      -4.105  48.757 -25.818  1.00  0.00     0.065 A 
HETATM   15  C21 UNL     1      -3.572  48.388 -24.588  1.00  0.00     0.037 A 
HETATM   16  C20 UNL     1      -2.843  49.322 -23.847  1.00  0.00     0.011 A 
BRANCH  14  17
HETATM   17  O1  UNL     1      -4.824  47.877 -26.572  1.00  0.00    -0.361 OA
HETATM   18  H1  UNL     1      -4.854  47.026 -26.106  1.00  0.00     0.217 HD
ENDBRANCH  14  17
ENDBRANCH   1  11
BRANCH  10  19
HETATM   19  C14 UNL     1       0.026  52.012 -25.264  1.00  0.00    -0.048 A 
HETATM   20  C15 UNL     1       0.622  51.169 -26.215  1.00  0.00     0.008 A 
HETATM   21  C16 UNL     1       0.944  51.647 -27.488  1.00  0.00     0.003 A 
HETATM   22  C17 UNL     1       0.677  52.973 -27.829  1.00  0.00     0.036 A 
HETATM   23  C18 UNL     1       0.091  53.811 -26.888  1.00  0.00     0.066 A 
HETATM   24  C19 UNL     1      -0.234  53.344 -25.619  1.00  0.00     0.044 A 
BRANCH  23  25
HETATM   25  O4  UNL     1      -0.187  55.115 -27.176  1.00  0.00    -0.361 OA
HETATM   26  H15 UNL     1       0.129  55.309 -28.073  1.00  0.00     0.217 HD
ENDBRANCH  23  25
ENDBRANCH  10  19
BRANCH   5  27
HETATM   27  O2  UNL     1      -2.837  51.396 -17.946  1.00  0.00    -0.361 OA
HETATM   28  H7  UNL     1      -1.995  51.367 -17.462  1.00  0.00     0.217 HD
ENDBRANCH   5  27
TORSDOF 5
ENDMDL
MODEL 7
REMARK minimizedAffinity -9.15162468
REMARK  5 active torsions:
REMARK  status: ('A' for Active; 'I' for Inactive)
REMARK    1  A    between atoms: O1_1  and  C1_2 
REMARK    2  A    between atoms: C4_5  and  C5_6 
REMARK    3  A    between atoms: C9_10  and  O2_11 
REMARK    4  A    between atoms: C13_16  and  C14_17 
REMARK    5  A    between atoms: C18_21  and  O4_22 
ROOT
HETATM    1  C5  UNL     1      -1.185  50.240 -23.378  1.00  0.00     0.065 C 
HETATM    2  C6  UNL     1      -1.886  49.299 -22.406  1.00  0.00    -0.015 A 
HETATM    3  C7  UNL     1      -1.219  48.824 -21.262  1.00  0.00     0.013 A 
HETATM    4  C8  UNL     1      -1.866  47.978 -20.360  1.00  0.00     0.037 A 
HETATM    5  C9  UNL     1      -3.179  47.594 -20.598  1.00  0.00     0.068 A 
HETATM    6  C10 UNL     1      -3.851  48.031 -21.732  1.00  0.00     0.073 A 
HETATM    7  C11 UNL     1      -3.195  48.861 -22.644  1.00  0.00     0.078 A 
HETATM    8  O3  UNL     1      -3.923  49.221 -23.746  1.00  0.00    -0.350 OA
HETATM    9  C12 UNL     1      -3.110  49.610 -24.857  1.00  0.00     0.186 C 
HETATM   10  C13 UNL     1      -2.158  50.746 -24.476  1.00  0.00     0.056 C 
ENDROOT
BRANCH   1  11
HETATM   11  C4  UNL     1      -0.495  51.421 -22.692  1.00  0.00    -0.049 A 
HETATM   12  C3  UNL     1      -0.825  51.750 -21.367  1.00  0.00     0.011 A 
HETATM   13  C2  UNL     1      -0.195  52.816 -20.723  1.00  0.00     0.037 A 
HETATM   14  C1  UNL     1       0.768  53.556 -21.396  1.00  0.00     0.065 A 
HETATM   15  C21 UNL     1       1.116  53.248 -22.707  1.00  0.00     0.037 A 
HETATM   16  C20 UNL     1       0.487  52.181 -23.352  1.00  0.00     0.011 A 
BRANCH  14  17
HETATM   17  O1  UNL     1       1.357  54.590 -20.730  1.00  0.00    -0.361 OA
HETATM   18  H1  UNL     1       2.013  54.999 -21.317  1.00  0.00     0.217 HD
ENDBRANCH  14  17
ENDBRANCH   1  11
BRANCH  10  19
HETATM   19  C14 UNL     1      -1.440  51.307 -25.697  1.00  0.00    -0.048 A 
HETATM   20  C15 UNL     1      -0.231  50.765 -26.163  1.00  0.00     0.008 A 
HETATM   21  C16 UNL     1       0.408  51.308 -27.281  1.00  0.00     0.003 A 
HETATM   22  C17 UNL     1      -0.149  52.399 -27.947  1.00  0.00     0.036 A 
HETATM   23  C18 UNL     1      -1.343  52.940 -27.487  1.00  0.00     0.066 A 
HETATM   24  C19 UNL     1      -1.987  52.406 -26.375  1.00  0.00     0.044 A 
BRANCH  23  25
HETATM   25  O4  UNL     1      -1.924  54.007 -28.106  1.00  0.00    -0.361 OA
HETATM   26  H15 UNL     1      -1.348  54.296 -28.832  1.00  0.00     0.217 HD
ENDBRANCH  23  25
ENDBRANCH  10  19
BRANCH   5  27
HETATM   27  O2  UNL     1      -3.777  46.775 -19.687  1.00  0.00    -0.361 OA
HETATM   28  H7  UNL     1      -4.687  46.602 -19.979  1.00  0.00     0.217 HD
ENDBRANCH   5  27
TORSDOF 5
ENDMDL
MODEL 8
REMARK minimizedAffinity -9.04199314
REMARK  5 active torsions:
REMARK  status: ('A' for Active; 'I' for Inactive)
REMARK    1  A    between atoms: O1_1  and  C1_2 
REMARK    2  A    between atoms: C4_5  and  C5_6 
REMARK    3  A    between atoms: C9_10  and  O2_11 
REMARK    4  A    between atoms: C13_16  and  C14_17 
REMARK    5  A    between atoms: C18_21  and  O4_22 
ROOT
HETATM    1  C5  UNL     1      -0.712  51.154 -21.682  1.00  0.00     0.065 C 
HETATM    2  C6  UNL     1      -0.531  51.513 -23.152  1.00  0.00    -0.015 A 
HETATM    3  C7  UNL     1      -1.058  50.686 -24.161  1.00  0.00     0.013 A 
HETATM    4  C8  UNL     1      -0.910  51.023 -25.507  1.00  0.00     0.037 A 
HETATM    5  C9  UNL     1      -0.229  52.182 -25.855  1.00  0.00     0.068 A 
HETATM    6  C10 UNL     1       0.320  53.002 -24.878  1.00  0.00     0.073 A 
HETATM    7  C11 UNL     1       0.188  52.652 -23.532  1.00  0.00     0.078 A 
HETATM    8  O3  UNL     1       0.783  53.503 -22.639  1.00  0.00    -0.350 OA
HETATM    9  C12 UNL     1       1.076  52.886 -21.382  1.00  0.00     0.186 C 
HETATM   10  C13 UNL     1      -0.182  52.280 -20.755  1.00  0.00     0.056 C 
ENDROOT
BRANCH   1  11
HETATM   11  C4  UNL     1      -2.155  50.797 -21.315  1.00  0.00    -0.049 A 
HETATM   12  C3  UNL     1      -3.135  51.802 -21.275  1.00  0.00     0.011 A 
HETATM   13  C2  UNL     1      -4.457  51.491 -20.955  1.00  0.00     0.037 A 
HETATM   14  C1  UNL     1      -4.808  50.176 -20.677  1.00  0.00     0.065 A 
HETATM   15  C21 UNL     1      -3.857  49.162 -20.715  1.00  0.00     0.037 A 
HETATM   16  C20 UNL     1      -2.534  49.473 -21.035  1.00  0.00     0.011 A 
BRANCH  14  17
HETATM   17  O1  UNL     1      -6.110  49.917 -20.368  1.00  0.00    -0.361 OA
HETATM   18  H1  UNL     1      -6.206  48.963 -20.216  1.00  0.00     0.217 HD
ENDBRANCH  14  17
ENDBRANCH   1  11
BRANCH  10  19
HETATM   19  C14 UNL     1       0.075  51.808 -19.330  1.00  0.00    -0.048 A 
HETATM   20  C15 UNL     1      -0.273  50.518 -18.899  1.00  0.00     0.008 A 
HETATM   21  C16 UNL     1      -0.032  50.118 -17.582  1.00  0.00     0.003 A 
HETATM   22  C17 UNL     1       0.557  51.000 -16.677  1.00  0.00     0.036 A 
HETATM   23  C18 UNL     1       0.899  52.279 -17.099  1.00  0.00     0.066 A 
HETATM   24  C19 UNL     1       0.664  52.686 -18.408  1.00  0.00     0.044 A 
BRANCH  23  25
HETATM   25  O4  UNL     1       1.477  53.175 -16.248  1.00  0.00    -0.361 OA
HETATM   26  H15 UNL     1       1.541  52.771 -15.368  1.00  0.00     0.217 HD
ENDBRANCH  23  25
ENDBRANCH  10  19
BRANCH   5  27
HETATM   27  O2  UNL     1      -0.116  52.480 -27.181  1.00  0.00    -0.361 OA
HETATM   28  H7  UNL     1       0.371  53.316 -27.268  1.00  0.00     0.217 HD
ENDBRANCH   5  27
TORSDOF 5
ENDMDL
MODEL 9
REMARK minimizedAffinity -8.89231682
REMARK  5 active torsions:
REMARK  status: ('A' for Active; 'I' for Inactive)
REMARK    1  A    between atoms: O1_1  and  C1_2 
REMARK    2  A    between atoms: C4_5  and  C5_6 
REMARK    3  A    between atoms: C9_10  and  O2_11 
REMARK    4  A    between atoms: C13_16  and  C14_17 
REMARK    5  A    between atoms: C18_21  and  O4_22 
ROOT
HETATM    1  C5  UNL     1      -2.634  50.292 -24.100  1.00  0.00     0.065 C 
HETATM    2  C6  UNL     1      -1.363  50.869 -24.711  1.00  0.00    -0.015 A 
HETATM    3  C7  UNL     1      -0.483  51.645 -23.934  1.00  0.00     0.013 A 
HETATM    4  C8  UNL     1       0.692  52.158 -24.487  1.00  0.00     0.037 A 
HETATM    5  C9  UNL     1       0.992  51.906 -25.818  1.00  0.00     0.068 A 
HETATM    6  C10 UNL     1       0.128  51.162 -26.612  1.00  0.00     0.073 A 
HETATM    7  C11 UNL     1      -1.057  50.667 -26.062  1.00  0.00     0.078 A 
HETATM    8  O3  UNL     1      -1.861  49.968 -26.923  1.00  0.00    -0.350 OA
HETATM    9  C12 UNL     1      -3.230  49.929 -26.508  1.00  0.00     0.186 C 
HETATM   10  C13 UNL     1      -3.366  49.354 -25.096  1.00  0.00     0.056 C 
ENDROOT
BRANCH   1  11
HETATM   11  C4  UNL     1      -2.399  49.575 -22.768  1.00  0.00    -0.049 A 
HETATM   12  C3  UNL     1      -2.108  48.201 -22.755  1.00  0.00     0.011 A 
HETATM   13  C2  UNL     1      -1.878  47.536 -21.550  1.00  0.00     0.037 A 
HETATM   14  C1  UNL     1      -1.935  48.238 -20.353  1.00  0.00     0.065 A 
HETATM   15  C21 UNL     1      -2.217  49.600 -20.339  1.00  0.00     0.037 A 
HETATM   16  C20 UNL     1      -2.446  50.267 -21.545  1.00  0.00     0.011 A 
BRANCH  14  17
HETATM   17  O1  UNL     1      -1.706  47.549 -19.200  1.00  0.00    -0.361 OA
HETATM   18  H1  UNL     1      -1.763  48.169 -18.455  1.00  0.00     0.217 HD
ENDBRANCH  14  17
ENDBRANCH   1  11
BRANCH  10  19
HETATM   19  C14 UNL     1      -4.824  49.113 -24.728  1.00  0.00    -0.048 A 
HETATM   20  C15 UNL     1      -5.550  48.026 -25.239  1.00  0.00     0.008 A 
HETATM   21  C16 UNL     1      -6.890  47.838 -24.889  1.00  0.00     0.003 A 
HETATM   22  C17 UNL     1      -7.523  48.732 -24.028  1.00  0.00     0.036 A 
HETATM   23  C18 UNL     1      -6.808  49.812 -23.523  1.00  0.00     0.066 A 
HETATM   24  C19 UNL     1      -5.474  50.007 -23.865  1.00  0.00     0.044 A 
BRANCH  23  25
HETATM   25  O4  UNL     1      -7.386  50.713 -22.678  1.00  0.00    -0.361 OA
HETATM   26  H15 UNL     1      -8.320  50.475 -22.563  1.00  0.00     0.217 HD
ENDBRANCH  23  25
ENDBRANCH  10  19
BRANCH   5  27
HETATM   27  O2  UNL     1       2.154  52.417 -26.316  1.00  0.00    -0.361 OA
HETATM   28  H7  UNL     1       2.233  52.153 -27.247  1.00  0.00     0.217 HD
ENDBRANCH   5  27
TORSDOF 5
ENDMDL
