MODEL 1
REMARK minimizedAffinity -9.40506649
REMARK  6 active torsions:
REMARK  status: ('A' for Active; 'I' for Inactive)
REMARK    1  A    between atoms: C4_4  and  C5_5 
REMARK    2  A    between atoms: C5_5  and  C6_6 
REMARK    3  A    between atoms: C6_6  and  C7_7 
REMARK    4  A    between atoms: C7_7  and  C9_9 
REMARK    5  A    between atoms: C16_16  and  O1_17 
REMARK    6  A    between atoms: C19_20  and  O2_21 
ROOT
HETATM    1  C9  UNL     1      -2.694   8.503  15.267  1.00  0.00    -0.002 C 
HETATM    2  C10 UNL     1      -1.729   7.768  16.237  1.00  0.00     0.006 C 
HETATM    3  C11 UNL     1      -0.365   7.655  15.522  1.00  0.00     0.011 C 
HETATM    4  C12 UNL     1      -0.742   7.570  14.038  1.00  0.00    -0.032 C 
HETATM    5  C13 UNL     1      -1.238   6.112  13.798  1.00  0.00     0.016 C 
HETATM    6  C14 UNL     1       0.363   7.896  12.996  1.00  0.00     0.006 C 
HETATM    7  C15 UNL     1       1.643   7.062  13.115  1.00  0.00     0.038 C 
HETATM    8  C16 UNL     1       2.675   7.577  12.112  1.00  0.00     0.123 C 
HETATM    9  C17 UNL     1       2.229   7.404  10.646  1.00  0.00     0.026 C 
HETATM   10  C18 UNL     1       3.140   8.251   9.740  1.00  0.00     0.039 C 
HETATM   11  C19 UNL     1       2.825   8.050   8.258  1.00  0.00     0.118 C 
HETATM   12  C20 UNL     1       1.327   7.932   7.967  1.00  0.00     0.032 C 
HETATM   13  C21 UNL     1       0.482   8.496   9.108  1.00  0.00     0.013 C 
HETATM   14  C22 UNL     1       0.744   7.731  10.399  1.00  0.00    -0.025 A 
HETATM   15  C23 UNL     1      -0.218   6.611  10.735  1.00  0.00     0.021 A 
HETATM   16  C24 UNL     1      -0.246   7.869  11.578  1.00  0.00    -0.027 A 
HETATM   17  C25 UNL     1      -1.503   8.744  11.420  1.00  0.00     0.011 C 
HETATM   18  C26 UNL     1      -2.526   8.603  12.573  1.00  0.00     0.011 C 
HETATM   19  C27 UNL     1      -1.852   8.686  13.952  1.00  0.00    -0.032 C 
HETATM   20  C28 UNL     1      -1.292  10.156  14.075  1.00  0.00     0.016 C 
ENDROOT
BRANCH   1  21
HETATM   21  C7  UNL     1      -4.167   8.014  15.159  1.00  0.00    -0.014 C 
HETATM   22  C8  UNL     1      -5.068   8.726  14.151  1.00  0.00     0.010 C 
BRANCH  21  23
HETATM   23  C6  UNL     1      -4.269   6.474  14.973  1.00  0.00     0.008 C 
BRANCH  23  24
HETATM   24  C5  UNL     1      -4.833   5.987  13.636  1.00  0.00     0.028 C 
BRANCH  24  25
HETATM   25  C4  UNL     1      -6.019   5.083  13.849  1.00  0.00    -0.025 C 
HETATM   26  C2  UNL     1      -6.394   4.030  13.097  1.00  0.00    -0.091 C 
HETATM   27  C1  UNL     1      -5.646   3.514  11.898  1.00  0.00     0.042 C 
HETATM   28  C3  UNL     1      -7.641   3.254  13.431  1.00  0.00     0.042 C 
ENDBRANCH  24  25
ENDBRANCH  23  24
ENDBRANCH  21  23
ENDBRANCH   1  21
BRANCH   8  29
HETATM   29  O1  UNL     1       3.904   6.878  12.327  1.00  0.00    -0.395 OA
HETATM   30  H28 UNL     1       3.728   5.926  12.230  1.00  0.00     0.210 HD
ENDBRANCH   8  29
BRANCH  11  31
HETATM   31  O2  UNL     1       3.372   9.156   7.541  1.00  0.00    -0.396 OA
HETATM   32  H33 UNL     1       3.219   8.999   6.594  1.00  0.00     0.210 HD
ENDBRANCH  11  31
TORSDOF 6
ENDMDL
MODEL 2
REMARK minimizedAffinity -8.82592392
REMARK  6 active torsions:
REMARK  status: ('A' for Active; 'I' for Inactive)
REMARK    1  A    between atoms: C4_4  and  C5_5 
REMARK    2  A    between atoms: C5_5  and  C6_6 
REMARK    3  A    between atoms: C6_6  and  C7_7 
REMARK    4  A    between atoms: C7_7  and  C9_9 
REMARK    5  A    between atoms: C16_16  and  O1_17 
REMARK    6  A    between atoms: C19_20  and  O2_21 
ROOT
HETATM    1  C9  UNL     1       1.356   6.665  11.799  1.00  0.00    -0.002 C 
HETATM    2  C10 UNL     1       1.665   5.157  11.592  1.00  0.00     0.006 C 
HETATM    3  C11 UNL     1       0.309   4.425  11.490  1.00  0.00     0.011 C 
HETATM    4  C12 UNL     1      -0.622   5.268  12.370  1.00  0.00    -0.032 C 
HETATM    5  C13 UNL     1      -0.281   4.896  13.845  1.00  0.00     0.016 C 
HETATM    6  C14 UNL     1      -2.152   5.105  12.159  1.00  0.00     0.006 C 
HETATM    7  C15 UNL     1      -2.685   3.676  12.296  1.00  0.00     0.038 C 
HETATM    8  C16 UNL     1      -4.172   3.656  11.942  1.00  0.00     0.123 C 
HETATM    9  C17 UNL     1      -5.033   4.490  12.911  1.00  0.00     0.026 C 
HETATM   10  C18 UNL     1      -6.425   4.704  12.291  1.00  0.00     0.039 C 
HETATM   11  C19 UNL     1      -7.373   5.435  13.241  1.00  0.00     0.118 C 
HETATM   12  C20 UNL     1      -6.692   6.554  14.032  1.00  0.00     0.032 C 
HETATM   13  C21 UNL     1      -5.382   6.994  13.381  1.00  0.00     0.013 C 
HETATM   14  C22 UNL     1      -4.398   5.833  13.320  1.00  0.00    -0.025 A 
HETATM   15  C23 UNL     1      -3.380   5.741  14.437  1.00  0.00     0.021 A 
HETATM   16  C24 UNL     1      -2.903   6.118  13.050  1.00  0.00    -0.027 A 
HETATM   17  C25 UNL     1      -2.421   7.571  12.888  1.00  0.00     0.011 C 
HETATM   18  C26 UNL     1      -0.882   7.734  12.869  1.00  0.00     0.011 C 
HETATM   19  C27 UNL     1      -0.210   6.723  11.926  1.00  0.00    -0.032 C 
HETATM   20  C28 UNL     1      -0.683   7.105  10.471  1.00  0.00     0.016 C 
ENDROOT
BRANCH   1  21
HETATM   21  C7  UNL     1       2.226   7.479  12.799  1.00  0.00    -0.014 C 
HETATM   22  C8  UNL     1       2.127   7.105  14.277  1.00  0.00     0.010 C 
BRANCH  21  23
HETATM   23  C6  UNL     1       3.717   7.555  12.366  1.00  0.00     0.008 C 
BRANCH  23  24
HETATM   24  C5  UNL     1       4.057   6.964  10.995  1.00  0.00     0.028 C 
BRANCH  24  25
HETATM   25  C4  UNL     1       3.711   7.929   9.892  1.00  0.00    -0.025 C 
HETATM   26  C2  UNL     1       3.145   7.647   8.703  1.00  0.00    -0.091 C 
HETATM   27  C1  UNL     1       2.694   6.281   8.262  1.00  0.00     0.042 C 
HETATM   28  C3  UNL     1       2.905   8.736   7.689  1.00  0.00     0.042 C 
ENDBRANCH  24  25
ENDBRANCH  23  24
ENDBRANCH  21  23
ENDBRANCH   1  21
BRANCH   8  29
HETATM   29  O1  UNL     1      -4.621   2.298  11.947  1.00  0.00    -0.395 OA
HETATM   30  H28 UNL     1      -4.438   1.925  12.827  1.00  0.00     0.210 HD
ENDBRANCH   8  29
BRANCH  11  31
HETATM   31  O2  UNL     1      -8.442   5.974  12.463  1.00  0.00    -0.396 OA
HETATM   32  H33 UNL     1      -9.071   6.392  13.075  1.00  0.00     0.210 HD
ENDBRANCH  11  31
TORSDOF 6
ENDMDL
MODEL 3
REMARK minimizedAffinity -8.78362846
REMARK  6 active torsions:
REMARK  status: ('A' for Active; 'I' for Inactive)
REMARK    1  A    between atoms: C4_4  and  C5_5 
REMARK    2  A    between atoms: C5_5  and  C6_6 
REMARK    3  A    between atoms: C6_6  and  C7_7 
REMARK    4  A    between atoms: C7_7  and  C9_9 
REMARK    5  A    between atoms: C16_16  and  O1_17 
REMARK    6  A    between atoms: C19_20  and  O2_21 
ROOT
HETATM    1  C9  UNL     1      -2.818   8.576  15.125  1.00  0.00    -0.002 C 
HETATM    2  C10 UNL     1      -1.894   7.818  16.117  1.00  0.00     0.006 C 
HETATM    3  C11 UNL     1      -0.513   7.681  15.438  1.00  0.00     0.011 C 
HETATM    4  C12 UNL     1      -0.853   7.609  13.944  1.00  0.00    -0.032 C 
HETATM    5  C13 UNL     1      -1.371   6.163  13.684  1.00  0.00     0.016 C 
HETATM    6  C14 UNL     1       0.285   7.917  12.932  1.00  0.00     0.006 C 
HETATM    7  C15 UNL     1       1.544   7.058  13.081  1.00  0.00     0.038 C 
HETATM    8  C16 UNL     1       2.612   7.557  12.108  1.00  0.00     0.123 C 
HETATM    9  C17 UNL     1       2.202   7.398  10.630  1.00  0.00     0.026 C 
HETATM   10  C18 UNL     1       3.152   8.231   9.751  1.00  0.00     0.039 C 
HETATM   11  C19 UNL     1       2.872   8.041   8.261  1.00  0.00     0.118 C 
HETATM   12  C20 UNL     1       1.380   7.954   7.931  1.00  0.00     0.032 C 
HETATM   13  C21 UNL     1       0.517   8.530   9.051  1.00  0.00     0.013 C 
HETATM   14  C22 UNL     1       0.730   7.755  10.345  1.00  0.00    -0.025 A 
HETATM   15  C23 UNL     1      -0.262   6.652  10.651  1.00  0.00     0.021 A 
HETATM   16  C24 UNL     1      -0.287   7.908  11.498  1.00  0.00    -0.027 A 
HETATM   17  C25 UNL     1      -1.522   8.808  11.312  1.00  0.00     0.011 C 
HETATM   18  C26 UNL     1      -2.578   8.683  12.437  1.00  0.00     0.011 C 
HETATM   19  C27 UNL     1      -1.938   8.747  13.834  1.00  0.00    -0.032 C 
HETATM   20  C28 UNL     1      -1.354  10.205  13.977  1.00  0.00     0.016 C 
ENDROOT
BRANCH   1  21
HETATM   21  C7  UNL     1      -4.296   8.116  14.976  1.00  0.00    -0.014 C 
HETATM   22  C8  UNL     1      -5.051   8.578  13.731  1.00  0.00     0.010 C 
BRANCH  21  23
HETATM   23  C6  UNL     1      -4.463   6.582  15.164  1.00  0.00     0.008 C 
BRANCH  23  24
HETATM   24  C5  UNL     1      -5.793   6.110  15.757  1.00  0.00     0.028 C 
BRANCH  24  25
HETATM   25  C4  UNL     1      -6.786   5.793  14.671  1.00  0.00    -0.025 C 
HETATM   26  C2  UNL     1      -7.932   6.443  14.390  1.00  0.00    -0.091 C 
HETATM   27  C1  UNL     1      -8.423   7.674  15.101  1.00  0.00     0.042 C 
HETATM   28  C3  UNL     1      -8.837   5.962  13.285  1.00  0.00     0.042 C 
ENDBRANCH  24  25
ENDBRANCH  23  24
ENDBRANCH  21  23
ENDBRANCH   1  21
BRANCH   8  29
HETATM   29  O1  UNL     1       3.822   6.832  12.351  1.00  0.00    -0.395 OA
HETATM   30  H28 UNL     1       3.629   5.885  12.246  1.00  0.00     0.210 HD
ENDBRANCH   8  29
BRANCH  11  31
HETATM   31  O2  UNL     1       3.460   9.139   7.563  1.00  0.00    -0.396 OA
HETATM   32  H33 UNL     1       3.328   8.989   6.611  1.00  0.00     0.210 HD
ENDBRANCH  11  31
TORSDOF 6
ENDMDL
MODEL 4
REMARK minimizedAffinity -8.76679993
REMARK  6 active torsions:
REMARK  status: ('A' for Active; 'I' for Inactive)
REMARK    1  A    between atoms: C4_4  and  C5_5 
REMARK    2  A    between atoms: C5_5  and  C6_6 
REMARK    3  A    between atoms: C6_6  and  C7_7 
REMARK    4  A    between atoms: C7_7  and  C9_9 
REMARK    5  A    between atoms: C16_16  and  O1_17 
REMARK    6  A    between atoms: C19_20  and  O2_21 
ROOT
HETATM    1  C9  UNL     1      -1.978   6.045  13.330  1.00  0.00    -0.002 C 
HETATM    2  C10 UNL     1      -2.288   5.348  11.977  1.00  0.00     0.006 C 
HETATM    3  C11 UNL     1      -0.937   5.108  11.269  1.00  0.00     0.011 C 
HETATM    4  C12 UNL     1      -0.064   6.270  11.756  1.00  0.00    -0.032 C 
HETATM    5  C13 UNL     1      -0.517   7.524  10.948  1.00  0.00     0.016 C 
HETATM    6  C14 UNL     1       1.476   6.120  11.616  1.00  0.00     0.006 C 
HETATM    7  C15 UNL     1       1.980   5.829  10.200  1.00  0.00     0.038 C 
HETATM    8  C16 UNL     1       3.489   5.586  10.242  1.00  0.00     0.123 C 
HETATM    9  C17 UNL     1       4.287   6.825  10.695  1.00  0.00     0.026 C 
HETATM   10  C18 UNL     1       5.723   6.399  11.046  1.00  0.00     0.039 C 
HETATM   11  C19 UNL     1       6.606   7.593  11.406  1.00  0.00     0.118 C 
HETATM   12  C20 UNL     1       5.882   8.654  12.238  1.00  0.00     0.032 C 
HETATM   13  C21 UNL     1       4.628   8.092  12.907  1.00  0.00     0.013 C 
HETATM   14  C22 UNL     1       3.638   7.598  11.860  1.00  0.00    -0.025 A 
HETATM   15  C23 UNL     1       2.540   8.558  11.453  1.00  0.00     0.021 A 
HETATM   16  C24 UNL     1       2.171   7.336  12.267  1.00  0.00    -0.027 A 
HETATM   17  C25 UNL     1       1.719   7.614  13.712  1.00  0.00     0.011 C 
HETATM   18  C26 UNL     1       0.187   7.547  13.926  1.00  0.00     0.011 C 
HETATM   19  C27 UNL     1      -0.425   6.287  13.290  1.00  0.00    -0.032 C 
HETATM   20  C28 UNL     1       0.158   5.065  14.098  1.00  0.00     0.016 C 
ENDROOT
BRANCH   1  21
HETATM   21  C7  UNL     1      -2.909   7.194  13.814  1.00  0.00    -0.014 C 
HETATM   22  C8  UNL     1      -3.246   8.293  12.807  1.00  0.00     0.010 C 
BRANCH  21  23
HETATM   23  C6  UNL     1      -4.210   6.663  14.480  1.00  0.00     0.008 C 
BRANCH  23  24
HETATM   24  C5  UNL     1      -5.421   6.487  13.561  1.00  0.00     0.028 C 
BRANCH  24  25
HETATM   25  C4  UNL     1      -5.871   5.050  13.532  1.00  0.00    -0.025 C 
HETATM   26  C2  UNL     1      -7.088   4.578  13.202  1.00  0.00    -0.091 C 
HETATM   27  C1  UNL     1      -8.246   5.419  12.738  1.00  0.00     0.042 C 
HETATM   28  C3  UNL     1      -7.383   3.101  13.268  1.00  0.00     0.042 C 
ENDBRANCH  24  25
ENDBRANCH  23  24
ENDBRANCH  21  23
ENDBRANCH   1  21
BRANCH   8  29
HETATM   29  O1  UNL     1       3.921   5.187   8.938  1.00  0.00    -0.395 OA
HETATM   30  H28 UNL     1       3.670   5.888   8.312  1.00  0.00     0.210 HD
ENDBRANCH   8  29
BRANCH  11  31
HETATM   31  O2  UNL     1       7.736   7.100  12.126  1.00  0.00    -0.396 OA
HETATM   32  H33 UNL     1       8.323   7.853  12.306  1.00  0.00     0.210 HD
ENDBRANCH  11  31
TORSDOF 6
ENDMDL
MODEL 5
REMARK minimizedAffinity -8.75143909
REMARK  6 active torsions:
REMARK  status: ('A' for Active; 'I' for Inactive)
REMARK    1  A    between atoms: C4_4  and  C5_5 
REMARK    2  A    between atoms: C5_5  and  C6_6 
REMARK    3  A    between atoms: C6_6  and  C7_7 
REMARK    4  A    between atoms: C7_7  and  C9_9 
REMARK    5  A    between atoms: C16_16  and  O1_17 
REMARK    6  A    between atoms: C19_20  and  O2_21 
ROOT
HETATM    1  C9  UNL     1       1.687   8.008  11.767  1.00  0.00    -0.002 C 
HETATM    2  C10 UNL     1       2.431   6.713  11.341  1.00  0.00     0.006 C 
HETATM    3  C11 UNL     1       1.357   5.630  11.099  1.00  0.00     0.011 C 
HETATM    4  C12 UNL     1       0.238   6.009  12.077  1.00  0.00    -0.032 C 
HETATM    5  C13 UNL     1       0.712   5.540  13.485  1.00  0.00     0.016 C 
HETATM    6  C14 UNL     1      -1.177   5.425  11.811  1.00  0.00     0.006 C 
HETATM    7  C15 UNL     1      -1.250   3.898  11.718  1.00  0.00     0.038 C 
HETATM    8  C16 UNL     1      -2.670   3.484  11.333  1.00  0.00     0.123 C 
HETATM    9  C17 UNL     1      -3.718   3.862  12.399  1.00  0.00     0.026 C 
HETATM   10  C18 UNL     1      -5.125   3.736  11.788  1.00  0.00     0.039 C 
HETATM   11  C19 UNL     1      -6.224   3.995  12.817  1.00  0.00     0.118 C 
HETATM   12  C20 UNL     1      -5.893   5.135  13.784  1.00  0.00     0.032 C 
HETATM   13  C21 UNL     1      -4.794   6.043  13.236  1.00  0.00     0.013 C 
HETATM   14  C22 UNL     1      -3.507   5.257  13.020  1.00  0.00    -0.025 A 
HETATM   15  C23 UNL     1      -2.481   5.308  14.132  1.00  0.00     0.021 A 
HETATM   16  C24 UNL     1      -2.176   6.017  12.829  1.00  0.00    -0.027 A 
HETATM   17  C25 UNL     1      -2.159   7.555  12.900  1.00  0.00     0.011 C 
HETATM   18  C26 UNL     1      -0.741   8.176  12.939  1.00  0.00     0.011 C 
HETATM   19  C27 UNL     1       0.180   7.570  11.868  1.00  0.00    -0.032 C 
HETATM   20  C28 UNL     1      -0.424   8.007  10.477  1.00  0.00     0.016 C 
ENDROOT
BRANCH   1  21
HETATM   21  C7  UNL     1       2.295   8.886  12.898  1.00  0.00    -0.014 C 
HETATM   22  C8  UNL     1       1.319   9.601  13.830  1.00  0.00     0.010 C 
BRANCH  21  23
HETATM   23  C6  UNL     1       3.367   8.125  13.729  1.00  0.00     0.008 C 
BRANCH  23  24
HETATM   24  C5  UNL     1       4.820   8.557  13.521  1.00  0.00     0.028 C 
BRANCH  24  25
HETATM   25  C4  UNL     1       5.616   7.468  12.853  1.00  0.00    -0.025 C 
HETATM   26  C2  UNL     1       6.220   7.513  11.650  1.00  0.00    -0.091 C 
HETATM   27  C1  UNL     1       6.257   8.715  10.745  1.00  0.00     0.042 C 
HETATM   28  C3  UNL     1       6.946   6.307  11.109  1.00  0.00     0.042 C 
ENDBRANCH  24  25
ENDBRANCH  23  24
ENDBRANCH  21  23
ENDBRANCH   1  21
BRANCH   8  29
HETATM   29  O1  UNL     1      -2.688   2.069  11.122  1.00  0.00    -0.395 OA
HETATM   30  H28 UNL     1      -2.379   1.641  11.939  1.00  0.00     0.210 HD
ENDBRANCH   8  29
BRANCH  11  31
HETATM   31  O2  UNL     1      -7.426   4.297  12.107  1.00  0.00    -0.396 OA
HETATM   32  H33 UNL     1      -8.136   4.407  12.761  1.00  0.00     0.210 HD
ENDBRANCH  11  31
TORSDOF 6
ENDMDL
MODEL 6
REMARK minimizedAffinity -8.47526741
REMARK  6 active torsions:
REMARK  status: ('A' for Active; 'I' for Inactive)
REMARK    1  A    between atoms: C4_4  and  C5_5 
REMARK    2  A    between atoms: C5_5  and  C6_6 
REMARK    3  A    between atoms: C6_6  and  C7_7 
REMARK    4  A    between atoms: C7_7  and  C9_9 
REMARK    5  A    between atoms: C16_16  and  O1_17 
REMARK    6  A    between atoms: C19_20  and  O2_21 
ROOT
HETATM    1  C9  UNL     1      -1.532   7.874  14.004  1.00  0.00    -0.002 C 
HETATM    2  C10 UNL     1      -1.288   6.453  13.426  1.00  0.00     0.006 C 
HETATM    3  C11 UNL     1      -2.668   5.876  13.041  1.00  0.00     0.011 C 
HETATM    4  C12 UNL     1      -3.624   6.528  14.048  1.00  0.00    -0.032 C 
HETATM    5  C13 UNL     1      -3.431   5.761  15.390  1.00  0.00     0.016 C 
HETATM    6  C14 UNL     1      -5.137   6.540  13.697  1.00  0.00     0.006 C 
HETATM    7  C15 UNL     1      -5.756   5.169  13.413  1.00  0.00     0.038 C 
HETATM    8  C16 UNL     1      -7.206   5.352  12.966  1.00  0.00     0.123 C 
HETATM    9  C17 UNL     1      -8.101   5.967  14.060  1.00  0.00     0.026 C 
HETATM   10  C18 UNL     1      -9.421   6.438  13.426  1.00  0.00     0.039 C 
HETATM   11  C19 UNL     1     -10.405   6.966  14.469  1.00  0.00     0.118 C 
HETATM   12  C20 UNL     1      -9.736   7.786  15.574  1.00  0.00     0.032 C 
HETATM   13  C21 UNL     1      -8.353   8.281  15.154  1.00  0.00     0.013 C 
HETATM   14  C22 UNL     1      -7.431   7.106  14.853  1.00  0.00    -0.025 A 
HETATM   15  C23 UNL     1      -6.519   6.650  15.973  1.00  0.00     0.021 A 
HETATM   16  C24 UNL     1      -5.905   7.339  14.772  1.00  0.00    -0.027 A 
HETATM   17  C25 UNL     1      -5.333   8.744  15.035  1.00  0.00     0.011 C 
HETATM   18  C26 UNL     1      -3.792   8.791  15.165  1.00  0.00     0.011 C 
HETATM   19  C27 UNL     1      -3.097   8.013  14.034  1.00  0.00    -0.032 C 
HETATM   20  C28 UNL     1      -3.423   8.796  12.704  1.00  0.00     0.016 C 
ENDROOT
BRANCH   1  21
HETATM   21  C7  UNL     1      -0.708   8.332  15.241  1.00  0.00    -0.014 C 
HETATM   22  C8  UNL     1       0.254   7.317  15.857  1.00  0.00     0.010 C 
BRANCH  21  23
HETATM   23  C6  UNL     1       0.022   9.684  15.002  1.00  0.00     0.008 C 
BRANCH  23  24
HETATM   24  C5  UNL     1      -0.109  10.733  16.109  1.00  0.00     0.028 C 
BRANCH  24  25
HETATM   25  C4  UNL     1      -1.414  10.579  16.845  1.00  0.00    -0.025 C 
HETATM   26  C2  UNL     1      -1.627  10.697  18.170  1.00  0.00    -0.091 C 
HETATM   27  C1  UNL     1      -0.580  11.067  19.184  1.00  0.00     0.042 C 
HETATM   28  C3  UNL     1      -2.999  10.468  18.750  1.00  0.00     0.042 C 
ENDBRANCH  24  25
ENDBRANCH  23  24
ENDBRANCH  21  23
ENDBRANCH   1  21
BRANCH   8  29
HETATM   29  O1  UNL     1      -7.726   4.077  12.579  1.00  0.00    -0.395 OA
HETATM   30  H28 UNL     1      -7.640   3.476  13.339  1.00  0.00     0.210 HD
ENDBRANCH   8  29
BRANCH  11  31
HETATM   31  O2  UNL     1     -11.373   7.767  13.791  1.00  0.00    -0.396 OA
HETATM   32  H33 UNL     1     -12.029   8.056  14.447  1.00  0.00     0.210 HD
ENDBRANCH  11  31
TORSDOF 6
ENDMDL
MODEL 7
REMARK minimizedAffinity -8.34486961
REMARK  6 active torsions:
REMARK  status: ('A' for Active; 'I' for Inactive)
REMARK    1  A    between atoms: C4_4  and  C5_5 
REMARK    2  A    between atoms: C5_5  and  C6_6 
REMARK    3  A    between atoms: C6_6  and  C7_7 
REMARK    4  A    between atoms: C7_7  and  C9_9 
REMARK    5  A    between atoms: C16_16  and  O1_17 
REMARK    6  A    between atoms: C19_20  and  O2_21 
ROOT
HETATM    1  C9  UNL     1      -1.963   7.571  13.666  1.00  0.00    -0.002 C 
HETATM    2  C10 UNL     1      -1.932   6.073  13.257  1.00  0.00     0.006 C 
HETATM    3  C11 UNL     1      -3.397   5.622  13.068  1.00  0.00     0.011 C 
HETATM    4  C12 UNL     1      -4.172   6.497  14.061  1.00  0.00    -0.032 C 
HETATM    5  C13 UNL     1      -3.930   5.876  15.470  1.00  0.00     0.016 C 
HETATM    6  C14 UNL     1      -5.703   6.647  13.843  1.00  0.00     0.006 C 
HETATM    7  C15 UNL     1      -6.490   5.335  13.791  1.00  0.00     0.038 C 
HETATM    8  C16 UNL     1      -7.949   5.635  13.449  1.00  0.00     0.123 C 
HETATM    9  C17 UNL     1      -8.660   6.476  14.528  1.00  0.00     0.026 C 
HETATM   10  C18 UNL     1      -9.979   7.022  13.954  1.00  0.00     0.039 C 
HETATM   11  C19 UNL     1     -10.793   7.782  15.001  1.00  0.00     0.118 C 
HETATM   12  C20 UNL     1      -9.932   8.641  15.930  1.00  0.00     0.032 C 
HETATM   13  C21 UNL     1      -8.553   8.916  15.333  1.00  0.00     0.013 C 
HETATM   14  C22 UNL     1      -7.797   7.613  15.108  1.00  0.00    -0.025 A 
HETATM   15  C23 UNL     1      -6.832   7.187  16.195  1.00  0.00     0.021 A 
HETATM   16  C24 UNL     1      -6.271   7.653  14.868  1.00  0.00    -0.027 A 
HETATM   17  C25 UNL     1      -5.528   9.001  14.898  1.00  0.00     0.011 C 
HETATM   18  C26 UNL     1      -3.985   8.880  14.889  1.00  0.00     0.011 C 
HETATM   19  C27 UNL     1      -3.494   7.898  13.813  1.00  0.00    -0.032 C 
HETATM   20  C28 UNL     1      -3.865   8.551  12.426  1.00  0.00     0.016 C 
ENDROOT
BRANCH   1  21
HETATM   21  C7  UNL     1      -0.977   8.071  14.760  1.00  0.00    -0.014 C 
HETATM   22  C8  UNL     1      -0.294   7.012  15.624  1.00  0.00     0.010 C 
BRANCH  21  23
HETATM   23  C6  UNL     1       0.080   9.064  14.198  1.00  0.00     0.008 C 
BRANCH  23  24
HETATM   24  C5  UNL     1       1.096   8.488  13.210  1.00  0.00     0.028 C 
BRANCH  24  25
HETATM   25  C4  UNL     1       0.671   8.747  11.789  1.00  0.00    -0.025 C 
HETATM   26  C2  UNL     1       0.547   7.849  10.792  1.00  0.00    -0.091 C 
HETATM   27  C1  UNL     1       0.767   6.367  10.932  1.00  0.00     0.042 C 
HETATM   28  C3  UNL     1       0.149   8.289   9.407  1.00  0.00     0.042 C 
ENDBRANCH  24  25
ENDBRANCH  23  24
ENDBRANCH  21  23
ENDBRANCH   1  21
BRANCH   8  29
HETATM   29  O1  UNL     1      -8.639   4.394  13.275  1.00  0.00    -0.395 OA
HETATM   30  H28 UNL     1      -8.543   3.880  14.096  1.00  0.00     0.210 HD
ENDBRANCH   8  29
BRANCH  11  31
HETATM   31  O2  UNL     1     -11.732   8.606  14.311  1.00  0.00    -0.396 OA
HETATM   32  H33 UNL     1     -12.285   9.046  14.978  1.00  0.00     0.210 HD
ENDBRANCH  11  31
TORSDOF 6
ENDMDL
MODEL 8
REMARK minimizedAffinity -8.29764938
REMARK  6 active torsions:
REMARK  status: ('A' for Active; 'I' for Inactive)
REMARK    1  A    between atoms: C4_4  and  C5_5 
REMARK    2  A    between atoms: C5_5  and  C6_6 
REMARK    3  A    between atoms: C6_6  and  C7_7 
REMARK    4  A    between atoms: C7_7  and  C9_9 
REMARK    5  A    between atoms: C16_16  and  O1_17 
REMARK    6  A    between atoms: C19_20  and  O2_21 
ROOT
HETATM    1  C9  UNL     1      -1.150   6.477  12.435  1.00  0.00    -0.002 C 
HETATM    2  C10 UNL     1      -0.913   6.378  10.903  1.00  0.00     0.006 C 
HETATM    3  C11 UNL     1       0.615   6.326  10.681  1.00  0.00     0.011 C 
HETATM    4  C12 UNL     1       1.176   7.143  11.852  1.00  0.00    -0.032 C 
HETATM    5  C13 UNL     1       0.950   8.641  11.485  1.00  0.00     0.016 C 
HETATM    6  C14 UNL     1       2.672   6.942  12.216  1.00  0.00     0.006 C 
HETATM    7  C15 UNL     1       3.663   7.180  11.073  1.00  0.00     0.038 C 
HETATM    8  C16 UNL     1       5.073   6.826  11.546  1.00  0.00     0.123 C 
HETATM    9  C17 UNL     1       5.570   7.732  12.690  1.00  0.00     0.026 C 
HETATM   10  C18 UNL     1       6.816   7.096  13.331  1.00  0.00     0.039 C 
HETATM   11  C19 UNL     1       7.429   7.990  14.408  1.00  0.00     0.118 C 
HETATM   12  C20 UNL     1       6.385   8.701  15.272  1.00  0.00     0.032 C 
HETATM   13  C21 UNL     1       5.020   8.022  15.185  1.00  0.00     0.013 C 
HETATM   14  C22 UNL     1       4.500   8.044  13.754  1.00  0.00    -0.025 A 
HETATM   15  C23 UNL     1       3.551   9.168  13.390  1.00  0.00     0.021 A 
HETATM   16  C24 UNL     1       3.005   7.758  13.484  1.00  0.00    -0.027 A 
HETATM   17  C25 UNL     1       2.054   7.494  14.665  1.00  0.00     0.011 C 
HETATM   18  C26 UNL     1       0.554   7.465  14.283  1.00  0.00     0.011 C 
HETATM   19  C27 UNL     1       0.296   6.597  13.040  1.00  0.00    -0.032 C 
HETATM   20  C28 UNL     1       0.641   5.118  13.465  1.00  0.00     0.016 C 
ENDROOT
BRANCH   1  21
HETATM   21  C7  UNL     1      -2.270   7.418  12.962  1.00  0.00    -0.014 C 
HETATM   22  C8  UNL     1      -2.468   8.747  12.234  1.00  0.00     0.010 C 
BRANCH  21  23
HETATM   23  C6  UNL     1      -3.633   6.688  13.122  1.00  0.00     0.008 C 
BRANCH  23  24
HETATM   24  C5  UNL     1      -3.570   5.198  13.467  1.00  0.00     0.028 C 
BRANCH  24  25
HETATM   25  C4  UNL     1      -4.559   4.413  12.647  1.00  0.00    -0.025 C 
HETATM   26  C2  UNL     1      -4.320   3.713  11.521  1.00  0.00    -0.091 C 
HETATM   27  C1  UNL     1      -2.969   3.539  10.882  1.00  0.00     0.042 C 
HETATM   28  C3  UNL     1      -5.443   3.015  10.798  1.00  0.00     0.042 C 
ENDBRANCH  24  25
ENDBRANCH  23  24
ENDBRANCH  21  23
ENDBRANCH   1  21
BRANCH   8  29
HETATM   29  O1  UNL     1       5.964   6.926  10.431  1.00  0.00    -0.395 OA
HETATM   30  H28 UNL     1       5.901   7.831  10.079  1.00  0.00     0.210 HD
ENDBRANCH   8  29
BRANCH  11  31
HETATM   31  O2  UNL     1       8.264   7.174  15.230  1.00  0.00    -0.396 OA
HETATM   32  H33 UNL     1       8.696   7.753  15.881  1.00  0.00     0.210 HD
ENDBRANCH  11  31
TORSDOF 6
ENDMDL
MODEL 9
REMARK minimizedAffinity -8.22902012
REMARK  6 active torsions:
REMARK  status: ('A' for Active; 'I' for Inactive)
REMARK    1  A    between atoms: C4_4  and  C5_5 
REMARK    2  A    between atoms: C5_5  and  C6_6 
REMARK    3  A    between atoms: C6_6  and  C7_7 
REMARK    4  A    between atoms: C7_7  and  C9_9 
REMARK    5  A    between atoms: C16_16  and  O1_17 
REMARK    6  A    between atoms: C19_20  and  O2_21 
ROOT
HETATM    1  C9  UNL     1       0.039   7.877  12.619  1.00  0.00    -0.002 C 
HETATM    2  C10 UNL     1       0.178   6.522  11.872  1.00  0.00     0.006 C 
HETATM    3  C11 UNL     1      -1.223   5.873  11.841  1.00  0.00     0.011 C 
HETATM    4  C12 UNL     1      -1.882   6.380  13.130  1.00  0.00    -0.032 C 
HETATM    5  C13 UNL     1      -1.274   5.536  14.290  1.00  0.00     0.016 C 
HETATM    6  C14 UNL     1      -3.431   6.305  13.222  1.00  0.00     0.006 C 
HETATM    7  C15 UNL     1      -4.035   4.915  13.003  1.00  0.00     0.038 C 
HETATM    8  C16 UNL     1      -5.559   5.022  12.999  1.00  0.00     0.123 C 
HETATM    9  C17 UNL     1      -6.133   5.490  14.352  1.00  0.00     0.026 C 
HETATM   10  C18 UNL     1      -7.602   5.906  14.158  1.00  0.00     0.039 C 
HETATM   11  C19 UNL     1      -8.272   6.284  15.479  1.00  0.00     0.118 C 
HETATM   12  C20 UNL     1      -7.356   7.072  16.419  1.00  0.00     0.032 C 
HETATM   13  C21 UNL     1      -6.178   7.696  15.673  1.00  0.00     0.013 C 
HETATM   14  C22 UNL     1      -5.323   6.617  15.022  1.00  0.00    -0.025 A 
HETATM   15  C23 UNL     1      -4.107   6.152  15.795  1.00  0.00     0.021 A 
HETATM   16  C24 UNL     1      -3.899   6.967  14.536  1.00  0.00    -0.027 A 
HETATM   17  C25 UNL     1      -3.347   8.388  14.751  1.00  0.00     0.011 C 
HETATM   18  C26 UNL     1      -1.838   8.540  14.445  1.00  0.00     0.011 C 
HETATM   19  C27 UNL     1      -1.457   7.898  13.101  1.00  0.00    -0.032 C 
HETATM   20  C28 UNL     1      -2.190   8.746  11.991  1.00  0.00     0.016 C 
ENDROOT
BRANCH   1  21
HETATM   21  C7  UNL     1       1.158   8.306  13.611  1.00  0.00    -0.014 C 
HETATM   22  C8  UNL     1       1.866   7.198  14.389  1.00  0.00     0.010 C 
BRANCH  21  23
HETATM   23  C6  UNL     1       2.204   9.250  12.953  1.00  0.00     0.008 C 
BRANCH  23  24
HETATM   24  C5  UNL     1       3.373   8.572  12.234  1.00  0.00     0.028 C 
BRANCH  24  25
HETATM   25  C4  UNL     1       3.092   8.436  10.761  1.00  0.00    -0.025 C 
HETATM   26  C2  UNL     1       3.205   7.329  10.002  1.00  0.00    -0.091 C 
HETATM   27  C1  UNL     1       3.597   5.968  10.512  1.00  0.00     0.042 C 
HETATM   28  C3  UNL     1       2.922   7.378   8.523  1.00  0.00     0.042 C 
ENDBRANCH  24  25
ENDBRANCH  23  24
ENDBRANCH  21  23
ENDBRANCH   1  21
BRANCH   8  29
HETATM   29  O1  UNL     1      -6.103   3.743  12.663  1.00  0.00    -0.395 OA
HETATM   30  H28 UNL     1      -5.773   3.097  13.311  1.00  0.00     0.210 HD
ENDBRANCH   8  29
BRANCH  11  31
HETATM   31  O2  UNL     1      -9.433   7.057  15.175  1.00  0.00    -0.396 OA
HETATM   32  H33 UNL     1      -9.887   7.251  16.012  1.00  0.00     0.210 HD
ENDBRANCH  11  31
TORSDOF 6
ENDMDL
