MODEL 1
REMARK minimizedAffinity -8.1811676
REMARK CNNscore 0.463980734
REMARK CNNaffinity 6.53045416
REMARK  12 active torsions:
REMARK  status: ('A' for Active; 'I' for Inactive)
REMARK    1  A    between atoms: C3_3  and  O1_4 
REMARK    2  A    between atoms: N1_14  and  O2_16 
REMARK    3  A    between atoms: O2_16  and  C13_17 
REMARK    4  A    between atoms: C13_17  and  C14_18 
REMARK       I    between atoms: C14_18  and  N2_20 
REMARK    5  A    between atoms: N2_20  and  C15_21 
REMARK    6  A    between atoms: C15_21  and  C16_22 
REMARK    7  A    between atoms: C15_21  and  C27_38 
REMARK       I    between atoms: C16_22  and  N3_24 
REMARK    8  A    between atoms: N3_24  and  C17_25 
REMARK    9  A    between atoms: C17_25  and  C18_26 
REMARK   10  A    between atoms: C17_25  and  C20_30 
REMARK   11  A    between atoms: C18_26  and  C19_27 
REMARK   12  A    between atoms: C19_27  and  O6_29 
ROOT
HETATM    1  C1  UNL     1       2.308   6.898   8.479  1.00  0.00     0.015 C 
HETATM    2  C2  UNL     1       2.280   6.830   9.680  1.00  0.00    -0.078 C 
HETATM    3  C3  UNL     1       2.262   6.716  11.157  1.00  0.00     0.128 C 
HETATM    4  C4  UNL     1       2.589   8.079  11.784  1.00  0.00     0.052 C 
HETATM    5  C5  UNL     1       1.241   8.797  11.940  1.00  0.00     0.010 C 
HETATM    6  C6  UNL     1       0.144   7.746  11.690  1.00  0.00     0.002 C 
HETATM    7  C7  UNL     1      -1.139   7.850  12.543  1.00  0.00    -0.004 C 
HETATM    8  C8  UNL     1      -1.795   9.247  12.458  1.00  0.00     0.010 C 
HETATM    9  C9  UNL     1      -2.274   9.789  13.798  1.00  0.00     0.035 C 
HETATM   10  C10 UNL     1      -1.146   9.675  14.786  1.00  0.00    -0.069 C 
HETATM   11  C11 UNL     1      -0.507  10.775  15.222  1.00  0.00     0.030 C 
HETATM   12  C12 UNL     1       0.652  10.697  16.144  1.00  0.00     0.032 C 
HETATM   13  N1  UNL     1       1.192  11.820  16.526  1.00  0.00    -0.271 N 
ATOM     14  H1  UNL     1       0.866  12.742  16.234  1.00  0.00     0.194 HD
HETATM   15  C30 UNL     1       1.107   9.328  16.613  1.00  0.00     0.060 C 
HETATM   16  C31 UNL     1       0.739   8.231  15.615  1.00  0.00     0.020 C 
HETATM   17  C32 UNL     1      -0.743   8.255  15.166  1.00  0.00    -0.016 C 
HETATM   18  C33 UNL     1      -1.612   7.835  16.386  1.00  0.00     0.020 C 
HETATM   19  C34 UNL     1      -1.070   7.254  13.980  1.00  0.00     0.002 C 
HETATM   20  C35 UNL     1      -0.332   5.903  14.007  1.00  0.00     0.007 C 
HETATM   21  C36 UNL     1       0.982   5.875  13.225  1.00  0.00     0.014 C 
HETATM   22  C37 UNL     1       0.861   6.376  11.758  1.00  0.00     0.003 C 
HETATM   23  C38 UNL     1       0.117   5.300  10.939  1.00  0.00     0.020 C 
ENDROOT
BRANCH   3  24
HETATM   24  O1  UNL     1       3.231   5.750  11.535  1.00  0.00    -0.377 OA
HETATM   25  H2  UNL     1       4.060   5.996  11.086  1.00  0.00     0.211 HD
ENDBRANCH   3  24
BRANCH  13  26
HETATM   26  O2  UNL     1       2.274  11.605  17.390  1.00  0.00    -0.271 OA
BRANCH  26  27
HETATM   27  C13 UNL     1       2.553  12.800  18.114  1.00  0.00     0.303 C 
BRANCH  27  28
HETATM   28  C14 UNL     1       2.532  12.502  19.607  1.00  0.00     0.244 C 
HETATM   29  O3  UNL     1       1.742  13.037  20.384  1.00  0.00    -0.271 OA
HETATM   30  N2  UNL     1       3.445  11.544  20.001  1.00  0.00    -0.346 N 
HETATM   31  H16 UNL     1       4.209  11.430  19.339  1.00  0.00     0.163 HD
BRANCH  30  32
HETATM   32  C15 UNL     1       3.792  11.384  21.409  1.00  0.00     0.180 C 
BRANCH  32  33
HETATM   33  C16 UNL     1       5.254  11.862  21.562  1.00  0.00     0.241 C 
HETATM   34  O4  UNL     1       6.131  11.570  20.745  1.00  0.00    -0.271 OA
HETATM   35  N3  UNL     1       5.509  12.592  22.701  1.00  0.00    -0.354 N 
HETATM   36  H18 UNL     1       4.726  12.882  23.286  1.00  0.00     0.162 HD
BRANCH  35  37
HETATM   37  C17 UNL     1       6.795  13.244  22.955  1.00  0.00     0.098 C 
BRANCH  37  38
HETATM   38  C18 UNL     1       7.778  12.917  21.815  1.00  0.00     0.135 C 
BRANCH  38  39
HETATM   39  C19 UNL     1       9.124  12.468  22.320  1.00  0.00     0.141 C 
HETATM   40  O5  UNL     1      10.213  12.870  21.946  1.00  0.00    -0.650 OA
BRANCH  39  41
HETATM   41  O6  UNL     1       9.022  11.494  23.244  1.00  0.00    -0.776 OA
HETATM   42  H22 UNL     1       9.947  11.261  23.467  1.00  0.00     0.167 HD
ENDBRANCH  39  41
ENDBRANCH  38  39
ENDBRANCH  37  38
BRANCH  37  43
HETATM   43  C20 UNL     1       6.589  14.756  23.220  1.00  0.00     0.014 C 
HETATM   44  C21 UNL     1       5.101  15.146  23.288  1.00  0.00     0.033 C 
HETATM   45  C22 UNL     1       4.851  16.597  22.894  1.00  0.00     0.169 C 
HETATM   46  O7  UNL     1       5.957  17.416  23.239  1.00  0.00    -0.381 OA
HETATM   47  C23 UNL     1       7.154  17.125  22.501  1.00  0.00     0.054 C 
HETATM   48  C24 UNL     1       8.313  17.557  23.408  1.00  0.00     0.045 C 
HETATM   49  C25 UNL     1       7.175  17.980  21.227  1.00  0.00     0.045 C 
HETATM   50  C26 UNL     1       7.273  15.627  22.152  1.00  0.00     0.044 C 
ENDBRANCH  37  43
ENDBRANCH  35  37
ENDBRANCH  32  33
BRANCH  32  51
HETATM   51  C27 UNL     1       3.570   9.925  21.868  1.00  0.00     0.009 C 
HETATM   52  C28 UNL     1       2.168   9.414  21.513  1.00  0.00     0.012 C 
HETATM   53  C29 UNL     1       3.857   9.706  23.358  1.00  0.00     0.012 C 
ENDBRANCH  32  51
ENDBRANCH  30  32
ENDBRANCH  27  28
ENDBRANCH  26  27
ENDBRANCH  13  26
TORSDOF 12
ENDMDL
MODEL 2
REMARK minimizedAffinity -7.64494085
REMARK CNNscore 0.339039028
REMARK CNNaffinity 6.79051638
REMARK  12 active torsions:
REMARK  status: ('A' for Active; 'I' for Inactive)
REMARK    1  A    between atoms: C3_3  and  O1_4 
REMARK    2  A    between atoms: N1_14  and  O2_16 
REMARK    3  A    between atoms: O2_16  and  C13_17 
REMARK    4  A    between atoms: C13_17  and  C14_18 
REMARK       I    between atoms: C14_18  and  N2_20 
REMARK    5  A    between atoms: N2_20  and  C15_21 
REMARK    6  A    between atoms: C15_21  and  C16_22 
REMARK    7  A    between atoms: C15_21  and  C27_38 
REMARK       I    between atoms: C16_22  and  N3_24 
REMARK    8  A    between atoms: N3_24  and  C17_25 
REMARK    9  A    between atoms: C17_25  and  C18_26 
REMARK   10  A    between atoms: C17_25  and  C20_30 
REMARK   11  A    between atoms: C18_26  and  C19_27 
REMARK   12  A    between atoms: C19_27  and  O6_29 
ROOT
HETATM    1  C1  UNL     1      -1.684   7.720  15.891  1.00  0.00     0.015 C 
HETATM    2  C2  UNL     1      -1.091   8.146  14.936  1.00  0.00    -0.078 C 
HETATM    3  C3  UNL     1      -0.380   8.700  13.760  1.00  0.00     0.128 C 
HETATM    4  C4  UNL     1       1.132   8.498  13.929  1.00  0.00     0.052 C 
HETATM    5  C5  UNL     1       1.437   7.123  13.318  1.00  0.00     0.010 C 
HETATM    6  C6  UNL     1       0.177   6.688  12.548  1.00  0.00     0.002 C 
HETATM    7  C7  UNL     1       0.391   5.911  11.231  1.00  0.00    -0.004 C 
HETATM    8  C8  UNL     1       1.286   4.664  11.417  1.00  0.00     0.010 C 
HETATM    9  C9  UNL     1       2.323   4.477  10.318  1.00  0.00     0.035 C 
HETATM   10  C10 UNL     1       3.067   5.773  10.142  1.00  0.00    -0.069 C 
HETATM   11  C11 UNL     1       4.347   5.885  10.537  1.00  0.00     0.030 C 
HETATM   12  C12 UNL     1       5.091   7.164  10.441  1.00  0.00     0.032 C 
HETATM   13  N1  UNL     1       6.334   7.167  10.830  1.00  0.00    -0.271 N 
ATOM     14  H1  UNL     1       6.824   6.348  11.191  1.00  0.00     0.194 HD
HETATM   15  C30 UNL     1       4.375   8.370   9.861  1.00  0.00     0.060 C 
HETATM   16  C31 UNL     1       2.861   8.278  10.045  1.00  0.00     0.020 C 
HETATM   17  C32 UNL     1       2.249   6.932   9.584  1.00  0.00    -0.016 C 
HETATM   18  C33 UNL     1       2.353   6.873   8.034  1.00  0.00     0.020 C 
HETATM   19  C34 UNL     1       0.719   6.760   9.967  1.00  0.00     0.002 C 
HETATM   20  C35 UNL     1      -0.150   8.029   9.886  1.00  0.00     0.007 C 
HETATM   21  C36 UNL     1      -0.256   8.816  11.192  1.00  0.00     0.014 C 
HETATM   22  C37 UNL     1      -0.689   7.963  12.418  1.00  0.00     0.003 C 
HETATM   23  C38 UNL     1      -2.187   7.625  12.266  1.00  0.00     0.020 C 
ENDROOT
BRANCH   3  24
HETATM   24  O1  UNL     1      -0.690  10.083  13.670  1.00  0.00    -0.377 OA
HETATM   25  H2  UNL     1      -0.523  10.464  14.551  1.00  0.00     0.211 HD
ENDBRANCH   3  24
BRANCH  13  26
HETATM   26  O2  UNL     1       6.917   8.433  10.689  1.00  0.00    -0.271 OA
BRANCH  26  27
HETATM   27  C13 UNL     1       6.915   9.103  11.947  1.00  0.00     0.303 C 
BRANCH  27  28
HETATM   28  C14 UNL     1       7.193  10.585  11.729  1.00  0.00     0.244 C 
HETATM   29  O3  UNL     1       6.329  11.378  11.357  1.00  0.00    -0.271 OA
HETATM   30  N2  UNL     1       8.485  10.963  12.032  1.00  0.00    -0.346 N 
HETATM   31  H16 UNL     1       9.139  10.185  12.021  1.00  0.00     0.163 HD
BRANCH  30  32
HETATM   32  C15 UNL     1       9.010  12.244  11.570  1.00  0.00     0.180 C 
BRANCH  32  33
HETATM   33  C16 UNL     1      10.229  11.925  10.674  1.00  0.00     0.241 C 
HETATM   34  O4  UNL     1      10.995  10.989  10.913  1.00  0.00    -0.271 OA
HETATM   35  N3  UNL     1      10.419  12.795   9.624  1.00  0.00    -0.354 N 
HETATM   36  H18 UNL     1       9.699  13.489   9.423  1.00  0.00     0.162 HD
BRANCH  35  37
HETATM   37  C17 UNL     1      11.433  12.582   8.590  1.00  0.00     0.098 C 
BRANCH  37  38
HETATM   38  C18 UNL     1      10.749  12.361   7.228  1.00  0.00     0.135 C 
BRANCH  38  39
HETATM   39  C19 UNL     1      10.441  10.912   6.960  1.00  0.00     0.141 C 
HETATM   40  O5  UNL     1       9.930  10.120   7.735  1.00  0.00    -0.650 OA
BRANCH  39  41
HETATM   41  O6  UNL     1      10.840  10.525   5.733  1.00  0.00    -0.776 OA
HETATM   42  H22 UNL     1      10.624   9.571   5.687  1.00  0.00     0.167 HD
ENDBRANCH  39  41
ENDBRANCH  38  39
ENDBRANCH  37  38
BRANCH  37  43
HETATM   43  C20 UNL     1      12.477  13.725   8.614  1.00  0.00     0.014 C 
HETATM   44  C21 UNL     1      13.307  13.795   7.319  1.00  0.00     0.033 C 
HETATM   45  C22 UNL     1      14.689  14.400   7.534  1.00  0.00     0.169 C 
HETATM   46  O7  UNL     1      14.668  15.361   8.578  1.00  0.00    -0.381 OA
HETATM   47  C23 UNL     1      14.395  14.810   9.876  1.00  0.00     0.054 C 
HETATM   48  C24 UNL     1      13.758  15.948  10.682  1.00  0.00     0.045 C 
HETATM   49  C25 UNL     1      15.722  14.415  10.538  1.00  0.00     0.045 C 
HETATM   50  C26 UNL     1      13.443  13.599   9.805  1.00  0.00     0.044 C 
ENDBRANCH  37  43
ENDBRANCH  35  37
ENDBRANCH  32  33
BRANCH  32  51
HETATM   51  C27 UNL     1       9.349  13.163  12.766  1.00  0.00     0.009 C 
HETATM   52  C28 UNL     1       8.866  12.580  14.099  1.00  0.00     0.012 C 
HETATM   53  C29 UNL     1       8.838  14.598  12.594  1.00  0.00     0.012 C 
ENDBRANCH  32  51
ENDBRANCH  30  32
ENDBRANCH  27  28
ENDBRANCH  26  27
ENDBRANCH  13  26
TORSDOF 12
ENDMDL
MODEL 3
REMARK minimizedAffinity -7.876194
REMARK CNNscore 0.194574073
REMARK CNNaffinity 5.87571716
REMARK  12 active torsions:
REMARK  status: ('A' for Active; 'I' for Inactive)
REMARK    1  A    between atoms: C3_3  and  O1_4 
REMARK    2  A    between atoms: N1_14  and  O2_16 
REMARK    3  A    between atoms: O2_16  and  C13_17 
REMARK    4  A    between atoms: C13_17  and  C14_18 
REMARK       I    between atoms: C14_18  and  N2_20 
REMARK    5  A    between atoms: N2_20  and  C15_21 
REMARK    6  A    between atoms: C15_21  and  C16_22 
REMARK    7  A    between atoms: C15_21  and  C27_38 
REMARK       I    between atoms: C16_22  and  N3_24 
REMARK    8  A    between atoms: N3_24  and  C17_25 
REMARK    9  A    between atoms: C17_25  and  C18_26 
REMARK   10  A    between atoms: C17_25  and  C20_30 
REMARK   11  A    between atoms: C18_26  and  C19_27 
REMARK   12  A    between atoms: C19_27  and  O6_29 
ROOT
HETATM    1  C1  UNL     1       2.156   6.864   8.532  1.00  0.00     0.015 C 
HETATM    2  C2  UNL     1       2.129   6.805   9.733  1.00  0.00    -0.078 C 
HETATM    3  C3  UNL     1       2.113   6.701  11.212  1.00  0.00     0.128 C 
HETATM    4  C4  UNL     1       2.420   8.073  11.828  1.00  0.00     0.052 C 
HETATM    5  C5  UNL     1       1.062   8.772  11.980  1.00  0.00     0.010 C 
HETATM    6  C6  UNL     1      -0.020   7.703  11.737  1.00  0.00     0.002 C 
HETATM    7  C7  UNL     1      -1.303   7.795  12.590  1.00  0.00    -0.004 C 
HETATM    8  C8  UNL     1      -1.980   9.183  12.496  1.00  0.00     0.010 C 
HETATM    9  C9  UNL     1      -2.466   9.726  13.832  1.00  0.00     0.035 C 
HETATM   10  C10 UNL     1      -1.336   9.636  14.820  1.00  0.00    -0.069 C 
HETATM   11  C11 UNL     1      -0.713  10.748  15.248  1.00  0.00     0.030 C 
HETATM   12  C12 UNL     1       0.447  10.693  16.170  1.00  0.00     0.032 C 
HETATM   13  N1  UNL     1       0.971  11.826  16.545  1.00  0.00    -0.271 N 
ATOM     14  H1  UNL     1       0.632  12.741  16.246  1.00  0.00     0.194 HD
HETATM   15  C30 UNL     1       0.922   9.334  16.649  1.00  0.00     0.060 C 
HETATM   16  C31 UNL     1       0.570   8.225  15.659  1.00  0.00     0.020 C 
HETATM   17  C32 UNL     1      -0.913   8.225  15.211  1.00  0.00    -0.016 C 
HETATM   18  C33 UNL     1      -1.775   7.801  16.433  1.00  0.00     0.020 C 
HETATM   19  C34 UNL     1      -1.226   7.211  14.032  1.00  0.00     0.002 C 
HETATM   20  C35 UNL     1      -0.468   5.870  14.067  1.00  0.00     0.007 C 
HETATM   21  C36 UNL     1       0.845   5.856  13.285  1.00  0.00     0.014 C 
HETATM   22  C37 UNL     1       0.717   6.345  11.815  1.00  0.00     0.003 C 
HETATM   23  C38 UNL     1      -0.011   5.252  11.004  1.00  0.00     0.020 C 
ENDROOT
BRANCH   3  24
HETATM   24  O1  UNL     1       3.096   5.751  11.596  1.00  0.00    -0.377 OA
HETATM   25  H2  UNL     1       3.921   6.006  11.144  1.00  0.00     0.211 HD
ENDBRANCH   3  24
BRANCH  13  26
HETATM   26  O2  UNL     1       2.056  11.633  17.410  1.00  0.00    -0.271 OA
BRANCH  26  27
HETATM   27  C13 UNL     1       3.060  12.609  17.143  1.00  0.00     0.303 C 
BRANCH  27  28
HETATM   28  C14 UNL     1       4.373  11.907  16.821  1.00  0.00     0.244 C 
HETATM   29  O3  UNL     1       4.425  10.774  16.345  1.00  0.00    -0.271 OA
HETATM   30  N2  UNL     1       5.494  12.675  17.068  1.00  0.00    -0.346 N 
HETATM   31  H16 UNL     1       5.320  13.430  17.726  1.00  0.00     0.163 HD
BRANCH  30  32
HETATM   32  C15 UNL     1       6.814  12.058  17.138  1.00  0.00     0.180 C 
BRANCH  32  33
HETATM   33  C16 UNL     1       6.955  11.479  18.565  1.00  0.00     0.241 C 
HETATM   34  O4  UNL     1       7.366  10.335  18.774  1.00  0.00    -0.271 OA
HETATM   35  N3  UNL     1       6.540  12.319  19.575  1.00  0.00    -0.354 N 
HETATM   36  H18 UNL     1       6.303  13.284  19.346  1.00  0.00     0.162 HD
BRANCH  35  37
HETATM   37  C17 UNL     1       6.722  12.005  20.993  1.00  0.00     0.098 C 
BRANCH  37  38
HETATM   38  C18 UNL     1       7.676  13.031  21.634  1.00  0.00     0.135 C 
BRANCH  38  39
HETATM   39  C19 UNL     1       9.122  12.756  21.319  1.00  0.00     0.141 C 
HETATM   40  O5  UNL     1      10.029  13.572  21.288  1.00  0.00    -0.650 OA
BRANCH  39  41
HETATM   41  O6  UNL     1       9.340  11.463  21.014  1.00  0.00    -0.776 OA
HETATM   42  H22 UNL     1      10.294  11.414  20.795  1.00  0.00     0.167 HD
ENDBRANCH  39  41
ENDBRANCH  38  39
ENDBRANCH  37  38
BRANCH  37  43
HETATM   43  C20 UNL     1       5.349  11.868  21.695  1.00  0.00     0.014 C 
HETATM   44  C21 UNL     1       5.435  11.074  23.011  1.00  0.00     0.033 C 
HETATM   45  C22 UNL     1       4.129  10.375  23.367  1.00  0.00     0.169 C 
HETATM   46  O7  UNL     1       3.012  11.111  22.895  1.00  0.00    -0.381 OA
HETATM   47  C23 UNL     1       2.916  11.177  21.463  1.00  0.00     0.054 C 
HETATM   48  C24 UNL     1       2.154  12.474  21.160  1.00  0.00     0.045 C 
HETATM   49  C25 UNL     1       2.089   9.986  20.964  1.00  0.00     0.045 C 
HETATM   50  C26 UNL     1       4.303  11.196  20.788  1.00  0.00     0.044 C 
ENDBRANCH  37  43
ENDBRANCH  35  37
ENDBRANCH  32  33
BRANCH  32  51
HETATM   51  C27 UNL     1       7.918  13.077  16.775  1.00  0.00     0.009 C 
HETATM   52  C28 UNL     1       9.217  12.822  17.548  1.00  0.00     0.012 C 
HETATM   53  C29 UNL     1       7.477  14.535  16.939  1.00  0.00     0.012 C 
ENDBRANCH  32  51
ENDBRANCH  30  32
ENDBRANCH  27  28
ENDBRANCH  26  27
ENDBRANCH  13  26
TORSDOF 12
ENDMDL
MODEL 4
REMARK minimizedAffinity -9.69736671
REMARK CNNscore 0.190323904
REMARK CNNaffinity 7.57504463
REMARK  12 active torsions:
REMARK  status: ('A' for Active; 'I' for Inactive)
REMARK    1  A    between atoms: C3_3  and  O1_4 
REMARK    2  A    between atoms: N1_14  and  O2_16 
REMARK    3  A    between atoms: O2_16  and  C13_17 
REMARK    4  A    between atoms: C13_17  and  C14_18 
REMARK       I    between atoms: C14_18  and  N2_20 
REMARK    5  A    between atoms: N2_20  and  C15_21 
REMARK    6  A    between atoms: C15_21  and  C16_22 
REMARK    7  A    between atoms: C15_21  and  C27_38 
REMARK       I    between atoms: C16_22  and  N3_24 
REMARK    8  A    between atoms: N3_24  and  C17_25 
REMARK    9  A    between atoms: C17_25  and  C18_26 
REMARK   10  A    between atoms: C17_25  and  C20_30 
REMARK   11  A    between atoms: C18_26  and  C19_27 
REMARK   12  A    between atoms: C19_27  and  O6_29 
ROOT
HETATM    1  C1  UNL     1       1.694   6.788   6.184  1.00  0.00     0.015 C 
HETATM    2  C2  UNL     1       1.649   7.415   7.209  1.00  0.00    -0.078 C 
HETATM    3  C3  UNL     1       1.615   8.212   8.459  1.00  0.00     0.128 C 
HETATM    4  C4  UNL     1       0.177   8.271   8.994  1.00  0.00     0.052 C 
HETATM    5  C5  UNL     1       0.025   7.048   9.908  1.00  0.00     0.010 C 
HETATM    6  C6  UNL     1       1.437   6.475  10.127  1.00  0.00     0.002 C 
HETATM    7  C7  UNL     1       1.754   5.895  11.522  1.00  0.00    -0.004 C 
HETATM    8  C8  UNL     1       0.734   4.819  11.962  1.00  0.00     0.010 C 
HETATM    9  C9  UNL     1       0.291   4.943  13.413  1.00  0.00     0.035 C 
HETATM   10  C10 UNL     1      -0.138   6.363  13.659  1.00  0.00    -0.069 C 
HETATM   11  C11 UNL     1      -1.436   6.663  13.839  1.00  0.00     0.030 C 
HETATM   12  C12 UNL     1      -1.903   8.059  14.018  1.00  0.00     0.032 C 
HETATM   13  N1  UNL     1      -3.179   8.246  14.207  1.00  0.00    -0.271 N 
ATOM     14  H1  UNL     1      -3.870   7.496  14.241  1.00  0.00     0.194 HD
HETATM   15  C30 UNL     1      -0.869   9.170  14.011  1.00  0.00     0.060 C 
HETATM   16  C31 UNL     1       0.377   8.785  13.215  1.00  0.00     0.020 C 
HETATM   17  C32 UNL     1       0.971   7.407  13.598  1.00  0.00    -0.016 C 
HETATM   18  C33 UNL     1       1.572   7.533  15.026  1.00  0.00     0.020 C 
HETATM   19  C34 UNL     1       2.132   6.920  12.633  1.00  0.00     0.002 C 
HETATM   20  C35 UNL     1       3.084   8.011  12.107  1.00  0.00     0.007 C 
HETATM   21  C36 UNL     1       2.678   8.622  10.766  1.00  0.00     0.014 C 
HETATM   22  C37 UNL     1       2.410   7.579   9.645  1.00  0.00     0.003 C 
HETATM   23  C38 UNL     1       3.764   6.991   9.197  1.00  0.00     0.020 C 
ENDROOT
BRANCH   3  24
HETATM   24  O1  UNL     1       2.090   9.517   8.161  1.00  0.00    -0.377 OA
HETATM   25  H2  UNL     1       1.587   9.825   7.385  1.00  0.00     0.211 HD
ENDBRANCH   3  24
BRANCH  13  26
HETATM   26  O2  UNL     1      -3.485   9.605  14.357  1.00  0.00    -0.271 OA
BRANCH  26  27
HETATM   27  C13 UNL     1      -4.519   9.758  15.326  1.00  0.00     0.303 C 
BRANCH  27  28
HETATM   28  C14 UNL     1      -5.609   8.726  15.069  1.00  0.00     0.244 C 
HETATM   29  O3  UNL     1      -5.965   8.400  13.937  1.00  0.00    -0.271 OA
HETATM   30  N2  UNL     1      -6.126   8.158  16.216  1.00  0.00    -0.346 N 
HETATM   31  H16 UNL     1      -5.970   8.727  17.044  1.00  0.00     0.163 HD
BRANCH  30  32
HETATM   32  C15 UNL     1      -7.383   7.420  16.176  1.00  0.00     0.180 C 
BRANCH  32  33
HETATM   33  C16 UNL     1      -7.031   5.967  15.780  1.00  0.00     0.241 C 
HETATM   34  O4  UNL     1      -6.562   5.160  16.586  1.00  0.00    -0.271 OA
HETATM   35  N3  UNL     1      -7.233   5.664  14.452  1.00  0.00    -0.354 N 
HETATM   36  H18 UNL     1      -7.713   6.341  13.860  1.00  0.00     0.162 HD
BRANCH  35  37
HETATM   37  C17 UNL     1      -7.088   4.309  13.917  1.00  0.00     0.098 C 
BRANCH  37  38
HETATM   38  C18 UNL     1      -8.231   4.016  12.927  1.00  0.00     0.135 C 
BRANCH  38  39
HETATM   39  C19 UNL     1      -8.893   5.268  12.416  1.00  0.00     0.141 C 
HETATM   40  O5  UNL     1      -8.531   5.950  11.470  1.00  0.00    -0.650 OA
BRANCH  39  41
HETATM   41  O6  UNL     1      -9.959   5.621  13.160  1.00  0.00    -0.776 OA
HETATM   42  H22 UNL     1     -10.279   6.456  12.760  1.00  0.00     0.167 HD
ENDBRANCH  39  41
ENDBRANCH  38  39
ENDBRANCH  37  38
BRANCH  37  43
HETATM   43  C20 UNL     1      -5.664   4.106  13.343  1.00  0.00     0.014 C 
HETATM   44  C21 UNL     1      -4.828   5.399  13.369  1.00  0.00     0.033 C 
HETATM   45  C22 UNL     1      -3.757   5.432  12.285  1.00  0.00     0.169 C 
HETATM   46  O7  UNL     1      -3.286   4.125  11.994  1.00  0.00    -0.381 OA
HETATM   47  C23 UNL     1      -4.270   3.269  11.393  1.00  0.00     0.054 C 
HETATM   48  C24 UNL     1      -3.861   1.840  11.772  1.00  0.00     0.045 C 
HETATM   49  C25 UNL     1      -4.196   3.419   9.867  1.00  0.00     0.045 C 
HETATM   50  C26 UNL     1      -5.695   3.574  11.900  1.00  0.00     0.044 C 
ENDBRANCH  37  43
ENDBRANCH  35  37
ENDBRANCH  32  33
BRANCH  32  51
HETATM   51  C27 UNL     1      -8.387   8.094  15.213  1.00  0.00     0.009 C 
HETATM   52  C28 UNL     1      -8.482   9.607  15.443  1.00  0.00     0.012 C 
HETATM   53  C29 UNL     1      -9.782   7.460  15.247  1.00  0.00     0.012 C 
ENDBRANCH  32  51
ENDBRANCH  30  32
ENDBRANCH  27  28
ENDBRANCH  26  27
ENDBRANCH  13  26
TORSDOF 12
ENDMDL
MODEL 5
REMARK minimizedAffinity -8.00288963
REMARK CNNscore 0.18343389
REMARK CNNaffinity 6.57601547
REMARK  12 active torsions:
REMARK  status: ('A' for Active; 'I' for Inactive)
REMARK    1  A    between atoms: C3_3  and  O1_4 
REMARK    2  A    between atoms: N1_14  and  O2_16 
REMARK    3  A    between atoms: O2_16  and  C13_17 
REMARK    4  A    between atoms: C13_17  and  C14_18 
REMARK       I    between atoms: C14_18  and  N2_20 
REMARK    5  A    between atoms: N2_20  and  C15_21 
REMARK    6  A    between atoms: C15_21  and  C16_22 
REMARK    7  A    between atoms: C15_21  and  C27_38 
REMARK       I    between atoms: C16_22  and  N3_24 
REMARK    8  A    between atoms: N3_24  and  C17_25 
REMARK    9  A    between atoms: C17_25  and  C18_26 
REMARK   10  A    between atoms: C17_25  and  C20_30 
REMARK   11  A    between atoms: C18_26  and  C19_27 
REMARK   12  A    between atoms: C19_27  and  O6_29 
ROOT
HETATM    1  C1  UNL     1      -1.585   7.829  15.991  1.00  0.00     0.015 C 
HETATM    2  C2  UNL     1      -0.997   8.238  15.025  1.00  0.00    -0.078 C 
HETATM    3  C3  UNL     1      -0.292   8.771  13.835  1.00  0.00     0.128 C 
HETATM    4  C4  UNL     1       1.216   8.527  13.976  1.00  0.00     0.052 C 
HETATM    5  C5  UNL     1       1.472   7.143  13.362  1.00  0.00     0.010 C 
HETATM    6  C6  UNL     1       0.186   6.742  12.616  1.00  0.00     0.002 C 
HETATM    7  C7  UNL     1       0.354   5.958  11.297  1.00  0.00    -0.004 C 
HETATM    8  C8  UNL     1       1.217   4.687  11.468  1.00  0.00     0.010 C 
HETATM    9  C9  UNL     1       2.228   4.470  10.351  1.00  0.00     0.035 C 
HETATM   10  C10 UNL     1       3.004   5.744  10.160  1.00  0.00    -0.069 C 
HETATM   11  C11 UNL     1       4.294   5.821  10.531  1.00  0.00     0.030 C 
HETATM   12  C12 UNL     1       5.072   7.079  10.419  1.00  0.00     0.032 C 
HETATM   13  N1  UNL     1       6.322   7.047  10.786  1.00  0.00    -0.271 N 
ATOM     14  H1  UNL     1       6.795   6.215  11.140  1.00  0.00     0.194 HD
HETATM   15  C30 UNL     1       4.380   8.304   9.851  1.00  0.00     0.060 C 
HETATM   16  C31 UNL     1       2.867   8.254  10.062  1.00  0.00     0.020 C 
HETATM   17  C32 UNL     1       2.209   6.925   9.615  1.00  0.00    -0.016 C 
HETATM   18  C33 UNL     1       2.284   6.861   8.063  1.00  0.00     0.020 C 
HETATM   19  C34 UNL     1       0.682   6.796  10.025  1.00  0.00     0.002 C 
HETATM   20  C35 UNL     1      -0.152   8.089   9.959  1.00  0.00     0.007 C 
HETATM   21  C36 UNL     1      -0.212   8.881  11.265  1.00  0.00     0.014 C 
HETATM   22  C37 UNL     1      -0.646   8.042  12.500  1.00  0.00     0.003 C 
HETATM   23  C38 UNL     1      -2.156   7.745  12.375  1.00  0.00     0.020 C 
ENDROOT
BRANCH   3  24
HETATM   24  O1  UNL     1      -0.566  10.162  13.748  1.00  0.00    -0.377 OA
HETATM   25  H2  UNL     1      -0.372  10.539  14.626  1.00  0.00     0.211 HD
ENDBRANCH   3  24
BRANCH  13  26
HETATM   26  O2  UNL     1       6.937   8.296  10.632  1.00  0.00    -0.271 OA
BRANCH  26  27
HETATM   27  C13 UNL     1       7.007   8.953  11.895  1.00  0.00     0.303 C 
BRANCH  27  28
HETATM   28  C14 UNL     1       7.233  10.444  11.676  1.00  0.00     0.244 C 
HETATM   29  O3  UNL     1       6.400  11.174  11.142  1.00  0.00    -0.271 OA
HETATM   30  N2  UNL     1       8.435  10.907  12.173  1.00  0.00    -0.346 N 
HETATM   31  H16 UNL     1       9.124  10.169  12.295  1.00  0.00     0.163 HD
BRANCH  30  32
HETATM   32  C15 UNL     1       8.957  12.206  11.761  1.00  0.00     0.180 C 
BRANCH  32  33
HETATM   33  C16 UNL     1      10.397  11.963  11.254  1.00  0.00     0.241 C 
HETATM   34  O4  UNL     1      11.047  10.963  11.569  1.00  0.00    -0.271 OA
HETATM   35  N3  UNL     1      10.913  12.972  10.470  1.00  0.00    -0.354 N 
HETATM   36  H18 UNL     1      10.295  13.724  10.167  1.00  0.00     0.162 HD
BRANCH  35  37
HETATM   37  C17 UNL     1      12.204  12.865   9.787  1.00  0.00     0.098 C 
BRANCH  37  38
HETATM   38  C18 UNL     1      13.249  12.259  10.743  1.00  0.00     0.135 C 
BRANCH  38  39
HETATM   39  C19 UNL     1      14.632  12.810  10.516  1.00  0.00     0.141 C 
HETATM   40  O5  UNL     1      15.635  12.170  10.245  1.00  0.00    -0.650 OA
BRANCH  39  41
HETATM   41  O6  UNL     1      14.683  14.145  10.687  1.00  0.00    -0.776 OA
HETATM   42  H22 UNL     1      15.625  14.379  10.552  1.00  0.00     0.167 HD
ENDBRANCH  39  41
ENDBRANCH  38  39
ENDBRANCH  37  38
BRANCH  37  43
HETATM   43  C20 UNL     1      12.041  12.114   8.443  1.00  0.00     0.014 C 
HETATM   44  C21 UNL     1      13.053  12.580   7.380  1.00  0.00     0.033 C 
HETATM   45  C22 UNL     1      12.545  12.391   5.956  1.00  0.00     0.169 C 
HETATM   46  O7  UNL     1      11.683  11.267   5.868  1.00  0.00    -0.381 OA
HETATM   47  C23 UNL     1      10.451  11.417   6.590  1.00  0.00     0.054 C 
HETATM   48  C24 UNL     1      10.008   9.993   6.951  1.00  0.00     0.045 C 
HETATM   49  C25 UNL     1       9.402  12.042   5.661  1.00  0.00     0.045 C 
HETATM   50  C26 UNL     1      10.623  12.267   7.865  1.00  0.00     0.044 C 
ENDBRANCH  37  43
ENDBRANCH  35  37
ENDBRANCH  32  33
BRANCH  32  51
HETATM   51  C27 UNL     1       8.875  13.225  12.920  1.00  0.00     0.009 C 
HETATM   52  C28 UNL     1       7.866  12.801  13.993  1.00  0.00     0.012 C 
HETATM   53  C29 UNL     1       8.588  14.656  12.452  1.00  0.00     0.012 C 
ENDBRANCH  32  51
ENDBRANCH  30  32
ENDBRANCH  27  28
ENDBRANCH  26  27
ENDBRANCH  13  26
TORSDOF 12
ENDMDL
MODEL 6
REMARK minimizedAffinity -7.85973978
REMARK CNNscore 0.165450633
REMARK CNNaffinity 5.89544725
REMARK  12 active torsions:
REMARK  status: ('A' for Active; 'I' for Inactive)
REMARK    1  A    between atoms: C3_3  and  O1_4 
REMARK    2  A    between atoms: N1_14  and  O2_16 
REMARK    3  A    between atoms: O2_16  and  C13_17 
REMARK    4  A    between atoms: C13_17  and  C14_18 
REMARK       I    between atoms: C14_18  and  N2_20 
REMARK    5  A    between atoms: N2_20  and  C15_21 
REMARK    6  A    between atoms: C15_21  and  C16_22 
REMARK    7  A    between atoms: C15_21  and  C27_38 
REMARK       I    between atoms: C16_22  and  N3_24 
REMARK    8  A    between atoms: N3_24  and  C17_25 
REMARK    9  A    between atoms: C17_25  and  C18_26 
REMARK   10  A    between atoms: C17_25  and  C20_30 
REMARK   11  A    between atoms: C18_26  and  C19_27 
REMARK   12  A    between atoms: C19_27  and  O6_29 
ROOT
HETATM    1  C1  UNL     1      -1.357   5.144  12.343  1.00  0.00     0.015 C 
HETATM    2  C2  UNL     1      -1.749   5.646  13.363  1.00  0.00    -0.078 C 
HETATM    3  C3  UNL     1      -2.253   6.238  14.624  1.00  0.00     0.128 C 
HETATM    4  C4  UNL     1      -1.078   6.797  15.438  1.00  0.00     0.052 C 
HETATM    5  C5  UNL     1      -0.899   8.246  14.967  1.00  0.00     0.010 C 
HETATM    6  C6  UNL     1      -2.137   8.598  14.123  1.00  0.00     0.002 C 
HETATM    7  C7  UNL     1      -2.681  10.038  14.237  1.00  0.00    -0.004 C 
HETATM    8  C8  UNL     1      -1.598  11.105  13.953  1.00  0.00     0.010 C 
HETATM    9  C9  UNL     1      -1.617  12.280  14.921  1.00  0.00     0.035 C 
HETATM   10  C10 UNL     1      -1.624  11.739  16.324  1.00  0.00    -0.069 C 
HETATM   11  C11 UNL     1      -0.537  11.855  17.106  1.00  0.00     0.030 C 
HETATM   12  C12 UNL     1      -0.484  11.276  18.470  1.00  0.00     0.032 C 
HETATM   13  N1  UNL     1       0.607  11.460  19.159  1.00  0.00    -0.271 N 
ATOM     14  H1  UNL     1       1.419  11.977  18.820  1.00  0.00     0.194 HD
HETATM   15  C30 UNL     1      -1.708  10.546  18.990  1.00  0.00     0.060 C 
HETATM   16  C31 UNL     1      -2.556   9.974  17.856  1.00  0.00     0.020 C 
HETATM   17  C32 UNL     1      -2.888  10.993  16.737  1.00  0.00    -0.016 C 
HETATM   18  C33 UNL     1      -3.873  12.039  17.330  1.00  0.00     0.020 C 
HETATM   19  C34 UNL     1      -3.585  10.347  15.467  1.00  0.00     0.002 C 
HETATM   20  C35 UNL     1      -4.584   9.208  15.745  1.00  0.00     0.007 C 
HETATM   21  C36 UNL     1      -3.980   7.804  15.714  1.00  0.00     0.014 C 
HETATM   22  C37 UNL     1      -3.171   7.487  14.425  1.00  0.00     0.003 C 
HETATM   23  C38 UNL     1      -4.169   7.302  13.262  1.00  0.00     0.020 C 
ENDROOT
BRANCH   3  24
HETATM   24  O1  UNL     1      -2.924   5.219  15.351  1.00  0.00    -0.377 OA
HETATM   25  H2  UNL     1      -2.314   4.460  15.391  1.00  0.00     0.211 HD
ENDBRANCH   3  24
BRANCH  13  26
HETATM   26  O2  UNL     1       0.527  10.862  20.424  1.00  0.00    -0.271 OA
BRANCH  26  27
HETATM   27  C13 UNL     1       1.807  10.361  20.799  1.00  0.00     0.303 C 
BRANCH  27  28
HETATM   28  C14 UNL     1       2.721  11.526  21.154  1.00  0.00     0.244 C 
HETATM   29  O3  UNL     1       2.298  12.654  21.407  1.00  0.00    -0.271 OA
HETATM   30  N2  UNL     1       4.059  11.192  21.213  1.00  0.00    -0.346 N 
HETATM   31  H16 UNL     1       4.279  10.345  20.694  1.00  0.00     0.163 HD
BRANCH  30  32
HETATM   32  C15 UNL     1       5.084  12.230  21.204  1.00  0.00     0.180 C 
BRANCH  32  33
HETATM   33  C16 UNL     1       6.219  11.723  20.284  1.00  0.00     0.241 C 
HETATM   34  O4  UNL     1       6.106  10.704  19.598  1.00  0.00    -0.271 OA
HETATM   35  N3  UNL     1       7.378  12.466  20.331  1.00  0.00    -0.354 N 
HETATM   36  H18 UNL     1       7.376  13.349  20.841  1.00  0.00     0.162 HD
BRANCH  35  37
HETATM   37  C17 UNL     1       8.511  12.226  19.435  1.00  0.00     0.098 C 
BRANCH  37  38
HETATM   38  C18 UNL     1       9.616  11.463  20.188  1.00  0.00     0.135 C 
BRANCH  38  39
HETATM   39  C19 UNL     1      10.891  12.256  20.307  1.00  0.00     0.141 C 
HETATM   40  O5  UNL     1      10.997  13.471  20.299  1.00  0.00    -0.650 OA
BRANCH  39  41
HETATM   41  O6  UNL     1      11.977  11.463  20.387  1.00  0.00    -0.776 OA
HETATM   42  H22 UNL     1      12.737  12.081  20.423  1.00  0.00     0.167 HD
ENDBRANCH  39  41
ENDBRANCH  38  39
ENDBRANCH  37  38
BRANCH  37  43
HETATM   43  C20 UNL     1       8.030  11.550  18.127  1.00  0.00     0.014 C 
HETATM   44  C21 UNL     1       8.978  10.430  17.659  1.00  0.00     0.033 C 
HETATM   45  C22 UNL     1       8.935  10.211  16.152  1.00  0.00     0.169 C 
HETATM   46  O7  UNL     1       7.648  10.503  15.630  1.00  0.00    -0.381 OA
HETATM   47  C23 UNL     1       7.278  11.888  15.726  1.00  0.00     0.054 C 
HETATM   48  C24 UNL     1       5.745  11.903  15.780  1.00  0.00     0.045 C 
HETATM   49  C25 UNL     1       7.738  12.614  14.455  1.00  0.00     0.045 C 
HETATM   50  C26 UNL     1       7.869  12.563  16.980  1.00  0.00     0.044 C 
ENDBRANCH  37  43
ENDBRANCH  35  37
ENDBRANCH  32  33
BRANCH  32  51
HETATM   51  C27 UNL     1       5.554  12.552  22.640  1.00  0.00     0.009 C 
HETATM   52  C28 UNL     1       5.677  14.061  22.885  1.00  0.00     0.012 C 
HETATM   53  C29 UNL     1       6.855  11.840  23.029  1.00  0.00     0.012 C 
ENDBRANCH  32  51
ENDBRANCH  30  32
ENDBRANCH  27  28
ENDBRANCH  26  27
ENDBRANCH  13  26
TORSDOF 12
ENDMDL
MODEL 7
REMARK minimizedAffinity -7.60258055
REMARK CNNscore 0.162942261
REMARK CNNaffinity 6.10808039
REMARK  12 active torsions:
REMARK  status: ('A' for Active; 'I' for Inactive)
REMARK    1  A    between atoms: C3_3  and  O1_4 
REMARK    2  A    between atoms: N1_14  and  O2_16 
REMARK    3  A    between atoms: O2_16  and  C13_17 
REMARK    4  A    between atoms: C13_17  and  C14_18 
REMARK       I    between atoms: C14_18  and  N2_20 
REMARK    5  A    between atoms: N2_20  and  C15_21 
REMARK    6  A    between atoms: C15_21  and  C16_22 
REMARK    7  A    between atoms: C15_21  and  C27_38 
REMARK       I    between atoms: C16_22  and  N3_24 
REMARK    8  A    between atoms: N3_24  and  C17_25 
REMARK    9  A    between atoms: C17_25  and  C18_26 
REMARK   10  A    between atoms: C17_25  and  C20_30 
REMARK   11  A    between atoms: C18_26  and  C19_27 
REMARK   12  A    between atoms: C19_27  and  O6_29 
ROOT
HETATM    1  C1  UNL     1       2.188   7.087   8.928  1.00  0.00     0.015 C 
HETATM    2  C2  UNL     1       2.084   7.091  10.127  1.00  0.00    -0.078 C 
HETATM    3  C3  UNL     1       1.980   7.070  11.605  1.00  0.00     0.128 C 
HETATM    4  C4  UNL     1       1.941   8.509  12.139  1.00  0.00     0.052 C 
HETATM    5  C5  UNL     1       0.458   8.904  12.157  1.00  0.00     0.010 C 
HETATM    6  C6  UNL     1      -0.351   7.615  11.925  1.00  0.00     0.002 C 
HETATM    7  C7  UNL     1      -1.686   7.474  12.689  1.00  0.00    -0.004 C 
HETATM    8  C8  UNL     1      -2.632   8.674  12.454  1.00  0.00     0.010 C 
HETATM    9  C9  UNL     1      -3.322   9.174  13.715  1.00  0.00     0.035 C 
HETATM   10  C10 UNL     1      -2.277   9.387  14.775  1.00  0.00    -0.069 C 
HETATM   11  C11 UNL     1      -1.938  10.630  15.160  1.00  0.00     0.030 C 
HETATM   12  C12 UNL     1      -0.865  10.881  16.153  1.00  0.00     0.032 C 
HETATM   13  N1  UNL     1      -0.624  12.120  16.477  1.00  0.00    -0.271 N 
ATOM     14  H1  UNL     1      -1.126  12.921  16.093  1.00  0.00     0.194 HD
HETATM   15  C30 UNL     1      -0.150   9.686  16.757  1.00  0.00     0.060 C 
HETATM   16  C31 UNL     1      -0.183   8.473  15.829  1.00  0.00     0.020 C 
HETATM   17  C32 UNL     1      -1.594   8.126  15.291  1.00  0.00    -0.016 C 
HETATM   18  C33 UNL     1      -2.436   7.595  16.486  1.00  0.00     0.020 C 
HETATM   19  C34 UNL     1      -1.595   7.003  14.171  1.00  0.00     0.002 C 
HETATM   20  C35 UNL     1      -0.574   5.863  14.349  1.00  0.00     0.007 C 
HETATM   21  C36 UNL     1       0.767   6.090  13.652  1.00  0.00     0.014 C 
HETATM   22  C37 UNL     1       0.650   6.455  12.145  1.00  0.00     0.003 C 
HETATM   23  C38 UNL     1       0.233   5.186  11.372  1.00  0.00     0.020 C 
ENDROOT
BRANCH   3  24
HETATM   24  O1  UNL     1       3.110   6.379  12.116  1.00  0.00    -0.377 OA
HETATM   25  H2  UNL     1       3.894   6.781  11.699  1.00  0.00     0.211 HD
ENDBRANCH   3  24
BRANCH  13  26
HETATM   26  O2  UNL     1       0.409  12.216  17.418  1.00  0.00    -0.271 OA
BRANCH  26  27
HETATM   27  C13 UNL     1      -0.087  12.812  18.614  1.00  0.00     0.303 C 
BRANCH  27  28
HETATM   28  C14 UNL     1       0.856  13.925  19.051  1.00  0.00     0.244 C 
HETATM   29  O3  UNL     1       1.477  14.626  18.253  1.00  0.00    -0.271 OA
HETATM   30  N2  UNL     1       0.912  14.108  20.419  1.00  0.00    -0.346 N 
HETATM   31  H16 UNL     1       0.608  13.290  20.940  1.00  0.00     0.163 HD
BRANCH  30  32
HETATM   32  C15 UNL     1       1.993  14.882  21.020  1.00  0.00     0.180 C 
BRANCH  32  33
HETATM   33  C16 UNL     1       2.815  13.897  21.883  1.00  0.00     0.241 C 
HETATM   34  O4  UNL     1       2.338  13.324  22.865  1.00  0.00    -0.271 OA
HETATM   35  N3  UNL     1       4.130  13.751  21.500  1.00  0.00    -0.354 N 
HETATM   36  H18 UNL     1       4.438  14.174  20.625  1.00  0.00     0.162 HD
BRANCH  35  37
HETATM   37  C17 UNL     1       5.028  12.765  22.105  1.00  0.00     0.098 C 
BRANCH  37  38
HETATM   38  C18 UNL     1       4.872  11.411  21.389  1.00  0.00     0.135 C 
BRANCH  38  39
HETATM   39  C19 UNL     1       4.188  10.377  22.244  1.00  0.00     0.141 C 
HETATM   40  O5  UNL     1       4.026  10.422  23.452  1.00  0.00    -0.650 OA
BRANCH  39  41
HETATM   41  O6  UNL     1       3.781   9.312  21.527  1.00  0.00    -0.776 OA
HETATM   42  H22 UNL     1       3.390   8.700  22.185  1.00  0.00     0.167 HD
ENDBRANCH  39  41
ENDBRANCH  38  39
ENDBRANCH  37  38
BRANCH  37  43
HETATM   43  C20 UNL     1       6.476  13.312  22.152  1.00  0.00     0.014 C 
HETATM   44  C21 UNL     1       7.499  12.240  22.571  1.00  0.00     0.033 C 
HETATM   45  C22 UNL     1       8.732  12.830  23.243  1.00  0.00     0.169 C 
HETATM   46  O7  UNL     1       9.022  14.122  22.734  1.00  0.00    -0.381 OA
HETATM   47  C23 UNL     1       8.028  15.111  23.047  1.00  0.00     0.054 C 
HETATM   48  C24 UNL     1       8.121  16.158  21.930  1.00  0.00     0.045 C 
HETATM   49  C25 UNL     1       8.390  15.775  24.382  1.00  0.00     0.045 C 
HETATM   50  C26 UNL     1       6.608  14.511  23.107  1.00  0.00     0.044 C 
ENDBRANCH  37  43
ENDBRANCH  35  37
ENDBRANCH  32  33
BRANCH  32  51
HETATM   51  C27 UNL     1       1.433  16.081  21.819  1.00  0.00     0.009 C 
HETATM   52  C28 UNL     1       0.915  17.195  20.902  1.00  0.00     0.012 C 
HETATM   53  C29 UNL     1       2.425  16.647  22.841  1.00  0.00     0.012 C 
ENDBRANCH  32  51
ENDBRANCH  30  32
ENDBRANCH  27  28
ENDBRANCH  26  27
ENDBRANCH  13  26
TORSDOF 12
ENDMDL
MODEL 8
REMARK minimizedAffinity -7.51811934
REMARK CNNscore 0.15824236
REMARK CNNaffinity 5.39144754
REMARK  12 active torsions:
REMARK  status: ('A' for Active; 'I' for Inactive)
REMARK    1  A    between atoms: C3_3  and  O1_4 
REMARK    2  A    between atoms: N1_14  and  O2_16 
REMARK    3  A    between atoms: O2_16  and  C13_17 
REMARK    4  A    between atoms: C13_17  and  C14_18 
REMARK       I    between atoms: C14_18  and  N2_20 
REMARK    5  A    between atoms: N2_20  and  C15_21 
REMARK    6  A    between atoms: C15_21  and  C16_22 
REMARK    7  A    between atoms: C15_21  and  C27_38 
REMARK       I    between atoms: C16_22  and  N3_24 
REMARK    8  A    between atoms: N3_24  and  C17_25 
REMARK    9  A    between atoms: C17_25  and  C18_26 
REMARK   10  A    between atoms: C17_25  and  C20_30 
REMARK   11  A    between atoms: C18_26  and  C19_27 
REMARK   12  A    between atoms: C19_27  and  O6_29 
ROOT
HETATM    1  C1  UNL     1      -0.094   6.466  14.260  1.00  0.00     0.015 C 
HETATM    2  C2  UNL     1       0.708   7.346  14.430  1.00  0.00    -0.078 C 
HETATM    3  C3  UNL     1       1.670   8.453  14.643  1.00  0.00     0.128 C 
HETATM    4  C4  UNL     1       2.772   8.000  15.611  1.00  0.00     0.052 C 
HETATM    5  C5  UNL     1       3.865   7.375  14.734  1.00  0.00     0.010 C 
HETATM    6  C6  UNL     1       3.528   7.738  13.276  1.00  0.00     0.002 C 
HETATM    7  C7  UNL     1       4.714   8.036  12.333  1.00  0.00    -0.004 C 
HETATM    8  C8  UNL     1       5.753   6.891  12.307  1.00  0.00     0.010 C 
HETATM    9  C9  UNL     1       7.199   7.367  12.352  1.00  0.00     0.035 C 
HETATM   10  C10 UNL     1       7.346   8.332  13.496  1.00  0.00    -0.069 C 
HETATM   11  C11 UNL     1       8.029   7.985  14.600  1.00  0.00     0.030 C 
HETATM   12  C12 UNL     1       8.139   8.885  15.773  1.00  0.00     0.032 C 
HETATM   13  N1  UNL     1       8.841   8.467  16.788  1.00  0.00    -0.271 N 
ATOM     14  H1  UNL     1       9.318   7.566  16.823  1.00  0.00     0.194 HD
HETATM   15  C30 UNL     1       7.466  10.244  15.703  1.00  0.00     0.060 C 
HETATM   16  C31 UNL     1       6.282  10.244  14.737  1.00  0.00     0.020 C 
HETATM   17  C32 UNL     1       6.603   9.655  13.341  1.00  0.00    -0.016 C 
HETATM   18  C33 UNL     1       7.561  10.645  12.620  1.00  0.00     0.020 C 
HETATM   19  C34 UNL     1       5.329   9.465  12.416  1.00  0.00     0.002 C 
HETATM   20  C35 UNL     1       4.242  10.552  12.524  1.00  0.00     0.007 C 
HETATM   21  C36 UNL     1       3.138  10.255  13.538  1.00  0.00     0.014 C 
HETATM   22  C37 UNL     1       2.469   8.863  13.364  1.00  0.00     0.003 C 
HETATM   23  C38 UNL     1       1.578   8.909  12.105  1.00  0.00     0.020 C 
ENDROOT
BRANCH   3  24
HETATM   24  O1  UNL     1       0.958   9.558  15.179  1.00  0.00    -0.377 OA
HETATM   25  H2  UNL     1       0.447   9.218  15.936  1.00  0.00     0.211 HD
ENDBRANCH   3  24
BRANCH  13  26
HETATM   26  O2  UNL     1       8.861   9.408  17.826  1.00  0.00    -0.271 OA
BRANCH  26  27
HETATM   27  C13 UNL     1      10.123  10.068  17.849  1.00  0.00     0.303 C 
BRANCH  27  28
HETATM   28  C14 UNL     1       9.912  11.553  18.117  1.00  0.00     0.244 C 
HETATM   29  O3  UNL     1      10.762  12.405  17.863  1.00  0.00    -0.271 OA
HETATM   30  N2  UNL     1       8.664  11.858  18.624  1.00  0.00    -0.346 N 
HETATM   31  H16 UNL     1       8.208  11.061  19.059  1.00  0.00     0.163 HD
BRANCH  30  32
HETATM   32  C15 UNL     1       8.414  13.155  19.245  1.00  0.00     0.180 C 
BRANCH  32  33
HETATM   33  C16 UNL     1       8.234  12.893  20.758  1.00  0.00     0.241 C 
HETATM   34  O4  UNL     1       8.875  12.027  21.358  1.00  0.00    -0.271 OA
HETATM   35  N3  UNL     1       7.269  13.664  21.368  1.00  0.00    -0.354 N 
HETATM   36  H18 UNL     1       6.843  14.427  20.842  1.00  0.00     0.162 HD
BRANCH  35  37
HETATM   37  C17 UNL     1       7.048  13.659  22.815  1.00  0.00     0.098 C 
BRANCH  37  38
HETATM   38  C18 UNL     1       7.223  15.084  23.373  1.00  0.00     0.135 C 
BRANCH  38  39
HETATM   39  C19 UNL     1       8.636  15.368  23.809  1.00  0.00     0.141 C 
HETATM   40  O5  UNL     1       9.057  15.375  24.954  1.00  0.00    -0.650 OA
BRANCH  39  41
HETATM   41  O6  UNL     1       9.437  15.674  22.771  1.00  0.00    -0.776 OA
HETATM   42  H22 UNL     1      10.308  15.872  23.175  1.00  0.00     0.167 HD
ENDBRANCH  39  41
ENDBRANCH  38  39
ENDBRANCH  37  38
BRANCH  37  43
HETATM   43  C20 UNL     1       5.690  12.993  23.150  1.00  0.00     0.014 C 
HETATM   44  C21 UNL     1       5.760  11.455  23.102  1.00  0.00     0.033 C 
HETATM   45  C22 UNL     1       4.418  10.813  22.774  1.00  0.00     0.169 C 
HETATM   46  O7  UNL     1       3.343  11.596  23.269  1.00  0.00    -0.381 OA
HETATM   47  C23 UNL     1       3.208  12.875  22.630  1.00  0.00     0.054 C 
HETATM   48  C24 UNL     1       2.534  13.785  23.665  1.00  0.00     0.045 C 
HETATM   49  C25 UNL     1       2.280  12.730  21.416  1.00  0.00     0.045 C 
HETATM   50  C26 UNL     1       4.570  13.460  22.204  1.00  0.00     0.044 C 
ENDBRANCH  37  43
ENDBRANCH  35  37
ENDBRANCH  32  33
BRANCH  32  51
HETATM   51  C27 UNL     1       7.199  13.852  18.592  1.00  0.00     0.009 C 
HETATM   52  C28 UNL     1       7.016  15.288  19.096  1.00  0.00     0.012 C 
HETATM   53  C29 UNL     1       5.893  13.063  18.740  1.00  0.00     0.012 C 
ENDBRANCH  32  51
ENDBRANCH  30  32
ENDBRANCH  27  28
ENDBRANCH  26  27
ENDBRANCH  13  26
TORSDOF 12
ENDMDL
MODEL 9
REMARK minimizedAffinity -9.05632305
REMARK CNNscore 0.15552792
REMARK CNNaffinity 6.12439203
REMARK  12 active torsions:
REMARK  status: ('A' for Active; 'I' for Inactive)
REMARK    1  A    between atoms: C3_3  and  O1_4 
REMARK    2  A    between atoms: N1_14  and  O2_16 
REMARK    3  A    between atoms: O2_16  and  C13_17 
REMARK    4  A    between atoms: C13_17  and  C14_18 
REMARK       I    between atoms: C14_18  and  N2_20 
REMARK    5  A    between atoms: N2_20  and  C15_21 
REMARK    6  A    between atoms: C15_21  and  C16_22 
REMARK    7  A    between atoms: C15_21  and  C27_38 
REMARK       I    between atoms: C16_22  and  N3_24 
REMARK    8  A    between atoms: N3_24  and  C17_25 
REMARK    9  A    between atoms: C17_25  and  C18_26 
REMARK   10  A    between atoms: C17_25  and  C20_30 
REMARK   11  A    between atoms: C18_26  and  C19_27 
REMARK   12  A    between atoms: C19_27  and  O6_29 
ROOT
HETATM    1  C1  UNL     1       4.051   8.380   9.045  1.00  0.00     0.015 C 
HETATM    2  C2  UNL     1       3.619   7.923  10.071  1.00  0.00    -0.078 C 
HETATM    3  C3  UNL     1       3.111   7.335  11.332  1.00  0.00     0.128 C 
HETATM    4  C4  UNL     1       2.860   8.450  12.357  1.00  0.00     0.052 C 
HETATM    5  C5  UNL     1       1.413   8.908  12.125  1.00  0.00     0.010 C 
HETATM    6  C6  UNL     1       0.760   7.871  11.194  1.00  0.00     0.002 C 
HETATM    7  C7  UNL     1      -0.726   7.536  11.446  1.00  0.00    -0.004 C 
HETATM    8  C8  UNL     1      -1.624   8.795  11.454  1.00  0.00     0.010 C 
HETATM    9  C9  UNL     1      -2.658   8.810  12.571  1.00  0.00     0.035 C 
HETATM   10  C10 UNL     1      -1.958   8.520  13.870  1.00  0.00    -0.069 C 
HETATM   11  C11 UNL     1      -1.796   9.487  14.789  1.00  0.00     0.030 C 
HETATM   12  C12 UNL     1      -1.053   9.255  16.052  1.00  0.00     0.032 C 
HETATM   13  N1  UNL     1      -0.968  10.250  16.890  1.00  0.00    -0.271 N 
ATOM     14  H1  UNL     1      -1.380  11.170  16.732  1.00  0.00     0.194 HD
HETATM   15  C30 UNL     1      -0.480   7.873  16.306  1.00  0.00     0.060 C 
HETATM   16  C31 UNL     1      -0.199   7.124  15.005  1.00  0.00     0.020 C 
HETATM   17  C32 UNL     1      -1.388   7.113  14.012  1.00  0.00    -0.016 C 
HETATM   18  C33 UNL     1      -2.503   6.217  14.623  1.00  0.00     0.020 C 
HETATM   19  C34 UNL     1      -1.028   6.519  12.586  1.00  0.00     0.002 C 
HETATM   20  C35 UNL     1      -0.046   5.332  12.571  1.00  0.00     0.007 C 
HETATM   21  C36 UNL     1       1.425   5.720  12.413  1.00  0.00     0.014 C 
HETATM   22  C37 UNL     1       1.712   6.651  11.202  1.00  0.00     0.003 C 
HETATM   23  C38 UNL     1       1.585   5.817   9.910  1.00  0.00     0.020 C 
ENDROOT
BRANCH   3  24
HETATM   24  O1  UNL     1       4.085   6.423  11.816  1.00  0.00    -0.377 OA
HETATM   25  H2  UNL     1       4.935   6.901  11.822  1.00  0.00     0.211 HD
ENDBRANCH   3  24
BRANCH  13  26
HETATM   26  O2  UNL     1      -0.241   9.899  18.035  1.00  0.00    -0.271 OA
BRANCH  26  27
HETATM   27  C13 UNL     1       0.922  10.716  18.133  1.00  0.00     0.303 C 
BRANCH  27  28
HETATM   28  C14 UNL     1       1.189  11.042  19.597  1.00  0.00     0.244 C 
HETATM   29  O3  UNL     1       0.579  11.919  20.207  1.00  0.00    -0.271 OA
HETATM   30  N2  UNL     1       2.140  10.234  20.187  1.00  0.00    -0.346 N 
HETATM   31  H16 UNL     1       2.756   9.789  19.511  1.00  0.00     0.163 HD
BRANCH  30  32
HETATM   32  C15 UNL     1       2.753  10.615  21.455  1.00  0.00     0.180 C 
BRANCH  32  33
HETATM   33  C16 UNL     1       3.858  11.643  21.120  1.00  0.00     0.241 C 
HETATM   34  O4  UNL     1       4.634  11.493  20.174  1.00  0.00    -0.271 OA
HETATM   35  N3  UNL     1       3.939  12.709  21.989  1.00  0.00    -0.354 N 
HETATM   36  H18 UNL     1       3.210  12.827  22.692  1.00  0.00     0.162 HD
BRANCH  35  37
HETATM   37  C17 UNL     1       4.826  13.852  21.763  1.00  0.00     0.098 C 
BRANCH  37  38
HETATM   38  C18 UNL     1       4.057  15.163  22.007  1.00  0.00     0.135 C 
BRANCH  38  39
HETATM   39  C19 UNL     1       2.848  14.973  22.885  1.00  0.00     0.141 C 
HETATM   40  O5  UNL     1       2.811  15.056  24.102  1.00  0.00    -0.650 OA
BRANCH  39  41
HETATM   41  O6  UNL     1       1.751  14.643  22.176  1.00  0.00    -0.776 OA
HETATM   42  H22 UNL     1       1.049  14.512  22.847  1.00  0.00     0.167 HD
ENDBRANCH  39  41
ENDBRANCH  38  39
ENDBRANCH  37  38
BRANCH  37  43
HETATM   43  C20 UNL     1       6.126  13.697  22.590  1.00  0.00     0.014 C 
HETATM   44  C21 UNL     1       6.569  15.018  23.245  1.00  0.00     0.033 C 
HETATM   45  C22 UNL     1       8.073  15.085  23.482  1.00  0.00     0.169 C 
HETATM   46  O7  UNL     1       8.608  13.795  23.733  1.00  0.00    -0.381 OA
HETATM   47  C23 UNL     1       8.537  12.903  22.609  1.00  0.00     0.054 C 
HETATM   48  C24 UNL     1       8.494  11.490  23.205  1.00  0.00     0.045 C 
HETATM   49  C25 UNL     1       9.817  13.051  21.775  1.00  0.00     0.045 C 
HETATM   50  C26 UNL     1       7.290  13.160  21.739  1.00  0.00     0.044 C 
ENDBRANCH  37  43
ENDBRANCH  35  37
ENDBRANCH  32  33
BRANCH  32  51
HETATM   51  C27 UNL     1       3.278   9.371  22.207  1.00  0.00     0.009 C 
HETATM   52  C28 UNL     1       2.142   8.443  22.654  1.00  0.00     0.012 C 
HETATM   53  C29 UNL     1       4.184   9.716  23.395  1.00  0.00     0.012 C 
ENDBRANCH  32  51
ENDBRANCH  30  32
ENDBRANCH  27  28
ENDBRANCH  26  27
ENDBRANCH  13  26
TORSDOF 12
ENDMDL
