MODEL 1
REMARK minimizedAffinity -7.50324106
REMARK CNNscore 0.860731542
REMARK CNNaffinity 7.45504236
REMARK  5 active torsions:
REMARK  status: ('A' for Active; 'I' for Inactive)
REMARK    1  A    between atoms: C4_4  and  C5_5 
REMARK    2  A    between atoms: C5_5  and  C6_6 
REMARK    3  A    between atoms: C6_6  and  C7_7 
REMARK    4  A    between atoms: C7_7  and  C9_9 
REMARK    5  A    between atoms: C30_31  and  O2_32 
ROOT
HETATM    1  C9  UNL     1      -1.881  52.129 -10.076  1.00  0.00    -0.002 C 
HETATM    2  C10 UNL     1      -1.202  50.739 -10.152  1.00  0.00     0.007 C 
HETATM    3  C11 UNL     1       0.285  50.948  -9.783  1.00  0.00     0.015 C 
HETATM    4  C12 UNL     1       0.363  52.368  -9.184  1.00  0.00    -0.010 C 
HETATM    5  C13 UNL     1      -0.042  52.252  -7.679  1.00  0.00     0.021 C 
HETATM    6  C14 UNL     1       1.689  53.129  -9.198  1.00  0.00    -0.039 C 
HETATM    7  C15 UNL     1       1.672  54.491  -9.176  1.00  0.00    -0.066 C 
HETATM    8  C16 UNL     1       0.353  55.279  -9.230  1.00  0.00     0.036 C 
HETATM    9  C17 UNL     1      -0.953  54.490  -9.470  1.00  0.00     0.015 C 
HETATM   10  C18 UNL     1      -0.678  53.118 -10.095  1.00  0.00    -0.029 C 
HETATM   11  C19 UNL     1      -0.176  53.343 -11.553  1.00  0.00     0.016 C 
HETATM   12  C20 UNL     1       2.984  55.324  -9.152  1.00  0.00    -0.015 C 
HETATM   13  C21 UNL     1       3.223  55.766 -10.615  1.00  0.00     0.020 C 
HETATM   14  C22 UNL     1       2.848  56.574  -8.248  1.00  0.00     0.021 C 
HETATM   15  C23 UNL     1       4.140  57.364  -8.115  1.00  0.00     0.080 C 
HETATM   16  C24 UNL     1       5.265  56.508  -7.590  1.00  0.00     0.135 C 
HETATM   17  O1  UNL     1       6.022  56.959  -6.727  1.00  0.00    -0.297 OA
HETATM   18  C25 UNL     1       5.508  55.145  -8.257  1.00  0.00     0.018 C 
HETATM   19  C26 UNL     1       6.404  55.369  -9.485  1.00  0.00     0.023 C 
HETATM   20  C27 UNL     1       6.317  54.276  -7.257  1.00  0.00     0.023 C 
HETATM   21  C28 UNL     1       4.136  54.442  -8.543  1.00  0.00     0.016 C 
HETATM   22  C29 UNL     1       4.253  53.127  -9.337  1.00  0.00     0.043 C 
HETATM   23  C30 UNL     1       2.962  52.310  -9.218  1.00  0.00     0.148 C 
ENDROOT
BRANCH   1  24
HETATM   24  C7  UNL     1      -3.076  52.388 -11.044  1.00  0.00    -0.014 C 
HETATM   25  C8  UNL     1      -3.979  53.480 -10.443  1.00  0.00     0.010 C 
BRANCH  24  26
HETATM   26  C6  UNL     1      -3.928  51.146 -11.401  1.00  0.00     0.008 C 
BRANCH  26  27
HETATM   27  C5  UNL     1      -4.512  50.408 -10.184  1.00  0.00     0.028 C 
BRANCH  27  28
HETATM   28  C4  UNL     1      -6.012  50.287 -10.222  1.00  0.00    -0.025 C 
HETATM   29  C2  UNL     1      -6.732  49.284 -10.759  1.00  0.00    -0.091 C 
HETATM   30  C1  UNL     1      -8.237  49.330 -10.762  1.00  0.00     0.042 C 
HETATM   31  C3  UNL     1      -6.148  48.046 -11.381  1.00  0.00     0.042 C 
ENDBRANCH  27  28
ENDBRANCH  26  27
ENDBRANCH  24  26
ENDBRANCH   1  24
BRANCH  23  32
HETATM   32  O2  UNL     1       3.017  51.561  -8.006  1.00  0.00    -0.391 OA
HETATM   33  H48 UNL     1       3.759  50.940  -8.083  1.00  0.00     0.210 HD
ENDBRANCH  23  32
TORSDOF 5
ENDMDL
MODEL 2
REMARK minimizedAffinity -7.08655834
REMARK CNNscore 0.846723735
REMARK CNNaffinity 7.25043917
REMARK  5 active torsions:
REMARK  status: ('A' for Active; 'I' for Inactive)
REMARK    1  A    between atoms: C4_4  and  C5_5 
REMARK    2  A    between atoms: C5_5  and  C6_6 
REMARK    3  A    between atoms: C6_6  and  C7_7 
REMARK    4  A    between atoms: C7_7  and  C9_9 
REMARK    5  A    between atoms: C30_31  and  O2_32 
ROOT
HETATM    1  C9  UNL     1      -1.833  52.597 -10.225  1.00  0.00    -0.002 C 
HETATM    2  C10 UNL     1      -1.257  51.160 -10.230  1.00  0.00     0.007 C 
HETATM    3  C11 UNL     1       0.207  51.265  -9.742  1.00  0.00     0.015 C 
HETATM    4  C12 UNL     1       0.343  52.685  -9.155  1.00  0.00    -0.010 C 
HETATM    5  C13 UNL     1      -0.191  52.625  -7.687  1.00  0.00     0.021 C 
HETATM    6  C14 UNL     1       1.719  53.346  -9.068  1.00  0.00    -0.039 C 
HETATM    7  C15 UNL     1       1.802  54.706  -9.063  1.00  0.00    -0.066 C 
HETATM    8  C16 UNL     1       0.554  55.588  -9.234  1.00  0.00     0.036 C 
HETATM    9  C17 UNL     1      -0.783  54.893  -9.571  1.00  0.00     0.015 C 
HETATM   10  C18 UNL     1      -0.562  53.494 -10.157  1.00  0.00    -0.029 C 
HETATM   11  C19 UNL     1       0.072  53.656 -11.570  1.00  0.00     0.016 C 
HETATM   12  C20 UNL     1       3.166  55.440  -8.941  1.00  0.00    -0.015 C 
HETATM   13  C21 UNL     1       3.555  55.838 -10.384  1.00  0.00     0.020 C 
HETATM   14  C22 UNL     1       3.051  56.712  -8.064  1.00  0.00     0.021 C 
HETATM   15  C23 UNL     1       4.383  57.407  -7.835  1.00  0.00     0.080 C 
HETATM   16  C24 UNL     1       5.395  56.480  -7.210  1.00  0.00     0.135 C 
HETATM   17  O1  UNL     1       6.111  56.889  -6.292  1.00  0.00    -0.297 OA
HETATM   18  C25 UNL     1       5.589  55.091  -7.840  1.00  0.00     0.018 C 
HETATM   19  C26 UNL     1       6.596  55.228  -8.992  1.00  0.00     0.023 C 
HETATM   20  C27 UNL     1       6.247  54.182  -6.767  1.00  0.00     0.023 C 
HETATM   21  C28 UNL     1       4.196  54.486  -8.229  1.00  0.00     0.016 C 
HETATM   22  C29 UNL     1       4.278  53.153  -8.996  1.00  0.00     0.043 C 
HETATM   23  C30 UNL     1       2.924  52.436  -8.974  1.00  0.00     0.148 C 
ENDROOT
BRANCH   1  24
HETATM   24  C7  UNL     1      -2.923  52.927 -11.291  1.00  0.00    -0.014 C 
HETATM   25  C8  UNL     1      -4.063  53.711 -10.615  1.00  0.00     0.010 C 
BRANCH  24  26
HETATM   26  C6  UNL     1      -3.507  51.709 -12.048  1.00  0.00     0.008 C 
BRANCH  26  27
HETATM   27  C5  UNL     1      -2.518  51.027 -13.008  1.00  0.00     0.028 C 
BRANCH  27  28
HETATM   28  C4  UNL     1      -2.890  51.180 -14.459  1.00  0.00    -0.025 C 
HETATM   29  C2  UNL     1      -2.460  50.429 -15.490  1.00  0.00    -0.091 C 
HETATM   30  C1  UNL     1      -2.889  50.739 -16.900  1.00  0.00     0.042 C 
HETATM   31  C3  UNL     1      -1.553  49.238 -15.365  1.00  0.00     0.042 C 
ENDBRANCH  27  28
ENDBRANCH  26  27
ENDBRANCH  24  26
ENDBRANCH   1  24
BRANCH  23  32
HETATM   32  O2  UNL     1       2.825  51.706  -7.754  1.00  0.00    -0.391 OA
HETATM   33  H48 UNL     1       3.522  51.031  -7.762  1.00  0.00     0.210 HD
ENDBRANCH  23  32
TORSDOF 5
ENDMDL
MODEL 3
REMARK minimizedAffinity -7.84756613
REMARK CNNscore 0.793950558
REMARK CNNaffinity 7.3938694
REMARK  5 active torsions:
REMARK  status: ('A' for Active; 'I' for Inactive)
REMARK    1  A    between atoms: C4_4  and  C5_5 
REMARK    2  A    between atoms: C5_5  and  C6_6 
REMARK    3  A    between atoms: C6_6  and  C7_7 
REMARK    4  A    between atoms: C7_7  and  C9_9 
REMARK    5  A    between atoms: C30_31  and  O2_32 
ROOT
HETATM    1  C9  UNL     1       4.876  55.656  -8.525  1.00  0.00    -0.002 C 
HETATM    2  C10 UNL     1       5.673  54.620  -9.357  1.00  0.00     0.007 C 
HETATM    3  C11 UNL     1       4.636  53.799 -10.158  1.00  0.00     0.015 C 
HETATM    4  C12 UNL     1       3.311  54.580 -10.036  1.00  0.00    -0.010 C 
HETATM    5  C13 UNL     1       3.337  55.698 -11.128  1.00  0.00     0.021 C 
HETATM    6  C14 UNL     1       1.978  53.853 -10.220  1.00  0.00    -0.039 C 
HETATM    7  C15 UNL     1       0.861  54.356  -9.623  1.00  0.00    -0.066 C 
HETATM    8  C16 UNL     1       0.927  55.582  -8.697  1.00  0.00     0.036 C 
HETATM    9  C17 UNL     1       2.321  56.139  -8.332  1.00  0.00     0.015 C 
HETATM   10  C18 UNL     1       3.423  55.097  -8.554  1.00  0.00    -0.029 C 
HETATM   11  C19 UNL     1       3.246  53.973  -7.490  1.00  0.00     0.016 C 
HETATM   12  C20 UNL     1      -0.530  53.686  -9.799  1.00  0.00    -0.015 C 
HETATM   13  C21 UNL     1      -0.744  52.831  -8.528  1.00  0.00     0.020 C 
HETATM   14  C22 UNL     1      -1.659  54.742  -9.910  1.00  0.00     0.021 C 
HETATM   15  C23 UNL     1      -3.025  54.134 -10.184  1.00  0.00     0.080 C 
HETATM   16  C24 UNL     1      -3.021  53.297 -11.439  1.00  0.00     0.135 C 
HETATM   17  O1  UNL     1      -3.962  53.385 -12.232  1.00  0.00    -0.297 OA
HETATM   18  C25 UNL     1      -1.902  52.258 -11.611  1.00  0.00     0.018 C 
HETATM   19  C26 UNL     1      -2.332  50.971 -10.890  1.00  0.00     0.023 C 
HETATM   20  C27 UNL     1      -1.808  51.922 -13.123  1.00  0.00     0.023 C 
HETATM   21  C28 UNL     1      -0.535  52.868 -11.143  1.00  0.00     0.016 C 
HETATM   22  C29 UNL     1       0.636  51.868 -11.141  1.00  0.00     0.043 C 
HETATM   23  C30 UNL     1       1.976  52.609 -11.081  1.00  0.00     0.148 C 
ENDROOT
BRANCH   1  24
HETATM   24  C7  UNL     1       5.485  56.083  -7.155  1.00  0.00    -0.014 C 
HETATM   25  C8  UNL     1       5.133  57.558  -6.889  1.00  0.00     0.010 C 
BRANCH  24  26
HETATM   26  C6  UNL     1       7.013  55.878  -7.011  1.00  0.00     0.008 C 
BRANCH  26  27
HETATM   27  C5  UNL     1       7.606  56.435  -5.705  1.00  0.00     0.028 C 
BRANCH  27  28
HETATM   28  C4  UNL     1       8.989  55.918  -5.408  1.00  0.00    -0.025 C 
HETATM   29  C2  UNL     1      10.081  56.647  -5.110  1.00  0.00    -0.091 C 
HETATM   30  C1  UNL     1      11.413  55.983  -4.884  1.00  0.00     0.042 C 
HETATM   31  C3  UNL     1      10.100  58.143  -4.962  1.00  0.00     0.042 C 
ENDBRANCH  27  28
ENDBRANCH  26  27
ENDBRANCH  24  26
ENDBRANCH   1  24
BRANCH  23  32
HETATM   32  O2  UNL     1       2.333  52.996 -12.406  1.00  0.00    -0.391 OA
HETATM   33  H48 UNL     1       2.463  52.183 -12.920  1.00  0.00     0.210 HD
ENDBRANCH  23  32
TORSDOF 5
ENDMDL
MODEL 4
REMARK minimizedAffinity -6.9300518
REMARK CNNscore 0.672153056
REMARK CNNaffinity 6.87730408
REMARK  5 active torsions:
REMARK  status: ('A' for Active; 'I' for Inactive)
REMARK    1  A    between atoms: C4_4  and  C5_5 
REMARK    2  A    between atoms: C5_5  and  C6_6 
REMARK    3  A    between atoms: C6_6  and  C7_7 
REMARK    4  A    between atoms: C7_7  and  C9_9 
REMARK    5  A    between atoms: C30_31  and  O2_32 
ROOT
HETATM    1  C9  UNL     1       4.260  54.863  -9.280  1.00  0.00    -0.002 C 
HETATM    2  C10 UNL     1       3.823  55.968 -10.273  1.00  0.00     0.007 C 
HETATM    3  C11 UNL     1       2.393  55.608 -10.740  1.00  0.00     0.015 C 
HETATM    4  C12 UNL     1       1.910  54.508  -9.771  1.00  0.00    -0.010 C 
HETATM    5  C13 UNL     1       1.363  55.230  -8.497  1.00  0.00     0.021 C 
HETATM    6  C14 UNL     1       0.808  53.541 -10.204  1.00  0.00    -0.039 C 
HETATM    7  C15 UNL     1       0.743  52.308  -9.627  1.00  0.00    -0.066 C 
HETATM    8  C16 UNL     1       1.804  51.836  -8.619  1.00  0.00     0.036 C 
HETATM    9  C17 UNL     1       3.040  52.736  -8.393  1.00  0.00     0.015 C 
HETATM   10  C18 UNL     1       3.250  53.711  -9.557  1.00  0.00    -0.029 C 
HETATM   11  C19 UNL     1       3.686  52.887 -10.805  1.00  0.00     0.016 C 
HETATM   12  C20 UNL     1      -0.373  51.292  -9.996  1.00  0.00    -0.015 C 
HETATM   13  C21 UNL     1       0.269  50.321 -11.014  1.00  0.00     0.020 C 
HETATM   14  C22 UNL     1      -0.852  50.499  -8.754  1.00  0.00     0.021 C 
HETATM   15  C23 UNL     1      -2.014  49.564  -9.050  1.00  0.00     0.080 C 
HETATM   16  C24 UNL     1      -3.191  50.304  -9.635  1.00  0.00     0.135 C 
HETATM   17  O1  UNL     1      -4.330  50.045  -9.240  1.00  0.00    -0.297 OA
HETATM   18  C25 UNL     1      -2.931  51.263 -10.808  1.00  0.00     0.018 C 
HETATM   19  C26 UNL     1      -2.948  50.442 -12.106  1.00  0.00     0.023 C 
HETATM   20  C27 UNL     1      -4.129  52.248 -10.877  1.00  0.00     0.023 C 
HETATM   21  C28 UNL     1      -1.619  52.080 -10.544  1.00  0.00     0.016 C 
HETATM   22  C29 UNL     1      -1.185  52.975 -11.720  1.00  0.00     0.043 C 
HETATM   23  C30 UNL     1      -0.171  54.024 -11.252  1.00  0.00     0.148 C 
ENDROOT
BRANCH   1  24
HETATM   24  C7  UNL     1       5.781  54.525  -9.222  1.00  0.00    -0.014 C 
HETATM   25  C8  UNL     1       5.958  53.112  -8.637  1.00  0.00     0.010 C 
BRANCH  24  26
HETATM   26  C6  UNL     1       6.658  55.528  -8.433  1.00  0.00     0.008 C 
BRANCH  26  27
HETATM   27  C5  UNL     1       6.599  55.356  -6.906  1.00  0.00     0.028 C 
BRANCH  27  28
HETATM   28  C4  UNL     1       7.851  55.811  -6.204  1.00  0.00    -0.025 C 
HETATM   29  C2  UNL     1       8.033  56.966  -5.535  1.00  0.00    -0.091 C 
HETATM   30  C1  UNL     1       9.368  57.301  -4.924  1.00  0.00     0.042 C 
HETATM   31  C3  UNL     1       6.971  58.007  -5.316  1.00  0.00     0.042 C 
ENDBRANCH  27  28
ENDBRANCH  26  27
ENDBRANCH  24  26
ENDBRANCH   1  24
BRANCH  23  32
HETATM   32  O2  UNL     1      -0.888  55.126 -10.703  1.00  0.00    -0.391 OA
HETATM   33  H48 UNL     1      -1.414  55.516 -11.420  1.00  0.00     0.210 HD
ENDBRANCH  23  32
TORSDOF 5
ENDMDL
MODEL 5
REMARK minimizedAffinity -6.80779362
REMARK CNNscore 0.66737783
REMARK CNNaffinity 6.78248405
REMARK  5 active torsions:
REMARK  status: ('A' for Active; 'I' for Inactive)
REMARK    1  A    between atoms: C4_4  and  C5_5 
REMARK    2  A    between atoms: C5_5  and  C6_6 
REMARK    3  A    between atoms: C6_6  and  C7_7 
REMARK    4  A    between atoms: C7_7  and  C9_9 
REMARK    5  A    between atoms: C30_31  and  O2_32 
ROOT
HETATM    1  C9  UNL     1       2.396  55.585  -7.835  1.00  0.00    -0.002 C 
HETATM    2  C10 UNL     1       2.217  54.845  -6.486  1.00  0.00     0.007 C 
HETATM    3  C11 UNL     1       1.182  53.723  -6.727  1.00  0.00     0.015 C 
HETATM    4  C12 UNL     1       1.037  53.620  -8.260  1.00  0.00    -0.010 C 
HETATM    5  C13 UNL     1       2.205  52.716  -8.770  1.00  0.00     0.021 C 
HETATM    6  C14 UNL     1      -0.237  53.032  -8.868  1.00  0.00    -0.039 C 
HETATM    7  C15 UNL     1      -0.603  53.401 -10.127  1.00  0.00    -0.066 C 
HETATM    8  C16 UNL     1       0.185  54.462 -10.914  1.00  0.00     0.036 C 
HETATM    9  C17 UNL     1       1.314  55.218 -10.179  1.00  0.00     0.015 C 
HETATM   10  C18 UNL     1       1.151  55.139  -8.657  1.00  0.00    -0.029 C 
HETATM   11  C19 UNL     1      -0.099  55.979  -8.260  1.00  0.00     0.016 C 
HETATM   12  C20 UNL     1      -1.866  52.814 -10.816  1.00  0.00    -0.015 C 
HETATM   13  C21 UNL     1      -2.973  53.878 -10.633  1.00  0.00     0.020 C 
HETATM   14  C22 UNL     1      -1.627  52.568 -12.327  1.00  0.00     0.021 C 
HETATM   15  C23 UNL     1      -2.802  51.900 -13.021  1.00  0.00     0.080 C 
HETATM   16  C24 UNL     1      -3.162  50.588 -12.369  1.00  0.00     0.135 C 
HETATM   17  O1  UNL     1      -3.423  49.609 -13.074  1.00  0.00    -0.297 OA
HETATM   18  C25 UNL     1      -3.325  50.561 -10.841  1.00  0.00     0.018 C 
HETATM   19  C26 UNL     1      -4.761  50.990 -10.507  1.00  0.00     0.023 C 
HETATM   20  C27 UNL     1      -3.173  49.085 -10.384  1.00  0.00     0.023 C 
HETATM   21  C28 UNL     1      -2.193  51.416 -10.172  1.00  0.00     0.016 C 
HETATM   22  C29 UNL     1      -2.338  51.573  -8.647  1.00  0.00     0.043 C 
HETATM   23  C30 UNL     1      -1.019  52.046  -8.027  1.00  0.00     0.148 C 
ENDROOT
BRANCH   1  24
HETATM   24  C7  UNL     1       2.743  57.104  -7.770  1.00  0.00    -0.014 C 
HETATM   25  C8  UNL     1       4.265  57.277  -7.921  1.00  0.00     0.010 C 
BRANCH  24  26
HETATM   26  C6  UNL     1       2.257  57.845  -6.500  1.00  0.00     0.008 C 
BRANCH  26  27
HETATM   27  C5  UNL     1       3.387  58.286  -5.554  1.00  0.00     0.028 C 
BRANCH  27  28
HETATM   28  C4  UNL     1       2.925  58.520  -4.140  1.00  0.00    -0.025 C 
HETATM   29  C2  UNL     1       3.230  59.567  -3.349  1.00  0.00    -0.091 C 
HETATM   30  C1  UNL     1       2.728  59.635  -1.932  1.00  0.00     0.042 C 
HETATM   31  C3  UNL     1       4.062  60.747  -3.770  1.00  0.00     0.042 C 
ENDBRANCH  27  28
ENDBRANCH  26  27
ENDBRANCH  24  26
ENDBRANCH   1  24
BRANCH  23  32
HETATM   32  O2  UNL     1      -0.192  50.905  -7.811  1.00  0.00    -0.391 OA
HETATM   33  H48 UNL     1      -0.642  50.339  -7.164  1.00  0.00     0.210 HD
ENDBRANCH  23  32
TORSDOF 5
ENDMDL
MODEL 6
REMARK minimizedAffinity -7.41763306
REMARK CNNscore 0.660131991
REMARK CNNaffinity 6.83594513
REMARK  5 active torsions:
REMARK  status: ('A' for Active; 'I' for Inactive)
REMARK    1  A    between atoms: C4_4  and  C5_5 
REMARK    2  A    between atoms: C5_5  and  C6_6 
REMARK    3  A    between atoms: C6_6  and  C7_7 
REMARK    4  A    between atoms: C7_7  and  C9_9 
REMARK    5  A    between atoms: C30_31  and  O2_32 
ROOT
HETATM    1  C9  UNL     1      -1.240  53.249 -11.531  1.00  0.00    -0.002 C 
HETATM    2  C10 UNL     1      -0.340  52.491 -12.539  1.00  0.00     0.007 C 
HETATM    3  C11 UNL     1      -1.080  51.182 -12.899  1.00  0.00     0.015 C 
HETATM    4  C12 UNL     1      -2.516  51.362 -12.367  1.00  0.00    -0.010 C 
HETATM    5  C13 UNL     1      -3.309  52.163 -13.451  1.00  0.00     0.021 C 
HETATM    6  C14 UNL     1      -3.372  50.135 -12.052  1.00  0.00    -0.039 C 
HETATM    7  C15 UNL     1      -4.372  50.242 -11.132  1.00  0.00    -0.066 C 
HETATM    8  C16 UNL     1      -4.600  51.540 -10.340  1.00  0.00     0.036 C 
HETATM    9  C17 UNL     1      -3.565  52.675 -10.498  1.00  0.00     0.015 C 
HETATM   10  C18 UNL     1      -2.229  52.152 -11.037  1.00  0.00    -0.029 C 
HETATM   11  C19 UNL     1      -1.569  51.279  -9.928  1.00  0.00     0.016 C 
HETATM   12  C20 UNL     1      -5.301  49.043 -10.792  1.00  0.00    -0.015 C 
HETATM   13  C21 UNL     1      -4.733  48.434  -9.489  1.00  0.00     0.020 C 
HETATM   14  C22 UNL     1      -6.761  49.503 -10.558  1.00  0.00     0.021 C 
HETATM   15  C23 UNL     1      -7.724  48.351 -10.322  1.00  0.00     0.080 C 
HETATM   16  C24 UNL     1      -7.706  47.366 -11.464  1.00  0.00     0.135 C 
HETATM   17  O1  UNL     1      -8.769  46.910 -11.891  1.00  0.00    -0.297 OA
HETATM   18  C25 UNL     1      -6.341  46.862 -11.961  1.00  0.00     0.018 C 
HETATM   19  C26 UNL     1      -5.922  45.676 -11.080  1.00  0.00     0.023 C 
HETATM   20  C27 UNL     1      -6.546  46.312 -13.398  1.00  0.00     0.023 C 
HETATM   21  C28 UNL     1      -5.324  48.054 -12.016  1.00  0.00     0.016 C 
HETATM   22  C29 UNL     1      -3.883  47.639 -12.370  1.00  0.00     0.043 C 
HETATM   23  C30 UNL     1      -3.063  48.859 -12.805  1.00  0.00     0.148 C 
ENDROOT
BRANCH   1  24
HETATM   24  C7  UNL     1      -0.523  54.141 -10.472  1.00  0.00    -0.014 C 
HETATM   25  C8  UNL     1      -1.356  55.415 -10.243  1.00  0.00     0.010 C 
BRANCH  24  26
HETATM   26  C6  UNL     1       0.939  54.527 -10.805  1.00  0.00     0.008 C 
BRANCH  26  27
HETATM   27  C5  UNL     1       1.966  54.089  -9.747  1.00  0.00     0.028 C 
BRANCH  27  28
HETATM   28  C4  UNL     1       2.515  55.233  -8.936  1.00  0.00    -0.025 C 
HETATM   29  C2  UNL     1       3.254  56.265  -9.385  1.00  0.00    -0.091 C 
HETATM   30  C1  UNL     1       3.772  57.312  -8.435  1.00  0.00     0.042 C 
HETATM   31  C3  UNL     1       3.623  56.495 -10.824  1.00  0.00     0.042 C 
ENDBRANCH  27  28
ENDBRANCH  26  27
ENDBRANCH  24  26
ENDBRANCH   1  24
BRANCH  23  32
HETATM   32  O2  UNL     1      -3.315  49.097 -14.187  1.00  0.00    -0.391 OA
HETATM   33  H48 UNL     1      -2.988  48.326 -14.678  1.00  0.00     0.210 HD
ENDBRANCH  23  32
TORSDOF 5
ENDMDL
MODEL 7
REMARK minimizedAffinity -6.53696489
REMARK CNNscore 0.617963195
REMARK CNNaffinity 6.10474253
REMARK  5 active torsions:
REMARK  status: ('A' for Active; 'I' for Inactive)
REMARK    1  A    between atoms: C4_4  and  C5_5 
REMARK    2  A    between atoms: C5_5  and  C6_6 
REMARK    3  A    between atoms: C6_6  and  C7_7 
REMARK    4  A    between atoms: C7_7  and  C9_9 
REMARK    5  A    between atoms: C30_31  and  O2_32 
ROOT
HETATM    1  C9  UNL     1     -10.804  45.877 -27.104  1.00  0.00    -0.002 C 
HETATM    2  C10 UNL     1     -10.920  44.744 -28.154  1.00  0.00     0.007 C 
HETATM    3  C11 UNL     1     -12.406  44.316 -28.185  1.00  0.00     0.015 C 
HETATM    4  C12 UNL     1     -13.166  45.415 -27.414  1.00  0.00    -0.010 C 
HETATM    5  C13 UNL     1     -13.433  46.579 -28.423  1.00  0.00     0.021 C 
HETATM    6  C14 UNL     1     -14.520  45.101 -26.777  1.00  0.00    -0.039 C 
HETATM    7  C15 UNL     1     -14.934  45.833 -25.704  1.00  0.00    -0.066 C 
HETATM    8  C16 UNL     1     -14.033  46.903 -25.066  1.00  0.00     0.036 C 
HETATM    9  C17 UNL     1     -12.579  47.021 -25.573  1.00  0.00     0.015 C 
HETATM   10  C18 UNL     1     -12.121  45.743 -26.284  1.00  0.00    -0.029 C 
HETATM   11  C19 UNL     1     -11.990  44.616 -25.216  1.00  0.00     0.016 C 
HETATM   12  C20 UNL     1     -16.314  45.589 -25.033  1.00  0.00    -0.015 C 
HETATM   13  C21 UNL     1     -16.024  44.711 -23.793  1.00  0.00     0.020 C 
HETATM   14  C22 UNL     1     -16.971  46.918 -24.585  1.00  0.00     0.021 C 
HETATM   15  C23 UNL     1     -18.368  46.736 -24.014  1.00  0.00     0.080 C 
HETATM   16  C24 UNL     1     -19.286  46.049 -24.994  1.00  0.00     0.135 C 
HETATM   17  O1  UNL     1     -20.438  46.464 -25.142  1.00  0.00    -0.297 OA
HETATM   18  C25 UNL     1     -18.786  44.764 -25.673  1.00  0.00     0.018 C 
HETATM   19  C26 UNL     1     -19.088  43.583 -24.737  1.00  0.00     0.023 C 
HETATM   20  C27 UNL     1     -19.636  44.557 -26.955  1.00  0.00     0.023 C 
HETATM   21  C28 UNL     1     -17.283  44.931 -26.084  1.00  0.00     0.016 C 
HETATM   22  C29 UNL     1     -16.636  43.653 -26.650  1.00  0.00     0.043 C 
HETATM   23  C30 UNL     1     -15.340  43.990 -27.396  1.00  0.00     0.148 C 
ENDROOT
BRANCH   1  24
HETATM   24  C7  UNL     1      -9.453  45.993 -26.334  1.00  0.00    -0.014 C 
HETATM   25  C8  UNL     1      -8.945  44.579 -25.999  1.00  0.00     0.010 C 
BRANCH  24  26
HETATM   26  C6  UNL     1      -9.491  46.851 -25.046  1.00  0.00     0.008 C 
BRANCH  26  27
HETATM   27  C5  UNL     1      -8.512  46.394 -23.951  1.00  0.00     0.028 C 
BRANCH  27  28
HETATM   28  C4  UNL     1      -8.079  47.506 -23.034  1.00  0.00    -0.025 C 
HETATM   29  C2  UNL     1      -6.990  48.288 -23.164  1.00  0.00    -0.091 C 
HETATM   30  C1  UNL     1      -6.663  49.333 -22.131  1.00  0.00     0.042 C 
HETATM   31  C3  UNL     1      -6.020  48.225 -24.311  1.00  0.00     0.042 C 
ENDBRANCH  27  28
ENDBRANCH  26  27
ENDBRANCH  24  26
ENDBRANCH   1  24
BRANCH  23  32
HETATM   32  O2  UNL     1     -15.678  44.385 -28.723  1.00  0.00    -0.391 OA
HETATM   33  H48 UNL     1     -16.084  43.618 -29.159  1.00  0.00     0.210 HD
ENDBRANCH  23  32
TORSDOF 5
ENDMDL
MODEL 8
REMARK minimizedAffinity -7.74377537
REMARK CNNscore 0.600053012
REMARK CNNaffinity 5.61070776
REMARK  5 active torsions:
REMARK  status: ('A' for Active; 'I' for Inactive)
REMARK    1  A    between atoms: C4_4  and  C5_5 
REMARK    2  A    between atoms: C5_5  and  C6_6 
REMARK    3  A    between atoms: C6_6  and  C7_7 
REMARK    4  A    between atoms: C7_7  and  C9_9 
REMARK    5  A    between atoms: C30_31  and  O2_32 
ROOT
HETATM    1  C9  UNL     1       6.994  66.687 -36.365  1.00  0.00    -0.002 C 
HETATM    2  C10 UNL     1       7.754  66.712 -37.714  1.00  0.00     0.007 C 
HETATM    3  C11 UNL     1       6.751  67.207 -38.782  1.00  0.00     0.015 C 
HETATM    4  C12 UNL     1       5.552  67.769 -37.990  1.00  0.00    -0.010 C 
HETATM    5  C13 UNL     1       5.917  69.234 -37.587  1.00  0.00     0.021 C 
HETATM    6  C14 UNL     1       4.175  67.851 -38.648  1.00  0.00    -0.039 C 
HETATM    7  C15 UNL     1       3.061  67.832 -37.863  1.00  0.00    -0.066 C 
HETATM    8  C16 UNL     1       3.156  67.637 -36.341  1.00  0.00     0.036 C 
HETATM    9  C17 UNL     1       4.539  67.305 -35.738  1.00  0.00     0.015 C 
HETATM   10  C18 UNL     1       5.498  66.746 -36.795  1.00  0.00    -0.029 C 
HETATM   11  C19 UNL     1       4.990  65.334 -37.211  1.00  0.00     0.016 C 
HETATM   12  C20 UNL     1       1.634  67.948 -38.466  1.00  0.00    -0.015 C 
HETATM   13  C21 UNL     1       1.096  66.500 -38.543  1.00  0.00     0.020 C 
HETATM   14  C22 UNL     1       0.705  68.800 -37.566  1.00  0.00     0.021 C 
HETATM   15  C23 UNL     1      -0.674  69.025 -38.167  1.00  0.00     0.080 C 
HETATM   16  C24 UNL     1      -0.590  69.673 -39.526  1.00  0.00     0.135 C 
HETATM   17  O1  UNL     1      -1.367  70.587 -39.813  1.00  0.00    -0.297 OA
HETATM   18  C25 UNL     1       0.379  69.070 -40.556  1.00  0.00     0.018 C 
HETATM   19  C26 UNL     1      -0.345  67.921 -41.274  1.00  0.00     0.023 C 
HETATM   20  C27 UNL     1       0.664  70.164 -41.620  1.00  0.00     0.023 C 
HETATM   21  C28 UNL     1       1.726  68.683 -39.854  1.00  0.00     0.016 C 
HETATM   22  C29 UNL     1       2.723  67.942 -40.764  1.00  0.00     0.043 C 
HETATM   23  C30 UNL     1       4.130  67.969 -40.157  1.00  0.00     0.148 C 
ENDROOT
BRANCH   1  24
HETATM   24  C7  UNL     1       7.430  65.609 -35.326  1.00  0.00    -0.014 C 
HETATM   25  C8  UNL     1       8.185  64.485 -36.058  1.00  0.00     0.010 C 
BRANCH  24  26
HETATM   26  C6  UNL     1       6.288  65.001 -34.475  1.00  0.00     0.008 C 
BRANCH  26  27
HETATM   27  C5  UNL     1       6.397  63.482 -34.262  1.00  0.00     0.028 C 
BRANCH  27  28
HETATM   28  C4  UNL     1       5.196  62.887 -33.576  1.00  0.00    -0.025 C 
HETATM   29  C2  UNL     1       4.431  63.467 -32.632  1.00  0.00    -0.091 C 
HETATM   30  C1  UNL     1       3.285  62.720 -32.003  1.00  0.00     0.042 C 
HETATM   31  C3  UNL     1       4.610  64.870 -32.124  1.00  0.00     0.042 C 
ENDBRANCH  27  28
ENDBRANCH  26  27
ENDBRANCH  24  26
ENDBRANCH   1  24
BRANCH  23  32
HETATM   32  O2  UNL     1       4.748  69.202 -40.516  1.00  0.00    -0.391 OA
HETATM   33  H48 UNL     1       4.838  69.211 -41.482  1.00  0.00     0.210 HD
ENDBRANCH  23  32
TORSDOF 5
ENDMDL
MODEL 9
REMARK minimizedAffinity -7.1853137
REMARK CNNscore 0.561070263
REMARK CNNaffinity 6.85126114
REMARK  5 active torsions:
REMARK  status: ('A' for Active; 'I' for Inactive)
REMARK    1  A    between atoms: C4_4  and  C5_5 
REMARK    2  A    between atoms: C5_5  and  C6_6 
REMARK    3  A    between atoms: C6_6  and  C7_7 
REMARK    4  A    between atoms: C7_7  and  C9_9 
REMARK    5  A    between atoms: C30_31  and  O2_32 
ROOT
HETATM    1  C9  UNL     1       4.605  55.680  -8.523  1.00  0.00    -0.002 C 
HETATM    2  C10 UNL     1       5.416  54.651  -9.350  1.00  0.00     0.007 C 
HETATM    3  C11 UNL     1       4.391  53.823 -10.160  1.00  0.00     0.015 C 
HETATM    4  C12 UNL     1       3.060  54.595 -10.047  1.00  0.00    -0.010 C 
HETATM    5  C13 UNL     1       3.087  55.715 -11.138  1.00  0.00     0.021 C 
HETATM    6  C14 UNL     1       1.733  53.859 -10.243  1.00  0.00    -0.039 C 
HETATM    7  C15 UNL     1       0.608  54.353  -9.654  1.00  0.00    -0.066 C 
HETATM    8  C16 UNL     1       0.658  55.579  -8.727  1.00  0.00     0.036 C 
HETATM    9  C17 UNL     1       2.045  56.145  -8.350  1.00  0.00     0.015 C 
HETATM   10  C18 UNL     1       3.156  55.111  -8.564  1.00  0.00    -0.029 C 
HETATM   11  C19 UNL     1       2.979  53.984  -7.503  1.00  0.00     0.016 C 
HETATM   12  C20 UNL     1      -0.777  53.674  -9.842  1.00  0.00    -0.015 C 
HETATM   13  C21 UNL     1      -0.995  52.816  -8.574  1.00  0.00     0.020 C 
HETATM   14  C22 UNL     1      -1.912  54.722  -9.961  1.00  0.00     0.021 C 
HETATM   15  C23 UNL     1      -3.272  54.105 -10.247  1.00  0.00     0.080 C 
HETATM   16  C24 UNL     1      -3.252  53.269 -11.502  1.00  0.00     0.135 C 
HETATM   17  O1  UNL     1      -4.187  53.352 -12.303  1.00  0.00    -0.297 OA
HETATM   18  C25 UNL     1      -2.124  52.238 -11.666  1.00  0.00     0.018 C 
HETATM   19  C26 UNL     1      -2.551  50.948 -10.950  1.00  0.00     0.023 C 
HETATM   20  C27 UNL     1      -2.016  51.905 -13.178  1.00  0.00     0.023 C 
HETATM   21  C28 UNL     1      -0.765  52.858 -11.187  1.00  0.00     0.016 C 
HETATM   22  C29 UNL     1       0.413  51.866 -11.177  1.00  0.00     0.043 C 
HETATM   23  C30 UNL     1       1.747  52.616 -11.105  1.00  0.00     0.148 C 
ENDROOT
BRANCH   1  24
HETATM   24  C7  UNL     1       5.201  56.110  -7.148  1.00  0.00    -0.014 C 
HETATM   25  C8  UNL     1       4.792  57.566  -6.859  1.00  0.00     0.010 C 
BRANCH  24  26
HETATM   26  C6  UNL     1       6.736  55.963  -7.009  1.00  0.00     0.008 C 
BRANCH  26  27
HETATM   27  C5  UNL     1       7.180  54.916  -5.974  1.00  0.00     0.028 C 
BRANCH  27  28
HETATM   28  C4  UNL     1       6.464  53.599  -6.109  1.00  0.00    -0.025 C 
HETATM   29  C2  UNL     1       6.891  52.395  -5.683  1.00  0.00    -0.091 C 
HETATM   30  C1  UNL     1       6.077  51.154  -5.937  1.00  0.00     0.042 C 
HETATM   31  C3  UNL     1       8.168  52.156  -4.927  1.00  0.00     0.042 C 
ENDBRANCH  27  28
ENDBRANCH  26  27
ENDBRANCH  24  26
ENDBRANCH   1  24
BRANCH  23  32
HETATM   32  O2  UNL     1       2.112  53.007 -12.427  1.00  0.00    -0.391 OA
HETATM   33  H48 UNL     1       2.251  52.195 -12.941  1.00  0.00     0.210 HD
ENDBRANCH  23  32
TORSDOF 5
ENDMDL
