MODEL 1
REMARK minimizedAffinity -7.96895218
REMARK CNNscore 0.700211346
REMARK CNNaffinity 6.70498514
REMARK  8 active torsions:
REMARK  status: ('A' for Active; 'I' for Inactive)
REMARK    1  A    between atoms: C2_2  and  C30_34 
REMARK    2  A    between atoms: C3_3  and  C4_4 
REMARK    3  A    between atoms: C4_4  and  O1_5 
REMARK    4  A    between atoms: C4_4  and  C5_6 
REMARK    5  A    between atoms: C5_6  and  C6_7 
REMARK    6  A    between atoms: C6_7  and  C8_9 
REMARK    7  A    between atoms: C10_11  and  O2_12 
REMARK    8  A    between atoms: C30_34  and  O6_36 
ROOT
HETATM    1  C8  UNL     1      -3.618  50.846 -10.452  1.00  0.00     0.001 C 
HETATM    2  C9  UNL     1      -4.368  52.164 -10.798  1.00  0.00     0.038 C 
HETATM    3  C10 UNL     1      -3.319  53.294 -10.767  1.00  0.00     0.131 C 
HETATM    4  C11 UNL     1      -1.956  52.559 -10.879  1.00  0.00     0.014 C 
HETATM    5  C12 UNL     1      -1.709  52.197 -12.380  1.00  0.00     0.023 C 
HETATM    6  C13 UNL     1      -0.673  53.261 -10.435  1.00  0.00    -0.058 C 
HETATM    7  C14 UNL     1       0.411  52.552 -10.025  1.00  0.00    -0.000 C 
HETATM    8  C15 UNL     1       0.282  51.038  -9.889  1.00  0.00     0.157 C 
HETATM    9  O3  UNL     1       1.262  50.341  -9.625  1.00  0.00    -0.293 OA
HETATM   10  C16 UNL     1      -1.069  50.357 -10.079  1.00  0.00     0.094 C 
HETATM   11  C17 UNL     1      -2.233  51.336  -9.927  1.00  0.00    -0.019 C 
HETATM   12  C18 UNL     1      -2.328  51.736  -8.425  1.00  0.00     0.017 C 
HETATM   13  C19 UNL     1       1.773  53.206  -9.678  1.00  0.00    -0.008 C 
HETATM   14  C20 UNL     1       1.910  53.131  -8.137  1.00  0.00     0.021 C 
HETATM   15  C21 UNL     1       2.970  52.441 -10.330  1.00  0.00     0.022 C 
HETATM   16  C22 UNL     1       4.197  53.282 -10.674  1.00  0.00     0.080 C 
HETATM   17  C23 UNL     1       4.305  54.511  -9.807  1.00  0.00     0.135 C 
HETATM   18  O4  UNL     1       5.327  54.742  -9.161  1.00  0.00    -0.297 OA
HETATM   19  C24 UNL     1       3.122  55.483  -9.851  1.00  0.00     0.018 C 
HETATM   20  C25 UNL     1       3.034  56.261  -8.525  1.00  0.00     0.023 C 
HETATM   21  C26 UNL     1       3.438  56.507 -10.964  1.00  0.00     0.023 C 
HETATM   22  C27 UNL     1       1.824  54.685 -10.220  1.00  0.00     0.014 C 
HETATM   23  C28 UNL     1       0.532  55.441  -9.894  1.00  0.00     0.011 C 
HETATM   24  C29 UNL     1      -0.666  54.766 -10.554  1.00  0.00     0.036 C 
ENDROOT
BRANCH   1  25
HETATM   25  C6  UNL     1      -4.502  49.804  -9.702  1.00  0.00    -0.011 C 
HETATM   26  C7  UNL     1      -3.781  48.598  -9.088  1.00  0.00     0.010 C 
BRANCH  25  27
HETATM   27  C5  UNL     1      -5.693  49.342 -10.572  1.00  0.00     0.040 C 
BRANCH  27  28
HETATM   28  C4  UNL     1      -7.078  49.836 -10.115  1.00  0.00     0.142 C 
BRANCH  28  29
HETATM   29  C3  UNL     1      -8.201  49.179 -10.857  1.00  0.00     0.018 C 
HETATM   30  C2  UNL     1      -8.487  47.864 -10.944  1.00  0.00     0.010 C 
HETATM   31  C1  UNL     1      -7.720  46.742 -10.315  1.00  0.00     0.055 C 
BRANCH  30  32
HETATM   32  C30 UNL     1      -9.687  47.509 -11.746  1.00  0.00     0.171 C 
HETATM   33  O5  UNL     1     -10.545  46.693 -11.457  1.00  0.00    -0.646 OA
BRANCH  32  34
HETATM   34  O6  UNL     1      -9.749  48.191 -12.901  1.00  0.00    -0.773 OA
HETATM   35  H44 UNL     1     -10.578  47.868 -13.310  1.00  0.00     0.167 HD
ENDBRANCH  32  34
ENDBRANCH  30  32
ENDBRANCH  28  29
BRANCH  28  36
HETATM   36  O1  UNL     1      -7.255  49.478  -8.746  1.00  0.00    -0.392 OA
HETATM   37  H6  UNL     1      -6.546  49.906  -8.236  1.00  0.00     0.210 HD
ENDBRANCH  28  36
ENDBRANCH  27  28
ENDBRANCH  25  27
ENDBRANCH   1  25
BRANCH   3  38
HETATM   38  O2  UNL     1      -3.546  54.221 -11.818  1.00  0.00    -0.394 OA
HETATM   39  H17 UNL     1      -4.457  54.551 -11.728  1.00  0.00     0.210 HD
ENDBRANCH   3  38
TORSDOF 8
ENDMDL
MODEL 2
REMARK minimizedAffinity -8.41903877
REMARK CNNscore 0.627929807
REMARK CNNaffinity 6.65516806
REMARK  8 active torsions:
REMARK  status: ('A' for Active; 'I' for Inactive)
REMARK    1  A    between atoms: C2_2  and  C30_34 
REMARK    2  A    between atoms: C3_3  and  C4_4 
REMARK    3  A    between atoms: C4_4  and  O1_5 
REMARK    4  A    between atoms: C4_4  and  C5_6 
REMARK    5  A    between atoms: C5_6  and  C6_7 
REMARK    6  A    between atoms: C6_7  and  C8_9 
REMARK    7  A    between atoms: C10_11  and  O2_12 
REMARK    8  A    between atoms: C30_34  and  O6_36 
ROOT
HETATM    1  C8  UNL     1      -3.225  49.095 -22.457  1.00  0.00     0.001 C 
HETATM    2  C9  UNL     1      -3.444  48.808 -23.971  1.00  0.00     0.038 C 
HETATM    3  C10 UNL     1      -4.871  48.241 -24.114  1.00  0.00     0.131 C 
HETATM    4  C11 UNL     1      -5.584  48.654 -22.798  1.00  0.00     0.014 C 
HETATM    5  C12 UNL     1      -6.028  50.147 -22.923  1.00  0.00     0.023 C 
HETATM    6  C13 UNL     1      -6.843  47.913 -22.350  1.00  0.00    -0.058 C 
HETATM    7  C14 UNL     1      -7.197  47.856 -21.039  1.00  0.00    -0.000 C 
HETATM    8  C15 UNL     1      -6.241  48.436 -20.001  1.00  0.00     0.157 C 
HETATM    9  O3  UNL     1      -6.562  48.504 -18.815  1.00  0.00    -0.293 OA
HETATM   10  C16 UNL     1      -4.864  48.943 -20.416  1.00  0.00     0.094 C 
HETATM   11  C17 UNL     1      -4.427  48.377 -21.768  1.00  0.00    -0.019 C 
HETATM   12  C18 UNL     1      -4.122  46.863 -21.577  1.00  0.00     0.017 C 
HETATM   13  C19 UNL     1      -8.521  47.222 -20.542  1.00  0.00    -0.008 C 
HETATM   14  C20 UNL     1      -8.134  45.887 -19.860  1.00  0.00     0.021 C 
HETATM   15  C21 UNL     1      -9.247  48.131 -19.498  1.00  0.00     0.022 C 
HETATM   16  C22 UNL     1     -10.770  48.026 -19.462  1.00  0.00     0.080 C 
HETATM   17  C23 UNL     1     -11.261  46.688 -19.956  1.00  0.00     0.135 C 
HETATM   18  O4  UNL     1     -12.000  45.990 -19.263  1.00  0.00    -0.297 OA
HETATM   19  C24 UNL     1     -10.862  46.301 -21.383  1.00  0.00     0.018 C 
HETATM   20  C25 UNL     1     -10.819  44.767 -21.517  1.00  0.00     0.023 C 
HETATM   21  C26 UNL     1     -11.991  46.810 -22.306  1.00  0.00     0.023 C 
HETATM   22  C27 UNL     1      -9.517  47.020 -21.747  1.00  0.00     0.014 C 
HETATM   23  C28 UNL     1      -8.807  46.406 -22.958  1.00  0.00     0.011 C 
HETATM   24  C29 UNL     1      -7.693  47.324 -23.450  1.00  0.00     0.036 C 
ENDROOT
BRANCH   1  25
HETATM   25  C6  UNL     1      -1.745  48.925 -21.999  1.00  0.00    -0.011 C 
HETATM   26  C7  UNL     1      -1.503  48.099 -20.730  1.00  0.00     0.010 C 
BRANCH  25  27
HETATM   27  C5  UNL     1      -1.021  50.289 -21.907  1.00  0.00     0.040 C 
BRANCH  27  28
HETATM   28  C4  UNL     1      -1.012  50.941 -20.512  1.00  0.00     0.142 C 
BRANCH  28  29
HETATM   29  C3  UNL     1      -0.046  52.082 -20.414  1.00  0.00     0.018 C 
HETATM   30  C2  UNL     1       0.383  52.900 -21.396  1.00  0.00     0.010 C 
HETATM   31  C1  UNL     1      -0.009  52.838 -22.841  1.00  0.00     0.055 C 
BRANCH  30  32
HETATM   32  C30 UNL     1       1.338  53.963 -20.990  1.00  0.00     0.171 C 
HETATM   33  O5  UNL     1       2.057  54.620 -21.723  1.00  0.00    -0.646 OA
BRANCH  32  34
HETATM   34  O6  UNL     1       1.361  54.147 -19.660  1.00  0.00    -0.773 OA
HETATM   35  H44 UNL     1       2.013  54.869 -19.543  1.00  0.00     0.167 HD
ENDBRANCH  32  34
ENDBRANCH  30  32
ENDBRANCH  28  29
BRANCH  28  36
HETATM   36  O1  UNL     1      -2.300  51.500 -20.267  1.00  0.00    -0.392 OA
HETATM   37  H6  UNL     1      -2.948  50.777 -20.309  1.00  0.00     0.210 HD
ENDBRANCH  28  36
ENDBRANCH  27  28
ENDBRANCH  25  27
ENDBRANCH   1  25
BRANCH   3  38
HETATM   38  O2  UNL     1      -5.500  48.750 -25.279  1.00  0.00    -0.394 OA
HETATM   39  H17 UNL     1      -4.932  48.534 -26.039  1.00  0.00     0.210 HD
ENDBRANCH   3  38
TORSDOF 8
ENDMDL
MODEL 3
REMARK minimizedAffinity -8.01069069
REMARK CNNscore 0.603483081
REMARK CNNaffinity 6.45213509
REMARK  8 active torsions:
REMARK  status: ('A' for Active; 'I' for Inactive)
REMARK    1  A    between atoms: C2_2  and  C30_34 
REMARK    2  A    between atoms: C3_3  and  C4_4 
REMARK    3  A    between atoms: C4_4  and  O1_5 
REMARK    4  A    between atoms: C4_4  and  C5_6 
REMARK    5  A    between atoms: C5_6  and  C6_7 
REMARK    6  A    between atoms: C6_7  and  C8_9 
REMARK    7  A    between atoms: C10_11  and  O2_12 
REMARK    8  A    between atoms: C30_34  and  O6_36 
ROOT
HETATM    1  C8  UNL     1     -12.956  44.760 -27.506  1.00  0.00     0.001 C 
HETATM    2  C9  UNL     1     -12.974  43.543 -28.475  1.00  0.00     0.038 C 
HETATM    3  C10 UNL     1     -11.742  43.686 -29.391  1.00  0.00     0.131 C 
HETATM    4  C11 UNL     1     -10.814  44.678 -28.640  1.00  0.00     0.014 C 
HETATM    5  C12 UNL     1     -10.052  43.895 -27.522  1.00  0.00     0.023 C 
HETATM    6  C13 UNL     1      -9.721  45.425 -29.403  1.00  0.00    -0.058 C 
HETATM    7  C14 UNL     1      -9.251  46.623 -28.965  1.00  0.00    -0.000 C 
HETATM    8  C15 UNL     1      -9.929  47.277 -27.766  1.00  0.00     0.157 C 
HETATM    9  O3  UNL     1      -9.475  48.307 -27.267  1.00  0.00    -0.293 OA
HETATM   10  C16 UNL     1     -11.187  46.664 -27.159  1.00  0.00     0.094 C 
HETATM   11  C17 UNL     1     -11.886  45.711 -28.128  1.00  0.00    -0.019 C 
HETATM   12  C18 UNL     1     -12.512  46.564 -29.271  1.00  0.00     0.017 C 
HETATM   13  C19 UNL     1      -8.065  47.366 -29.632  1.00  0.00    -0.008 C 
HETATM   14  C20 UNL     1      -8.675  48.574 -30.382  1.00  0.00     0.021 C 
HETATM   15  C21 UNL     1      -7.039  47.891 -28.576  1.00  0.00     0.022 C 
HETATM   16  C22 UNL     1      -5.587  47.986 -29.040  1.00  0.00     0.080 C 
HETATM   17  C23 UNL     1      -5.477  48.155 -30.534  1.00  0.00     0.135 C 
HETATM   18  O4  UNL     1      -4.849  49.096 -31.019  1.00  0.00    -0.297 OA
HETATM   19  C24 UNL     1      -6.106  47.054 -31.393  1.00  0.00     0.018 C 
HETATM   20  C25 UNL     1      -6.518  47.629 -32.761  1.00  0.00     0.023 C 
HETATM   21  C26 UNL     1      -4.996  46.011 -31.649  1.00  0.00     0.023 C 
HETATM   22  C27 UNL     1      -7.278  46.391 -30.590  1.00  0.00     0.014 C 
HETATM   23  C28 UNL     1      -8.238  45.583 -31.470  1.00  0.00     0.011 C 
HETATM   24  C29 UNL     1      -9.154  44.718 -30.611  1.00  0.00     0.036 C 
ENDROOT
BRANCH   1  25
HETATM   25  C6  UNL     1     -14.376  45.232 -27.072  1.00  0.00    -0.011 C 
HETATM   26  C7  UNL     1     -15.472  45.207 -28.144  1.00  0.00     0.010 C 
BRANCH  25  27
HETATM   27  C5  UNL     1     -14.326  46.613 -26.378  1.00  0.00     0.040 C 
BRANCH  27  28
HETATM   28  C4  UNL     1     -14.626  46.606 -24.867  1.00  0.00     0.142 C 
BRANCH  28  29
HETATM   29  C3  UNL     1     -16.044  46.977 -24.558  1.00  0.00     0.018 C 
HETATM   30  C2  UNL     1     -17.136  46.185 -24.570  1.00  0.00     0.010 C 
HETATM   31  C1  UNL     1     -17.176  44.729 -24.918  1.00  0.00     0.055 C 
BRANCH  30  32
HETATM   32  C30 UNL     1     -18.419  46.837 -24.198  1.00  0.00     0.171 C 
HETATM   33  O5  UNL     1     -19.108  47.552 -24.904  1.00  0.00    -0.646 OA
BRANCH  32  34
HETATM   34  O6  UNL     1     -18.777  46.572 -22.931  1.00  0.00    -0.773 OA
HETATM   35  H44 UNL     1     -19.627  47.048 -22.832  1.00  0.00     0.167 HD
ENDBRANCH  32  34
ENDBRANCH  30  32
ENDBRANCH  28  29
BRANCH  28  36
HETATM   36  O1  UNL     1     -14.458  45.276 -24.381  1.00  0.00    -0.392 OA
HETATM   37  H6  UNL     1     -13.538  45.013 -24.555  1.00  0.00     0.210 HD
ENDBRANCH  28  36
ENDBRANCH  27  28
ENDBRANCH  25  27
ENDBRANCH   1  25
BRANCH   3  38
HETATM   38  O2  UNL     1     -11.141  42.422 -29.627  1.00  0.00    -0.394 OA
HETATM   39  H17 UNL     1     -11.822  41.836 -30.001  1.00  0.00     0.210 HD
ENDBRANCH   3  38
TORSDOF 8
ENDMDL
MODEL 4
REMARK minimizedAffinity -7.95139217
REMARK CNNscore 0.474658579
REMARK CNNaffinity 6.17220831
REMARK  8 active torsions:
REMARK  status: ('A' for Active; 'I' for Inactive)
REMARK    1  A    between atoms: C2_2  and  C30_34 
REMARK    2  A    between atoms: C3_3  and  C4_4 
REMARK    3  A    between atoms: C4_4  and  O1_5 
REMARK    4  A    between atoms: C4_4  and  C5_6 
REMARK    5  A    between atoms: C5_6  and  C6_7 
REMARK    6  A    between atoms: C6_7  and  C8_9 
REMARK    7  A    between atoms: C10_11  and  O2_12 
REMARK    8  A    between atoms: C30_34  and  O6_36 
ROOT
HETATM    1  C8  UNL     1      -8.700  46.169 -30.529  1.00  0.00     0.001 C 
HETATM    2  C9  UNL     1      -8.038  44.770 -30.691  1.00  0.00     0.038 C 
HETATM    3  C10 UNL     1      -9.050  43.735 -30.159  1.00  0.00     0.131 C 
HETATM    4  C11 UNL     1     -10.407  44.488 -30.155  1.00  0.00     0.014 C 
HETATM    5  C12 UNL     1     -10.979  44.488 -31.610  1.00  0.00     0.023 C 
HETATM    6  C13 UNL     1     -11.558  43.978 -29.288  1.00  0.00    -0.058 C 
HETATM    7  C14 UNL     1     -12.530  44.819 -28.844  1.00  0.00    -0.000 C 
HETATM    8  C15 UNL     1     -12.381  46.312 -29.117  1.00  0.00     0.157 C 
HETATM    9  O3  UNL     1     -13.283  47.100 -28.830  1.00  0.00    -0.293 OA
HETATM   10  C16 UNL     1     -11.108  46.859 -29.753  1.00  0.00     0.094 C 
HETATM   11  C17 UNL     1      -9.934  45.889 -29.616  1.00  0.00    -0.019 C 
HETATM   12  C18 UNL     1      -9.510  45.860 -28.118  1.00  0.00     0.017 C 
HETATM   13  C19 UNL     1     -13.779  44.337 -28.063  1.00  0.00    -0.008 C 
HETATM   14  C20 UNL     1     -13.576  44.788 -26.597  1.00  0.00     0.021 C 
HETATM   15  C21 UNL     1     -15.094  44.980 -28.613  1.00  0.00     0.022 C 
HETATM   16  C22 UNL     1     -16.362  44.142 -28.469  1.00  0.00     0.080 C 
HETATM   17  C23 UNL     1     -16.272  43.166 -27.322  1.00  0.00     0.135 C 
HETATM   18  O4  UNL     1     -17.126  43.150 -26.437  1.00  0.00    -0.297 OA
HETATM   19  C24 UNL     1     -15.123  42.155 -27.377  1.00  0.00     0.018 C 
HETATM   20  C25 UNL     1     -14.742  41.717 -25.950  1.00  0.00     0.023 C 
HETATM   21  C26 UNL     1     -15.670  40.909 -28.109  1.00  0.00     0.023 C 
HETATM   22  C27 UNL     1     -13.941  42.774 -28.200  1.00  0.00     0.014 C 
HETATM   23  C28 UNL     1     -12.605  42.056 -27.981  1.00  0.00     0.011 C 
HETATM   24  C29 UNL     1     -11.584  42.491 -29.027  1.00  0.00     0.036 C 
ENDROOT
BRANCH   1  25
HETATM   25  C6  UNL     1      -7.679  47.315 -30.266  1.00  0.00    -0.011 C 
HETATM   26  C7  UNL     1      -7.349  48.234 -31.448  1.00  0.00     0.010 C 
BRANCH  25  27
HETATM   27  C5  UNL     1      -6.382  46.779 -29.614  1.00  0.00     0.040 C 
BRANCH  27  28
HETATM   28  C4  UNL     1      -6.019  47.401 -28.254  1.00  0.00     0.142 C 
BRANCH  28  29
HETATM   29  C3  UNL     1      -4.955  48.451 -28.364  1.00  0.00     0.018 C 
HETATM   30  C2  UNL     1      -4.105  48.881 -27.410  1.00  0.00     0.010 C 
HETATM   31  C1  UNL     1      -4.043  48.403 -25.992  1.00  0.00     0.055 C 
BRANCH  30  32
HETATM   32  C30 UNL     1      -3.139  49.932 -27.822  1.00  0.00     0.171 C 
HETATM   33  O5  UNL     1      -2.119  50.257 -27.241  1.00  0.00    -0.646 OA
BRANCH  32  34
HETATM   34  O6  UNL     1      -3.511  50.551 -28.955  1.00  0.00    -0.773 OA
HETATM   35  H44 UNL     1      -2.790  51.196 -29.107  1.00  0.00     0.167 HD
ENDBRANCH  32  34
ENDBRANCH  30  32
ENDBRANCH  28  29
BRANCH  28  36
HETATM   36  O1  UNL     1      -7.170  48.068 -27.741  1.00  0.00    -0.392 OA
HETATM   37  H6  UNL     1      -7.875  47.405 -27.643  1.00  0.00     0.210 HD
ENDBRANCH  28  36
ENDBRANCH  27  28
ENDBRANCH  25  27
ENDBRANCH   1  25
BRANCH   3  38
HETATM   38  O2  UNL     1      -9.054  42.571 -30.972  1.00  0.00    -0.394 OA
HETATM   39  H17 UNL     1      -8.144  42.228 -31.000  1.00  0.00     0.210 HD
ENDBRANCH   3  38
TORSDOF 8
ENDMDL
MODEL 5
REMARK minimizedAffinity -8.50749016
REMARK CNNscore 0.473754644
REMARK CNNaffinity 6.68235397
REMARK  8 active torsions:
REMARK  status: ('A' for Active; 'I' for Inactive)
REMARK    1  A    between atoms: C2_2  and  C30_34 
REMARK    2  A    between atoms: C3_3  and  C4_4 
REMARK    3  A    between atoms: C4_4  and  O1_5 
REMARK    4  A    between atoms: C4_4  and  C5_6 
REMARK    5  A    between atoms: C5_6  and  C6_7 
REMARK    6  A    between atoms: C6_7  and  C8_9 
REMARK    7  A    between atoms: C10_11  and  O2_12 
REMARK    8  A    between atoms: C30_34  and  O6_36 
ROOT
HETATM    1  C8  UNL     1      -3.339  48.828 -21.447  1.00  0.00     0.001 C 
HETATM    2  C9  UNL     1      -2.653  50.000 -22.208  1.00  0.00     0.038 C 
HETATM    3  C10 UNL     1      -1.664  50.652 -21.221  1.00  0.00     0.131 C 
HETATM    4  C11 UNL     1      -1.456  49.580 -20.117  1.00  0.00     0.014 C 
HETATM    5  C12 UNL     1      -0.434  48.520 -20.641  1.00  0.00     0.023 C 
HETATM    6  C13 UNL     1      -0.918  49.993 -18.748  1.00  0.00    -0.058 C 
HETATM    7  C14 UNL     1      -1.194  49.263 -17.635  1.00  0.00    -0.000 C 
HETATM    8  C15 UNL     1      -2.163  48.092 -17.754  1.00  0.00     0.157 C 
HETATM    9  O3  UNL     1      -2.363  47.338 -16.802  1.00  0.00    -0.293 OA
HETATM   10  C16 UNL     1      -2.907  47.833 -19.060  1.00  0.00     0.094 C 
HETATM   11  C17 UNL     1      -2.937  49.069 -19.959  1.00  0.00    -0.019 C 
HETATM   12  C18 UNL     1      -3.881  50.117 -19.301  1.00  0.00     0.017 C 
HETATM   13  C19 UNL     1      -0.579  49.568 -16.245  1.00  0.00    -0.008 C 
HETATM   14  C20 UNL     1      -1.720  50.166 -15.387  1.00  0.00     0.021 C 
HETATM   15  C21 UNL     1      -0.046  48.274 -15.547  1.00  0.00     0.022 C 
HETATM   16  C22 UNL     1       1.136  48.461 -14.599  1.00  0.00     0.080 C 
HETATM   17  C23 UNL     1       1.194  49.856 -14.029  1.00  0.00     0.135 C 
HETATM   18  O4  UNL     1       1.226  50.041 -12.813  1.00  0.00    -0.297 OA
HETATM   19  C24 UNL     1       1.300  51.002 -15.040  1.00  0.00     0.018 C 
HETATM   20  C25 UNL     1       0.693  52.285 -14.442  1.00  0.00     0.023 C 
HETATM   21  C26 UNL     1       2.807  51.261 -15.251  1.00  0.00     0.023 C 
HETATM   22  C27 UNL     1       0.647  50.548 -16.392  1.00  0.00     0.014 C 
HETATM   23  C28 UNL     1       0.318  51.713 -17.330  1.00  0.00     0.011 C 
HETATM   24  C29 UNL     1      -0.012  51.201 -18.728  1.00  0.00     0.036 C 
ENDROOT
BRANCH   1  25
HETATM   25  C6  UNL     1      -4.802  48.557 -21.909  1.00  0.00    -0.011 C 
HETATM   26  C7  UNL     1      -5.614  47.553 -21.082  1.00  0.00     0.010 C 
BRANCH  25  27
HETATM   27  C5  UNL     1      -4.864  48.202 -23.413  1.00  0.00     0.040 C 
BRANCH  27  28
HETATM   28  C4  UNL     1      -4.954  49.402 -24.373  1.00  0.00     0.142 C 
BRANCH  28  29
HETATM   29  C3  UNL     1      -5.175  48.989 -25.796  1.00  0.00     0.018 C 
HETATM   30  C2  UNL     1      -4.256  48.632 -26.715  1.00  0.00     0.010 C 
HETATM   31  C1  UNL     1      -2.772  48.582 -26.517  1.00  0.00     0.055 C 
BRANCH  30  32
HETATM   32  C30 UNL     1      -4.781  48.252 -28.052  1.00  0.00     0.171 C 
HETATM   33  O5  UNL     1      -4.131  47.925 -29.028  1.00  0.00    -0.646 OA
BRANCH  32  34
HETATM   34  O6  UNL     1      -6.122  48.318 -28.110  1.00  0.00    -0.773 OA
HETATM   35  H44 UNL     1      -6.322  48.037 -29.027  1.00  0.00     0.167 HD
ENDBRANCH  32  34
ENDBRANCH  30  32
ENDBRANCH  28  29
BRANCH  28  36
HETATM   36  O1  UNL     1      -6.091  50.183 -24.014  1.00  0.00    -0.392 OA
HETATM   37  H6  UNL     1      -5.966  50.480 -23.096  1.00  0.00     0.210 HD
ENDBRANCH  28  36
ENDBRANCH  27  28
ENDBRANCH  25  27
ENDBRANCH   1  25
BRANCH   3  38
HETATM   38  O2  UNL     1      -0.462  51.019 -21.882  1.00  0.00    -0.394 OA
HETATM   39  H17 UNL     1      -0.700  51.606 -22.621  1.00  0.00     0.210 HD
ENDBRANCH   3  38
TORSDOF 8
ENDMDL
MODEL 6
REMARK minimizedAffinity -8.39889431
REMARK CNNscore 0.443996072
REMARK CNNaffinity 6.43849754
REMARK  8 active torsions:
REMARK  status: ('A' for Active; 'I' for Inactive)
REMARK    1  A    between atoms: C2_2  and  C30_34 
REMARK    2  A    between atoms: C3_3  and  C4_4 
REMARK    3  A    between atoms: C4_4  and  O1_5 
REMARK    4  A    between atoms: C4_4  and  C5_6 
REMARK    5  A    between atoms: C5_6  and  C6_7 
REMARK    6  A    between atoms: C6_7  and  C8_9 
REMARK    7  A    between atoms: C10_11  and  O2_12 
REMARK    8  A    between atoms: C30_34  and  O6_36 
ROOT
HETATM    1  C8  UNL     1      -4.190  49.241 -22.579  1.00  0.00     0.001 C 
HETATM    2  C9  UNL     1      -4.660  47.758 -22.539  1.00  0.00     0.038 C 
HETATM    3  C10 UNL     1      -4.431  47.258 -21.098  1.00  0.00     0.131 C 
HETATM    4  C11 UNL     1      -4.296  48.555 -20.256  1.00  0.00     0.014 C 
HETATM    5  C12 UNL     1      -5.728  49.113 -19.971  1.00  0.00     0.023 C 
HETATM    6  C13 UNL     1      -3.620  48.505 -18.886  1.00  0.00    -0.058 C 
HETATM    7  C14 UNL     1      -3.023  49.606 -18.356  1.00  0.00    -0.000 C 
HETATM    8  C15 UNL     1      -2.922  50.863 -19.214  1.00  0.00     0.157 C 
HETATM    9  O3  UNL     1      -2.486  51.914 -18.745  1.00  0.00    -0.293 OA
HETATM   10  C16 UNL     1      -3.359  50.840 -20.674  1.00  0.00     0.094 C 
HETATM   11  C17 UNL     1      -3.417  49.419 -21.235  1.00  0.00    -0.019 C 
HETATM   12  C18 UNL     1      -1.957  48.899 -21.372  1.00  0.00     0.017 C 
HETATM   13  C19 UNL     1      -2.428  49.644 -16.926  1.00  0.00    -0.008 C 
HETATM   14  C20 UNL     1      -0.889  49.647 -17.094  1.00  0.00     0.021 C 
HETATM   15  C21 UNL     1      -2.855  50.934 -16.152  1.00  0.00     0.022 C 
HETATM   16  C22 UNL     1      -2.963  50.801 -14.635  1.00  0.00     0.080 C 
HETATM   17  C23 UNL     1      -2.084  49.701 -14.095  1.00  0.00     0.135 C 
HETATM   18  O4  UNL     1      -1.261  49.927 -13.209  1.00  0.00    -0.297 OA
HETATM   19  C24 UNL     1      -2.339  48.294 -14.644  1.00  0.00     0.018 C 
HETATM   20  C25 UNL     1      -1.046  47.460 -14.565  1.00  0.00     0.023 C 
HETATM   21  C26 UNL     1      -3.369  47.635 -13.700  1.00  0.00     0.023 C 
HETATM   22  C27 UNL     1      -2.944  48.413 -16.085  1.00  0.00     0.014 C 
HETATM   23  C28 UNL     1      -2.856  47.114 -16.892  1.00  0.00     0.011 C 
HETATM   24  C29 UNL     1      -3.727  47.197 -18.141  1.00  0.00     0.036 C 
ENDROOT
BRANCH   1  25
HETATM   25  C6  UNL     1      -3.620  49.677 -23.962  1.00  0.00    -0.011 C 
HETATM   26  C7  UNL     1      -3.355  48.565 -24.984  1.00  0.00     0.010 C 
BRANCH  25  27
HETATM   27  C5  UNL     1      -2.374  50.578 -23.802  1.00  0.00     0.040 C 
BRANCH  27  28
HETATM   28  C4  UNL     1      -2.553  52.041 -24.246  1.00  0.00     0.142 C 
BRANCH  28  29
HETATM   29  C3  UNL     1      -1.305  52.623 -24.837  1.00  0.00     0.018 C 
HETATM   30  C2  UNL     1      -0.519  52.107 -25.803  1.00  0.00     0.010 C 
HETATM   31  C1  UNL     1      -0.716  50.800 -26.507  1.00  0.00     0.055 C 
BRANCH  30  32
HETATM   32  C30 UNL     1       0.654  52.928 -26.199  1.00  0.00     0.171 C 
HETATM   33  O5  UNL     1       1.811  52.556 -26.291  1.00  0.00    -0.646 OA
BRANCH  32  34
HETATM   34  O6  UNL     1       0.322  54.206 -26.448  1.00  0.00    -0.773 OA
HETATM   35  H44 UNL     1       1.175  54.616 -26.702  1.00  0.00     0.167 HD
ENDBRANCH  32  34
ENDBRANCH  30  32
ENDBRANCH  28  29
BRANCH  28  36
HETATM   36  O1  UNL     1      -3.529  52.080 -25.286  1.00  0.00    -0.392 OA
HETATM   37  H6  UNL     1      -4.357  51.722 -24.925  1.00  0.00     0.210 HD
ENDBRANCH  28  36
ENDBRANCH  27  28
ENDBRANCH  25  27
ENDBRANCH   1  25
BRANCH   3  38
HETATM   38  O2  UNL     1      -5.501  46.424 -20.680  1.00  0.00    -0.394 OA
HETATM   39  H17 UNL     1      -5.577  45.697 -21.322  1.00  0.00     0.210 HD
ENDBRANCH   3  38
TORSDOF 8
ENDMDL
MODEL 7
REMARK minimizedAffinity -9.05085468
REMARK CNNscore 0.442235768
REMARK CNNaffinity 6.40983534
REMARK  8 active torsions:
REMARK  status: ('A' for Active; 'I' for Inactive)
REMARK    1  A    between atoms: C2_2  and  C30_34 
REMARK    2  A    between atoms: C3_3  and  C4_4 
REMARK    3  A    between atoms: C4_4  and  O1_5 
REMARK    4  A    between atoms: C4_4  and  C5_6 
REMARK    5  A    between atoms: C5_6  and  C6_7 
REMARK    6  A    between atoms: C6_7  and  C8_9 
REMARK    7  A    between atoms: C10_11  and  O2_12 
REMARK    8  A    between atoms: C30_34  and  O6_36 
ROOT
HETATM    1  C8  UNL     1      -3.531  50.262 -24.646  1.00  0.00     0.001 C 
HETATM    2  C9  UNL     1      -5.048  50.197 -24.305  1.00  0.00     0.038 C 
HETATM    3  C10 UNL     1      -5.156  50.132 -22.769  1.00  0.00     0.131 C 
HETATM    4  C11 UNL     1      -3.776  50.632 -22.263  1.00  0.00     0.014 C 
HETATM    5  C12 UNL     1      -3.762  52.194 -22.323  1.00  0.00     0.023 C 
HETATM    6  C13 UNL     1      -3.318  50.296 -20.844  1.00  0.00    -0.058 C 
HETATM    7  C14 UNL     1      -1.998  50.238 -20.526  1.00  0.00    -0.000 C 
HETATM    8  C15 UNL     1      -0.973  50.386 -21.646  1.00  0.00     0.157 C 
HETATM    9  O3  UNL     1       0.232  50.446 -21.396  1.00  0.00    -0.293 OA
HETATM   10  C16 UNL     1      -1.422  50.460 -23.101  1.00  0.00     0.094 C 
HETATM   11  C17 UNL     1      -2.834  49.908 -23.296  1.00  0.00    -0.019 C 
HETATM   12  C18 UNL     1      -2.776  48.365 -23.099  1.00  0.00     0.017 C 
HETATM   13  C19 UNL     1      -1.480  50.019 -19.082  1.00  0.00    -0.008 C 
HETATM   14  C20 UNL     1      -0.923  48.575 -19.034  1.00  0.00     0.021 C 
HETATM   15  C21 UNL     1      -0.332  51.015 -18.717  1.00  0.00     0.022 C 
HETATM   16  C22 UNL     1      -0.221  51.401 -17.244  1.00  0.00     0.080 C 
HETATM   17  C23 UNL     1      -0.788  50.340 -16.334  1.00  0.00     0.135 C 
HETATM   18  O4  UNL     1      -0.112  49.857 -15.427  1.00  0.00    -0.297 OA
HETATM   19  C24 UNL     1      -2.261  49.976 -16.547  1.00  0.00     0.018 C 
HETATM   20  C25 UNL     1      -2.513  48.527 -16.088  1.00  0.00     0.023 C 
HETATM   21  C26 UNL     1      -3.080  50.900 -15.620  1.00  0.00     0.023 C 
HETATM   22  C27 UNL     1      -2.641  50.256 -18.042  1.00  0.00     0.014 C 
HETATM   23  C28 UNL     1      -3.932  49.558 -18.483  1.00  0.00     0.011 C 
HETATM   24  C29 UNL     1      -4.412  50.112 -19.820  1.00  0.00     0.036 C 
ENDROOT
BRANCH   1  25
HETATM   25  C6  UNL     1      -3.168  49.587 -26.003  1.00  0.00    -0.011 C 
HETATM   26  C7  UNL     1      -3.009  50.512 -27.216  1.00  0.00     0.010 C 
BRANCH  25  27
HETATM   27  C5  UNL     1      -4.128  48.420 -26.329  1.00  0.00     0.040 C 
BRANCH  27  28
HETATM   28  C4  UNL     1      -4.343  48.139 -27.828  1.00  0.00     0.142 C 
BRANCH  28  29
HETATM   29  C3  UNL     1      -5.789  48.162 -28.219  1.00  0.00     0.018 C 
HETATM   30  C2  UNL     1      -6.369  47.615 -29.306  1.00  0.00     0.010 C 
HETATM   31  C1  UNL     1      -5.678  46.856 -30.397  1.00  0.00     0.055 C 
BRANCH  30  32
HETATM   32  C30 UNL     1      -7.840  47.789 -29.419  1.00  0.00     0.171 C 
HETATM   33  O5  UNL     1      -8.595  47.179 -30.156  1.00  0.00    -0.646 OA
BRANCH  32  34
HETATM   34  O6  UNL     1      -8.305  48.748 -28.601  1.00  0.00    -0.773 OA
HETATM   35  H44 UNL     1      -9.269  48.744 -28.773  1.00  0.00     0.167 HD
ENDBRANCH  32  34
ENDBRANCH  30  32
ENDBRANCH  28  29
BRANCH  28  36
HETATM   36  O1  UNL     1      -3.722  49.181 -28.576  1.00  0.00    -0.392 OA
HETATM   37  H6  UNL     1      -2.775  49.179 -28.353  1.00  0.00     0.210 HD
ENDBRANCH  28  36
ENDBRANCH  27  28
ENDBRANCH  25  27
ENDBRANCH   1  25
BRANCH   3  38
HETATM   38  O2  UNL     1      -6.244  50.919 -22.307  1.00  0.00    -0.394 OA
HETATM   39  H17 UNL     1      -7.047  50.602 -22.754  1.00  0.00     0.210 HD
ENDBRANCH   3  38
TORSDOF 8
ENDMDL
MODEL 8
REMARK minimizedAffinity -9.58579731
REMARK CNNscore 0.365132898
REMARK CNNaffinity 6.61339378
REMARK  8 active torsions:
REMARK  status: ('A' for Active; 'I' for Inactive)
REMARK    1  A    between atoms: C2_2  and  C30_34 
REMARK    2  A    between atoms: C3_3  and  C4_4 
REMARK    3  A    between atoms: C4_4  and  O1_5 
REMARK    4  A    between atoms: C4_4  and  C5_6 
REMARK    5  A    between atoms: C5_6  and  C6_7 
REMARK    6  A    between atoms: C6_7  and  C8_9 
REMARK    7  A    between atoms: C10_11  and  O2_12 
REMARK    8  A    between atoms: C30_34  and  O6_36 
ROOT
HETATM    1  C8  UNL     1      -1.080  49.902 -18.026  1.00  0.00     0.001 C 
HETATM    2  C9  UNL     1      -2.132  48.758 -18.098  1.00  0.00     0.038 C 
HETATM    3  C10 UNL     1      -2.572  48.651 -19.572  1.00  0.00     0.131 C 
HETATM    4  C11 UNL     1      -1.451  49.377 -20.364  1.00  0.00     0.014 C 
HETATM    5  C12 UNL     1      -0.241  48.400 -20.520  1.00  0.00     0.023 C 
HETATM    6  C13 UNL     1      -1.724  49.884 -21.779  1.00  0.00    -0.058 C 
HETATM    7  C14 UNL     1      -1.024  50.927 -22.300  1.00  0.00    -0.000 C 
HETATM    8  C15 UNL     1      -0.047  51.671 -21.397  1.00  0.00     0.157 C 
HETATM    9  O3  UNL     1       0.686  52.552 -21.848  1.00  0.00    -0.293 OA
HETATM   10  C16 UNL     1       0.040  51.339 -19.911  1.00  0.00     0.094 C 
HETATM   11  C17 UNL     1      -1.205  50.607 -19.412  1.00  0.00    -0.019 C 
HETATM   12  C18 UNL     1      -2.386  51.622 -19.403  1.00  0.00     0.017 C 
HETATM   13  C19 UNL     1      -1.177  51.405 -23.767  1.00  0.00    -0.008 C 
HETATM   14  C20 UNL     1      -1.944  52.748 -23.708  1.00  0.00     0.021 C 
HETATM   15  C21 UNL     1       0.209  51.643 -24.449  1.00  0.00     0.022 C 
HETATM   16  C22 UNL     1       0.260  51.422 -25.959  1.00  0.00     0.080 C 
HETATM   17  C23 UNL     1      -1.087  51.618 -26.609  1.00  0.00     0.135 C 
HETATM   18  O4  UNL     1      -1.230  52.409 -27.541  1.00  0.00    -0.297 OA
HETATM   19  C24 UNL     1      -2.223  50.722 -26.107  1.00  0.00     0.018 C 
HETATM   20  C25 UNL     1      -3.577  51.427 -26.316  1.00  0.00     0.023 C 
HETATM   21  C26 UNL     1      -2.218  49.465 -27.004  1.00  0.00     0.023 C 
HETATM   22  C27 UNL     1      -1.929  50.314 -24.622  1.00  0.00     0.014 C 
HETATM   23  C28 UNL     1      -3.159  49.779 -23.883  1.00  0.00     0.011 C 
HETATM   24  C29 UNL     1      -2.752  49.114 -22.573  1.00  0.00     0.036 C 
ENDROOT
BRANCH   1  25
HETATM   25  C6  UNL     1      -1.085  50.667 -16.669  1.00  0.00    -0.011 C 
HETATM   26  C7  UNL     1       0.016  50.305 -15.665  1.00  0.00     0.010 C 
BRANCH  25  27
HETATM   27  C5  UNL     1      -2.476  50.615 -15.994  1.00  0.00     0.040 C 
BRANCH  27  28
HETATM   28  C4  UNL     1      -2.463  50.510 -14.458  1.00  0.00     0.142 C 
BRANCH  28  29
HETATM   29  C3  UNL     1      -3.144  51.667 -13.794  1.00  0.00     0.018 C 
HETATM   30  C2  UNL     1      -3.108  52.023 -12.494  1.00  0.00     0.010 C 
HETATM   31  C1  UNL     1      -2.373  51.315 -11.397  1.00  0.00     0.055 C 
BRANCH  30  32
HETATM   32  C30 UNL     1      -3.877  53.240 -12.128  1.00  0.00     0.171 C 
HETATM   33  O5  UNL     1      -4.142  53.629 -11.004  1.00  0.00    -0.646 OA
BRANCH  32  34
HETATM   34  O6  UNL     1      -4.301  53.919 -13.208  1.00  0.00    -0.773 OA
HETATM   35  H44 UNL     1      -4.773  54.685 -12.821  1.00  0.00     0.167 HD
ENDBRANCH  32  34
ENDBRANCH  30  32
ENDBRANCH  28  29
BRANCH  28  36
HETATM   36  O1  UNL     1      -3.206  49.353 -14.080  1.00  0.00    -0.392 OA
HETATM   37  H6  UNL     1      -2.776  48.581 -14.485  1.00  0.00     0.210 HD
ENDBRANCH  28  36
ENDBRANCH  27  28
ENDBRANCH  25  27
ENDBRANCH   1  25
BRANCH   3  38
HETATM   38  O2  UNL     1      -2.739  47.293 -19.951  1.00  0.00    -0.394 OA
HETATM   39  H17 UNL     1      -3.379  46.893 -19.337  1.00  0.00     0.210 HD
ENDBRANCH   3  38
TORSDOF 8
ENDMDL
MODEL 9
REMARK minimizedAffinity -8.11427593
REMARK CNNscore 0.350998342
REMARK CNNaffinity 6.3743701
REMARK  8 active torsions:
REMARK  status: ('A' for Active; 'I' for Inactive)
REMARK    1  A    between atoms: C2_2  and  C30_34 
REMARK    2  A    between atoms: C3_3  and  C4_4 
REMARK    3  A    between atoms: C4_4  and  O1_5 
REMARK    4  A    between atoms: C4_4  and  C5_6 
REMARK    5  A    between atoms: C5_6  and  C6_7 
REMARK    6  A    between atoms: C6_7  and  C8_9 
REMARK    7  A    between atoms: C10_11  and  O2_12 
REMARK    8  A    between atoms: C30_34  and  O6_36 
ROOT
HETATM    1  C8  UNL     1      -4.284  48.623 -20.664  1.00  0.00     0.001 C 
HETATM    2  C9  UNL     1      -3.449  49.339 -19.564  1.00  0.00     0.038 C 
HETATM    3  C10 UNL     1      -2.474  50.286 -20.292  1.00  0.00     0.131 C 
HETATM    4  C11 UNL     1      -3.080  50.448 -21.712  1.00  0.00     0.014 C 
HETATM    5  C12 UNL     1      -4.241  51.492 -21.639  1.00  0.00     0.023 C 
HETATM    6  C13 UNL     1      -2.199  50.928 -22.865  1.00  0.00    -0.058 C 
HETATM    7  C14 UNL     1      -2.491  50.606 -24.153  1.00  0.00    -0.000 C 
HETATM    8  C15 UNL     1      -3.642  49.643 -24.420  1.00  0.00     0.157 C 
HETATM    9  O3  UNL     1      -4.013  49.404 -25.570  1.00  0.00    -0.293 OA
HETATM   10  C16 UNL     1      -4.359  48.955 -23.264  1.00  0.00     0.094 C 
HETATM   11  C17 UNL     1      -3.524  48.962 -21.984  1.00  0.00    -0.019 C 
HETATM   12  C18 UNL     1      -2.325  47.990 -22.189  1.00  0.00     0.017 C 
HETATM   13  C19 UNL     1      -1.703  51.162 -25.367  1.00  0.00    -0.008 C 
HETATM   14  C20 UNL     1      -0.857  49.986 -25.911  1.00  0.00     0.021 C 
HETATM   15  C21 UNL     1      -2.656  51.666 -26.499  1.00  0.00     0.022 C 
HETATM   16  C22 UNL     1      -2.127  52.808 -27.364  1.00  0.00     0.080 C 
HETATM   17  C23 UNL     1      -0.619  52.841 -27.403  1.00  0.00     0.135 C 
HETATM   18  O4  UNL     1      -0.014  52.822 -28.474  1.00  0.00    -0.297 OA
HETATM   19  C24 UNL     1       0.094  52.988 -26.055  1.00  0.00     0.018 C 
HETATM   20  C25 UNL     1       1.497  52.357 -26.135  1.00  0.00     0.023 C 
HETATM   21  C26 UNL     1       0.285  54.503 -25.825  1.00  0.00     0.023 C 
HETATM   22  C27 UNL     1      -0.820  52.393 -24.929  1.00  0.00     0.014 C 
HETATM   23  C28 UNL     1      -0.069  52.102 -23.626  1.00  0.00     0.011 C 
HETATM   24  C29 UNL     1      -1.049  51.832 -22.490  1.00  0.00     0.036 C 
ENDROOT
BRANCH   1  25
HETATM   25  C6  UNL     1      -4.724  47.180 -20.273  1.00  0.00    -0.011 C 
HETATM   26  C7  UNL     1      -3.776  46.390 -19.363  1.00  0.00     0.010 C 
BRANCH  25  27
HETATM   27  C5  UNL     1      -5.104  46.347 -21.519  1.00  0.00     0.040 C 
BRANCH  27  28
HETATM   28  C4  UNL     1      -6.603  46.030 -21.672  1.00  0.00     0.142 C 
BRANCH  28  29
HETATM   29  C3  UNL     1      -6.855  44.610 -22.077  1.00  0.00     0.018 C 
HETATM   30  C2  UNL     1      -6.588  43.484 -21.386  1.00  0.00     0.010 C 
HETATM   31  C1  UNL     1      -5.952  43.400 -20.032  1.00  0.00     0.055 C 
BRANCH  30  32
HETATM   32  C30 UNL     1      -6.969  42.207 -22.043  1.00  0.00     0.171 C 
HETATM   33  O5  UNL     1      -6.581  41.090 -21.753  1.00  0.00    -0.646 OA
BRANCH  32  34
HETATM   34  O6  UNL     1      -7.822  42.395 -23.065  1.00  0.00    -0.773 OA
HETATM   35  H44 UNL     1      -7.990  41.485 -23.388  1.00  0.00     0.167 HD
ENDBRANCH  32  34
ENDBRANCH  30  32
ENDBRANCH  28  29
BRANCH  28  36
HETATM   36  O1  UNL     1      -7.229  46.187 -20.400  1.00  0.00    -0.392 OA
HETATM   37  H6  UNL     1      -7.094  47.108 -20.118  1.00  0.00     0.210 HD
ENDBRANCH  28  36
ENDBRANCH  27  28
ENDBRANCH  25  27
ENDBRANCH   1  25
BRANCH   3  38
HETATM   38  O2  UNL     1      -2.347  51.514 -19.591  1.00  0.00    -0.394 OA
HETATM   39  H17 UNL     1      -2.063  51.307 -18.683  1.00  0.00     0.210 HD
ENDBRANCH   3  38
TORSDOF 8
ENDMDL
