MODEL 1
REMARK minimizedAffinity -9.16572762
REMARK CNNscore 0.740271449
REMARK CNNaffinity 7.22113991
REMARK  8 active torsions:
REMARK  status: ('A' for Active; 'I' for Inactive)
REMARK    1  A    between atoms: C2_2  and  C30_34 
REMARK    2  A    between atoms: C3_3  and  C4_4 
REMARK    3  A    between atoms: C4_4  and  O1_5 
REMARK    4  A    between atoms: C4_4  and  C5_6 
REMARK    5  A    between atoms: C5_6  and  C6_7 
REMARK    6  A    between atoms: C6_7  and  C8_9 
REMARK    7  A    between atoms: C10_11  and  O2_12 
REMARK    8  A    between atoms: C30_34  and  O6_36 
ROOT
HETATM    1  C8  UNL     1       0.369   6.247  13.094  1.00  0.00     0.001 C 
HETATM    2  C9  UNL     1       0.765   7.130  14.313  1.00  0.00     0.038 C 
HETATM    3  C10 UNL     1      -0.545   7.521  15.025  1.00  0.00     0.131 C 
HETATM    4  C11 UNL     1      -1.584   6.491  14.510  1.00  0.00     0.014 C 
HETATM    5  C12 UNL     1      -1.395   5.158  15.305  1.00  0.00     0.023 C 
HETATM    6  C13 UNL     1      -3.077   6.796  14.621  1.00  0.00    -0.058 C 
HETATM    7  C14 UNL     1      -3.975   6.224  13.776  1.00  0.00    -0.000 C 
HETATM    8  C15 UNL     1      -3.452   5.377  12.621  1.00  0.00     0.157 C 
HETATM    9  O3  UNL     1      -4.225   4.757  11.893  1.00  0.00    -0.293 OA
HETATM   10  C16 UNL     1      -1.953   5.283  12.346  1.00  0.00     0.094 C 
HETATM   11  C17 UNL     1      -1.178   6.432  12.990  1.00  0.00    -0.019 C 
HETATM   12  C18 UNL     1      -1.521   7.737  12.213  1.00  0.00     0.017 C 
HETATM   13  C19 UNL     1      -5.509   6.394  13.923  1.00  0.00    -0.008 C 
HETATM   14  C20 UNL     1      -5.958   7.324  12.771  1.00  0.00     0.021 C 
HETATM   15  C21 UNL     1      -6.259   5.029  13.797  1.00  0.00     0.022 C 
HETATM   16  C22 UNL     1      -7.572   4.909  14.567  1.00  0.00     0.080 C 
HETATM   17  C23 UNL     1      -8.215   6.251  14.811  1.00  0.00     0.135 C 
HETATM   18  O4  UNL     1      -9.376   6.469  14.465  1.00  0.00    -0.297 OA
HETATM   19  C24 UNL     1      -7.381   7.278  15.584  1.00  0.00     0.018 C 
HETATM   20  C25 UNL     1      -7.815   8.702  15.196  1.00  0.00     0.023 C 
HETATM   21  C26 UNL     1      -7.721   7.084  17.078  1.00  0.00     0.023 C 
HETATM   22  C27 UNL     1      -5.861   6.976  15.346  1.00  0.00     0.014 C 
HETATM   23  C28 UNL     1      -4.944   8.150  15.708  1.00  0.00     0.011 C 
HETATM   24  C29 UNL     1      -3.489   7.697  15.761  1.00  0.00     0.036 C 
ENDROOT
BRANCH   1  25
HETATM   25  C6  UNL     1       1.336   6.398  11.882  1.00  0.00    -0.011 C 
HETATM   26  C7  UNL     1       1.005   7.494  10.862  1.00  0.00     0.010 C 
BRANCH  25  27
HETATM   27  C5  UNL     1       1.574   5.045  11.173  1.00  0.00     0.040 C 
BRANCH  27  28
HETATM   28  C4  UNL     1       2.402   5.108   9.879  1.00  0.00     0.142 C 
BRANCH  28  29
HETATM   29  C3  UNL     1       3.046   6.444   9.632  1.00  0.00     0.018 C 
HETATM   30  C2  UNL     1       2.924   7.265   8.567  1.00  0.00     0.010 C 
HETATM   31  C1  UNL     1       2.134   6.975   7.323  1.00  0.00     0.055 C 
BRANCH  30  32
HETATM   32  C30 UNL     1       3.628   8.576   8.539  1.00  0.00     0.171 C 
HETATM   33  O5  UNL     1       3.512   9.421   7.670  1.00  0.00    -0.646 OA
BRANCH  32  34
HETATM   34  O6  UNL     1       4.448   8.777   9.585  1.00  0.00    -0.773 OA
HETATM   35  H44 UNL     1       4.819   9.667   9.410  1.00  0.00     0.167 HD
ENDBRANCH  32  34
ENDBRANCH  30  32
ENDBRANCH  28  29
BRANCH  28  36
HETATM   36  O1  UNL     1       3.390   4.084   9.927  1.00  0.00    -0.392 OA
HETATM   37  H6  UNL     1       3.919   4.160   9.114  1.00  0.00     0.210 HD
ENDBRANCH  28  36
ENDBRANCH  27  28
ENDBRANCH  25  27
ENDBRANCH   1  25
BRANCH   3  38
HETATM   38  O2  UNL     1      -0.377   7.496  16.435  1.00  0.00    -0.394 OA
HETATM   39  H17 UNL     1       0.382   8.063  16.652  1.00  0.00     0.210 HD
ENDBRANCH   3  38
TORSDOF 8
ENDMDL
MODEL 2
REMARK minimizedAffinity -7.50047827
REMARK CNNscore 0.540228844
REMARK CNNaffinity 6.67547941
REMARK  8 active torsions:
REMARK  status: ('A' for Active; 'I' for Inactive)
REMARK    1  A    between atoms: C2_2  and  C30_34 
REMARK    2  A    between atoms: C3_3  and  C4_4 
REMARK    3  A    between atoms: C4_4  and  O1_5 
REMARK    4  A    between atoms: C4_4  and  C5_6 
REMARK    5  A    between atoms: C5_6  and  C6_7 
REMARK    6  A    between atoms: C6_7  and  C8_9 
REMARK    7  A    between atoms: C10_11  and  O2_12 
REMARK    8  A    between atoms: C30_34  and  O6_36 
ROOT
HETATM    1  C8  UNL     1      -1.680   9.754  14.875  1.00  0.00     0.001 C 
HETATM    2  C9  UNL     1      -0.507   8.913  14.294  1.00  0.00     0.038 C 
HETATM    3  C10 UNL     1      -1.123   7.616  13.734  1.00  0.00     0.131 C 
HETATM    4  C11 UNL     1      -2.630   7.947  13.566  1.00  0.00     0.014 C 
HETATM    5  C12 UNL     1      -2.814   8.761  12.244  1.00  0.00     0.023 C 
HETATM    6  C13 UNL     1      -3.651   6.814  13.465  1.00  0.00    -0.058 C 
HETATM    7  C14 UNL     1      -4.948   7.006  13.823  1.00  0.00    -0.000 C 
HETATM    8  C15 UNL     1      -5.340   8.334  14.461  1.00  0.00     0.157 C 
HETATM    9  O3  UNL     1      -6.517   8.592  14.707  1.00  0.00    -0.293 OA
HETATM   10  C16 UNL     1      -4.275   9.371  14.809  1.00  0.00     0.094 C 
HETATM   11  C17 UNL     1      -2.879   8.754  14.895  1.00  0.00    -0.019 C 
HETATM   12  C18 UNL     1      -2.827   7.864  16.172  1.00  0.00     0.017 C 
HETATM   13  C19 UNL     1      -6.052   5.937  13.620  1.00  0.00    -0.008 C 
HETATM   14  C20 UNL     1      -6.396   5.391  15.027  1.00  0.00     0.021 C 
HETATM   15  C21 UNL     1      -7.342   6.547  12.982  1.00  0.00     0.022 C 
HETATM   16  C22 UNL     1      -8.178   5.604  12.120  1.00  0.00     0.080 C 
HETATM   17  C23 UNL     1      -7.981   4.159  12.501  1.00  0.00     0.135 C 
HETATM   18  O4  UNL     1      -8.940   3.443  12.787  1.00  0.00    -0.297 OA
HETATM   19  C24 UNL     1      -6.548   3.621  12.422  1.00  0.00     0.018 C 
HETATM   20  C25 UNL     1      -6.372   2.455  13.412  1.00  0.00     0.023 C 
HETATM   21  C26 UNL     1      -6.373   3.047  10.999  1.00  0.00     0.023 C 
HETATM   22  C27 UNL     1      -5.549   4.810  12.638  1.00  0.00     0.014 C 
HETATM   23  C28 UNL     1      -4.129   4.355  12.995  1.00  0.00     0.011 C 
HETATM   24  C29 UNL     1      -3.149   5.517  12.878  1.00  0.00     0.036 C 
ENDROOT
BRANCH   1  25
HETATM   25  C6  UNL     1      -1.269  10.627  16.098  1.00  0.00    -0.011 C 
HETATM   26  C7  UNL     1      -0.372   9.966  17.152  1.00  0.00     0.010 C 
BRANCH  25  27
HETATM   27  C5  UNL     1      -2.498  11.288  16.763  1.00  0.00     0.040 C 
BRANCH  27  28
HETATM   28  C4  UNL     1      -2.533  11.235  18.299  1.00  0.00     0.142 C 
BRANCH  28  29
HETATM   29  C3  UNL     1      -2.671  12.582  18.953  1.00  0.00     0.018 C 
HETATM   30  C2  UNL     1      -1.708  13.462  19.304  1.00  0.00     0.010 C 
HETATM   31  C1  UNL     1      -0.228  13.242  19.167  1.00  0.00     0.055 C 
BRANCH  30  32
HETATM   32  C30 UNL     1      -2.067  14.771  19.913  1.00  0.00     0.171 C 
HETATM   33  O5  UNL     1      -1.457  15.323  20.812  1.00  0.00    -0.646 OA
BRANCH  32  34
HETATM   34  O6  UNL     1      -3.168  15.334  19.387  1.00  0.00    -0.773 OA
HETATM   35  H44 UNL     1      -3.255  16.170  19.892  1.00  0.00     0.167 HD
ENDBRANCH  32  34
ENDBRANCH  30  32
ENDBRANCH  28  29
BRANCH  28  36
HETATM   36  O1  UNL     1      -3.601  10.381  18.695  1.00  0.00    -0.392 OA
HETATM   37  H6  UNL     1      -3.624  10.385  19.668  1.00  0.00     0.210 HD
ENDBRANCH  28  36
ENDBRANCH  27  28
ENDBRANCH  25  27
ENDBRANCH   1  25
BRANCH   3  38
HETATM   38  O2  UNL     1      -0.490   7.243  12.519  1.00  0.00    -0.394 OA
HETATM   39  H17 UNL     1       0.466   7.192  12.688  1.00  0.00     0.210 HD
ENDBRANCH   3  38
TORSDOF 8
ENDMDL
MODEL 3
REMARK minimizedAffinity -7.3032341
REMARK CNNscore 0.497434884
REMARK CNNaffinity 6.67083502
REMARK  8 active torsions:
REMARK  status: ('A' for Active; 'I' for Inactive)
REMARK    1  A    between atoms: C2_2  and  C30_34 
REMARK    2  A    between atoms: C3_3  and  C4_4 
REMARK    3  A    between atoms: C4_4  and  O1_5 
REMARK    4  A    between atoms: C4_4  and  C5_6 
REMARK    5  A    between atoms: C5_6  and  C6_7 
REMARK    6  A    between atoms: C6_7  and  C8_9 
REMARK    7  A    between atoms: C10_11  and  O2_12 
REMARK    8  A    between atoms: C30_34  and  O6_36 
ROOT
HETATM    1  C8  UNL     1      -1.758   9.673  15.120  1.00  0.00     0.001 C 
HETATM    2  C9  UNL     1      -0.580   8.856  14.516  1.00  0.00     0.038 C 
HETATM    3  C10 UNL     1      -1.191   7.579  13.904  1.00  0.00     0.131 C 
HETATM    4  C11 UNL     1      -2.697   7.914  13.741  1.00  0.00     0.014 C 
HETATM    5  C12 UNL     1      -2.875   8.777  12.449  1.00  0.00     0.023 C 
HETATM    6  C13 UNL     1      -3.716   6.785  13.593  1.00  0.00    -0.058 C 
HETATM    7  C14 UNL     1      -5.016   6.961  13.949  1.00  0.00    -0.000 C 
HETATM    8  C15 UNL     1      -5.413   8.264  14.634  1.00  0.00     0.157 C 
HETATM    9  O3  UNL     1      -6.592   8.512  14.883  1.00  0.00    -0.293 OA
HETATM   10  C16 UNL     1      -4.352   9.289  15.026  1.00  0.00     0.094 C 
HETATM   11  C17 UNL     1      -2.955   8.671  15.097  1.00  0.00    -0.019 C 
HETATM   12  C18 UNL     1      -2.909   7.735  16.340  1.00  0.00     0.017 C 
HETATM   13  C19 UNL     1      -6.117   5.899  13.701  1.00  0.00    -0.008 C 
HETATM   14  C20 UNL     1      -6.467   5.301  15.085  1.00  0.00     0.021 C 
HETATM   15  C21 UNL     1      -7.404   6.531  13.079  1.00  0.00     0.022 C 
HETATM   16  C22 UNL     1      -8.233   5.619  12.178  1.00  0.00     0.080 C 
HETATM   17  C23 UNL     1      -8.036   4.161  12.506  1.00  0.00     0.135 C 
HETATM   18  O4  UNL     1      -8.996   3.434  12.760  1.00  0.00    -0.297 OA
HETATM   19  C24 UNL     1      -6.602   3.629  12.416  1.00  0.00     0.018 C 
HETATM   20  C25 UNL     1      -6.430   2.427  13.363  1.00  0.00     0.023 C 
HETATM   21  C26 UNL     1      -6.418   3.107  10.974  1.00  0.00     0.023 C 
HETATM   22  C27 UNL     1      -5.606   4.810  12.681  1.00  0.00     0.014 C 
HETATM   23  C28 UNL     1      -4.188   4.344  13.029  1.00  0.00     0.011 C 
HETATM   24  C29 UNL     1      -3.209   5.511  12.961  1.00  0.00     0.036 C 
ENDROOT
BRANCH   1  25
HETATM   25  C6  UNL     1      -1.355  10.501  16.378  1.00  0.00    -0.011 C 
HETATM   26  C7  UNL     1      -2.378  10.576  17.517  1.00  0.00     0.010 C 
BRANCH  25  27
HETATM   27  C5  UNL     1      -0.859  11.914  15.993  1.00  0.00     0.040 C 
BRANCH  27  28
HETATM   28  C4  UNL     1      -1.793  12.720  15.076  1.00  0.00     0.142 C 
BRANCH  28  29
HETATM   29  C3  UNL     1      -2.185  14.061  15.632  1.00  0.00     0.018 C 
HETATM   30  C2  UNL     1      -3.334  14.751  15.463  1.00  0.00     0.010 C 
HETATM   31  C1  UNL     1      -4.488  14.334  14.596  1.00  0.00     0.055 C 
BRANCH  30  32
HETATM   32  C30 UNL     1      -3.535  16.060  16.141  1.00  0.00     0.171 C 
HETATM   33  O5  UNL     1      -2.832  17.045  15.996  1.00  0.00    -0.646 OA
BRANCH  32  34
HETATM   34  O6  UNL     1      -4.591  16.089  16.972  1.00  0.00    -0.773 OA
HETATM   35  H44 UNL     1      -4.574  17.004  17.322  1.00  0.00     0.167 HD
ENDBRANCH  32  34
ENDBRANCH  30  32
ENDBRANCH  28  29
BRANCH  28  36
HETATM   36  O1  UNL     1      -1.158  12.875  13.811  1.00  0.00    -0.392 OA
HETATM   37  H6  UNL     1      -1.752  13.411  13.257  1.00  0.00     0.210 HD
ENDBRANCH  28  36
ENDBRANCH  27  28
ENDBRANCH  25  27
ENDBRANCH   1  25
BRANCH   3  38
HETATM   38  O2  UNL     1      -0.550   7.252  12.681  1.00  0.00    -0.394 OA
HETATM   39  H17 UNL     1       0.405   7.197  12.853  1.00  0.00     0.210 HD
ENDBRANCH   3  38
TORSDOF 8
ENDMDL
MODEL 4
REMARK minimizedAffinity -8.48582745
REMARK CNNscore 0.467800289
REMARK CNNaffinity 6.31688881
REMARK  8 active torsions:
REMARK  status: ('A' for Active; 'I' for Inactive)
REMARK    1  A    between atoms: C2_2  and  C30_34 
REMARK    2  A    between atoms: C3_3  and  C4_4 
REMARK    3  A    between atoms: C4_4  and  O1_5 
REMARK    4  A    between atoms: C4_4  and  C5_6 
REMARK    5  A    between atoms: C5_6  and  C6_7 
REMARK    6  A    between atoms: C6_7  and  C8_9 
REMARK    7  A    between atoms: C10_11  and  O2_12 
REMARK    8  A    between atoms: C30_34  and  O6_36 
ROOT
HETATM    1  C8  UNL     1       7.276  10.187  15.303  1.00  0.00     0.001 C 
HETATM    2  C9  UNL     1       6.053  10.652  16.145  1.00  0.00     0.038 C 
HETATM    3  C10 UNL     1       4.791  10.192  15.389  1.00  0.00     0.131 C 
HETATM    4  C11 UNL     1       5.301   9.088  14.425  1.00  0.00     0.014 C 
HETATM    5  C12 UNL     1       5.461   7.760  15.234  1.00  0.00     0.023 C 
HETATM    6  C13 UNL     1       4.467   8.698  13.206  1.00  0.00    -0.058 C 
HETATM    7  C14 UNL     1       5.047   8.155  12.103  1.00  0.00    -0.000 C 
HETATM    8  C15 UNL     1       6.569   8.071  12.047  1.00  0.00     0.157 C 
HETATM    9  O3  UNL     1       7.135   7.498  11.117  1.00  0.00    -0.293 OA
HETATM   10  C16 UNL     1       7.421   8.701  13.146  1.00  0.00     0.094 C 
HETATM   11  C17 UNL     1       6.646   9.750  13.943  1.00  0.00    -0.019 C 
HETATM   12  C18 UNL     1       6.425  10.986  13.021  1.00  0.00     0.017 C 
HETATM   13  C19 UNL     1       4.239   7.621  10.892  1.00  0.00    -0.008 C 
HETATM   14  C20 UNL     1       4.455   8.634   9.742  1.00  0.00     0.021 C 
HETATM   15  C21 UNL     1       4.742   6.215  10.433  1.00  0.00     0.022 C 
HETATM   16  C22 UNL     1       3.699   5.303   9.791  1.00  0.00     0.080 C 
HETATM   17  C23 UNL     1       2.566   6.082   9.171  1.00  0.00     0.135 C 
HETATM   18  O4  UNL     1       2.255   5.917   7.992  1.00  0.00    -0.297 OA
HETATM   19  C24 UNL     1       1.780   7.006  10.108  1.00  0.00     0.018 C 
HETATM   20  C25 UNL     1       1.166   8.165   9.302  1.00  0.00     0.023 C 
HETATM   21  C26 UNL     1       0.611   6.168  10.671  1.00  0.00     0.023 C 
HETATM   22  C27 UNL     1       2.719   7.457  11.279  1.00  0.00     0.014 C 
HETATM   23  C28 UNL     1       2.202   8.686  12.035  1.00  0.00     0.011 C 
HETATM   24  C29 UNL     1       2.973   8.878  13.336  1.00  0.00     0.036 C 
ENDROOT
BRANCH   1  25
HETATM   25  C6  UNL     1       8.502  11.142  15.415  1.00  0.00    -0.011 C 
HETATM   26  C7  UNL     1       8.833  11.993  14.183  1.00  0.00     0.010 C 
BRANCH  25  27
HETATM   27  C5  UNL     1       9.759  10.397  15.919  1.00  0.00     0.040 C 
BRANCH  27  28
HETATM   28  C4  UNL     1      10.914  11.290  16.402  1.00  0.00     0.142 C 
BRANCH  28  29
HETATM   29  C3  UNL     1      11.061  11.340  17.898  1.00  0.00     0.018 C 
HETATM   30  C2  UNL     1      12.048  11.889  18.639  1.00  0.00     0.010 C 
HETATM   31  C1  UNL     1      13.291  12.537  18.100  1.00  0.00     0.055 C 
BRANCH  30  32
HETATM   32  C30 UNL     1      11.981  11.861  20.125  1.00  0.00     0.171 C 
HETATM   33  O5  UNL     1      10.972  11.674  20.782  1.00  0.00    -0.646 OA
BRANCH  32  34
HETATM   34  O6  UNL     1      13.162  12.072  20.729  1.00  0.00    -0.773 OA
HETATM   35  H44 UNL     1      12.939  12.020  21.682  1.00  0.00     0.167 HD
ENDBRANCH  32  34
ENDBRANCH  30  32
ENDBRANCH  28  29
BRANCH  28  36
HETATM   36  O1  UNL     1      12.120  10.830  15.801  1.00  0.00    -0.392 OA
HETATM   37  H6  UNL     1      12.840  11.389  16.142  1.00  0.00     0.210 HD
ENDBRANCH  28  36
ENDBRANCH  27  28
ENDBRANCH  25  27
ENDBRANCH   1  25
BRANCH   3  38
HETATM   38  O2  UNL     1       3.801   9.733  16.297  1.00  0.00    -0.394 OA
HETATM   39  H17 UNL     1       3.644  10.440  16.945  1.00  0.00     0.210 HD
ENDBRANCH   3  38
TORSDOF 8
ENDMDL
MODEL 5
REMARK minimizedAffinity -7.61023045
REMARK CNNscore 0.456381559
REMARK CNNaffinity 6.67532539
REMARK  8 active torsions:
REMARK  status: ('A' for Active; 'I' for Inactive)
REMARK    1  A    between atoms: C2_2  and  C30_34 
REMARK    2  A    between atoms: C3_3  and  C4_4 
REMARK    3  A    between atoms: C4_4  and  O1_5 
REMARK    4  A    between atoms: C4_4  and  C5_6 
REMARK    5  A    between atoms: C5_6  and  C6_7 
REMARK    6  A    between atoms: C6_7  and  C8_9 
REMARK    7  A    between atoms: C10_11  and  O2_12 
REMARK    8  A    between atoms: C30_34  and  O6_36 
ROOT
HETATM    1  C8  UNL     1      -1.775   9.781  15.174  1.00  0.00     0.001 C 
HETATM    2  C9  UNL     1      -0.582   8.982  14.575  1.00  0.00     0.038 C 
HETATM    3  C10 UNL     1      -1.170   7.699  13.956  1.00  0.00     0.131 C 
HETATM    4  C11 UNL     1      -2.679   8.012  13.783  1.00  0.00     0.014 C 
HETATM    5  C12 UNL     1      -2.861   8.875  12.492  1.00  0.00     0.023 C 
HETATM    6  C13 UNL     1      -3.680   6.868  13.625  1.00  0.00    -0.058 C 
HETATM    7  C14 UNL     1      -4.985   7.025  13.973  1.00  0.00    -0.000 C 
HETATM    8  C15 UNL     1      -5.406   8.320  14.658  1.00  0.00     0.157 C 
HETATM    9  O3  UNL     1      -6.590   8.550  14.900  1.00  0.00    -0.293 OA
HETATM   10  C16 UNL     1      -4.362   9.359  15.060  1.00  0.00     0.094 C 
HETATM   11  C17 UNL     1      -2.958   8.761  15.139  1.00  0.00    -0.019 C 
HETATM   12  C18 UNL     1      -2.906   7.823  16.381  1.00  0.00     0.017 C 
HETATM   13  C19 UNL     1      -6.069   5.947  13.714  1.00  0.00    -0.008 C 
HETATM   14  C20 UNL     1      -6.420   5.341  15.094  1.00  0.00     0.021 C 
HETATM   15  C21 UNL     1      -7.360   6.562  13.085  1.00  0.00     0.022 C 
HETATM   16  C22 UNL     1      -8.170   5.640  12.176  1.00  0.00     0.080 C 
HETATM   17  C23 UNL     1      -7.954   4.184  12.502  1.00  0.00     0.135 C 
HETATM   18  O4  UNL     1      -8.905   3.442  12.747  1.00  0.00    -0.297 OA
HETATM   19  C24 UNL     1      -6.512   3.673  12.420  1.00  0.00     0.018 C 
HETATM   20  C25 UNL     1      -6.329   2.472  13.365  1.00  0.00     0.023 C 
HETATM   21  C26 UNL     1      -6.310   3.159  10.978  1.00  0.00     0.023 C 
HETATM   22  C27 UNL     1      -5.535   4.868  12.695  1.00  0.00     0.014 C 
HETATM   23  C28 UNL     1      -4.113   4.423  13.052  1.00  0.00     0.011 C 
HETATM   24  C29 UNL     1      -3.151   5.603  12.993  1.00  0.00     0.036 C 
ENDROOT
BRANCH   1  25
HETATM   25  C6  UNL     1      -1.393  10.611  16.436  1.00  0.00    -0.011 C 
HETATM   26  C7  UNL     1      -2.512  11.422  17.099  1.00  0.00     0.010 C 
BRANCH  25  27
HETATM   27  C5  UNL     1      -0.153  11.498  16.178  1.00  0.00     0.040 C 
BRANCH  27  28
HETATM   28  C4  UNL     1       0.199  12.491  17.298  1.00  0.00     0.142 C 
BRANCH  28  29
HETATM   29  C3  UNL     1       0.715  11.838  18.551  1.00  0.00     0.018 C 
HETATM   30  C2  UNL     1       1.808  11.061  18.719  1.00  0.00     0.010 C 
HETATM   31  C1  UNL     1       2.741  10.614  17.631  1.00  0.00     0.055 C 
BRANCH  30  32
HETATM   32  C30 UNL     1       2.163  10.542  20.067  1.00  0.00     0.171 C 
HETATM   33  O5  UNL     1       2.725   9.484  20.290  1.00  0.00    -0.646 OA
BRANCH  32  34
HETATM   34  O6  UNL     1       1.802  11.351  21.078  1.00  0.00    -0.773 OA
HETATM   35  H44 UNL     1       2.106  10.866  21.873  1.00  0.00     0.167 HD
ENDBRANCH  32  34
ENDBRANCH  30  32
ENDBRANCH  28  29
BRANCH  28  36
HETATM   36  O1  UNL     1       1.155  13.417  16.793  1.00  0.00    -0.392 OA
HETATM   37  H6  UNL     1       1.386  14.017  17.524  1.00  0.00     0.210 HD
ENDBRANCH  28  36
ENDBRANCH  27  28
ENDBRANCH  25  27
ENDBRANCH   1  25
BRANCH   3  38
HETATM   38  O2  UNL     1      -0.516   7.384  12.736  1.00  0.00    -0.394 OA
HETATM   39  H17 UNL     1       0.439   7.342  12.915  1.00  0.00     0.210 HD
ENDBRANCH   3  38
TORSDOF 8
ENDMDL
MODEL 6
REMARK minimizedAffinity -8.04930687
REMARK CNNscore 0.446760774
REMARK CNNaffinity 6.73703527
REMARK  8 active torsions:
REMARK  status: ('A' for Active; 'I' for Inactive)
REMARK    1  A    between atoms: C2_2  and  C30_34 
REMARK    2  A    between atoms: C3_3  and  C4_4 
REMARK    3  A    between atoms: C4_4  and  O1_5 
REMARK    4  A    between atoms: C4_4  and  C5_6 
REMARK    5  A    between atoms: C5_6  and  C6_7 
REMARK    6  A    between atoms: C6_7  and  C8_9 
REMARK    7  A    between atoms: C10_11  and  O2_12 
REMARK    8  A    between atoms: C30_34  and  O6_36 
ROOT
HETATM    1  C8  UNL     1     -10.006   7.547  14.762  1.00  0.00     0.001 C 
HETATM    2  C9  UNL     1      -9.620   9.051  14.657  1.00  0.00     0.038 C 
HETATM    3  C10 UNL     1     -10.893   9.809  14.231  1.00  0.00     0.131 C 
HETATM    4  C11 UNL     1     -12.052   8.834  14.567  1.00  0.00     0.014 C 
HETATM    5  C12 UNL     1     -12.349   8.929  16.100  1.00  0.00     0.023 C 
HETATM    6  C13 UNL     1     -13.415   9.012  13.900  1.00  0.00    -0.058 C 
HETATM    7  C14 UNL     1     -14.265   7.963  13.749  1.00  0.00    -0.000 C 
HETATM    8  C15 UNL     1     -13.778   6.570  14.132  1.00  0.00     0.157 C 
HETATM    9  O3  UNL     1     -14.543   5.606  14.110  1.00  0.00    -0.293 OA
HETATM   10  C16 UNL     1     -12.328   6.343  14.551  1.00  0.00     0.094 C 
HETATM   11  C17 UNL     1     -11.413   7.477  14.088  1.00  0.00    -0.019 C 
HETATM   12  C18 UNL     1     -11.273   7.378  12.540  1.00  0.00     0.017 C 
HETATM   13  C19 UNL     1     -15.707   8.109  13.199  1.00  0.00    -0.008 C 
HETATM   14  C20 UNL     1     -15.696   7.500  11.777  1.00  0.00     0.021 C 
HETATM   15  C21 UNL     1     -16.744   7.335  14.076  1.00  0.00     0.022 C 
HETATM   16  C22 UNL     1     -18.159   7.908  14.109  1.00  0.00     0.080 C 
HETATM   17  C23 UNL     1     -18.474   8.718  12.876  1.00  0.00     0.135 C 
HETATM   18  O4  UNL     1     -19.463   8.465  12.189  1.00  0.00    -0.297 OA
HETATM   19  C24 UNL     1     -17.557   9.912  12.591  1.00  0.00     0.018 C 
HETATM   20  C25 UNL     1     -17.542  10.209  11.080  1.00  0.00     0.023 C 
HETATM   21  C26 UNL     1     -18.193  11.132  13.293  1.00  0.00     0.023 C 
HETATM   22  C27 UNL     1     -16.145   9.624  13.208  1.00  0.00     0.014 C 
HETATM   23  C28 UNL     1     -15.039  10.525  12.646  1.00  0.00     0.011 C 
HETATM   24  C29 UNL     1     -13.779  10.421  13.498  1.00  0.00     0.036 C 
ENDROOT
BRANCH   1  25
HETATM   25  C6  UNL     1      -8.835   6.582  14.408  1.00  0.00    -0.011 C 
HETATM   26  C7  UNL     1      -7.418   7.053  14.757  1.00  0.00     0.010 C 
BRANCH  25  27
HETATM   27  C5  UNL     1      -8.910   6.115  12.936  1.00  0.00     0.040 C 
BRANCH  27  28
HETATM   28  C4  UNL     1      -8.179   4.800  12.618  1.00  0.00     0.142 C 
BRANCH  28  29
HETATM   29  C3  UNL     1      -6.692   4.862  12.830  1.00  0.00     0.018 C 
HETATM   30  C2  UNL     1      -5.730   4.032  12.370  1.00  0.00     0.010 C 
HETATM   31  C1  UNL     1      -5.960   2.784  11.568  1.00  0.00     0.055 C 
BRANCH  30  32
HETATM   32  C30 UNL     1      -4.297   4.299  12.669  1.00  0.00     0.171 C 
HETATM   33  O5  UNL     1      -3.771   5.398  12.680  1.00  0.00    -0.646 OA
BRANCH  32  34
HETATM   34  O6  UNL     1      -3.580   3.194  12.936  1.00  0.00    -0.773 OA
HETATM   35  H44 UNL     1      -2.682   3.546  13.107  1.00  0.00     0.167 HD
ENDBRANCH  32  34
ENDBRANCH  30  32
ENDBRANCH  28  29
BRANCH  28  36
HETATM   36  O1  UNL     1      -8.749   3.765  13.413  1.00  0.00    -0.392 OA
HETATM   37  H6  UNL     1      -8.255   2.950  13.218  1.00  0.00     0.210 HD
ENDBRANCH  28  36
ENDBRANCH  27  28
ENDBRANCH  25  27
ENDBRANCH   1  25
BRANCH   3  38
HETATM   38  O2  UNL     1     -10.988  11.053  14.908  1.00  0.00    -0.394 OA
HETATM   39  H17 UNL     1     -10.161  11.538  14.751  1.00  0.00     0.210 HD
ENDBRANCH   3  38
TORSDOF 8
ENDMDL
MODEL 7
REMARK minimizedAffinity -9.3730545
REMARK CNNscore 0.399370313
REMARK CNNaffinity 6.9006424
REMARK  8 active torsions:
REMARK  status: ('A' for Active; 'I' for Inactive)
REMARK    1  A    between atoms: C2_2  and  C30_34 
REMARK    2  A    between atoms: C3_3  and  C4_4 
REMARK    3  A    between atoms: C4_4  and  O1_5 
REMARK    4  A    between atoms: C4_4  and  C5_6 
REMARK    5  A    between atoms: C5_6  and  C6_7 
REMARK    6  A    between atoms: C6_7  and  C8_9 
REMARK    7  A    between atoms: C10_11  and  O2_12 
REMARK    8  A    between atoms: C30_34  and  O6_36 
ROOT
HETATM    1  C8  UNL     1      -6.004   7.113  14.529  1.00  0.00     0.001 C 
HETATM    2  C9  UNL     1      -5.876   8.514  15.195  1.00  0.00     0.038 C 
HETATM    3  C10 UNL     1      -4.411   8.958  15.021  1.00  0.00     0.131 C 
HETATM    4  C11 UNL     1      -3.870   8.062  13.876  1.00  0.00     0.014 C 
HETATM    5  C12 UNL     1      -4.350   8.658  12.513  1.00  0.00     0.023 C 
HETATM    6  C13 UNL     1      -2.363   7.873  13.704  1.00  0.00    -0.058 C 
HETATM    7  C14 UNL     1      -1.860   6.765  13.099  1.00  0.00    -0.000 C 
HETATM    8  C15 UNL     1      -2.819   5.643  12.718  1.00  0.00     0.157 C 
HETATM    9  O3  UNL     1      -2.427   4.667  12.079  1.00  0.00    -0.293 OA
HETATM   10  C16 UNL     1      -4.289   5.708  13.126  1.00  0.00     0.094 C 
HETATM   11  C17 UNL     1      -4.523   6.686  14.277  1.00  0.00    -0.019 C 
HETATM   12  C18 UNL     1      -3.905   6.067  15.565  1.00  0.00     0.017 C 
HETATM   13  C19 UNL     1      -0.354   6.581  12.781  1.00  0.00    -0.008 C 
HETATM   14  C20 UNL     1       0.175   5.518  13.773  1.00  0.00     0.021 C 
HETATM   15  C21 UNL     1      -0.127   6.072  11.321  1.00  0.00     0.022 C 
HETATM   16  C22 UNL     1       1.183   6.491  10.658  1.00  0.00     0.080 C 
HETATM   17  C23 UNL     1       2.264   6.788  11.668  1.00  0.00     0.135 C 
HETATM   18  O4  UNL     1       3.355   6.224  11.611  1.00  0.00    -0.297 OA
HETATM   19  C24 UNL     1       1.956   7.884  12.693  1.00  0.00     0.018 C 
HETATM   20  C25 UNL     1       2.763   7.637  13.980  1.00  0.00     0.023 C 
HETATM   21  C26 UNL     1       2.460   9.210  12.082  1.00  0.00     0.023 C 
HETATM   22  C27 UNL     1       0.404   7.958  12.905  1.00  0.00     0.014 C 
HETATM   23  C28 UNL     1      -0.001   8.702  14.183  1.00  0.00     0.011 C 
HETATM   24  C29 UNL     1      -1.493   9.015  14.170  1.00  0.00     0.036 C 
ENDROOT
BRANCH   1  25
HETATM   25  C6  UNL     1      -7.057   6.194  15.219  1.00  0.00    -0.011 C 
HETATM   26  C7  UNL     1      -6.739   5.721  16.642  1.00  0.00     0.010 C 
BRANCH  25  27
HETATM   27  C5  UNL     1      -7.444   4.998  14.318  1.00  0.00     0.040 C 
BRANCH  27  28
HETATM   28  C4  UNL     1      -7.263   5.218  12.807  1.00  0.00     0.142 C 
BRANCH  28  29
HETATM   29  C3  UNL     1      -6.413   4.173  12.137  1.00  0.00     0.018 C 
HETATM   30  C2  UNL     1      -6.557   2.830  12.135  1.00  0.00     0.010 C 
HETATM   31  C1  UNL     1      -7.605   2.060  12.887  1.00  0.00     0.055 C 
BRANCH  30  32
HETATM   32  C30 UNL     1      -5.616   1.971  11.368  1.00  0.00     0.171 C 
HETATM   33  O5  UNL     1      -4.409   2.129  11.303  1.00  0.00    -0.646 OA
BRANCH  32  34
HETATM   34  O6  UNL     1      -6.210   0.961  10.710  1.00  0.00    -0.773 OA
HETATM   35  H44 UNL     1      -5.460   0.508  10.271  1.00  0.00     0.167 HD
ENDBRANCH  32  34
ENDBRANCH  30  32
ENDBRANCH  28  29
BRANCH  28  36
HETATM   36  O1  UNL     1      -8.551   5.270  12.203  1.00  0.00    -0.392 OA
HETATM   37  H6  UNL     1      -8.413   5.380  11.246  1.00  0.00     0.210 HD
ENDBRANCH  28  36
ENDBRANCH  27  28
ENDBRANCH  25  27
ENDBRANCH   1  25
BRANCH   3  38
HETATM   38  O2  UNL     1      -4.337  10.346  14.734  1.00  0.00    -0.394 OA
HETATM   39  H17 UNL     1      -4.819  10.819  15.433  1.00  0.00     0.210 HD
ENDBRANCH   3  38
TORSDOF 8
ENDMDL
MODEL 8
REMARK minimizedAffinity -7.27309418
REMARK CNNscore 0.396323502
REMARK CNNaffinity 6.16440153
REMARK  8 active torsions:
REMARK  status: ('A' for Active; 'I' for Inactive)
REMARK    1  A    between atoms: C2_2  and  C30_34 
REMARK    2  A    between atoms: C3_3  and  C4_4 
REMARK    3  A    between atoms: C4_4  and  O1_5 
REMARK    4  A    between atoms: C4_4  and  C5_6 
REMARK    5  A    between atoms: C5_6  and  C6_7 
REMARK    6  A    between atoms: C6_7  and  C8_9 
REMARK    7  A    between atoms: C10_11  and  O2_12 
REMARK    8  A    between atoms: C30_34  and  O6_36 
ROOT
HETATM    1  C8  UNL     1      -4.286 -10.789   4.677  1.00  0.00     0.001 C 
HETATM    2  C9  UNL     1      -2.995 -11.653   4.592  1.00  0.00     0.038 C 
HETATM    3  C10 UNL     1      -2.876 -12.134   3.132  1.00  0.00     0.131 C 
HETATM    4  C11 UNL     1      -3.793 -11.171   2.333  1.00  0.00     0.014 C 
HETATM    5  C12 UNL     1      -3.018  -9.834   2.094  1.00  0.00     0.023 C 
HETATM    6  C13 UNL     1      -4.299 -11.575   0.950  1.00  0.00    -0.058 C 
HETATM    7  C14 UNL     1      -5.450 -11.057   0.444  1.00  0.00    -0.000 C 
HETATM    8  C15 UNL     1      -6.304 -10.168   1.342  1.00  0.00     0.157 C 
HETATM    9  O3  UNL     1      -7.299  -9.595   0.899  1.00  0.00    -0.293 OA
HETATM   10  C16 UNL     1      -5.942  -9.974   2.812  1.00  0.00     0.094 C 
HETATM   11  C17 UNL     1      -5.013 -11.074   3.324  1.00  0.00    -0.019 C 
HETATM   12  C18 UNL     1      -5.836 -12.393   3.414  1.00  0.00     0.017 C 
HETATM   13  C19 UNL     1      -5.942 -11.329  -1.000  1.00  0.00    -0.008 C 
HETATM   14  C20 UNL     1      -7.158 -12.278  -0.876  1.00  0.00     0.021 C 
HETATM   15  C21 UNL     1      -6.393 -10.015  -1.717  1.00  0.00     0.022 C 
HETATM   16  C22 UNL     1      -6.233  -9.988  -3.235  1.00  0.00     0.080 C 
HETATM   17  C23 UNL     1      -6.248 -11.371  -3.835  1.00  0.00     0.135 C 
HETATM   18  O4  UNL     1      -7.036 -11.662  -4.735  1.00  0.00    -0.297 OA
HETATM   19  C24 UNL     1      -5.180 -12.346  -3.329  1.00  0.00     0.018 C 
HETATM   20  C25 UNL     1      -5.684 -13.794  -3.475  1.00  0.00     0.023 C 
HETATM   21  C26 UNL     1      -3.962 -12.187  -4.266  1.00  0.00     0.023 C 
HETATM   22  C27 UNL     1      -4.778 -11.944  -1.868  1.00  0.00     0.014 C 
HETATM   23  C28 UNL     1      -4.048 -13.057  -1.109  1.00  0.00     0.011 C 
HETATM   24  C29 UNL     1      -3.412 -12.510   0.163  1.00  0.00     0.036 C 
ENDROOT
BRANCH   1  25
HETATM   25  C6  UNL     1      -4.992 -10.866   6.064  1.00  0.00    -0.011 C 
HETATM   26  C7  UNL     1      -6.077  -9.822   6.350  1.00  0.00     0.010 C 
BRANCH  25  27
HETATM   27  C5  UNL     1      -3.966 -10.921   7.220  1.00  0.00     0.040 C 
BRANCH  27  28
HETATM   28  C4  UNL     1      -3.933  -9.688   8.138  1.00  0.00     0.142 C 
BRANCH  28  29
HETATM   29  C3  UNL     1      -4.309  -9.980   9.565  1.00  0.00     0.018 C 
HETATM   30  C2  UNL     1      -5.452  -9.688  10.222  1.00  0.00     0.010 C 
HETATM   31  C1  UNL     1      -6.614  -8.920   9.660  1.00  0.00     0.055 C 
BRANCH  30  32
HETATM   32  C30 UNL     1      -5.636 -10.104  11.638  1.00  0.00     0.171 C 
HETATM   33  O5  UNL     1      -5.693 -11.255  12.034  1.00  0.00    -0.646 OA
BRANCH  32  34
HETATM   34  O6  UNL     1      -5.749  -9.078  12.499  1.00  0.00    -0.773 OA
HETATM   35  H44 UNL     1      -5.860  -9.524  13.365  1.00  0.00     0.167 HD
ENDBRANCH  32  34
ENDBRANCH  30  32
ENDBRANCH  28  29
BRANCH  28  36
HETATM   36  O1  UNL     1      -2.630  -9.117   8.077  1.00  0.00    -0.392 OA
HETATM   37  H6  UNL     1      -2.622  -8.358   8.686  1.00  0.00     0.210 HD
ENDBRANCH  28  36
ENDBRANCH  27  28
ENDBRANCH  25  27
ENDBRANCH   1  25
BRANCH   3  38
HETATM   38  O2  UNL     1      -1.523 -12.109   2.703  1.00  0.00    -0.394 OA
HETATM   39  H17 UNL     1      -1.002 -12.627   3.340  1.00  0.00     0.210 HD
ENDBRANCH   3  38
TORSDOF 8
ENDMDL
MODEL 9
REMARK minimizedAffinity -7.27456617
REMARK CNNscore 0.38838473
REMARK CNNaffinity 6.32677507
REMARK  8 active torsions:
REMARK  status: ('A' for Active; 'I' for Inactive)
REMARK    1  A    between atoms: C2_2  and  C30_34 
REMARK    2  A    between atoms: C3_3  and  C4_4 
REMARK    3  A    between atoms: C4_4  and  O1_5 
REMARK    4  A    between atoms: C4_4  and  C5_6 
REMARK    5  A    between atoms: C5_6  and  C6_7 
REMARK    6  A    between atoms: C6_7  and  C8_9 
REMARK    7  A    between atoms: C10_11  and  O2_12 
REMARK    8  A    between atoms: C30_34  and  O6_36 
ROOT
HETATM    1  C8  UNL     1      -1.459  10.044  16.375  1.00  0.00     0.001 C 
HETATM    2  C9  UNL     1      -0.191   9.774  17.236  1.00  0.00     0.038 C 
HETATM    3  C10 UNL     1       0.838   9.094  16.312  1.00  0.00     0.131 C 
HETATM    4  C11 UNL     1       0.344   9.422  14.878  1.00  0.00     0.014 C 
HETATM    5  C12 UNL     1       0.791  10.878  14.523  1.00  0.00     0.023 C 
HETATM    6  C13 UNL     1       0.818   8.576  13.698  1.00  0.00    -0.058 C 
HETATM    7  C14 UNL     1       0.074   8.473  12.565  1.00  0.00    -0.000 C 
HETATM    8  C15 UNL     1      -1.312   9.107  12.544  1.00  0.00     0.157 C 
HETATM    9  O3  UNL     1      -1.980   9.129  11.510  1.00  0.00    -0.293 OA
HETATM   10  C16 UNL     1      -1.901   9.726  13.808  1.00  0.00     0.094 C 
HETATM   11  C17 UNL     1      -1.205   9.221  15.072  1.00  0.00    -0.019 C 
HETATM   12  C18 UNL     1      -1.609   7.732  15.279  1.00  0.00     0.017 C 
HETATM   13  C19 UNL     1       0.563   7.738  11.291  1.00  0.00    -0.008 C 
HETATM   14  C20 UNL     1      -0.256   6.428  11.201  1.00  0.00     0.021 C 
HETATM   15  C21 UNL     1       0.314   8.583  10.000  1.00  0.00     0.022 C 
HETATM   16  C22 UNL     1       1.294   8.362   8.851  1.00  0.00     0.080 C 
HETATM   17  C23 UNL     1       1.935   6.998   8.902  1.00  0.00     0.135 C 
HETATM   18  O4  UNL     1       1.886   6.238   7.936  1.00  0.00    -0.297 OA
HETATM   19  C24 UNL     1       2.717   6.660  10.176  1.00  0.00     0.018 C 
HETATM   20  C25 UNL     1       2.728   5.135  10.392  1.00  0.00     0.023 C 
HETATM   21  C26 UNL     1       4.176   7.099   9.925  1.00  0.00     0.023 C 
HETATM   22  C27 UNL     1       2.117   7.478  11.371  1.00  0.00     0.014 C 
HETATM   23  C28 UNL     1       2.519   6.933  12.746  1.00  0.00     0.011 C 
HETATM   24  C29 UNL     1       2.179   7.937  13.841  1.00  0.00     0.036 C 
ENDROOT
BRANCH   1  25
HETATM   25  C6  UNL     1      -2.786   9.975  17.190  1.00  0.00    -0.011 C 
HETATM   26  C7  UNL     1      -4.094  10.082  16.397  1.00  0.00     0.010 C 
BRANCH  25  27
HETATM   27  C5  UNL     1      -2.779  10.973  18.372  1.00  0.00     0.040 C 
BRANCH  27  28
HETATM   28  C4  UNL     1      -2.193  12.361  18.067  1.00  0.00     0.142 C 
BRANCH  28  29
HETATM   29  C3  UNL     1      -2.504  12.864  16.685  1.00  0.00     0.018 C 
HETATM   30  C2  UNL     1      -1.729  13.587  15.847  1.00  0.00     0.010 C 
HETATM   31  C1  UNL     1      -0.359  14.118  16.158  1.00  0.00     0.055 C 
BRANCH  30  32
HETATM   32  C30 UNL     1      -2.221  13.954  14.492  1.00  0.00     0.171 C 
HETATM   33  O5  UNL     1      -3.173  14.678  14.258  1.00  0.00    -0.646 OA
BRANCH  32  34
HETATM   34  O6  UNL     1      -1.518  13.403  13.487  1.00  0.00    -0.773 OA
HETATM   35  H44 UNL     1      -1.968  13.743  12.686  1.00  0.00     0.167 HD
ENDBRANCH  32  34
ENDBRANCH  30  32
ENDBRANCH  28  29
BRANCH  28  36
HETATM   36  O1  UNL     1      -2.673  13.276  19.046  1.00  0.00    -0.392 OA
HETATM   37  H6  UNL     1      -2.315  14.152  18.819  1.00  0.00     0.210 HD
ENDBRANCH  28  36
ENDBRANCH  27  28
ENDBRANCH  25  27
ENDBRANCH   1  25
BRANCH   3  38
HETATM   38  O2  UNL     1       2.147   9.572  16.581  1.00  0.00    -0.394 OA
HETATM   39  H17 UNL     1       2.318   9.449  17.530  1.00  0.00     0.210 HD
ENDBRANCH   3  38
TORSDOF 8
ENDMDL
