MODEL 1
REMARK minimizedAffinity -9.74305725
REMARK  7 active torsions:
REMARK  status: ('A' for Active; 'I' for Inactive)
REMARK    1  A    between atoms: C2_2  and  C4_4 
REMARK    2  A    between atoms: C7_7  and  C8_8 
REMARK    3  A    between atoms: C8_8  and  O2_10 
REMARK    4  A    between atoms: C15_17  and  O3_18 
REMARK    5  A    between atoms: C21_24  and  O4_25 
REMARK    6  A    between atoms: C22_26  and  C24_28 
REMARK    7  A    between atoms: C24_28  and  O5_29 
ROOT
HETATM    1  C4  UNL     1      -8.007   5.527  13.982  1.00  0.00     0.019 C 
HETATM    2  C5  UNL     1      -9.297   6.188  14.539  1.00  0.00     0.011 C 
HETATM    3  C6  UNL     1      -8.916   7.614  14.972  1.00  0.00     0.021 C 
HETATM    4  C7  UNL     1      -7.402   7.542  15.195  1.00  0.00     0.050 C 
HETATM    5  C9  UNL     1      -6.665   8.885  15.132  1.00  0.00     0.022 C 
HETATM    6  C10 UNL     1      -5.138   8.669  15.129  1.00  0.00     0.011 C 
HETATM    7  C11 UNL     1      -4.607   7.706  14.005  1.00  0.00    -0.032 C 
HETATM    8  C12 UNL     1      -4.806   8.491  12.664  1.00  0.00     0.016 C 
HETATM    9  C13 UNL     1      -5.464   6.382  13.994  1.00  0.00     0.003 C 
HETATM   10  C14 UNL     1      -5.009   5.446  12.875  1.00  0.00     0.038 C 
HETATM   11  C15 UNL     1      -3.510   5.110  12.914  1.00  0.00     0.124 C 
HETATM   12  C16 UNL     1      -2.577   6.357  13.021  1.00  0.00     0.032 C 
HETATM   13  C17 UNL     1      -0.988   6.081  12.940  1.00  0.00    -0.033 C 
HETATM   14  C18 UNL     1      -0.521   5.133  14.070  1.00  0.00     0.016 C 
HETATM   15  C19 UNL     1      -0.630   5.390  11.586  1.00  0.00     0.012 C 
HETATM   16  C20 UNL     1       0.862   5.358  11.244  1.00  0.00     0.033 C 
HETATM   17  C21 UNL     1       1.497   6.741  11.268  1.00  0.00     0.128 C 
HETATM   18  C22 UNL     1       1.282   7.498  12.613  1.00  0.00     0.007 C 
HETATM   19  C23 UNL     1       2.150   6.854  13.714  1.00  0.00     0.020 C 
HETATM   20  C25 UNL     1      -0.265   7.492  12.952  1.00  0.00     0.007 C 
HETATM   21  C26 UNL     1      -0.648   8.307  14.200  1.00  0.00     0.007 C 
HETATM   22  C27 UNL     1      -2.153   8.570  14.253  1.00  0.00     0.011 C 
HETATM   23  C28 UNL     1      -3.044   7.301  14.217  1.00  0.00    -0.030 C 
HETATM   24  C29 UNL     1      -2.862   6.591  15.595  1.00  0.00     0.016 C 
HETATM   25  C30 UNL     1      -6.981   6.686  13.976  1.00  0.00     0.017 C 
ENDROOT
BRANCH   4  26
HETATM   26  C8  UNL     1      -7.173   6.900  16.573  1.00  0.00     0.149 C 
HETATM   27  O1  UNL     1      -7.697   7.196  17.633  1.00  0.00    -0.649 OA
BRANCH  26  28
HETATM   28  O2  UNL     1      -6.251   5.915  16.547  1.00  0.00    -0.776 OA
HETATM   29  H11 UNL     1      -6.201   5.614  17.479  1.00  0.00     0.167 HD
ENDBRANCH  26  28
ENDBRANCH   4  26
BRANCH   1  30
HETATM   30  C2  UNL     1      -8.309   4.789  12.687  1.00  0.00    -0.088 C 
HETATM   31  C1  UNL     1      -8.201   3.462  12.509  1.00  0.00     0.014 C 
HETATM   32  C3  UNL     1      -8.749   5.672  11.546  1.00  0.00     0.043 C 
ENDBRANCH   1  30
BRANCH  11  33
HETATM   33  O3  UNL     1      -3.252   4.353  11.733  1.00  0.00    -0.395 OA
HETATM   34  H23 UNL     1      -3.437   4.925  10.968  1.00  0.00     0.210 HD
ENDBRANCH  11  33
BRANCH  18  35
HETATM   35  C24 UNL     1       1.793   8.960  12.385  1.00  0.00     0.176 C 
BRANCH  35  36
HETATM   36  O5  UNL     1       1.117   9.932  13.178  1.00  0.00    -0.400 OA
HETATM   37  H39 UNL     1       1.461   9.865  14.085  1.00  0.00     0.209 HD
ENDBRANCH  35  36
ENDBRANCH  18  35
BRANCH  17  38
HETATM   38  O4  UNL     1       0.948   7.505  10.188  1.00  0.00    -0.395 OA
HETATM   39  H33 UNL     1       1.099   7.006   9.366  1.00  0.00     0.210 HD
ENDBRANCH  17  38
TORSDOF 7
ENDMDL
MODEL 2
REMARK minimizedAffinity -9.56972599
REMARK  7 active torsions:
REMARK  status: ('A' for Active; 'I' for Inactive)
REMARK    1  A    between atoms: C2_2  and  C4_4 
REMARK    2  A    between atoms: C7_7  and  C8_8 
REMARK    3  A    between atoms: C8_8  and  O2_10 
REMARK    4  A    between atoms: C15_17  and  O3_18 
REMARK    5  A    between atoms: C21_24  and  O4_25 
REMARK    6  A    between atoms: C22_26  and  C24_28 
REMARK    7  A    between atoms: C24_28  and  O5_29 
ROOT
HETATM    1  C4  UNL     1      -5.551   4.433  12.994  1.00  0.00     0.019 C 
HETATM    2  C5  UNL     1      -7.100   4.412  12.890  1.00  0.00     0.011 C 
HETATM    3  C6  UNL     1      -7.593   5.815  13.281  1.00  0.00     0.021 C 
HETATM    4  C7  UNL     1      -6.447   6.391  14.118  1.00  0.00     0.050 C 
HETATM    5  C9  UNL     1      -6.411   7.921  14.218  1.00  0.00     0.022 C 
HETATM    6  C10 UNL     1      -5.097   8.393  14.873  1.00  0.00     0.011 C 
HETATM    7  C11 UNL     1      -3.787   7.865  14.184  1.00  0.00    -0.032 C 
HETATM    8  C12 UNL     1      -3.721   8.602  12.804  1.00  0.00     0.016 C 
HETATM    9  C13 UNL     1      -3.894   6.306  13.966  1.00  0.00     0.003 C 
HETATM   10  C14 UNL     1      -2.658   5.768  13.247  1.00  0.00     0.038 C 
HETATM   11  C15 UNL     1      -1.332   6.118  13.941  1.00  0.00     0.124 C 
HETATM   12  C16 UNL     1      -1.170   7.632  14.287  1.00  0.00     0.032 C 
HETATM   13  C17 UNL     1       0.253   8.085  14.903  1.00  0.00    -0.033 C 
HETATM   14  C18 UNL     1       0.561   7.337  16.222  1.00  0.00     0.016 C 
HETATM   15  C19 UNL     1       1.405   7.745  13.905  1.00  0.00     0.012 C 
HETATM   16  C20 UNL     1       2.753   8.398  14.218  1.00  0.00     0.033 C 
HETATM   17  C21 UNL     1       2.653   9.911  14.350  1.00  0.00     0.128 C 
HETATM   18  C22 UNL     1       1.591  10.373  15.392  1.00  0.00     0.007 C 
HETATM   19  C23 UNL     1       2.101  10.075  16.817  1.00  0.00     0.020 C 
HETATM   20  C25 UNL     1       0.216   9.663  15.058  1.00  0.00     0.007 C 
HETATM   21  C26 UNL     1      -0.966  10.111  15.935  1.00  0.00     0.007 C 
HETATM   22  C27 UNL     1      -2.303   9.686  15.330  1.00  0.00     0.011 C 
HETATM   23  C28 UNL     1      -2.452   8.165  15.069  1.00  0.00    -0.030 C 
HETATM   24  C29 UNL     1      -2.579   7.483  16.467  1.00  0.00     0.016 C 
HETATM   25  C30 UNL     1      -5.230   5.919  13.286  1.00  0.00     0.017 C 
ENDROOT
BRANCH   4  26
HETATM   26  C8  UNL     1      -6.564   5.791  15.529  1.00  0.00     0.149 C 
HETATM   27  O1  UNL     1      -7.443   5.066  15.962  1.00  0.00    -0.649 OA
BRANCH  26  28
HETATM   28  O2  UNL     1      -5.560   6.169  16.347  1.00  0.00    -0.776 OA
HETATM   29  H11 UNL     1      -5.770   5.729  17.197  1.00  0.00     0.167 HD
ENDBRANCH  26  28
ENDBRANCH   4  26
BRANCH   1  30
HETATM   30  C2  UNL     1      -4.931   3.758  11.780  1.00  0.00    -0.088 C 
HETATM   31  C1  UNL     1      -5.585   2.960  10.920  1.00  0.00     0.014 C 
HETATM   32  C3  UNL     1      -3.460   4.034  11.588  1.00  0.00     0.043 C 
ENDBRANCH   1  30
BRANCH  11  33
HETATM   33  O3  UNL     1      -0.304   5.659  13.065  1.00  0.00    -0.395 OA
HETATM   34  H23 UNL     1      -0.377   6.160  12.234  1.00  0.00     0.210 HD
ENDBRANCH  11  33
BRANCH  18  35
HETATM   35  C24 UNL     1       1.464  11.925  15.236  1.00  0.00     0.176 C 
BRANCH  35  36
HETATM   36  O5  UNL     1       0.411  12.328  14.363  1.00  0.00    -0.400 OA
HETATM   37  H39 UNL     1      -0.427  12.224  14.843  1.00  0.00     0.209 HD
ENDBRANCH  35  36
ENDBRANCH  18  35
BRANCH  17  38
HETATM   38  O4  UNL     1       2.338  10.453  13.062  1.00  0.00    -0.395 OA
HETATM   39  H33 UNL     1       3.019  10.147  12.438  1.00  0.00     0.210 HD
ENDBRANCH  17  38
TORSDOF 7
ENDMDL
MODEL 3
REMARK minimizedAffinity -8.96520805
REMARK  7 active torsions:
REMARK  status: ('A' for Active; 'I' for Inactive)
REMARK    1  A    between atoms: C2_2  and  C4_4 
REMARK    2  A    between atoms: C7_7  and  C8_8 
REMARK    3  A    between atoms: C8_8  and  O2_10 
REMARK    4  A    between atoms: C15_17  and  O3_18 
REMARK    5  A    between atoms: C21_24  and  O4_25 
REMARK    6  A    between atoms: C22_26  and  C24_28 
REMARK    7  A    between atoms: C24_28  and  O5_29 
ROOT
HETATM    1  C4  UNL     1      -6.478   4.369  12.270  1.00  0.00     0.019 C 
HETATM    2  C5  UNL     1      -7.044   2.983  11.857  1.00  0.00     0.011 C 
HETATM    3  C6  UNL     1      -5.852   2.014  11.802  1.00  0.00     0.021 C 
HETATM    4  C7  UNL     1      -4.638   2.927  11.611  1.00  0.00     0.050 C 
HETATM    5  C9  UNL     1      -3.290   2.325  12.026  1.00  0.00     0.022 C 
HETATM    6  C10 UNL     1      -2.187   3.402  12.018  1.00  0.00     0.011 C 
HETATM    7  C11 UNL     1      -2.499   4.677  12.883  1.00  0.00    -0.032 C 
HETATM    8  C12 UNL     1      -2.438   4.190  14.371  1.00  0.00     0.016 C 
HETATM    9  C13 UNL     1      -3.945   5.208  12.541  1.00  0.00     0.003 C 
HETATM   10  C14 UNL     1      -4.302   6.416  13.406  1.00  0.00     0.038 C 
HETATM   11  C15 UNL     1      -3.282   7.562  13.327  1.00  0.00     0.124 C 
HETATM   12  C16 UNL     1      -1.802   7.120  13.559  1.00  0.00     0.032 C 
HETATM   13  C17 UNL     1      -0.696   8.295  13.614  1.00  0.00    -0.033 C 
HETATM   14  C18 UNL     1      -0.670   9.108  12.297  1.00  0.00     0.016 C 
HETATM   15  C19 UNL     1      -1.031   9.297  14.763  1.00  0.00     0.012 C 
HETATM   16  C20 UNL     1       0.092  10.271  15.129  1.00  0.00     0.033 C 
HETATM   17  C21 UNL     1       1.395   9.560  15.466  1.00  0.00     0.128 C 
HETATM   18  C22 UNL     1       1.882   8.593  14.345  1.00  0.00     0.007 C 
HETATM   19  C23 UNL     1       2.399   9.412  13.145  1.00  0.00     0.020 C 
HETATM   20  C25 UNL     1       0.692   7.617  13.972  1.00  0.00     0.007 C 
HETATM   21  C26 UNL     1       1.059   6.522  12.955  1.00  0.00     0.007 C 
HETATM   22  C27 UNL     1       0.008   5.413  12.926  1.00  0.00     0.011 C 
HETATM   23  C28 UNL     1      -1.437   5.884  12.621  1.00  0.00    -0.030 C 
HETATM   24  C29 UNL     1      -1.463   6.296  11.116  1.00  0.00     0.016 C 
HETATM   25  C30 UNL     1      -4.994   4.071  12.591  1.00  0.00     0.017 C 
ENDROOT
BRANCH   4  26
HETATM   26  C8  UNL     1      -4.587   3.315  10.124  1.00  0.00     0.149 C 
HETATM   27  O1  UNL     1      -5.514   3.373   9.334  1.00  0.00    -0.649 OA
BRANCH  26  28
HETATM   28  O2  UNL     1      -3.337   3.585   9.694  1.00  0.00    -0.776 OA
HETATM   29  H11 UNL     1      -3.456   3.799   8.744  1.00  0.00     0.167 HD
ENDBRANCH  26  28
ENDBRANCH   4  26
BRANCH   1  30
HETATM   30  C2  UNL     1      -7.362   5.005  13.332  1.00  0.00    -0.088 C 
HETATM   31  C1  UNL     1      -7.192   4.876  14.659  1.00  0.00     0.014 C 
HETATM   32  C3  UNL     1      -8.510   5.821  12.792  1.00  0.00     0.043 C 
ENDBRANCH   1  30
BRANCH  11  33
HETATM   33  O3  UNL     1      -3.706   8.525  14.290  1.00  0.00    -0.395 OA
HETATM   34  H23 UNL     1      -3.658   8.108  15.168  1.00  0.00     0.210 HD
ENDBRANCH  11  33
BRANCH  18  35
HETATM   35  C24 UNL     1       3.087   7.793  14.943  1.00  0.00     0.176 C 
BRANCH  35  36
HETATM   36  O5  UNL     1       2.695   6.731  15.809  1.00  0.00    -0.400 OA
HETATM   37  H39 UNL     1       2.377   5.999  15.254  1.00  0.00     0.209 HD
ENDBRANCH  35  36
ENDBRANCH  18  35
BRANCH  17  38
HETATM   38  O4  UNL     1       1.206   8.834  16.686  1.00  0.00    -0.395 OA
HETATM   39  H33 UNL     1       0.904   9.464  17.363  1.00  0.00     0.210 HD
ENDBRANCH  17  38
TORSDOF 7
ENDMDL
MODEL 4
REMARK minimizedAffinity -8.78988171
REMARK  7 active torsions:
REMARK  status: ('A' for Active; 'I' for Inactive)
REMARK    1  A    between atoms: C2_2  and  C4_4 
REMARK    2  A    between atoms: C7_7  and  C8_8 
REMARK    3  A    between atoms: C8_8  and  O2_10 
REMARK    4  A    between atoms: C15_17  and  O3_18 
REMARK    5  A    between atoms: C21_24  and  O4_25 
REMARK    6  A    between atoms: C22_26  and  C24_28 
REMARK    7  A    between atoms: C24_28  and  O5_29 
ROOT
HETATM    1  C4  UNL     1      -4.469   4.729  13.221  1.00  0.00     0.019 C 
HETATM    2  C5  UNL     1      -6.008   4.752  13.014  1.00  0.00     0.011 C 
HETATM    3  C6  UNL     1      -6.451   6.220  13.127  1.00  0.00     0.021 C 
HETATM    4  C7  UNL     1      -5.330   6.886  13.932  1.00  0.00     0.050 C 
HETATM    5  C9  UNL     1      -5.222   8.407  13.773  1.00  0.00     0.022 C 
HETATM    6  C10 UNL     1      -3.928   8.932  14.428  1.00  0.00     0.011 C 
HETATM    7  C11 UNL     1      -2.607   8.241  13.931  1.00  0.00    -0.032 C 
HETATM    8  C12 UNL     1      -2.418   8.726  12.453  1.00  0.00     0.016 C 
HETATM    9  C13 UNL     1      -2.781   6.673  13.973  1.00  0.00     0.003 C 
HETATM   10  C14 UNL     1      -1.532   5.971  13.443  1.00  0.00     0.038 C 
HETATM   11  C15 UNL     1      -0.235   6.381  14.158  1.00  0.00     0.124 C 
HETATM   12  C16 UNL     1      -0.017   7.924  14.252  1.00  0.00     0.032 C 
HETATM   13  C17 UNL     1       1.387   8.419  14.880  1.00  0.00    -0.033 C 
HETATM   14  C18 UNL     1       1.574   7.898  16.325  1.00  0.00     0.016 C 
HETATM   15  C19 UNL     1       2.579   7.866  14.036  1.00  0.00     0.012 C 
HETATM   16  C20 UNL     1       3.937   8.509  14.327  1.00  0.00     0.033 C 
HETATM   17  C21 UNL     1       3.907  10.025  14.193  1.00  0.00     0.128 C 
HETATM   18  C22 UNL     1       2.808  10.702  15.066  1.00  0.00     0.007 C 
HETATM   19  C23 UNL     1       3.213  10.635  16.552  1.00  0.00     0.020 C 
HETATM   20  C25 UNL     1       1.422  10.000  14.762  1.00  0.00     0.007 C 
HETATM   21  C26 UNL     1       0.213  10.641  15.467  1.00  0.00     0.007 C 
HETATM   22  C27 UNL     1      -1.105  10.171  14.851  1.00  0.00     0.011 C 
HETATM   23  C28 UNL     1      -1.316   8.635  14.842  1.00  0.00    -0.030 C 
HETATM   24  C29 UNL     1      -1.563   8.211  16.324  1.00  0.00     0.016 C 
HETATM   25  C30 UNL     1      -4.090   6.228  13.278  1.00  0.00     0.017 C 
ENDROOT
BRANCH   4  26
HETATM   26  C8  UNL     1      -5.565   6.543  15.412  1.00  0.00     0.149 C 
HETATM   27  O1  UNL     1      -6.613   6.585  16.032  1.00  0.00    -0.649 OA
BRANCH  26  28
HETATM   28  O2  UNL     1      -4.433   6.187  16.055  1.00  0.00    -0.776 OA
HETATM   29  H11 UNL     1      -4.729   6.014  16.974  1.00  0.00     0.167 HD
ENDBRANCH  26  28
ENDBRANCH   4  26
BRANCH   1  30
HETATM   30  C2  UNL     1      -3.811   3.830  12.185  1.00  0.00    -0.088 C 
HETATM   31  C1  UNL     1      -3.942   2.494  12.125  1.00  0.00     0.014 C 
HETATM   32  C3  UNL     1      -2.946   4.552  11.182  1.00  0.00     0.043 C 
ENDBRANCH   1  30
BRANCH  11  33
HETATM   33  O3  UNL     1       0.820   5.737  13.446  1.00  0.00    -0.395 OA
HETATM   34  H23 UNL     1       0.824   6.090  12.539  1.00  0.00     0.210 HD
ENDBRANCH  11  33
BRANCH  18  35
HETATM   35  C24 UNL     1       2.771  12.208  14.640  1.00  0.00     0.176 C 
BRANCH  35  36
HETATM   36  O5  UNL     1       1.506  12.628  14.134  1.00  0.00    -0.400 OA
HETATM   37  H39 UNL     1       0.907  12.741  14.891  1.00  0.00     0.209 HD
ENDBRANCH  35  36
ENDBRANCH  18  35
BRANCH  17  38
HETATM   38  O4  UNL     1       3.700  10.349  12.813  1.00  0.00    -0.395 OA
HETATM   39  H33 UNL     1       4.401   9.913  12.299  1.00  0.00     0.210 HD
ENDBRANCH  17  38
TORSDOF 7
ENDMDL
MODEL 5
REMARK minimizedAffinity -8.35469627
REMARK  7 active torsions:
REMARK  status: ('A' for Active; 'I' for Inactive)
REMARK    1  A    between atoms: C2_2  and  C4_4 
REMARK    2  A    between atoms: C7_7  and  C8_8 
REMARK    3  A    between atoms: C8_8  and  O2_10 
REMARK    4  A    between atoms: C15_17  and  O3_18 
REMARK    5  A    between atoms: C21_24  and  O4_25 
REMARK    6  A    between atoms: C22_26  and  C24_28 
REMARK    7  A    between atoms: C24_28  and  O5_29 
ROOT
HETATM    1  C4  UNL     1       6.273   7.983  13.539  1.00  0.00     0.019 C 
HETATM    2  C5  UNL     1       7.408   8.226  12.507  1.00  0.00     0.011 C 
HETATM    3  C6  UNL     1       6.730   8.508  11.157  1.00  0.00     0.021 C 
HETATM    4  C7  UNL     1       5.342   7.877  11.298  1.00  0.00     0.050 C 
HETATM    5  C9  UNL     1       4.271   8.421  10.345  1.00  0.00     0.022 C 
HETATM    6  C10 UNL     1       2.875   7.894  10.735  1.00  0.00     0.011 C 
HETATM    7  C11 UNL     1       2.459   8.163  12.226  1.00  0.00    -0.032 C 
HETATM    8  C12 UNL     1       2.236   9.711  12.320  1.00  0.00     0.016 C 
HETATM    9  C13 UNL     1       3.626   7.720  13.190  1.00  0.00     0.003 C 
HETATM   10  C14 UNL     1       3.275   8.020  14.647  1.00  0.00     0.038 C 
HETATM   11  C15 UNL     1       1.944   7.405  15.106  1.00  0.00     0.124 C 
HETATM   12  C16 UNL     1       0.738   7.708  14.162  1.00  0.00     0.032 C 
HETATM   13  C17 UNL     1      -0.713   7.197  14.653  1.00  0.00    -0.033 C 
HETATM   14  C18 UNL     1      -0.734   5.662  14.850  1.00  0.00     0.016 C 
HETATM   15  C19 UNL     1      -1.072   7.839  16.030  1.00  0.00     0.012 C 
HETATM   16  C20 UNL     1      -2.535   7.692  16.457  1.00  0.00     0.033 C 
HETATM   17  C21 UNL     1      -3.505   8.216  15.407  1.00  0.00     0.128 C 
HETATM   18  C22 UNL     1      -3.301   7.575  14.001  1.00  0.00     0.007 C 
HETATM   19  C23 UNL     1      -3.790   6.112  14.023  1.00  0.00     0.020 C 
HETATM   20  C25 UNL     1      -1.776   7.720  13.599  1.00  0.00     0.007 C 
HETATM   21  C26 UNL     1      -1.441   7.235  12.178  1.00  0.00     0.007 C 
HETATM   22  C27 UNL     1      -0.071   7.739  11.725  1.00  0.00     0.011 C 
HETATM   23  C28 UNL     1       1.111   7.354  12.653  1.00  0.00    -0.030 C 
HETATM   24  C29 UNL     1       1.335   5.820  12.476  1.00  0.00     0.016 C 
HETATM   25  C30 UNL     1       4.986   8.307  12.743  1.00  0.00     0.017 C 
ENDROOT
BRANCH   4  26
HETATM   26  C8  UNL     1       5.502   6.364  11.074  1.00  0.00     0.149 C 
HETATM   27  O1  UNL     1       5.156   5.712  10.104  1.00  0.00    -0.649 OA
BRANCH  26  28
HETATM   28  O2  UNL     1       6.075   5.735  12.120  1.00  0.00    -0.776 OA
HETATM   29  H11 UNL     1       6.100   4.794  11.845  1.00  0.00     0.167 HD
ENDBRANCH  26  28
ENDBRANCH   4  26
BRANCH   1  30
HETATM   30  C2  UNL     1       6.564   8.734  14.829  1.00  0.00    -0.088 C 
HETATM   31  C1  UNL     1       7.111   8.195  15.932  1.00  0.00     0.014 C 
HETATM   32  C3  UNL     1       6.173  10.191  14.813  1.00  0.00     0.043 C 
ENDBRANCH   1  30
BRANCH  11  33
HETATM   33  O3  UNL     1       1.724   7.900  16.426  1.00  0.00    -0.395 OA
HETATM   34  H23 UNL     1       1.631   8.867  16.368  1.00  0.00     0.210 HD
ENDBRANCH  11  33
BRANCH  18  35
HETATM   35  C24 UNL     1      -4.212   8.377  13.013  1.00  0.00     0.176 C 
BRANCH  35  36
HETATM   36  O5  UNL     1      -5.394   8.897  13.618  1.00  0.00    -0.400 OA
HETATM   37  H39 UNL     1      -5.140   9.673  14.145  1.00  0.00     0.209 HD
ENDBRANCH  35  36
ENDBRANCH  18  35
BRANCH  17  38
HETATM   38  O4  UNL     1      -3.349   9.637  15.321  1.00  0.00    -0.395 OA
HETATM   39  H33 UNL     1      -3.483  10.004  16.212  1.00  0.00     0.210 HD
ENDBRANCH  17  38
TORSDOF 7
ENDMDL
MODEL 6
REMARK minimizedAffinity -8.08851147
REMARK  7 active torsions:
REMARK  status: ('A' for Active; 'I' for Inactive)
REMARK    1  A    between atoms: C2_2  and  C4_4 
REMARK    2  A    between atoms: C7_7  and  C8_8 
REMARK    3  A    between atoms: C8_8  and  O2_10 
REMARK    4  A    between atoms: C15_17  and  O3_18 
REMARK    5  A    between atoms: C21_24  and  O4_25 
REMARK    6  A    between atoms: C22_26  and  C24_28 
REMARK    7  A    between atoms: C24_28  and  O5_29 
ROOT
HETATM    1  C4  UNL     1      -5.745   3.922  11.995  1.00  0.00     0.019 C 
HETATM    2  C5  UNL     1      -5.537   2.498  11.412  1.00  0.00     0.011 C 
HETATM    3  C6  UNL     1      -4.100   2.078  11.764  1.00  0.00     0.021 C 
HETATM    4  C7  UNL     1      -3.372   3.405  12.001  1.00  0.00     0.050 C 
HETATM    5  C9  UNL     1      -2.098   3.313  12.849  1.00  0.00     0.022 C 
HETATM    6  C10 UNL     1      -1.589   4.721  13.220  1.00  0.00     0.011 C 
HETATM    7  C11 UNL     1      -2.646   5.643  13.929  1.00  0.00    -0.032 C 
HETATM    8  C12 UNL     1      -2.857   5.012  15.348  1.00  0.00     0.016 C 
HETATM    9  C13 UNL     1      -3.998   5.621  13.116  1.00  0.00     0.003 C 
HETATM   10  C14 UNL     1      -5.066   6.465  13.809  1.00  0.00     0.038 C 
HETATM   11  C15 UNL     1      -4.635   7.913  14.085  1.00  0.00     0.124 C 
HETATM   12  C16 UNL     1      -3.256   8.045  14.807  1.00  0.00     0.032 C 
HETATM   13  C17 UNL     1      -2.804   9.534  15.238  1.00  0.00    -0.033 C 
HETATM   14  C18 UNL     1      -2.705  10.472  14.011  1.00  0.00     0.016 C 
HETATM   15  C19 UNL     1      -3.858  10.158  16.206  1.00  0.00     0.012 C 
HETATM   16  C20 UNL     1      -3.406  11.426  16.935  1.00  0.00     0.033 C 
HETATM   17  C21 UNL     1      -2.101  11.229  17.695  1.00  0.00     0.128 C 
HETATM   18  C22 UNL     1      -0.941  10.691  16.805  1.00  0.00     0.007 C 
HETATM   19  C23 UNL     1      -0.459  11.806  15.854  1.00  0.00     0.020 C 
HETATM   20  C25 UNL     1      -1.447   9.397  16.047  1.00  0.00     0.007 C 
HETATM   21  C26 UNL     1      -0.369   8.681  15.214  1.00  0.00     0.007 C 
HETATM   22  C27 UNL     1      -0.809   7.270  14.826  1.00  0.00     0.011 C 
HETATM   23  C28 UNL     1      -2.147   7.188  14.047  1.00  0.00    -0.030 C 
HETATM   24  C29 UNL     1      -1.870   7.767  12.624  1.00  0.00     0.016 C 
HETATM   25  C30 UNL     1      -4.450   4.174  12.803  1.00  0.00     0.017 C 
ENDROOT
BRANCH   4  26
HETATM   26  C8  UNL     1      -3.025   3.988  10.621  1.00  0.00     0.149 C 
HETATM   27  O1  UNL     1      -3.701   3.963   9.607  1.00  0.00    -0.649 OA
BRANCH  26  28
HETATM   28  O2  UNL     1      -1.803   4.558  10.584  1.00  0.00    -0.776 OA
HETATM   29  H11 UNL     1      -1.715   4.868   9.658  1.00  0.00     0.167 HD
ENDBRANCH  26  28
ENDBRANCH   4  26
BRANCH   1  30
HETATM   30  C2  UNL     1      -7.093   4.014  12.694  1.00  0.00    -0.088 C 
HETATM   31  C1  UNL     1      -7.487   3.242  13.721  1.00  0.00     0.014 C 
HETATM   32  C3  UNL     1      -8.022   5.063  12.137  1.00  0.00     0.043 C 
ENDBRANCH   1  30
BRANCH  11  33
HETATM   33  O3  UNL     1      -5.692   8.493  14.848  1.00  0.00    -0.395 OA
HETATM   34  H23 UNL     1      -5.752   8.007  15.689  1.00  0.00     0.210 HD
ENDBRANCH  11  33
BRANCH  18  35
HETATM   35  C24 UNL     1       0.235  10.339  17.777  1.00  0.00     0.176 C 
BRANCH  35  36
HETATM   36  O5  UNL     1       0.365  11.246  18.869  1.00  0.00    -0.400 OA
HETATM   37  H39 UNL     1      -0.336  11.040  19.510  1.00  0.00     0.209 HD
ENDBRANCH  35  36
ENDBRANCH  18  35
BRANCH  17  38
HETATM   38  O4  UNL     1      -2.346  10.322  18.776  1.00  0.00    -0.395 OA
HETATM   39  H33 UNL     1      -3.073  10.686  19.310  1.00  0.00     0.210 HD
ENDBRANCH  17  38
TORSDOF 7
ENDMDL
MODEL 7
REMARK minimizedAffinity -7.90596342
REMARK  7 active torsions:
REMARK  status: ('A' for Active; 'I' for Inactive)
REMARK    1  A    between atoms: C2_2  and  C4_4 
REMARK    2  A    between atoms: C7_7  and  C8_8 
REMARK    3  A    between atoms: C8_8  and  O2_10 
REMARK    4  A    between atoms: C15_17  and  O3_18 
REMARK    5  A    between atoms: C21_24  and  O4_25 
REMARK    6  A    between atoms: C22_26  and  C24_28 
REMARK    7  A    between atoms: C24_28  and  O5_29 
ROOT
HETATM    1  C4  UNL     1      -2.557   4.651  11.560  1.00  0.00     0.019 C 
HETATM    2  C5  UNL     1      -1.732   3.441  11.045  1.00  0.00     0.011 C 
HETATM    3  C6  UNL     1      -0.376   3.485  11.769  1.00  0.00     0.021 C 
HETATM    4  C7  UNL     1      -0.233   4.947  12.202  1.00  0.00     0.050 C 
HETATM    5  C9  UNL     1       0.738   5.197  13.361  1.00  0.00     0.022 C 
HETATM    6  C10 UNL     1       0.622   6.650  13.866  1.00  0.00     0.011 C 
HETATM    7  C11 UNL     1      -0.830   7.096  14.270  1.00  0.00    -0.032 C 
HETATM    8  C12 UNL     1      -1.159   6.294  15.575  1.00  0.00     0.016 C 
HETATM    9  C13 UNL     1      -1.841   6.711  13.123  1.00  0.00     0.003 C 
HETATM   10  C14 UNL     1      -3.272   7.082  13.508  1.00  0.00     0.038 C 
HETATM   11  C15 UNL     1      -3.449   8.557  13.900  1.00  0.00     0.124 C 
HETATM   12  C16 UNL     1      -2.428   9.064  14.968  1.00  0.00     0.032 C 
HETATM   13  C17 UNL     1      -2.640  10.568  15.515  1.00  0.00    -0.033 C 
HETATM   14  C18 UNL     1      -2.565  11.603  14.367  1.00  0.00     0.016 C 
HETATM   15  C19 UNL     1      -4.051  10.710  16.168  1.00  0.00     0.012 C 
HETATM   16  C20 UNL     1      -4.261  11.978  17.000  1.00  0.00     0.033 C 
HETATM   17  C21 UNL     1      -3.203  12.148  18.083  1.00  0.00     0.128 C 
HETATM   18  C22 UNL     1      -1.745  12.113  17.535  1.00  0.00     0.007 C 
HETATM   19  C23 UNL     1      -1.454  13.413  16.757  1.00  0.00     0.020 C 
HETATM   20  C25 UNL     1      -1.567  10.806  16.659  1.00  0.00     0.007 C 
HETATM   21  C26 UNL     1      -0.137  10.573  16.142  1.00  0.00     0.007 C 
HETATM   22  C27 UNL     1       0.048   9.141  15.641  1.00  0.00     0.011 C 
HETATM   23  C28 UNL     1      -0.939   8.700  14.530  1.00  0.00    -0.030 C 
HETATM   24  C29 UNL     1      -0.531   9.476  13.238  1.00  0.00     0.016 C 
HETATM   25  C30 UNL     1      -1.674   5.235  12.689  1.00  0.00     0.017 C 
ENDROOT
BRANCH   4  26
HETATM   26  C8  UNL     1       0.227   5.746  10.971  1.00  0.00     0.149 C 
HETATM   27  O1  UNL     1      -0.240   6.785  10.537  1.00  0.00    -0.649 OA
BRANCH  26  28
HETATM   28  O2  UNL     1       1.255   5.163  10.320  1.00  0.00    -0.776 OA
HETATM   29  H11 UNL     1       1.428   5.765   9.566  1.00  0.00     0.167 HD
ENDBRANCH  26  28
ENDBRANCH   4  26
BRANCH   1  30
HETATM   30  C2  UNL     1      -3.983   4.224  11.871  1.00  0.00    -0.088 C 
HETATM   31  C1  UNL     1      -4.651   4.517  12.999  1.00  0.00     0.014 C 
HETATM   32  C3  UNL     1      -4.642   3.397  10.794  1.00  0.00     0.043 C 
ENDBRANCH   1  30
BRANCH  11  33
HETATM   33  O3  UNL     1      -4.796   8.678  14.354  1.00  0.00    -0.395 OA
HETATM   34  H23 UNL     1      -4.895   8.119  15.144  1.00  0.00     0.210 HD
ENDBRANCH  11  33
BRANCH  18  35
HETATM   35  C24 UNL     1      -0.804  12.074  18.785  1.00  0.00     0.176 C 
BRANCH  35  36
HETATM   36  O5  UNL     1      -0.680  10.779  19.367  1.00  0.00    -0.400 OA
HETATM   37  H39 UNL     1      -0.088  10.255  18.801  1.00  0.00     0.209 HD
ENDBRANCH  35  36
ENDBRANCH  18  35
BRANCH  17  38
HETATM   38  O4  UNL     1      -3.383  11.108  19.051  1.00  0.00    -0.395 OA
HETATM   39  H33 UNL     1      -4.300  11.158  19.373  1.00  0.00     0.210 HD
ENDBRANCH  17  38
TORSDOF 7
ENDMDL
MODEL 8
REMARK minimizedAffinity -7.77697086
REMARK  7 active torsions:
REMARK  status: ('A' for Active; 'I' for Inactive)
REMARK    1  A    between atoms: C2_2  and  C4_4 
REMARK    2  A    between atoms: C7_7  and  C8_8 
REMARK    3  A    between atoms: C8_8  and  O2_10 
REMARK    4  A    between atoms: C15_17  and  O3_18 
REMARK    5  A    between atoms: C21_24  and  O4_25 
REMARK    6  A    between atoms: C22_26  and  C24_28 
REMARK    7  A    between atoms: C24_28  and  O5_29 
ROOT
HETATM    1  C4  UNL     1       2.115   6.705  10.542  1.00  0.00     0.019 C 
HETATM    2  C5  UNL     1       0.570   6.595  10.435  1.00  0.00     0.011 C 
HETATM    3  C6  UNL     1      -0.017   7.479  11.548  1.00  0.00     0.021 C 
HETATM    4  C7  UNL     1       1.118   7.592  12.571  1.00  0.00     0.050 C 
HETATM    5  C9  UNL     1       1.032   8.794  13.518  1.00  0.00     0.022 C 
HETATM    6  C10 UNL     1       2.334   8.941  14.332  1.00  0.00     0.011 C 
HETATM    7  C11 UNL     1       3.646   9.022  13.472  1.00  0.00    -0.032 C 
HETATM    8  C12 UNL     1       3.581  10.411  12.751  1.00  0.00     0.016 C 
HETATM    9  C13 UNL     1       3.658   7.856  12.410  1.00  0.00     0.003 C 
HETATM   10  C14 UNL     1       4.896   7.939  11.520  1.00  0.00     0.038 C 
HETATM   11  C15 UNL     1       6.222   7.964  12.297  1.00  0.00     0.124 C 
HETATM   12  C16 UNL     1       6.275   9.028  13.439  1.00  0.00     0.032 C 
HETATM   13  C17 UNL     1       7.685   9.191  14.210  1.00  0.00    -0.033 C 
HETATM   14  C18 UNL     1       8.120   7.864  14.877  1.00  0.00     0.016 C 
HETATM   15  C19 UNL     1       8.809   9.585  13.201  1.00  0.00     0.012 C 
HETATM   16  C20 UNL     1      10.113  10.076  13.836  1.00  0.00     0.033 C 
HETATM   17  C21 UNL     1       9.894  11.234  14.800  1.00  0.00     0.128 C 
HETATM   18  C22 UNL     1       8.851  10.923  15.915  1.00  0.00     0.007 C 
HETATM   19  C23 UNL     1       9.455   9.926  16.925  1.00  0.00     0.020 C 
HETATM   20  C25 UNL     1       7.525  10.395  15.230  1.00  0.00     0.007 C 
HETATM   21  C26 UNL     1       6.356  10.154  16.201  1.00  0.00     0.007 C 
HETATM   22  C27 UNL     1       5.030  10.016  15.454  1.00  0.00     0.011 C 
HETATM   23  C28 UNL     1       4.994   8.900  14.378  1.00  0.00    -0.030 C 
HETATM   24  C29 UNL     1       4.996   7.541  15.146  1.00  0.00     0.016 C 
HETATM   25  C30 UNL     1       2.326   7.791  11.624  1.00  0.00     0.017 C 
ENDROOT
BRANCH   4  26
HETATM   26  C8  UNL     1       1.122   6.293  13.395  1.00  0.00     0.149 C 
HETATM   27  O1  UNL     1       0.472   5.281  13.198  1.00  0.00    -0.649 OA
BRANCH  26  28
HETATM   28  O2  UNL     1       1.942   6.352  14.464  1.00  0.00    -0.776 OA
HETATM   29  H11 UNL     1       1.834   5.477  14.893  1.00  0.00     0.167 HD
ENDBRANCH  26  28
ENDBRANCH   4  26
BRANCH   1  30
HETATM   30  C2  UNL     1       2.727   6.894   9.162  1.00  0.00    -0.088 C 
HETATM   31  C1  UNL     1       2.941   8.078   8.565  1.00  0.00     0.014 C 
HETATM   32  C3  UNL     1       3.090   5.613   8.452  1.00  0.00     0.043 C 
ENDBRANCH   1  30
BRANCH  11  33
HETATM   33  O3  UNL     1       7.239   8.181  11.320  1.00  0.00    -0.395 OA
HETATM   34  H23 UNL     1       7.083   9.053  10.918  1.00  0.00     0.210 HD
ENDBRANCH  11  33
BRANCH  18  35
HETATM   35  C24 UNL     1       8.588  12.273  16.663  1.00  0.00     0.176 C 
BRANCH  35  36
HETATM   36  O5  UNL     1       9.611  12.620  17.592  1.00  0.00    -0.400 OA
HETATM   37  H39 UNL     1      10.371  12.954  17.085  1.00  0.00     0.209 HD
ENDBRANCH  35  36
ENDBRANCH  18  35
BRANCH  17  38
HETATM   38  O4  UNL     1       9.471  12.373  14.042  1.00  0.00    -0.395 OA
HETATM   39  H33 UNL     1      10.142  12.540  13.358  1.00  0.00     0.210 HD
ENDBRANCH  17  38
TORSDOF 7
ENDMDL
MODEL 9
REMARK minimizedAffinity -7.7617321
REMARK  7 active torsions:
REMARK  status: ('A' for Active; 'I' for Inactive)
REMARK    1  A    between atoms: C2_2  and  C4_4 
REMARK    2  A    between atoms: C7_7  and  C8_8 
REMARK    3  A    between atoms: C8_8  and  O2_10 
REMARK    4  A    between atoms: C15_17  and  O3_18 
REMARK    5  A    between atoms: C21_24  and  O4_25 
REMARK    6  A    between atoms: C22_26  and  C24_28 
REMARK    7  A    between atoms: C24_28  and  O5_29 
ROOT
HETATM    1  C4  UNL     1     -15.736  10.499  16.281  1.00  0.00     0.019 C 
HETATM    2  C5  UNL     1     -17.167  10.723  15.720  1.00  0.00     0.011 C 
HETATM    3  C6  UNL     1     -17.266   9.912  14.417  1.00  0.00     0.021 C 
HETATM    4  C7  UNL     1     -15.810   9.737  13.976  1.00  0.00     0.050 C 
HETATM    5  C9  UNL     1     -15.550   8.566  13.020  1.00  0.00     0.022 C 
HETATM    6  C10 UNL     1     -14.035   8.340  12.837  1.00  0.00     0.011 C 
HETATM    7  C11 UNL     1     -13.229   8.139  14.171  1.00  0.00    -0.032 C 
HETATM    8  C12 UNL     1     -13.680   6.743  14.720  1.00  0.00     0.016 C 
HETATM    9  C13 UNL     1     -13.608   9.277  15.195  1.00  0.00     0.003 C 
HETATM   10  C14 UNL     1     -12.882   9.080  16.525  1.00  0.00     0.038 C 
HETATM   11  C15 UNL     1     -11.355   8.972  16.391  1.00  0.00     0.124 C 
HETATM   12  C16 UNL     1     -10.877   7.934  15.328  1.00  0.00     0.032 C 
HETATM   13  C17 UNL     1      -9.285   7.682  15.227  1.00  0.00    -0.033 C 
HETATM   14  C18 UNL     1      -8.527   8.987  14.883  1.00  0.00     0.016 C 
HETATM   15  C19 UNL     1      -8.731   7.180  16.598  1.00  0.00     0.012 C 
HETATM   16  C20 UNL     1      -7.312   6.607  16.559  1.00  0.00     0.033 C 
HETATM   17  C21 UNL     1      -7.161   5.491  15.534  1.00  0.00     0.128 C 
HETATM   18  C22 UNL     1      -7.601   5.905  14.098  1.00  0.00     0.007 C 
HETATM   19  C23 UNL     1      -6.563   6.877  13.499  1.00  0.00     0.020 C 
HETATM   20  C25 UNL     1      -9.060   6.517  14.175  1.00  0.00     0.007 C 
HETATM   21  C26 UNL     1      -9.679   6.867  12.811  1.00  0.00     0.007 C 
HETATM   22  C27 UNL     1     -11.187   7.089  12.923  1.00  0.00     0.011 C 
HETATM   23  C28 UNL     1     -11.617   8.180  13.938  1.00  0.00    -0.030 C 
HETATM   24  C29 UNL     1     -11.205   9.552  13.318  1.00  0.00     0.016 C 
HETATM   25  C30 UNL     1     -15.143   9.425  15.337  1.00  0.00     0.017 C 
ENDROOT
BRANCH   4  26
HETATM   26  C8  UNL     1     -15.375  11.049  13.304  1.00  0.00     0.149 C 
HETATM   27  O1  UNL     1     -15.911  11.627  12.374  1.00  0.00    -0.649 OA
BRANCH  26  28
HETATM   28  O2  UNL     1     -14.243  11.560  13.832  1.00  0.00    -0.776 OA
HETATM   29  H11 UNL     1     -14.084  12.372  13.306  1.00  0.00     0.167 HD
ENDBRANCH  26  28
ENDBRANCH   4  26
BRANCH   1  30
HETATM   30  C2  UNL     1     -15.791  10.233  17.777  1.00  0.00    -0.088 C 
HETATM   31  C1  UNL     1     -16.324   9.141  18.350  1.00  0.00     0.014 C 
HETATM   32  C3  UNL     1     -15.196  11.323  18.634  1.00  0.00     0.043 C 
ENDBRANCH   1  30
BRANCH  11  33
HETATM   33  O3  UNL     1     -10.874   8.657  17.696  1.00  0.00    -0.395 OA
HETATM   34  H23 UNL     1     -11.239   7.790  17.946  1.00  0.00     0.210 HD
ENDBRANCH  11  33
BRANCH  18  35
HETATM   35  C24 UNL     1      -7.594   4.597  13.239  1.00  0.00     0.176 C 
BRANCH  35  36
HETATM   36  O5  UNL     1      -8.725   3.759  13.464  1.00  0.00    -0.400 OA
HETATM   37  H39 UNL     1      -9.484   4.156  13.005  1.00  0.00     0.209 HD
ENDBRANCH  35  36
ENDBRANCH  18  35
BRANCH  17  38
HETATM   38  O4  UNL     1      -7.936   4.370  15.975  1.00  0.00    -0.395 OA
HETATM   39  H33 UNL     1      -7.637   4.138  16.871  1.00  0.00     0.210 HD
ENDBRANCH  17  38
TORSDOF 7
ENDMDL
