MODEL 1
REMARK minimizedAffinity -7.74568462
REMARK CNNscore 0.488191754
REMARK CNNaffinity 7.91191339
REMARK  9 active torsions:
REMARK  status: ('A' for Active; 'I' for Inactive)
REMARK    1  A    between atoms: C13_13  and  S1_14 
REMARK    2  A    between atoms: C25_30  and  O5_31 
REMARK    3  A    between atoms: C31_37  and  C32_38 
REMARK    4  A    between atoms: C32_38  and  O6_39 
REMARK    5  A    between atoms: C40_47  and  C41_48 
REMARK    6  A    between atoms: C40_47  and  N1_56 
REMARK    7  A    between atoms: C41_48  and  C42_49 
REMARK    8  A    between atoms: C42_49  and  C43_50 
REMARK    9  A    between atoms: C43_50  and  O7_51 
REMARK       I    between atoms: C48_58  and  N2_59 
REMARK       I    between atoms: C48_58  and  N3_60 
ROOT
HETATM    1  C1  UNL     1     -11.085  14.755   1.515  1.00  0.00     0.010 C 
HETATM    2  C2  UNL     1     -11.276  15.367   2.892  1.00  0.00    -0.010 C 
HETATM    3  C3  UNL     1     -11.634  14.264   3.923  1.00  0.00     0.009 C 
HETATM    4  C4  UNL     1     -11.369  14.626   5.392  1.00  0.00     0.039 C 
HETATM    5  C5  UNL     1     -11.311  16.108   5.629  1.00  0.00    -0.049 C 
HETATM    6  C6  UNL     1     -11.632  16.645   6.876  1.00  0.00     0.044 C 
HETATM    7  C7  UNL     1     -11.496  18.014   7.082  1.00  0.00     0.073 C 
HETATM    8  C8  UNL     1     -11.310  18.867   5.990  1.00  0.00     0.037 C 
HETATM    9  C9  UNL     1     -10.902  18.338   4.766  1.00  0.00     0.011 C 
HETATM   10  C10 UNL     1     -10.802  16.954   4.620  1.00  0.00    -0.047 C 
HETATM   11  C11 UNL     1     -10.144  16.322   3.390  1.00  0.00     0.024 C 
HETATM   12  C12 UNL     1      -8.809  15.638   3.829  1.00  0.00     0.033 C 
HETATM   13  C13 UNL     1      -7.438  15.859   3.145  1.00  0.00     0.140 C 
HETATM   14  C14 UNL     1      -6.402  16.992   3.481  1.00  0.00     0.050 C 
HETATM   15  C15 UNL     1      -5.005  16.383   3.654  1.00  0.00    -0.013 C 
HETATM   16  C16 UNL     1      -3.920  17.173   3.520  1.00  0.00    -0.050 C 
HETATM   17  C17 UNL     1      -4.179  18.650   3.391  1.00  0.00     0.043 C 
HETATM   18  C18 UNL     1      -5.044  18.981   4.611  1.00  0.00     0.013 C 
HETATM   19  C19 UNL     1      -4.332  18.630   6.000  1.00  0.00     0.039 C 
HETATM   20  C20 UNL     1      -2.820  18.260   5.957  1.00  0.00     0.130 C 
HETATM   21  O4  UNL     1      -2.725  16.924   5.452  1.00  0.00    -0.371 OA
HETATM   22  C21 UNL     1      -2.556  16.841   4.031  1.00  0.00     0.185 C 
HETATM   23  C22 UNL     1      -1.843  15.538   3.699  1.00  0.00    -0.006 A 
HETATM   24  C23 UNL     1      -2.297  14.659   2.702  1.00  0.00     0.014 A 
HETATM   25  C24 UNL     1      -1.572  13.504   2.387  1.00  0.00     0.037 A 
HETATM   26  C25 UNL     1      -0.380  13.232   3.052  1.00  0.00     0.067 A 
HETATM   27  C26 UNL     1       0.109  14.089   4.031  1.00  0.00     0.057 A 
HETATM   28  C27 UNL     1      -0.619  15.233   4.357  1.00  0.00     0.029 A 
HETATM   29  C28 UNL     1      -0.143  16.114   5.395  1.00  0.00    -0.066 C 
HETATM   30  C29 UNL     1      -0.132  16.965   6.248  1.00  0.00    -0.101 C 
HETATM   31  C30 UNL     1      -0.519  18.083   7.147  1.00  0.00     0.103 C 
HETATM   32  C31 UNL     1      -2.073  18.250   7.323  1.00  0.00     0.049 C 
HETATM   33  C33 UNL     1      -6.497  18.300   4.399  1.00  0.00     0.102 A 
HETATM   34  C34 UNL     1      -7.305  18.511   5.663  1.00  0.00     0.081 A 
HETATM   35  C35 UNL     1      -7.713  19.834   5.933  1.00  0.00     0.006 C 
HETATM   36  C36 UNL     1      -8.531  20.143   7.016  1.00  0.00     0.010 C 
HETATM   37  C37 UNL     1      -9.036  19.130   7.846  1.00  0.00    -0.003 C 
HETATM   38  C38 UNL     1      -8.485  17.838   7.675  1.00  0.00     0.010 C 
HETATM   39  C39 UNL     1      -7.623  17.536   6.601  1.00  0.00     0.006 C 
HETATM   40  C40 UNL     1     -10.339  19.406   8.679  1.00  0.00     0.170 C 
HETATM   41  O8  UNL     1     -11.366  18.404   8.404  1.00  0.00    -0.316 OA
HETATM   42 NA1  UNL     1      -7.632  17.210   6.392  1.00  0.00    -0.223 Na
ENDROOT
BRANCH  40  43
HETATM   43  C41 UNL     1      -9.971  19.378  10.209  1.00  0.00     0.070 C 
BRANCH  43  44
HETATM   44  C42 UNL     1      -8.951  18.363  10.753  1.00  0.00     0.043 C 
BRANCH  44  45
HETATM   45  C43 UNL     1      -7.600  18.922  11.245  1.00  0.00     0.058 C 
HETATM   46  C44 UNL     1      -6.387  18.589  10.378  1.00  0.00     0.038 C 
HETATM   47  C45 UNL     1      -5.193  18.823  11.300  1.00  0.00     0.003 C 
HETATM   48  C46 UNL     1      -5.703  18.576  12.722  1.00  0.00     0.003 C 
HETATM   49  C47 UNL     1      -7.203  18.309  12.596  1.00  0.00     0.038 C 
BRANCH  45  50
HETATM   50  O7  UNL     1      -7.645  20.344  11.406  1.00  0.00    -0.390 OA
HETATM   51  H44 UNL     1      -8.577  20.595  11.577  1.00  0.00     0.210 HD
ENDBRANCH  45  50
ENDBRANCH  44  45
ENDBRANCH  43  44
ENDBRANCH  40  43
BRANCH  40  52
HETATM   52  N1  UNL     1     -10.769  20.824   8.480  1.00  0.00    -0.336 N 
HETATM   53  C48 UNL     1     -11.941  21.212   8.794  1.00  0.00     0.124 C 
HETATM   54  N2  UNL     1     -12.995  20.517   9.267  1.00  0.00    -0.279 NA
HETATM   55  N3  UNL     1     -12.281  22.509   8.629  1.00  0.00    -0.279 NA
HETATM   56  H53 UNL     1     -12.801  19.538   9.471  1.00  0.00     0.126 HD
HETATM   57  H54 UNL     1     -13.479  20.969  10.032  1.00  0.00     0.126 HD
HETATM   58  H55 UNL     1     -11.579  22.978   8.063  1.00  0.00     0.126 HD
HETATM   59  H56 UNL     1     -13.196  22.600   8.209  1.00  0.00     0.126 HD
ATOM     60  H1  UNL     1     -10.111  21.494   8.085  1.00  0.00     0.165 HD
ENDBRANCH  40  52
BRANCH  13  61
HETATM   61  S1  UNL     1      -7.509  15.605   1.335  1.00  0.00     0.106 S 
HETATM   62  O1  UNL     1      -8.171  14.312   1.191  1.00  0.00    -0.595 OA
HETATM   63  O2  UNL     1      -6.115  15.583   0.888  1.00  0.00    -0.595 OA
HETATM   64  O3  UNL     1      -8.267  16.763   0.854  1.00  0.00    -0.595 OA
ENDBRANCH  13  61
BRANCH  32  65
HETATM   65  C32 UNL     1      -2.613  17.167   8.272  1.00  0.00     0.172 C 
BRANCH  65  66
HETATM   66  O6  UNL     1      -2.218  17.460   9.616  1.00  0.00    -0.400 OA
HETATM   67  H34 UNL     1      -2.813  18.164   9.945  1.00  0.00     0.209 HD
ENDBRANCH  65  66
ENDBRANCH  32  65
BRANCH  26  68
HETATM   68  O5  UNL     1       0.348  12.112   2.756  1.00  0.00    -0.361 OA
HETATM   69  H27 UNL     1      -0.218  11.527   2.220  1.00  0.00     0.217 HD
ENDBRANCH  26  68
TORSDOF 9
ENDMDL
MODEL 2
REMARK minimizedAffinity -8.81372452
REMARK CNNscore 0.162640288
REMARK CNNaffinity 6.70044661
REMARK  9 active torsions:
REMARK  status: ('A' for Active; 'I' for Inactive)
REMARK    1  A    between atoms: C13_13  and  S1_14 
REMARK    2  A    between atoms: C25_30  and  O5_31 
REMARK    3  A    between atoms: C31_37  and  C32_38 
REMARK    4  A    between atoms: C32_38  and  O6_39 
REMARK    5  A    between atoms: C40_47  and  C41_48 
REMARK    6  A    between atoms: C40_47  and  N1_56 
REMARK    7  A    between atoms: C41_48  and  C42_49 
REMARK    8  A    between atoms: C42_49  and  C43_50 
REMARK    9  A    between atoms: C43_50  and  O7_51 
REMARK       I    between atoms: C48_58  and  N2_59 
REMARK       I    between atoms: C48_58  and  N3_60 
ROOT
HETATM    1  C1  UNL     1       3.387  19.479  14.799  1.00  0.00     0.010 C 
HETATM    2  C2  UNL     1       2.437  18.352  14.430  1.00  0.00    -0.010 C 
HETATM    3  C3  UNL     1       3.037  17.503  13.277  1.00  0.00     0.009 C 
HETATM    4  C4  UNL     1       2.464  16.086  13.138  1.00  0.00     0.039 C 
HETATM    5  C5  UNL     1       1.107  15.938  13.766  1.00  0.00    -0.049 C 
HETATM    6  C6  UNL     1       0.206  14.980  13.302  1.00  0.00     0.044 C 
HETATM    7  C7  UNL     1      -1.013  14.820  13.954  1.00  0.00     0.073 C 
HETATM    8  C8  UNL     1      -1.440  15.782  14.874  1.00  0.00     0.037 C 
HETATM    9  C9  UNL     1      -0.519  16.683  15.404  1.00  0.00     0.011 C 
HETATM   10  C10 UNL     1       0.789  16.687  14.919  1.00  0.00    -0.047 C 
HETATM   11  C11 UNL     1       1.900  17.483  15.610  1.00  0.00     0.024 C 
HETATM   12  C12 UNL     1       2.916  16.479  16.247  1.00  0.00     0.033 C 
HETATM   13  C13 UNL     1       3.408  16.533  17.713  1.00  0.00     0.140 C 
HETATM   14  C14 UNL     1       2.714  15.861  18.952  1.00  0.00     0.050 C 
HETATM   15  C15 UNL     1       3.750  15.077  19.766  1.00  0.00    -0.013 C 
HETATM   16  C16 UNL     1       3.493  14.788  21.059  1.00  0.00    -0.050 C 
HETATM   17  C17 UNL     1       2.107  15.106  21.553  1.00  0.00     0.043 C 
HETATM   18  C18 UNL     1       1.188  14.389  20.560  1.00  0.00     0.013 C 
HETATM   19  C19 UNL     1       1.441  12.810  20.497  1.00  0.00     0.039 C 
HETATM   20  C20 UNL     1       2.361  12.187  21.589  1.00  0.00     0.130 C 
HETATM   21  O4  UNL     1       3.709  12.521  21.246  1.00  0.00    -0.371 OA
HETATM   22  C21 UNL     1       4.189  13.730  21.850  1.00  0.00     0.185 C 
HETATM   23  C22 UNL     1       5.704  13.648  21.970  1.00  0.00    -0.006 A 
HETATM   24  C23 UNL     1       6.554  14.687  21.556  1.00  0.00     0.014 A 
HETATM   25  C24 UNL     1       7.937  14.594  21.745  1.00  0.00     0.037 A 
HETATM   26  C25 UNL     1       8.477  13.472  22.367  1.00  0.00     0.067 A 
HETATM   27  C26 UNL     1       7.665  12.433  22.807  1.00  0.00     0.057 A 
HETATM   28  C27 UNL     1       6.288  12.517  22.606  1.00  0.00     0.029 A 
HETATM   29  C28 UNL     1       5.435  11.432  23.025  1.00  0.00    -0.066 C 
HETATM   30  C29 UNL     1       4.475  10.709  23.114  1.00  0.00    -0.101 C 
HETATM   31  C30 UNL     1       3.114  10.128  22.979  1.00  0.00     0.103 C 
HETATM   32  C31 UNL     1       2.327  10.635  21.715  1.00  0.00     0.049 C 
HETATM   33  C33 UNL     1       1.290  15.152  19.135  1.00  0.00     0.102 A 
HETATM   34  C34 UNL     1       0.489  14.363  18.120  1.00  0.00     0.081 A 
HETATM   35  C35 UNL     1      -0.912  14.373  18.282  1.00  0.00     0.006 C 
HETATM   36  C36 UNL     1      -1.761  13.759  17.365  1.00  0.00     0.010 C 
HETATM   37  C37 UNL     1      -1.250  13.159  16.204  1.00  0.00    -0.003 C 
HETATM   38  C38 UNL     1       0.155  13.001  16.139  1.00  0.00     0.010 C 
HETATM   39  C39 UNL     1       1.013  13.589  17.091  1.00  0.00     0.006 C 
HETATM   40  C40 UNL     1      -2.195  12.973  14.964  1.00  0.00     0.170 C 
HETATM   41  O8  UNL     1      -1.628  13.594  13.768  1.00  0.00    -0.316 OA
HETATM   42 NA1  UNL     1       1.350  13.762  17.012  1.00  0.00    -0.223 Na
ENDROOT
BRANCH  40  43
HETATM   43  C41 UNL     1      -2.396  11.433  14.712  1.00  0.00     0.070 C 
BRANCH  43  44
HETATM   44  C42 UNL     1      -1.260  10.578  14.122  1.00  0.00     0.043 C 
BRANCH  44  45
HETATM   45  C43 UNL     1      -1.670   9.324  13.323  1.00  0.00     0.058 C 
HETATM   46  C44 UNL     1      -3.128   8.891  13.467  1.00  0.00     0.038 C 
HETATM   47  C45 UNL     1      -3.133   7.436  13.002  1.00  0.00     0.003 C 
HETATM   48  C46 UNL     1      -1.731   6.895  13.292  1.00  0.00     0.003 C 
HETATM   49  C47 UNL     1      -0.919   8.079  13.819  1.00  0.00     0.038 C 
BRANCH  45  50
HETATM   50  O7  UNL     1      -1.394   9.475  11.927  1.00  0.00    -0.390 OA
HETATM   51  H44 UNL     1      -0.659  10.117  11.836  1.00  0.00     0.210 HD
ENDBRANCH  45  50
ENDBRANCH  44  45
ENDBRANCH  43  44
ENDBRANCH  40  43
BRANCH  40  52
HETATM   52  N1  UNL     1      -3.576  13.422  15.315  1.00  0.00    -0.336 N 
HETATM   53  C48 UNL     1      -4.454  12.602  15.739  1.00  0.00     0.124 C 
HETATM   54  N2  UNL     1      -4.395  11.264  15.900  1.00  0.00    -0.279 NA
HETATM   55  N3  UNL     1      -5.682  13.054  16.078  1.00  0.00    -0.279 NA
HETATM   56  H53 UNL     1      -3.481  10.855  15.718  1.00  0.00     0.126 HD
HETATM   57  H54 UNL     1      -4.784  10.935  16.774  1.00  0.00     0.126 HD
HETATM   58  H55 UNL     1      -5.801  14.005  15.741  1.00  0.00     0.126 HD
HETATM   59  H56 UNL     1      -6.408  12.453  15.714  1.00  0.00     0.126 HD
ATOM     60  H1  UNL     1      -3.822  14.407  15.212  1.00  0.00     0.165 HD
ENDBRANCH  40  52
BRANCH  13  61
HETATM   61  S1  UNL     1       4.041  18.184  18.180  1.00  0.00     0.106 S 
HETATM   62  O1  UNL     1       5.037  18.477  17.153  1.00  0.00    -0.595 OA
HETATM   63  O2  UNL     1       4.630  18.015  19.510  1.00  0.00    -0.595 OA
HETATM   64  O3  UNL     1       2.845  19.029  18.164  1.00  0.00    -0.595 OA
ENDBRANCH  13  61
BRANCH  32  65
HETATM   65  C32 UNL     1       2.860   9.939  20.452  1.00  0.00     0.172 C 
BRANCH  65  66
HETATM   66  O6  UNL     1       4.207  10.353  20.202  1.00  0.00    -0.400 OA
HETATM   67  H34 UNL     1       4.782   9.857  20.820  1.00  0.00     0.209 HD
ENDBRANCH  65  66
ENDBRANCH  32  65
BRANCH  26  68
HETATM   68  O5  UNL     1       9.826  13.364  22.569  1.00  0.00    -0.361 OA
HETATM   69  H27 UNL     1      10.259  14.051  22.032  1.00  0.00     0.217 HD
ENDBRANCH  26  68
TORSDOF 9
ENDMDL
MODEL 3
REMARK minimizedAffinity -7.84346914
REMARK CNNscore 0.15715301
REMARK CNNaffinity 6.73051691
REMARK  9 active torsions:
REMARK  status: ('A' for Active; 'I' for Inactive)
REMARK    1  A    between atoms: C13_13  and  S1_14 
REMARK    2  A    between atoms: C25_30  and  O5_31 
REMARK    3  A    between atoms: C31_37  and  C32_38 
REMARK    4  A    between atoms: C32_38  and  O6_39 
REMARK    5  A    between atoms: C40_47  and  C41_48 
REMARK    6  A    between atoms: C40_47  and  N1_56 
REMARK    7  A    between atoms: C41_48  and  C42_49 
REMARK    8  A    between atoms: C42_49  and  C43_50 
REMARK    9  A    between atoms: C43_50  and  O7_51 
REMARK       I    between atoms: C48_58  and  N2_59 
REMARK       I    between atoms: C48_58  and  N3_60 
ROOT
HETATM    1  C1  UNL     1      -3.755  16.687  -2.137  1.00  0.00     0.010 C 
HETATM    2  C2  UNL     1      -2.237  16.631  -2.099  1.00  0.00    -0.010 C 
HETATM    3  C3  UNL     1      -1.640  18.006  -2.504  1.00  0.00     0.009 C 
HETATM    4  C4  UNL     1      -0.198  18.257  -2.042  1.00  0.00     0.039 C 
HETATM    5  C5  UNL     1       0.554  16.989  -1.751  1.00  0.00    -0.049 C 
HETATM    6  C6  UNL     1       1.944  16.941  -1.865  1.00  0.00     0.044 C 
HETATM    7  C7  UNL     1       2.614  15.773  -1.516  1.00  0.00     0.073 C 
HETATM    8  C8  UNL     1       1.895  14.589  -1.323  1.00  0.00     0.037 C 
HETATM    9  C9  UNL     1       0.517  14.648  -1.121  1.00  0.00     0.011 C 
HETATM   10  C10 UNL     1      -0.138  15.874  -1.233  1.00  0.00    -0.047 C 
HETATM   11  C11 UNL     1      -1.597  16.048  -0.800  1.00  0.00     0.024 C 
HETATM   12  C12 UNL     1      -1.640  16.968   0.464  1.00  0.00     0.033 C 
HETATM   13  C13 UNL     1      -2.390  16.631   1.775  1.00  0.00     0.140 C 
HETATM   14  C14 UNL     1      -1.819  15.814   2.990  1.00  0.00     0.050 C 
HETATM   15  C15 UNL     1      -2.088  16.569   4.296  1.00  0.00    -0.013 C 
HETATM   16  C16 UNL     1      -2.083  15.893   5.464  1.00  0.00    -0.050 C 
HETATM   17  C17 UNL     1      -1.623  14.460   5.404  1.00  0.00     0.043 C 
HETATM   18  C18 UNL     1      -0.253  14.541   4.723  1.00  0.00     0.013 C 
HETATM   19  C19 UNL     1       0.790  15.460   5.516  1.00  0.00     0.039 C 
HETATM   20  C20 UNL     1       0.392  15.924   6.948  1.00  0.00     0.130 C 
HETATM   21  O4  UNL     1      -0.574  16.969   6.801  1.00  0.00    -0.371 OA
HETATM   22  C21 UNL     1      -1.935  16.519   6.812  1.00  0.00     0.185 C 
HETATM   23  C22 UNL     1      -2.822  17.658   7.296  1.00  0.00    -0.006 A 
HETATM   24  C23 UNL     1      -3.994  18.044   6.623  1.00  0.00     0.014 A 
HETATM   25  C24 UNL     1      -4.812  19.054   7.141  1.00  0.00     0.037 A 
HETATM   26  C25 UNL     1      -4.476  19.669   8.344  1.00  0.00     0.067 A 
HETATM   27  C26 UNL     1      -3.335  19.299   9.046  1.00  0.00     0.057 A 
HETATM   28  C27 UNL     1      -2.510  18.303   8.524  1.00  0.00     0.029 A 
HETATM   29  C28 UNL     1      -1.304  17.932   9.223  1.00  0.00    -0.066 C 
HETATM   30  C29 UNL     1      -0.210  17.476   9.441  1.00  0.00    -0.101 C 
HETATM   31  C30 UNL     1       1.082  16.754   9.309  1.00  0.00     0.103 C 
HETATM   32  C31 UNL     1       1.534  16.523   7.820  1.00  0.00     0.049 C 
HETATM   33  C33 UNL     1      -0.483  14.952   3.174  1.00  0.00     0.102 A 
HETATM   34  C34 UNL     1       0.875  15.164   2.537  1.00  0.00     0.081 A 
HETATM   35  C35 UNL     1       1.667  14.012   2.350  1.00  0.00     0.006 C 
HETATM   36  C36 UNL     1       2.896  14.065   1.698  1.00  0.00     0.010 C 
HETATM   37  C37 UNL     1       3.362  15.266   1.141  1.00  0.00    -0.003 C 
HETATM   38  C38 UNL     1       2.651  16.440   1.484  1.00  0.00     0.010 C 
HETATM   39  C39 UNL     1       1.427  16.390   2.181  1.00  0.00     0.006 C 
HETATM   40  C40 UNL     1       4.421  15.209  -0.017  1.00  0.00     0.170 C 
HETATM   41  O8  UNL     1       3.952  15.931  -1.199  1.00  0.00    -0.316 OA
HETATM   42 NA1  UNL     1       1.117  16.609   2.105  1.00  0.00    -0.223 Na
ENDROOT
BRANCH  40  43
HETATM   43  C41 UNL     1       5.762  15.852   0.495  1.00  0.00     0.070 C 
BRANCH  43  44
HETATM   44  C42 UNL     1       6.468  15.304   1.748  1.00  0.00     0.043 C 
BRANCH  44  45
HETATM   45  C43 UNL     1       6.743  16.304   2.891  1.00  0.00     0.058 C 
HETATM   46  C44 UNL     1       5.516  16.793   3.657  1.00  0.00     0.038 C 
HETATM   47  C45 UNL     1       5.992  18.066   4.352  1.00  0.00     0.003 C 
HETATM   48  C46 UNL     1       7.110  18.633   3.474  1.00  0.00     0.003 C 
HETATM   49  C47 UNL     1       7.325  17.619   2.350  1.00  0.00     0.038 C 
BRANCH  45  50
HETATM   50  O7  UNL     1       7.671  15.773   3.843  1.00  0.00    -0.390 OA
HETATM   51  H44 UNL     1       8.229  15.114   3.380  1.00  0.00     0.210 HD
ENDBRANCH  45  50
ENDBRANCH  44  45
ENDBRANCH  43  44
ENDBRANCH  40  43
BRANCH  40  52
HETATM   52  N1  UNL     1       4.820  13.789  -0.261  1.00  0.00    -0.336 N 
HETATM   53  C48 UNL     1       5.270  13.411  -1.391  1.00  0.00     0.124 C 
HETATM   54  N2  UNL     1       5.422  14.092  -2.545  1.00  0.00    -0.279 NA
HETATM   55  N3  UNL     1       5.651  12.125  -1.561  1.00  0.00    -0.279 NA
HETATM   56  H53 UNL     1       5.208  15.086  -2.481  1.00  0.00     0.126 HD
HETATM   57  H54 UNL     1       6.307  13.929  -3.007  1.00  0.00     0.126 HD
HETATM   58  H55 UNL     1       5.322  11.564  -0.780  1.00  0.00     0.126 HD
HETATM   59  H56 UNL     1       5.308  11.752  -2.436  1.00  0.00     0.126 HD
ATOM     60  H1  UNL     1       4.730  13.109   0.493  1.00  0.00     0.165 HD
ENDBRANCH  40  52
BRANCH  13  61
HETATM   61  S1  UNL     1      -4.135  16.168   1.485  1.00  0.00     0.106 S 
HETATM   62  O1  UNL     1      -4.047  14.856   0.853  1.00  0.00    -0.595 OA
HETATM   63  O2  UNL     1      -4.670  17.196   0.589  1.00  0.00    -0.595 OA
HETATM   64  O3  UNL     1      -4.724  16.188   2.827  1.00  0.00    -0.595 OA
ENDBRANCH  13  61
BRANCH  32  65
HETATM   65  C32 UNL     1       2.089  17.831   7.232  1.00  0.00     0.172 C 
BRANCH  65  66
HETATM   66  O6  UNL     1       3.445  17.638   6.818  1.00  0.00    -0.400 OA
HETATM   67  H34 UNL     1       3.422  17.164   5.962  1.00  0.00     0.209 HD
ENDBRANCH  65  66
ENDBRANCH  32  65
BRANCH  26  68
HETATM   68  O5  UNL     1      -5.266  20.653   8.872  1.00  0.00    -0.361 OA
HETATM   69  H27 UNL     1      -5.889  20.934   8.178  1.00  0.00     0.217 HD
ENDBRANCH  26  68
TORSDOF 9
ENDMDL
MODEL 4
REMARK minimizedAffinity -7.69875669
REMARK CNNscore 0.123628534
REMARK CNNaffinity 6.65652609
REMARK  9 active torsions:
REMARK  status: ('A' for Active; 'I' for Inactive)
REMARK    1  A    between atoms: C13_13  and  S1_14 
REMARK    2  A    between atoms: C25_30  and  O5_31 
REMARK    3  A    between atoms: C31_37  and  C32_38 
REMARK    4  A    between atoms: C32_38  and  O6_39 
REMARK    5  A    between atoms: C40_47  and  C41_48 
REMARK    6  A    between atoms: C40_47  and  N1_56 
REMARK    7  A    between atoms: C41_48  and  C42_49 
REMARK    8  A    between atoms: C42_49  and  C43_50 
REMARK    9  A    between atoms: C43_50  and  O7_51 
REMARK       I    between atoms: C48_58  and  N2_59 
REMARK       I    between atoms: C48_58  and  N3_60 
ROOT
HETATM    1  C1  UNL     1      -3.720  16.667  -2.086  1.00  0.00     0.010 C 
HETATM    2  C2  UNL     1      -2.202  16.606  -2.079  1.00  0.00    -0.010 C 
HETATM    3  C3  UNL     1      -1.610  17.971  -2.519  1.00  0.00     0.009 C 
HETATM    4  C4  UNL     1      -0.156  18.224  -2.093  1.00  0.00     0.039 C 
HETATM    5  C5  UNL     1       0.597  16.958  -1.797  1.00  0.00    -0.049 C 
HETATM    6  C6  UNL     1       1.983  16.903  -1.941  1.00  0.00     0.044 C 
HETATM    7  C7  UNL     1       2.657  15.737  -1.588  1.00  0.00     0.073 C 
HETATM    8  C8  UNL     1       1.938  14.560  -1.360  1.00  0.00     0.037 C 
HETATM    9  C9  UNL     1       0.565  14.627  -1.128  1.00  0.00     0.011 C 
HETATM   10  C10 UNL     1      -0.088  15.855  -1.246  1.00  0.00    -0.047 C 
HETATM   11  C11 UNL     1      -1.536  16.041  -0.784  1.00  0.00     0.024 C 
HETATM   12  C12 UNL     1      -1.549  16.982   0.464  1.00  0.00     0.033 C 
HETATM   13  C13 UNL     1      -2.271  16.669   1.797  1.00  0.00     0.140 C 
HETATM   14  C14 UNL     1      -1.677  15.870   3.012  1.00  0.00     0.050 C 
HETATM   15  C15 UNL     1      -1.915  16.648   4.312  1.00  0.00    -0.013 C 
HETATM   16  C16 UNL     1      -1.887  15.990   5.489  1.00  0.00    -0.050 C 
HETATM   17  C17 UNL     1      -1.434  14.555   5.444  1.00  0.00     0.043 C 
HETATM   18  C18 UNL     1      -0.079  14.619   4.732  1.00  0.00     0.013 C 
HETATM   19  C19 UNL     1       0.984  15.546   5.486  1.00  0.00     0.039 C 
HETATM   20  C20 UNL     1       0.620  16.036   6.919  1.00  0.00     0.130 C 
HETATM   21  O4  UNL     1      -0.346  17.082   6.776  1.00  0.00    -0.371 OA
HETATM   22  C21 UNL     1      -1.708  16.638   6.823  1.00  0.00     0.185 C 
HETATM   23  C22 UNL     1      -2.580  17.788   7.308  1.00  0.00    -0.006 A 
HETATM   24  C23 UNL     1      -3.764  18.168   6.654  1.00  0.00     0.014 A 
HETATM   25  C24 UNL     1      -4.567  19.189   7.174  1.00  0.00     0.037 A 
HETATM   26  C25 UNL     1      -4.203  19.822   8.359  1.00  0.00     0.067 A 
HETATM   27  C26 UNL     1      -3.048  19.459   9.042  1.00  0.00     0.057 A 
HETATM   28  C27 UNL     1      -2.239  18.452   8.519  1.00  0.00     0.029 A 
HETATM   29  C28 UNL     1      -1.019  18.087   9.197  1.00  0.00    -0.066 C 
HETATM   30  C29 UNL     1       0.077  17.630   9.399  1.00  0.00    -0.101 C 
HETATM   31  C30 UNL     1       1.364  16.901   9.251  1.00  0.00     0.103 C 
HETATM   32  C31 UNL     1       1.783  16.644   7.757  1.00  0.00     0.049 C 
HETATM   33  C33 UNL     1      -0.341  15.006   3.182  1.00  0.00     0.102 A 
HETATM   34  C34 UNL     1       1.004  15.202   2.512  1.00  0.00     0.081 A 
HETATM   35  C35 UNL     1       1.788  14.044   2.326  1.00  0.00     0.006 C 
HETATM   36  C36 UNL     1       3.002  14.081   1.647  1.00  0.00     0.010 C 
HETATM   37  C37 UNL     1       3.460  15.271   1.061  1.00  0.00    -0.003 C 
HETATM   38  C38 UNL     1       2.761  16.453   1.400  1.00  0.00     0.010 C 
HETATM   39  C39 UNL     1       1.552  16.419   2.124  1.00  0.00     0.006 C 
HETATM   40  C40 UNL     1       4.494  15.190  -0.119  1.00  0.00     0.170 C 
HETATM   41  O8  UNL     1       4.002  15.895  -1.302  1.00  0.00    -0.316 OA
HETATM   42 NA1  UNL     1       1.241  16.638   2.051  1.00  0.00    -0.223 Na
ENDROOT
BRANCH  40  43
HETATM   43  C41 UNL     1       5.848  15.836   0.354  1.00  0.00     0.070 C 
BRANCH  43  44
HETATM   44  C42 UNL     1       6.072  17.355   0.252  1.00  0.00     0.043 C 
BRANCH  44  45
HETATM   45  C43 UNL     1       7.111  17.842  -0.779  1.00  0.00     0.058 C 
HETATM   46  C44 UNL     1       6.784  17.551  -2.242  1.00  0.00     0.038 C 
HETATM   47  C45 UNL     1       8.125  17.684  -2.959  1.00  0.00     0.003 C 
HETATM   48  C46 UNL     1       9.195  17.335  -1.921  1.00  0.00     0.003 C 
HETATM   49  C47 UNL     1       8.452  17.113  -0.603  1.00  0.00     0.038 C 
BRANCH  45  50
HETATM   50  O7  UNL     1       7.357  19.247  -0.657  1.00  0.00    -0.390 OA
HETATM   51  H44 UNL     1       7.158  19.505   0.268  1.00  0.00     0.210 HD
ENDBRANCH  45  50
ENDBRANCH  44  45
ENDBRANCH  43  44
ENDBRANCH  40  43
BRANCH  40  52
HETATM   52  N1  UNL     1       4.882  13.765  -0.348  1.00  0.00    -0.336 N 
HETATM   53  C48 UNL     1       5.277  13.360  -1.490  1.00  0.00     0.124 C 
HETATM   54  N2  UNL     1       5.372  14.014  -2.665  1.00  0.00    -0.279 NA
HETATM   55  N3  UNL     1       5.650  12.071  -1.647  1.00  0.00    -0.279 NA
HETATM   56  H53 UNL     1       5.160  15.008  -2.615  1.00  0.00     0.126 HD
HETATM   57  H54 UNL     1       6.233  13.840  -3.166  1.00  0.00     0.126 HD
HETATM   58  H55 UNL     1       5.361  11.529  -0.838  1.00  0.00     0.126 HD
HETATM   59  H56 UNL     1       5.266  11.677  -2.495  1.00  0.00     0.126 HD
ATOM     60  H1  UNL     1       4.830  13.103   0.426  1.00  0.00     0.165 HD
ENDBRANCH  40  52
BRANCH  13  61
HETATM   61  S1  UNL     1      -4.024  16.209   1.553  1.00  0.00     0.106 S 
HETATM   62  O1  UNL     1      -3.954  14.904   0.903  1.00  0.00    -0.595 OA
HETATM   63  O2  UNL     1      -4.584  17.247   0.684  1.00  0.00    -0.595 OA
HETATM   64  O3  UNL     1      -4.574  16.214   2.910  1.00  0.00    -0.595 OA
ENDBRANCH  13  61
BRANCH  32  65
HETATM   65  C32 UNL     1       2.329  17.940   7.135  1.00  0.00     0.172 C 
BRANCH  65  66
HETATM   66  O6  UNL     1       3.698  17.755   6.758  1.00  0.00    -0.400 OA
HETATM   67  H34 UNL     1       3.701  17.252   5.918  1.00  0.00     0.209 HD
ENDBRANCH  65  66
ENDBRANCH  32  65
BRANCH  26  68
HETATM   68  O5  UNL     1      -4.977  20.818   8.888  1.00  0.00    -0.361 OA
HETATM   69  H27 UNL     1      -5.614  21.090   8.202  1.00  0.00     0.217 HD
ENDBRANCH  26  68
TORSDOF 9
ENDMDL
MODEL 5
REMARK minimizedAffinity -7.89020348
REMARK CNNscore 0.1176432
REMARK CNNaffinity 6.43753052
REMARK  9 active torsions:
REMARK  status: ('A' for Active; 'I' for Inactive)
REMARK    1  A    between atoms: C13_13  and  S1_14 
REMARK    2  A    between atoms: C25_30  and  O5_31 
REMARK    3  A    between atoms: C31_37  and  C32_38 
REMARK    4  A    between atoms: C32_38  and  O6_39 
REMARK    5  A    between atoms: C40_47  and  C41_48 
REMARK    6  A    between atoms: C40_47  and  N1_56 
REMARK    7  A    between atoms: C41_48  and  C42_49 
REMARK    8  A    between atoms: C42_49  and  C43_50 
REMARK    9  A    between atoms: C43_50  and  O7_51 
REMARK       I    between atoms: C48_58  and  N2_59 
REMARK       I    between atoms: C48_58  and  N3_60 
ROOT
HETATM    1  C1  UNL     1     -12.765  10.062  12.494  1.00  0.00     0.010 C 
HETATM    2  C2  UNL     1     -13.478   9.119  13.449  1.00  0.00    -0.010 C 
HETATM    3  C3  UNL     1     -12.800   7.723  13.427  1.00  0.00     0.009 C 
HETATM    4  C4  UNL     1     -13.066   6.844  14.657  1.00  0.00     0.039 C 
HETATM    5  C5  UNL     1     -14.309   7.241  15.403  1.00  0.00    -0.049 C 
HETATM    6  C6  UNL     1     -15.017   6.306  16.159  1.00  0.00     0.044 C 
HETATM    7  C7  UNL     1     -16.121   6.723  16.896  1.00  0.00     0.073 C 
HETATM    8  C8  UNL     1     -16.673   7.987  16.667  1.00  0.00     0.037 C 
HETATM    9  C9  UNL     1     -15.927   8.950  15.988  1.00  0.00     0.011 C 
HETATM   10  C10 UNL     1     -14.691   8.598  15.445  1.00  0.00    -0.047 C 
HETATM   11  C11 UNL     1     -13.726   9.653  14.895  1.00  0.00     0.024 C 
HETATM   12  C12 UNL     1     -12.474   9.725  15.829  1.00  0.00     0.033 C 
HETATM   13  C13 UNL     1     -11.895  11.029  16.429  1.00  0.00     0.140 C 
HETATM   14  C14 UNL     1     -12.334  11.707  17.777  1.00  0.00     0.050 C 
HETATM   15  C15 UNL     1     -11.096  12.046  18.615  1.00  0.00    -0.013 C 
HETATM   16  C16 UNL     1     -11.186  12.989  19.575  1.00  0.00    -0.050 C 
HETATM   17  C17 UNL     1     -12.566  13.511  19.873  1.00  0.00     0.043 C 
HETATM   18  C18 UNL     1     -13.383  12.248  20.161  1.00  0.00     0.013 C 
HETATM   19  C19 UNL     1     -12.805  11.389  21.381  1.00  0.00     0.039 C 
HETATM   20  C20 UNL     1     -11.693  12.043  22.254  1.00  0.00     0.130 C 
HETATM   21  O4  UNL     1     -10.477  11.987  21.502  1.00  0.00    -0.371 OA
HETATM   22  C21 UNL     1     -10.222  13.150  20.705  1.00  0.00     0.185 C 
HETATM   23  C22 UNL     1      -8.720  13.281  20.498  1.00  0.00    -0.006 A 
HETATM   24  C23 UNL     1      -8.146  13.505  19.236  1.00  0.00     0.014 A 
HETATM   25  C24 UNL     1      -6.764  13.683  19.104  1.00  0.00     0.037 A 
HETATM   26  C25 UNL     1      -5.951  13.660  20.234  1.00  0.00     0.067 A 
HETATM   27  C26 UNL     1      -6.487  13.460  21.501  1.00  0.00     0.057 A 
HETATM   28  C27 UNL     1      -7.862  13.267  21.633  1.00  0.00     0.029 A 
HETATM   29  C28 UNL     1      -8.429  13.024  22.937  1.00  0.00    -0.066 C 
HETATM   30  C29 UNL     1      -9.202  12.681  23.795  1.00  0.00    -0.101 C 
HETATM   31  C30 UNL     1     -10.414  12.201  24.508  1.00  0.00     0.103 C 
HETATM   32  C31 UNL     1     -11.385  11.346  23.612  1.00  0.00     0.049 C 
HETATM   33  C33 UNL     1     -13.555  11.430  18.774  1.00  0.00     0.102 A 
HETATM   34  C34 UNL     1     -14.244  10.117  19.083  1.00  0.00     0.081 A 
HETATM   35  C35 UNL     1     -15.599  10.195  19.468  1.00  0.00     0.006 C 
HETATM   36  C36 UNL     1     -16.364   9.054  19.695  1.00  0.00     0.010 C 
HETATM   37  C37 UNL     1     -15.826   7.776  19.481  1.00  0.00    -0.003 C 
HETATM   38  C38 UNL     1     -14.429   7.705  19.268  1.00  0.00     0.010 C 
HETATM   39  C39 UNL     1     -13.647   8.862  19.080  1.00  0.00     0.006 C 
HETATM   40  C40 UNL     1     -16.801   6.575  19.208  1.00  0.00     0.170 C 
HETATM   41  O8  UNL     1     -16.472   5.901  17.953  1.00  0.00    -0.316 OA
HETATM   42 NA1  UNL     1     -13.361   8.899  18.821  1.00  0.00    -0.223 Na
ENDROOT
BRANCH  40  43
HETATM   43  C41 UNL     1     -16.687   5.554  20.399  1.00  0.00     0.070 C 
BRANCH  43  44
HETATM   44  C42 UNL     1     -16.101   5.990  21.754  1.00  0.00     0.043 C 
BRANCH  44  45
HETATM   45  C43 UNL     1     -15.447   4.893  22.619  1.00  0.00     0.058 C 
HETATM   46  C44 UNL     1     -14.445   5.379  23.665  1.00  0.00     0.038 C 
HETATM   47  C45 UNL     1     -13.632   4.134  24.011  1.00  0.00     0.003 C 
HETATM   48  C46 UNL     1     -13.665   3.247  22.764  1.00  0.00     0.003 C 
HETATM   49  C47 UNL     1     -14.582   3.953  21.765  1.00  0.00     0.038 C 
BRANCH  45  50
HETATM   50  O7  UNL     1     -16.428   4.095  23.291  1.00  0.00    -0.390 OA
HETATM   51  H44 UNL     1     -17.252   4.129  22.762  1.00  0.00     0.210 HD
ENDBRANCH  45  50
ENDBRANCH  44  45
ENDBRANCH  43  44
ENDBRANCH  40  43
BRANCH  40  52
HETATM   52  N1  UNL     1     -18.216   7.043  19.322  1.00  0.00    -0.336 N 
HETATM   53  C48 UNL     1     -19.182   6.354  18.860  1.00  0.00     0.124 C 
HETATM   54  N2  UNL     1     -19.179   5.195  18.170  1.00  0.00    -0.279 NA
HETATM   55  N3  UNL     1     -20.450   6.796  19.012  1.00  0.00    -0.279 NA
HETATM   56  H53 UNL     1     -18.261   4.768  18.063  1.00  0.00     0.126 HD
HETATM   57  H54 UNL     1     -19.868   4.524  18.485  1.00  0.00     0.126 HD
HETATM   58  H55 UNL     1     -20.441   7.765  19.317  1.00  0.00     0.126 HD
HETATM   59  H56 UNL     1     -20.980   6.697  18.157  1.00  0.00     0.126 HD
ATOM     60  H1  UNL     1     -18.412   7.933  19.779  1.00  0.00     0.165 HD
ENDBRANCH  40  52
BRANCH  13  61
HETATM   61  S1  UNL     1     -11.595  12.312  15.160  1.00  0.00     0.106 S 
HETATM   62  O1  UNL     1     -10.682  11.665  14.222  1.00  0.00    -0.595 OA
HETATM   63  O2  UNL     1     -10.977  13.431  15.874  1.00  0.00    -0.595 OA
HETATM   64  O3  UNL     1     -12.934  12.605  14.644  1.00  0.00    -0.595 OA
ENDBRANCH  13  61
BRANCH  32  65
HETATM   65  C32 UNL     1     -10.814   9.931  23.422  1.00  0.00     0.172 C 
BRANCH  65  66
HETATM   66  O6  UNL     1     -10.818   9.236  24.673  1.00  0.00    -0.400 OA
HETATM   67  H34 UNL     1     -11.736   8.935  24.834  1.00  0.00     0.209 HD
ENDBRANCH  65  66
ENDBRANCH  32  65
BRANCH  26  68
HETATM   68  O5  UNL     1      -4.599  13.839  20.128  1.00  0.00    -0.361 OA
HETATM   69  H27 UNL     1      -4.365  13.756  19.186  1.00  0.00     0.217 HD
ENDBRANCH  26  68
TORSDOF 9
ENDMDL
MODEL 6
REMARK minimizedAffinity -7.50553036
REMARK CNNscore 0.107729472
REMARK CNNaffinity 7.03911924
REMARK  9 active torsions:
REMARK  status: ('A' for Active; 'I' for Inactive)
REMARK    1  A    between atoms: C13_13  and  S1_14 
REMARK    2  A    between atoms: C25_30  and  O5_31 
REMARK    3  A    between atoms: C31_37  and  C32_38 
REMARK    4  A    between atoms: C32_38  and  O6_39 
REMARK    5  A    between atoms: C40_47  and  C41_48 
REMARK    6  A    between atoms: C40_47  and  N1_56 
REMARK    7  A    between atoms: C41_48  and  C42_49 
REMARK    8  A    between atoms: C42_49  and  C43_50 
REMARK    9  A    between atoms: C43_50  and  O7_51 
REMARK       I    between atoms: C48_58  and  N2_59 
REMARK       I    between atoms: C48_58  and  N3_60 
ROOT
HETATM    1  C1  UNL     1      -7.663  17.857  14.298  1.00  0.00     0.010 C 
HETATM    2  C2  UNL     1      -9.022  17.880  13.618  1.00  0.00    -0.010 C 
HETATM    3  C3  UNL     1      -8.848  17.930  12.077  1.00  0.00     0.009 C 
HETATM    4  C4  UNL     1     -10.063  17.463  11.263  1.00  0.00     0.039 C 
HETATM    5  C5  UNL     1     -11.349  17.535  12.037  1.00  0.00    -0.049 C 
HETATM    6  C6  UNL     1     -12.569  17.699  11.380  1.00  0.00     0.044 C 
HETATM    7  C7  UNL     1     -13.747  17.687  12.120  1.00  0.00     0.073 C 
HETATM    8  C8  UNL     1     -13.693  17.788  13.514  1.00  0.00     0.037 C 
HETATM    9  C9  UNL     1     -12.493  17.536  14.175  1.00  0.00     0.011 C 
HETATM   10  C10 UNL     1     -11.337  17.304  13.429  1.00  0.00    -0.047 C 
HETATM   11  C11 UNL     1     -10.048  16.797  14.081  1.00  0.00     0.024 C 
HETATM   12  C12 UNL     1      -9.777  15.337  13.592  1.00  0.00     0.033 C 
HETATM   13  C13 UNL     1      -9.476  14.137  14.522  1.00  0.00     0.140 C 
HETATM   14  C14 UNL     1     -10.536  13.195  15.198  1.00  0.00     0.050 C 
HETATM   15  C15 UNL     1     -10.151  11.729  14.967  1.00  0.00    -0.013 C 
HETATM   16  C16 UNL     1     -10.645  10.779  15.788  1.00  0.00    -0.050 C 
HETATM   17  C17 UNL     1     -11.699  11.224  16.768  1.00  0.00     0.043 C 
HETATM   18  C18 UNL     1     -12.755  11.901  15.890  1.00  0.00     0.013 C 
HETATM   19  C19 UNL     1     -13.364  10.928  14.775  1.00  0.00     0.039 C 
HETATM   20  C20 UNL     1     -13.019   9.413  14.880  1.00  0.00     0.130 C 
HETATM   21  O4  UNL     1     -11.670   9.254  14.431  1.00  0.00    -0.371 OA
HETATM   22  C21 UNL     1     -10.689   9.320  15.474  1.00  0.00     0.185 C 
HETATM   23  C22 UNL     1      -9.463   8.529  15.042  1.00  0.00    -0.006 A 
HETATM   24  C23 UNL     1      -8.158   9.043  15.138  1.00  0.00     0.014 A 
HETATM   25  C24 UNL     1      -7.056   8.255  14.789  1.00  0.00     0.037 A 
HETATM   26  C25 UNL     1      -7.248   6.944  14.362  1.00  0.00     0.067 A 
HETATM   27  C26 UNL     1      -8.523   6.397  14.273  1.00  0.00     0.057 A 
HETATM   28  C27 UNL     1      -9.625   7.185  14.606  1.00  0.00     0.029 A 
HETATM   29  C28 UNL     1     -10.956   6.644  14.486  1.00  0.00    -0.066 C 
HETATM   30  C29 UNL     1     -12.156   6.585  14.390  1.00  0.00    -0.101 C 
HETATM   31  C30 UNL     1     -13.598   6.939  14.347  1.00  0.00     0.103 C 
HETATM   32  C31 UNL     1     -13.874   8.450  14.005  1.00  0.00     0.049 C 
HETATM   33  C33 UNL     1     -12.130  13.282  15.321  1.00  0.00     0.102 A 
HETATM   34  C34 UNL     1     -13.123  13.882  14.347  1.00  0.00     0.081 A 
HETATM   35  C35 UNL     1     -14.318  14.387  14.900  1.00  0.00     0.006 C 
HETATM   36  C36 UNL     1     -15.269  15.040  14.120  1.00  0.00     0.010 C 
HETATM   37  C37 UNL     1     -15.038  15.277  12.757  1.00  0.00    -0.003 C 
HETATM   38  C38 UNL     1     -13.927  14.619  12.179  1.00  0.00     0.010 C 
HETATM   39  C39 UNL     1     -12.986  13.923  12.964  1.00  0.00     0.006 C 
HETATM   40  C40 UNL     1     -15.814  16.442  12.044  1.00  0.00     0.170 C 
HETATM   41  O8  UNL     1     -14.892  17.380  11.406  1.00  0.00    -0.316 OA
HETATM   42 NA1  UNL     1     -12.602  13.930  12.912  1.00  0.00    -0.223 Na
ENDROOT
BRANCH  40  43
HETATM   43  C41 UNL     1     -16.768  15.820  10.959  1.00  0.00     0.070 C 
BRANCH  43  44
HETATM   44  C42 UNL     1     -16.221  14.852   9.894  1.00  0.00     0.043 C 
BRANCH  44  45
HETATM   45  C43 UNL     1     -16.888  14.891   8.504  1.00  0.00     0.058 C 
HETATM   46  C44 UNL     1     -15.945  15.082   7.319  1.00  0.00     0.038 C 
HETATM   47  C45 UNL     1     -16.856  15.555   6.188  1.00  0.00     0.003 C 
HETATM   48  C46 UNL     1     -18.027  16.273   6.862  1.00  0.00     0.003 C 
HETATM   49  C47 UNL     1     -17.819  16.106   8.368  1.00  0.00     0.038 C 
BRANCH  45  50
HETATM   50  O7  UNL     1     -17.666  13.714   8.259  1.00  0.00    -0.390 OA
HETATM   51  H44 UNL     1     -17.946  13.356   9.127  1.00  0.00     0.210 HD
ENDBRANCH  45  50
ENDBRANCH  44  45
ENDBRANCH  43  44
ENDBRANCH  40  43
BRANCH  40  52
HETATM   52  N1  UNL     1     -16.781  17.059  13.003  1.00  0.00    -0.336 N 
HETATM   53  C48 UNL     1     -18.039  16.927  12.855  1.00  0.00     0.124 C 
HETATM   54  N2  UNL     1     -18.746  16.326  11.876  1.00  0.00    -0.279 NA
HETATM   55  N3  UNL     1     -18.879  17.472  13.762  1.00  0.00    -0.279 NA
HETATM   56  H53 UNL     1     -18.181  15.841  11.182  1.00  0.00     0.126 HD
HETATM   57  H54 UNL     1     -19.505  15.747  12.211  1.00  0.00     0.126 HD
HETATM   58  H55 UNL     1     -18.367  18.115  14.360  1.00  0.00     0.126 HD
HETATM   59  H56 UNL     1     -19.651  17.945  13.312  1.00  0.00     0.126 HD
ATOM     60  H1  UNL     1     -16.425  17.598  13.793  1.00  0.00     0.165 HD
ENDBRANCH  40  52
BRANCH  13  61
HETATM   61  S1  UNL     1      -8.119  14.485  15.698  1.00  0.00     0.106 S 
HETATM   62  O1  UNL     1      -7.936  13.219  16.402  1.00  0.00    -0.595 OA
HETATM   63  O2  UNL     1      -8.619  15.551  16.568  1.00  0.00    -0.595 OA
HETATM   64  O3  UNL     1      -7.011  14.896  14.833  1.00  0.00    -0.595 OA
ENDBRANCH  13  61
BRANCH  32  65
HETATM   65  C32 UNL     1     -13.667   8.693  12.501  1.00  0.00     0.172 C 
BRANCH  65  66
HETATM   66  O6  UNL     1     -14.936   8.840  11.856  1.00  0.00    -0.400 OA
HETATM   67  H34 UNL     1     -15.254   9.746  12.044  1.00  0.00     0.209 HD
ENDBRANCH  65  66
ENDBRANCH  32  65
BRANCH  26  68
HETATM   68  O5  UNL     1      -6.185   6.154  14.023  1.00  0.00    -0.361 OA
HETATM   69  H27 UNL     1      -5.405   6.732  13.937  1.00  0.00     0.217 HD
ENDBRANCH  26  68
TORSDOF 9
ENDMDL
MODEL 7
REMARK minimizedAffinity -7.32867813
REMARK CNNscore 0.0974685401
REMARK CNNaffinity 5.97088766
REMARK  9 active torsions:
REMARK  status: ('A' for Active; 'I' for Inactive)
REMARK    1  A    between atoms: C13_13  and  S1_14 
REMARK    2  A    between atoms: C25_30  and  O5_31 
REMARK    3  A    between atoms: C31_37  and  C32_38 
REMARK    4  A    between atoms: C32_38  and  O6_39 
REMARK    5  A    between atoms: C40_47  and  C41_48 
REMARK    6  A    between atoms: C40_47  and  N1_56 
REMARK    7  A    between atoms: C41_48  and  C42_49 
REMARK    8  A    between atoms: C42_49  and  C43_50 
REMARK    9  A    between atoms: C43_50  and  O7_51 
REMARK       I    between atoms: C48_58  and  N2_59 
REMARK       I    between atoms: C48_58  and  N3_60 
ROOT
HETATM    1  C1  UNL     1     -10.988  -8.614  17.626  1.00  0.00     0.010 C 
HETATM    2  C2  UNL     1     -12.053  -7.888  16.823  1.00  0.00    -0.010 C 
HETATM    3  C3  UNL     1     -11.766  -6.363  16.808  1.00  0.00     0.009 C 
HETATM    4  C4  UNL     1     -12.429  -5.580  15.666  1.00  0.00     0.039 C 
HETATM    5  C5  UNL     1     -13.622  -6.287  15.087  1.00  0.00    -0.049 C 
HETATM    6  C6  UNL     1     -14.652  -5.568  14.480  1.00  0.00     0.044 C 
HETATM    7  C7  UNL     1     -15.706  -6.258  13.889  1.00  0.00     0.073 C 
HETATM    8  C8  UNL     1     -15.871  -7.624  14.140  1.00  0.00     0.037 C 
HETATM    9  C9  UNL     1     -14.809  -8.359  14.665  1.00  0.00     0.011 C 
HETATM   10  C10 UNL     1     -13.640  -7.697  15.042  1.00  0.00    -0.047 C 
HETATM   11  C11 UNL     1     -12.365  -8.463  15.405  1.00  0.00     0.024 C 
HETATM   12  C12 UNL     1     -11.289  -8.199  14.302  1.00  0.00     0.033 C 
HETATM   13  C13 UNL     1     -10.487  -9.303  13.571  1.00  0.00     0.140 C 
HETATM   14  C14 UNL     1     -10.928 -10.067  12.271  1.00  0.00     0.050 C 
HETATM   15  C15 UNL     1      -9.782 -10.065  11.253  1.00  0.00    -0.013 C 
HETATM   16  C16 UNL     1      -9.764 -10.995  10.275  1.00  0.00    -0.050 C 
HETATM   17  C17 UNL     1     -10.990 -11.860  10.154  1.00  0.00     0.043 C 
HETATM   18  C18 UNL     1     -12.140 -10.855  10.038  1.00  0.00     0.013 C 
HETATM   19  C19 UNL     1     -11.991  -9.870   8.787  1.00  0.00     0.039 C 
HETATM   20  C20 UNL     1     -10.889 -10.205   7.738  1.00  0.00     0.130 C 
HETATM   21  O4  UNL     1      -9.633  -9.834   8.312  1.00  0.00    -0.371 OA
HETATM   22  C21 UNL     1      -8.969 -10.892   9.015  1.00  0.00     0.185 C 
HETATM   23  C22 UNL     1      -7.471 -10.624   9.002  1.00  0.00    -0.006 A 
HETATM   24  C23 UNL     1      -6.679 -10.694  10.160  1.00  0.00     0.014 A 
HETATM   25  C24 UNL     1      -5.295 -10.503  10.088  1.00  0.00     0.037 A 
HETATM   26  C25 UNL     1      -4.691 -10.262   8.857  1.00  0.00     0.067 A 
HETATM   27  C26 UNL     1      -5.441 -10.206   7.688  1.00  0.00     0.057 A 
HETATM   28  C27 UNL     1      -6.823 -10.381   7.759  1.00  0.00     0.029 A 
HETATM   29  C28 UNL     1      -7.620 -10.290   6.560  1.00  0.00    -0.066 C 
HETATM   30  C29 UNL     1      -8.574 -10.159   5.835  1.00  0.00    -0.101 C 
HETATM   31  C30 UNL     1      -9.960 -10.012   5.322  1.00  0.00     0.103 C 
HETATM   32  C31 UNL     1     -10.976  -9.446   6.381  1.00  0.00     0.049 C 
HETATM   33  C33 UNL     1     -12.312 -10.117  11.469  1.00  0.00     0.102 A 
HETATM   34  C34 UNL     1     -13.356  -9.031  11.316  1.00  0.00     0.081 A 
HETATM   35  C35 UNL     1     -14.686  -9.460  11.123  1.00  0.00     0.006 C 
HETATM   36  C36 UNL     1     -15.745  -8.560  11.056  1.00  0.00     0.010 C 
HETATM   37  C37 UNL     1     -15.532  -7.186  11.245  1.00  0.00    -0.003 C 
HETATM   38  C38 UNL     1     -14.186  -6.751  11.262  1.00  0.00     0.010 C 
HETATM   39  C39 UNL     1     -13.111  -7.662  11.288  1.00  0.00     0.006 C 
HETATM   40  C40 UNL     1     -16.734  -6.285  11.704  1.00  0.00     0.170 C 
HETATM   41  O8  UNL     1     -16.410  -5.553  12.928  1.00  0.00    -0.316 OA
HETATM   42 NA1  UNL     1     -12.791  -7.624  11.503  1.00  0.00    -0.223 Na
ENDROOT
BRANCH  40  43
HETATM   43  C41 UNL     1     -17.066  -5.265  10.553  1.00  0.00     0.070 C 
BRANCH  43  44
HETATM   44  C42 UNL     1     -16.035  -4.209  10.117  1.00  0.00     0.043 C 
BRANCH  44  45
HETATM   45  C43 UNL     1     -15.255  -4.487   8.816  1.00  0.00     0.058 C 
HETATM   46  C44 UNL     1     -15.405  -3.441   7.714  1.00  0.00     0.038 C 
HETATM   47  C45 UNL     1     -14.961  -4.168   6.446  1.00  0.00     0.003 C 
HETATM   48  C46 UNL     1     -15.258  -5.650   6.683  1.00  0.00     0.003 C 
HETATM   49  C47 UNL     1     -15.768  -5.757   8.121  1.00  0.00     0.038 C 
BRANCH  45  50
HETATM   50  O7  UNL     1     -13.856  -4.660   9.067  1.00  0.00    -0.390 OA
HETATM   51  H44 UNL     1     -13.756  -4.976   9.990  1.00  0.00     0.210 HD
ENDBRANCH  45  50
ENDBRANCH  44  45
ENDBRANCH  43  44
ENDBRANCH  40  43
BRANCH  40  52
HETATM   52  N1  UNL     1     -17.980  -7.108  11.771  1.00  0.00    -0.336 N 
HETATM   53  C48 UNL     1     -19.013  -6.699  12.394  1.00  0.00     0.124 C 
HETATM   54  N2  UNL     1     -19.209  -5.583  13.125  1.00  0.00    -0.279 NA
HETATM   55  N3  UNL     1     -20.131  -7.458  12.404  1.00  0.00    -0.279 NA
HETATM   56  H53 UNL     1     -18.428  -4.930  13.119  1.00  0.00     0.126 HD
HETATM   57  H54 UNL     1     -20.087  -5.115  12.938  1.00  0.00     0.126 HD
HETATM   58  H55 UNL     1     -19.915  -8.390  12.060  1.00  0.00     0.126 HD
HETATM   59  H56 UNL     1     -20.537  -7.505  13.328  1.00  0.00     0.126 HD
ATOM     60  H1  UNL     1     -18.003  -8.017  11.309  1.00  0.00     0.165 HD
ENDBRANCH  40  52
BRANCH  13  61
HETATM   61  S1  UNL     1      -9.680 -10.466  14.729  1.00  0.00     0.106 S 
HETATM   62  O1  UNL     1      -9.129  -9.599  15.766  1.00  0.00    -0.595 OA
HETATM   63  O2  UNL     1      -8.645 -11.143  13.945  1.00  0.00    -0.595 OA
HETATM   64  O3  UNL     1     -10.773 -11.345  15.151  1.00  0.00    -0.595 OA
ENDBRANCH  13  61
BRANCH  32  65
HETATM   65  C32 UNL     1     -10.770  -7.932   6.548  1.00  0.00     0.172 C 
BRANCH  65  66
HETATM   66  O6  UNL     1     -11.037  -7.554   7.903  1.00  0.00    -0.400 OA
HETATM   67  H34 UNL     1     -10.253  -7.805   8.433  1.00  0.00     0.209 HD
ENDBRANCH  65  66
ENDBRANCH  32  65
BRANCH  26  68
HETATM   68  O5  UNL     1      -3.339 -10.081   8.762  1.00  0.00    -0.361 OA
HETATM   69  H27 UNL     1      -2.998  -9.942   9.664  1.00  0.00     0.217 HD
ENDBRANCH  26  68
TORSDOF 9
ENDMDL
MODEL 8
REMARK minimizedAffinity -7.55865145
REMARK CNNscore 0.0954742134
REMARK CNNaffinity 6.57569838
REMARK  9 active torsions:
REMARK  status: ('A' for Active; 'I' for Inactive)
REMARK    1  A    between atoms: C13_13  and  S1_14 
REMARK    2  A    between atoms: C25_30  and  O5_31 
REMARK    3  A    between atoms: C31_37  and  C32_38 
REMARK    4  A    between atoms: C32_38  and  O6_39 
REMARK    5  A    between atoms: C40_47  and  C41_48 
REMARK    6  A    between atoms: C40_47  and  N1_56 
REMARK    7  A    between atoms: C41_48  and  C42_49 
REMARK    8  A    between atoms: C42_49  and  C43_50 
REMARK    9  A    between atoms: C43_50  and  O7_51 
REMARK       I    between atoms: C48_58  and  N2_59 
REMARK       I    between atoms: C48_58  and  N3_60 
ROOT
HETATM    1  C1  UNL     1     -16.115   8.416  24.994  1.00  0.00     0.010 C 
HETATM    2  C2  UNL     1     -14.764   9.105  24.907  1.00  0.00    -0.010 C 
HETATM    3  C3  UNL     1     -13.642   8.144  25.384  1.00  0.00     0.009 C 
HETATM    4  C4  UNL     1     -12.228   8.492  24.897  1.00  0.00     0.039 C 
HETATM    5  C5  UNL     1     -12.083   9.933  24.499  1.00  0.00    -0.049 C 
HETATM    6  C6  UNL     1     -10.845  10.572  24.567  1.00  0.00     0.044 C 
HETATM    7  C7  UNL     1     -10.731  11.885  24.121  1.00  0.00     0.073 C 
HETATM    8  C8  UNL     1     -11.884  12.636  23.870  1.00  0.00     0.037 C 
HETATM    9  C9  UNL     1     -13.107  11.987  23.714  1.00  0.00     0.011 C 
HETATM   10  C10 UNL     1     -13.182  10.610  23.928  1.00  0.00    -0.047 C 
HETATM   11  C11 UNL     1     -14.429   9.806  23.552  1.00  0.00     0.024 C 
HETATM   12  C12 UNL     1     -14.078   8.863  22.355  1.00  0.00     0.033 C 
HETATM   13  C13 UNL     1     -14.899   8.755  21.048  1.00  0.00     0.140 C 
HETATM   14  C14 UNL     1     -14.726   9.645  19.764  1.00  0.00     0.050 C 
HETATM   15  C15 UNL     1     -14.650   8.752  18.520  1.00  0.00    -0.013 C 
HETATM   16  C16 UNL     1     -14.930   9.280  17.310  1.00  0.00    -0.050 C 
HETATM   17  C17 UNL     1     -15.119  10.773  17.259  1.00  0.00     0.043 C 
HETATM   18  C18 UNL     1     -13.845  11.328  17.902  1.00  0.00     0.013 C 
HETATM   19  C19 UNL     1     -12.510  10.880  17.142  1.00  0.00     0.039 C 
HETATM   20  C20 UNL     1     -12.673  10.187  15.757  1.00  0.00     0.130 C 
HETATM   21  O4  UNL     1     -13.107   8.846  16.003  1.00  0.00    -0.371 OA
HETATM   22  C21 UNL     1     -14.530   8.677  16.003  1.00  0.00     0.185 C 
HETATM   23  C22 UNL     1     -14.851   7.238  15.624  1.00  0.00    -0.006 A 
HETATM   24  C23 UNL     1     -15.750   6.444  16.356  1.00  0.00     0.014 A 
HETATM   25  C24 UNL     1     -16.063   5.148  15.932  1.00  0.00     0.037 A 
HETATM   26  C25 UNL     1     -15.498   4.646  14.764  1.00  0.00     0.067 A 
HETATM   27  C26 UNL     1     -14.620   5.410  14.004  1.00  0.00     0.057 A 
HETATM   28  C27 UNL     1     -14.294   6.697  14.432  1.00  0.00     0.029 A 
HETATM   29  C28 UNL     1     -13.358   7.489  13.674  1.00  0.00    -0.066 C 
HETATM   30  C29 UNL     1     -12.560   8.347  13.393  1.00  0.00    -0.101 C 
HETATM   31  C30 UNL     1     -11.695   9.554  13.437  1.00  0.00     0.103 C 
HETATM   32  C31 UNL     1     -11.384  10.064  14.892  1.00  0.00     0.049 C 
HETATM   33  C33 UNL     1     -13.881  10.974  19.482  1.00  0.00     0.102 A 
HETATM   34  C34 UNL     1     -12.561  11.402  20.090  1.00  0.00     0.081 A 
HETATM   35  C35 UNL     1     -12.331  12.791  20.176  1.00  0.00     0.006 C 
HETATM   36  C36 UNL     1     -11.196  13.310  20.792  1.00  0.00     0.010 C 
HETATM   37  C37 UNL     1     -10.266  12.463  21.413  1.00  0.00    -0.003 C 
HETATM   38  C38 UNL     1     -10.413  11.076  21.172  1.00  0.00     0.010 C 
HETATM   39  C39 UNL     1     -11.543  10.554  20.510  1.00  0.00     0.006 C 
HETATM   40  C40 UNL     1      -9.332  13.047  22.533  1.00  0.00     0.170 C 
HETATM   41  O8  UNL     1      -9.452  12.283  23.774  1.00  0.00    -0.316 OA
HETATM   42 NA1  UNL     1     -11.731  10.231  20.611  1.00  0.00    -0.223 Na
ENDROOT
BRANCH  40  43
HETATM   43  C41 UNL     1      -7.844  12.994  22.024  1.00  0.00     0.070 C 
BRANCH  43  44
HETATM   44  C42 UNL     1      -7.055  14.289  21.765  1.00  0.00     0.043 C 
BRANCH  44  45
HETATM   45  C43 UNL     1      -6.290  14.388  20.429  1.00  0.00     0.058 C 
HETATM   46  C44 UNL     1      -7.105  14.089  19.172  1.00  0.00     0.038 C 
HETATM   47  C45 UNL     1      -6.053  13.788  18.107  1.00  0.00     0.003 C 
HETATM   48  C46 UNL     1      -4.838  13.237  18.858  1.00  0.00     0.003 C 
HETATM   49  C47 UNL     1      -5.178  13.332  20.346  1.00  0.00     0.038 C 
BRANCH  45  50
HETATM   50  O7  UNL     1      -5.685  15.675  20.262  1.00  0.00    -0.390 OA
HETATM   51  H44 UNL     1      -5.527  16.048  21.154  1.00  0.00     0.210 HD
ENDBRANCH  45  50
ENDBRANCH  44  45
ENDBRANCH  43  44
ENDBRANCH  40  43
BRANCH  40  52
HETATM   52  N1  UNL     1      -9.571  14.516  22.669  1.00  0.00    -0.336 N 
HETATM   53  C48 UNL     1      -9.246  15.147  23.727  1.00  0.00     0.124 C 
HETATM   54  N2  UNL     1      -8.726  14.698  24.887  1.00  0.00    -0.279 NA
HETATM   55  N3  UNL     1      -9.449  16.481  23.797  1.00  0.00    -0.279 NA
HETATM   56  H53 UNL     1      -8.491  13.707  24.892  1.00  0.00     0.126 HD
HETATM   57  H54 UNL     1      -7.966  15.263  25.245  1.00  0.00     0.126 HD
HETATM   58  H55 UNL     1     -10.047  16.777  23.031  1.00  0.00     0.126 HD
HETATM   59  H56 UNL     1      -9.852  16.746  24.686  1.00  0.00     0.126 HD
ATOM     60  H1  UNL     1     -10.005  15.024  21.898  1.00  0.00     0.165 HD
ENDBRANCH  40  52
BRANCH  13  61
HETATM   61  S1  UNL     1     -16.677   8.457  21.358  1.00  0.00     0.106 S 
HETATM   62  O1  UNL     1     -17.236   8.269  20.023  1.00  0.00    -0.595 OA
HETATM   63  O2  UNL     1     -17.168   9.670  22.014  1.00  0.00    -0.595 OA
HETATM   64  O3  UNL     1     -16.682   7.274  22.221  1.00  0.00    -0.595 OA
ENDBRANCH  13  61
BRANCH  32  65
HETATM   65  C32 UNL     1     -10.328   9.159  15.550  1.00  0.00     0.172 C 
BRANCH  65  66
HETATM   66  O6  UNL     1      -9.017   9.591  15.170  1.00  0.00    -0.400 OA
HETATM   67  H34 UNL     1      -8.803  10.377  15.712  1.00  0.00     0.209 HD
ENDBRANCH  65  66
ENDBRANCH  32  65
BRANCH  26  68
HETATM   68  O5  UNL     1     -15.796   3.385  14.326  1.00  0.00    -0.361 OA
HETATM   69  H27 UNL     1     -16.242   2.919  15.057  1.00  0.00     0.217 HD
ENDBRANCH  26  68
TORSDOF 9
ENDMDL
MODEL 9
REMARK minimizedAffinity -8.0902977
REMARK CNNscore 0.0940609202
REMARK CNNaffinity 5.25286818
REMARK  9 active torsions:
REMARK  status: ('A' for Active; 'I' for Inactive)
REMARK    1  A    between atoms: C13_13  and  S1_14 
REMARK    2  A    between atoms: C25_30  and  O5_31 
REMARK    3  A    between atoms: C31_37  and  C32_38 
REMARK    4  A    between atoms: C32_38  and  O6_39 
REMARK    5  A    between atoms: C40_47  and  C41_48 
REMARK    6  A    between atoms: C40_47  and  N1_56 
REMARK    7  A    between atoms: C41_48  and  C42_49 
REMARK    8  A    between atoms: C42_49  and  C43_50 
REMARK    9  A    between atoms: C43_50  and  O7_51 
REMARK       I    between atoms: C48_58  and  N2_59 
REMARK       I    between atoms: C48_58  and  N3_60 
ROOT
HETATM    1  C1  UNL     1      -2.133  18.338  19.056  1.00  0.00     0.010 C 
HETATM    2  C2  UNL     1      -1.832  17.067  18.280  1.00  0.00    -0.010 C 
HETATM    3  C3  UNL     1      -1.241  17.417  16.889  1.00  0.00     0.009 C 
HETATM    4  C4  UNL     1      -0.442  16.293  16.213  1.00  0.00     0.039 C 
HETATM    5  C5  UNL     1      -0.793  14.928  16.736  1.00  0.00    -0.049 C 
HETATM    6  C6  UNL     1      -0.633  13.796  15.938  1.00  0.00     0.044 C 
HETATM    7  C7  UNL     1      -0.897  12.541  16.478  1.00  0.00     0.073 C 
HETATM    8  C8  UNL     1      -1.571  12.437  17.699  1.00  0.00     0.037 C 
HETATM    9  C9  UNL     1      -1.652  13.549  18.536  1.00  0.00     0.011 C 
HETATM   10  C10 UNL     1      -1.164  14.777  18.089  1.00  0.00    -0.047 C 
HETATM   11  C11 UNL     1      -1.012  15.972  19.034  1.00  0.00     0.024 C 
HETATM   12  C12 UNL     1       0.511  16.266  19.232  1.00  0.00     0.033 C 
HETATM   13  C13 UNL     1       1.205  16.434  20.605  1.00  0.00     0.140 C 
HETATM   14  C14 UNL     1       1.810  15.284  21.489  1.00  0.00     0.050 C 
HETATM   15  C15 UNL     1       3.227  15.662  21.936  1.00  0.00    -0.013 C 
HETATM   16  C16 UNL     1       3.762  15.058  23.017  1.00  0.00    -0.050 C 
HETATM   17  C17 UNL     1       2.980  13.909  23.596  1.00  0.00     0.043 C 
HETATM   18  C18 UNL     1       2.761  12.974  22.403  1.00  0.00     0.013 C 
HETATM   19  C19 UNL     1       4.127  12.476  21.735  1.00  0.00     0.039 C 
HETATM   20  C20 UNL     1       5.450  12.774  22.501  1.00  0.00     0.130 C 
HETATM   21  O4  UNL     1       5.743  14.162  22.313  1.00  0.00    -0.371 OA
HETATM   22  C21 UNL     1       5.220  15.019  23.337  1.00  0.00     0.185 C 
HETATM   23  C22 UNL     1       6.083  16.270  23.415  1.00  0.00    -0.006 A 
HETATM   24  C23 UNL     1       5.540  17.565  23.434  1.00  0.00     0.014 A 
HETATM   25  C24 UNL     1       6.369  18.684  23.572  1.00  0.00     0.037 A 
HETATM   26  C25 UNL     1       7.744  18.514  23.712  1.00  0.00     0.067 A 
HETATM   27  C26 UNL     1       8.314  17.246  23.717  1.00  0.00     0.057 A 
HETATM   28  C27 UNL     1       7.491  16.131  23.565  1.00  0.00     0.029 A 
HETATM   29  C28 UNL     1       8.071  14.811  23.532  1.00  0.00    -0.066 C 
HETATM   30  C29 UNL     1       8.199  13.629  23.335  1.00  0.00    -0.101 C 
HETATM   31  C30 UNL     1       7.936  12.209  22.987  1.00  0.00     0.103 C 
HETATM   32  C31 UNL     1       6.714  12.005  22.017  1.00  0.00     0.049 C 
HETATM   33  C33 UNL     1       1.725  13.689  21.384  1.00  0.00     0.102 A 
HETATM   34  C34 UNL     1       1.615  12.827  20.144  1.00  0.00     0.081 A 
HETATM   35  C35 UNL     1       0.959  11.587  20.298  1.00  0.00     0.006 C 
HETATM   36  C36 UNL     1       0.719  10.745  19.215  1.00  0.00     0.010 C 
HETATM   37  C37 UNL     1       1.064  11.135  17.912  1.00  0.00    -0.003 C 
HETATM   38  C38 UNL     1       1.871  12.291  17.791  1.00  0.00     0.010 C 
HETATM   39  C39 UNL     1       2.150  13.121  18.895  1.00  0.00     0.006 C 
HETATM   40  C40 UNL     1       0.325  10.470  16.696  1.00  0.00     0.170 C 
HETATM   41  O8  UNL     1      -0.288  11.479  15.833  1.00  0.00    -0.316 OA
HETATM   42 NA1  UNL     1       2.154  13.509  18.888  1.00  0.00    -0.223 Na
ENDROOT
BRANCH  40  43
HETATM   43  C41 UNL     1       1.370   9.634  15.870  1.00  0.00     0.070 C 
BRANCH  43  44
HETATM   44  C42 UNL     1       1.990  10.203  14.581  1.00  0.00     0.043 C 
BRANCH  44  45
HETATM   45  C43 UNL     1       2.101   9.248  13.376  1.00  0.00     0.058 C 
HETATM   46  C44 UNL     1       2.336   7.777  13.712  1.00  0.00     0.038 C 
HETATM   47  C45 UNL     1       2.872   7.177  12.415  1.00  0.00     0.003 C 
HETATM   48  C46 UNL     1       3.573   8.322  11.678  1.00  0.00     0.003 C 
HETATM   49  C47 UNL     1       3.332   9.577  12.517  1.00  0.00     0.038 C 
BRANCH  45  50
HETATM   50  O7  UNL     1       0.947   9.325  12.533  1.00  0.00    -0.390 OA
HETATM   51  H44 UNL     1       0.552  10.214  12.649  1.00  0.00     0.210 HD
ENDBRANCH  45  50
ENDBRANCH  44  45
ENDBRANCH  43  44
ENDBRANCH  40  43
BRANCH  40  52
HETATM   52  N1  UNL     1      -0.607   9.414  17.195  1.00  0.00    -0.336 N 
HETATM   53  C48 UNL     1      -1.509   8.916  16.444  1.00  0.00     0.124 C 
HETATM   54  N2  UNL     1      -1.861   9.222  15.179  1.00  0.00    -0.279 NA
HETATM   55  N3  UNL     1      -2.311   7.939  16.923  1.00  0.00    -0.279 NA
HETATM   56  H53 UNL     1      -1.264   9.913  14.729  1.00  0.00     0.126 HD
HETATM   57  H54 UNL     1      -2.012   8.416  14.586  1.00  0.00     0.126 HD
HETATM   58  H55 UNL     1      -2.206   7.873  17.931  1.00  0.00     0.126 HD
HETATM   59  H56 UNL     1      -3.277   8.102  16.675  1.00  0.00     0.126 HD
ATOM     60  H1  UNL     1      -0.521   9.084  18.156  1.00  0.00     0.165 HD
ENDBRANCH  40  52
BRANCH  13  61
HETATM   61  S1  UNL     1       0.360  17.655  21.674  1.00  0.00     0.106 S 
HETATM   62  O1  UNL     1      -0.919  17.022  21.980  1.00  0.00    -0.595 OA
HETATM   63  O2  UNL     1       0.216  18.859  20.854  1.00  0.00    -0.595 OA
HETATM   64  O3  UNL     1       1.277  17.814  22.805  1.00  0.00    -0.595 OA
ENDBRANCH  13  61
BRANCH  32  65
HETATM   65  C32 UNL     1       7.114  12.388  20.583  1.00  0.00     0.172 C 
BRANCH  65  66
HETATM   66  O6  UNL     1       6.666  11.380  19.670  1.00  0.00    -0.400 OA
HETATM   67  H34 UNL     1       5.707  11.521  19.531  1.00  0.00     0.209 HD
ENDBRANCH  65  66
ENDBRANCH  32  65
BRANCH  26  68
HETATM   68  O5  UNL     1       8.572  19.592  23.856  1.00  0.00    -0.361 OA
HETATM   69  H27 UNL     1       8.060  20.389  23.625  1.00  0.00     0.217 HD
ENDBRANCH  26  68
TORSDOF 9
ENDMDL
