MODEL 1
REMARK minimizedAffinity -7.70931149
REMARK  9 active torsions:
REMARK  status: ('A' for Active; 'I' for Inactive)
REMARK    1  A    between atoms: O1_2  and  C2_3 
REMARK    2  A    between atoms: C2_3  and  C3_4 
REMARK    3  A    between atoms: C3_4  and  N1_5 
REMARK       I    between atoms: N1_5  and  C4_6 
REMARK    4  A    between atoms: C4_6  and  C5_8 
REMARK    5  A    between atoms: C5_8  and  C7_10 
REMARK    6  A    between atoms: C14_17  and  N2_18 
REMARK       I    between atoms: N2_18  and  C15_19 
REMARK    7  A    between atoms: C15_19  and  C16_21 
REMARK    8  A    between atoms: C16_21  and  O4_22 
REMARK    9  A    between atoms: C21_27  and  O5_28 
ROOT
HETATM    1  C7  UNL     1      -6.018   3.434  12.709  1.00  0.00     0.027 C 
HETATM    2  C8  UNL     1      -7.377   3.223  13.388  1.00  0.00     0.009 C 
HETATM    3  C9  UNL     1      -7.480   3.978  14.707  1.00  0.00     0.010 C 
HETATM    4  C10 UNL     1      -7.209   5.492  14.564  1.00  0.00    -0.037 C 
HETATM    5  C11 UNL     1      -8.336   6.122  13.708  1.00  0.00     0.015 C 
HETATM    6  C12 UNL     1      -7.240   6.110  15.981  1.00  0.00     0.011 C 
HETATM    7  C13 UNL     1      -6.876   7.586  15.995  1.00  0.00     0.026 C 
HETATM    8  C14 UNL     1      -5.532   7.864  15.315  1.00  0.00     0.088 C 
HETATM    9  C18 UNL     1      -5.427   7.234  13.896  1.00  0.00     0.012 C 
HETATM   10  C19 UNL     1      -4.029   7.518  13.322  1.00  0.00     0.012 C 
HETATM   11  C20 UNL     1      -5.791   5.706  13.945  1.00  0.00     0.028 C 
HETATM   12  C21 UNL     1      -5.644   4.939  12.598  1.00  0.00     0.128 C 
ENDROOT
BRANCH   1  13
HETATM   13  C5  UNL     1      -5.886   2.688  11.345  1.00  0.00     0.080 C 
HETATM   14  C6  UNL     1      -6.186   1.188  11.393  1.00  0.00     0.020 C 
BRANCH  13  15
HETATM   15  C4  UNL     1      -4.554   2.997  10.656  1.00  0.00     0.222 C 
HETATM   16  N1  UNL     1      -3.432   2.433  11.217  1.00  0.00    -0.359 N 
HETATM   17  H8  UNL     1      -3.504   1.960  12.107  1.00  0.00     0.162 HD
HETATM   18  O2  UNL     1      -4.501   3.735   9.674  1.00  0.00    -0.273 OA
BRANCH  16  19
HETATM   19  C3  UNL     1      -2.099   2.755  10.740  1.00  0.00     0.148 C 
BRANCH  19  20
HETATM   20  C2  UNL     1      -1.086   1.625  10.927  1.00  0.00     0.186 C 
BRANCH  20  21
HETATM   21  O1  UNL     1       0.161   2.188  11.343  1.00  0.00    -0.394 OA
HETATM   22  C1  UNL     1       0.014   3.550  11.724  1.00  0.00     0.201 C 
ENDBRANCH  20  21
ENDBRANCH  19  20
ENDBRANCH  16  19
ENDBRANCH  13  15
ENDBRANCH   1  13
BRANCH  12  23
HETATM   23  O5  UNL     1      -4.282   4.997  12.177  1.00  0.00    -0.395 OA
HETATM   24  H38 UNL     1      -4.253   4.910  11.210  1.00  0.00     0.210 HD
ENDBRANCH  12  23
BRANCH   8  25
HETATM   25  N2  UNL     1      -5.320   9.305  15.266  1.00  0.00    -0.354 N 
HETATM   26  C15 UNL     1      -4.264   9.932  15.891  1.00  0.00     0.241 C 
HETATM   27  O3  UNL     1      -3.348   9.340  16.454  1.00  0.00    -0.271 OA
HETATM   28  H26 UNL     1      -6.084   9.921  14.997  1.00  0.00     0.162 HD
BRANCH  26  29
HETATM   29  C16 UNL     1      -4.323  11.459  15.802  1.00  0.00     0.269 C 
BRANCH  29  30
HETATM   30  O4  UNL     1      -3.066  12.062  16.121  1.00  0.00    -0.387 OA
HETATM   31  C17 UNL     1      -2.359  12.428  14.944  1.00  0.00     0.202 C 
ENDBRANCH  29  30
ENDBRANCH  26  29
ENDBRANCH   8  25
TORSDOF 9
ENDMDL
MODEL 2
REMARK minimizedAffinity -7.64850092
REMARK  9 active torsions:
REMARK  status: ('A' for Active; 'I' for Inactive)
REMARK    1  A    between atoms: O1_2  and  C2_3 
REMARK    2  A    between atoms: C2_3  and  C3_4 
REMARK    3  A    between atoms: C3_4  and  N1_5 
REMARK       I    between atoms: N1_5  and  C4_6 
REMARK    4  A    between atoms: C4_6  and  C5_8 
REMARK    5  A    between atoms: C5_8  and  C7_10 
REMARK    6  A    between atoms: C14_17  and  N2_18 
REMARK       I    between atoms: N2_18  and  C15_19 
REMARK    7  A    between atoms: C15_19  and  C16_21 
REMARK    8  A    between atoms: C16_21  and  O4_22 
REMARK    9  A    between atoms: C21_27  and  O5_28 
ROOT
HETATM    1  C7  UNL     1      -6.353   4.612  14.114  1.00  0.00     0.027 C 
HETATM    2  C8  UNL     1      -6.318   5.936  14.889  1.00  0.00     0.009 C 
HETATM    3  C9  UNL     1      -4.897   6.342  15.261  1.00  0.00     0.010 C 
HETATM    4  C10 UNL     1      -3.953   6.437  14.043  1.00  0.00    -0.037 C 
HETATM    5  C11 UNL     1      -4.426   7.599  13.133  1.00  0.00     0.015 C 
HETATM    6  C12 UNL     1      -2.535   6.750  14.572  1.00  0.00     0.011 C 
HETATM    7  C13 UNL     1      -1.479   6.761  13.478  1.00  0.00     0.026 C 
HETATM    8  C14 UNL     1      -1.475   5.468  12.656  1.00  0.00     0.088 C 
HETATM    9  C18 UNL     1      -2.886   5.081  12.125  1.00  0.00     0.012 C 
HETATM   10  C19 UNL     1      -2.788   3.747  11.365  1.00  0.00     0.012 C 
HETATM   11  C20 UNL     1      -3.929   5.063  13.300  1.00  0.00     0.028 C 
HETATM   12  C21 UNL     1      -5.367   4.608  12.912  1.00  0.00     0.128 C 
ENDROOT
BRANCH   1  13
HETATM   13  C5  UNL     1      -7.793   4.175  13.701  1.00  0.00     0.080 C 
HETATM   14  C6  UNL     1      -7.867   2.914  12.838  1.00  0.00     0.020 C 
BRANCH  13  15
HETATM   15  C4  UNL     1      -8.590   5.340  13.107  1.00  0.00     0.222 C 
HETATM   16  N1  UNL     1      -9.422   6.012  13.971  1.00  0.00    -0.359 N 
HETATM   17  H8  UNL     1      -9.575   5.648  14.901  1.00  0.00     0.162 HD
HETATM   18  O2  UNL     1      -8.503   5.629  11.916  1.00  0.00    -0.273 OA
BRANCH  16  19
HETATM   19  C3  UNL     1     -10.328   7.046  13.505  1.00  0.00     0.148 C 
BRANCH  19  20
HETATM   20  C2  UNL     1     -11.787   6.815  13.900  1.00  0.00     0.186 C 
BRANCH  20  21
HETATM   21  O1  UNL     1     -12.632   7.364  12.885  1.00  0.00    -0.394 OA
HETATM   22  C1  UNL     1     -13.977   6.933  13.040  1.00  0.00     0.201 C 
ENDBRANCH  20  21
ENDBRANCH  19  20
ENDBRANCH  16  19
ENDBRANCH  13  15
ENDBRANCH   1  13
BRANCH  12  23
HETATM   23  O5  UNL     1      -5.315   3.269  12.424  1.00  0.00    -0.395 OA
HETATM   24  H38 UNL     1      -6.063   3.130  11.820  1.00  0.00     0.210 HD
ENDBRANCH  12  23
BRANCH   8  25
HETATM   25  N2  UNL     1      -0.524   5.611  11.561  1.00  0.00    -0.354 N 
HETATM   26  C15 UNL     1       0.393   6.637  11.490  1.00  0.00     0.241 C 
HETATM   27  O3  UNL     1       0.574   7.461  12.381  1.00  0.00    -0.271 OA
HETATM   28  H26 UNL     1      -0.681   5.118  10.685  1.00  0.00     0.162 HD
BRANCH  26  29
HETATM   29  C16 UNL     1       1.197   6.646  10.187  1.00  0.00     0.269 C 
BRANCH  29  30
HETATM   30  O4  UNL     1       1.746   5.359   9.889  1.00  0.00    -0.387 OA
HETATM   31  C17 UNL     1       3.165   5.410   9.820  1.00  0.00     0.202 C 
ENDBRANCH  29  30
ENDBRANCH  26  29
ENDBRANCH   8  25
TORSDOF 9
ENDMDL
MODEL 3
REMARK minimizedAffinity -7.6311388
REMARK  9 active torsions:
REMARK  status: ('A' for Active; 'I' for Inactive)
REMARK    1  A    between atoms: O1_2  and  C2_3 
REMARK    2  A    between atoms: C2_3  and  C3_4 
REMARK    3  A    between atoms: C3_4  and  N1_5 
REMARK       I    between atoms: N1_5  and  C4_6 
REMARK    4  A    between atoms: C4_6  and  C5_8 
REMARK    5  A    between atoms: C5_8  and  C7_10 
REMARK    6  A    between atoms: C14_17  and  N2_18 
REMARK       I    between atoms: N2_18  and  C15_19 
REMARK    7  A    between atoms: C15_19  and  C16_21 
REMARK    8  A    between atoms: C16_21  and  O4_22 
REMARK    9  A    between atoms: C21_27  and  O5_28 
ROOT
HETATM    1  C7  UNL     1      -0.310   4.494  12.534  1.00  0.00     0.027 C 
HETATM    2  C8  UNL     1      -0.351   3.389  11.471  1.00  0.00     0.009 C 
HETATM    3  C9  UNL     1      -1.611   2.539  11.579  1.00  0.00     0.010 C 
HETATM    4  C10 UNL     1      -2.912   3.369  11.505  1.00  0.00    -0.037 C 
HETATM    5  C11 UNL     1      -3.027   3.993  10.091  1.00  0.00     0.015 C 
HETATM    6  C12 UNL     1      -4.098   2.404  11.733  1.00  0.00     0.011 C 
HETATM    7  C13 UNL     1      -5.441   3.114  11.796  1.00  0.00     0.026 C 
HETATM    8  C14 UNL     1      -5.458   4.243  12.831  1.00  0.00     0.088 C 
HETATM    9  C18 UNL     1      -4.265   5.230  12.674  1.00  0.00     0.012 C 
HETATM   10  C19 UNL     1      -4.338   6.288  13.787  1.00  0.00     0.012 C 
HETATM   11  C20 UNL     1      -2.904   4.444  12.638  1.00  0.00     0.028 C 
HETATM   12  C21 UNL     1      -1.623   5.327  12.567  1.00  0.00     0.128 C 
ENDROOT
BRANCH   1  13
HETATM   13  C5  UNL     1       0.960   5.395  12.439  1.00  0.00     0.080 C 
HETATM   14  C6  UNL     1       0.770   6.839  12.909  1.00  0.00     0.020 C 
BRANCH  13  15
HETATM   15  C4  UNL     1       1.614   5.310  11.058  1.00  0.00     0.222 C 
HETATM   16  N1  UNL     1       1.631   6.470  10.319  1.00  0.00    -0.359 N 
HETATM   17  H8  UNL     1       1.114   7.276  10.644  1.00  0.00     0.162 HD
HETATM   18  O2  UNL     1       2.070   4.251  10.632  1.00  0.00    -0.273 OA
BRANCH  16  19
HETATM   19  C3  UNL     1       2.101   6.491   8.946  1.00  0.00     0.148 C 
BRANCH  19  20
HETATM   20  C2  UNL     1       2.823   7.783   8.558  1.00  0.00     0.186 C 
BRANCH  20  21
HETATM   21  O1  UNL     1       2.436   8.145   7.230  1.00  0.00    -0.394 OA
HETATM   22  C1  UNL     1       1.776   7.073   6.570  1.00  0.00     0.201 C 
ENDBRANCH  20  21
ENDBRANCH  19  20
ENDBRANCH  16  19
ENDBRANCH  13  15
ENDBRANCH   1  13
BRANCH  12  23
HETATM   23  O5  UNL     1      -1.561   6.150  13.730  1.00  0.00    -0.395 OA
HETATM   24  H38 UNL     1      -1.051   6.950  13.517  1.00  0.00     0.210 HD
ENDBRANCH  12  23
BRANCH   8  25
HETATM   25  N2  UNL     1      -6.732   4.944  12.740  1.00  0.00    -0.354 N 
HETATM   26  C15 UNL     1      -7.623   5.024  13.789  1.00  0.00     0.241 C 
HETATM   27  O3  UNL     1      -7.391   4.613  14.922  1.00  0.00    -0.271 OA
HETATM   28  H26 UNL     1      -7.125   5.166  11.829  1.00  0.00     0.162 HD
BRANCH  26  29
HETATM   29  C16 UNL     1      -8.943   5.703  13.416  1.00  0.00     0.269 C 
BRANCH  29  30
HETATM   30  O4  UNL     1      -9.082   6.982  14.040  1.00  0.00    -0.387 OA
HETATM   31  C17 UNL     1     -10.275   7.050  14.811  1.00  0.00     0.202 C 
ENDBRANCH  29  30
ENDBRANCH  26  29
ENDBRANCH   8  25
TORSDOF 9
ENDMDL
MODEL 4
REMARK minimizedAffinity -7.34366131
REMARK  9 active torsions:
REMARK  status: ('A' for Active; 'I' for Inactive)
REMARK    1  A    between atoms: O1_2  and  C2_3 
REMARK    2  A    between atoms: C2_3  and  C3_4 
REMARK    3  A    between atoms: C3_4  and  N1_5 
REMARK       I    between atoms: N1_5  and  C4_6 
REMARK    4  A    between atoms: C4_6  and  C5_8 
REMARK    5  A    between atoms: C5_8  and  C7_10 
REMARK    6  A    between atoms: C14_17  and  N2_18 
REMARK       I    between atoms: N2_18  and  C15_19 
REMARK    7  A    between atoms: C15_19  and  C16_21 
REMARK    8  A    between atoms: C16_21  and  O4_22 
REMARK    9  A    between atoms: C21_27  and  O5_28 
ROOT
HETATM    1  C7  UNL     1      -7.688   7.028  14.300  1.00  0.00     0.027 C 
HETATM    2  C8  UNL     1      -8.827   6.084  13.891  1.00  0.00     0.009 C 
HETATM    3  C9  UNL     1      -8.469   5.258  12.661  1.00  0.00     0.010 C 
HETATM    4  C10 UNL     1      -7.168   4.445  12.832  1.00  0.00    -0.037 C 
HETATM    5  C11 UNL     1      -7.389   3.371  13.926  1.00  0.00     0.015 C 
HETATM    6  C12 UNL     1      -6.871   3.746  11.485  1.00  0.00     0.011 C 
HETATM    7  C13 UNL     1      -5.548   2.997  11.481  1.00  0.00     0.026 C 
HETATM    8  C14 UNL     1      -4.372   3.884  11.898  1.00  0.00     0.088 C 
HETATM    9  C18 UNL     1      -4.626   4.644  13.233  1.00  0.00     0.012 C 
HETATM   10  C19 UNL     1      -3.418   5.546  13.536  1.00  0.00     0.012 C 
HETATM   11  C20 UNL     1      -5.993   5.417  13.171  1.00  0.00     0.028 C 
HETATM   12  C21 UNL     1      -6.326   6.288  14.419  1.00  0.00     0.128 C 
ENDROOT
BRANCH   1  13
HETATM   13  C5  UNL     1      -8.014   7.876  15.569  1.00  0.00     0.080 C 
HETATM   14  C6  UNL     1      -8.067   7.090  16.880  1.00  0.00     0.020 C 
BRANCH  13  15
HETATM   15  C4  UNL     1      -9.251   8.753  15.361  1.00  0.00     0.222 C 
HETATM   16  N1  UNL     1     -10.461   8.189  15.694  1.00  0.00    -0.359 N 
HETATM   17  H8  UNL     1     -10.506   7.208  15.929  1.00  0.00     0.162 HD
HETATM   18  O2  UNL     1      -9.158   9.887  14.895  1.00  0.00    -0.273 OA
BRANCH  16  19
HETATM   19  C3  UNL     1     -11.717   8.866  15.421  1.00  0.00     0.148 C 
BRANCH  19  20
HETATM   20  C2  UNL     1     -12.910   7.920  15.277  1.00  0.00     0.186 C 
BRANCH  20  21
HETATM   21  O1  UNL     1     -12.570   6.887  14.348  1.00  0.00    -0.394 OA
HETATM   22  C1  UNL     1     -13.105   7.153  13.058  1.00  0.00     0.201 C 
ENDBRANCH  20  21
ENDBRANCH  19  20
ENDBRANCH  16  19
ENDBRANCH  13  15
ENDBRANCH   1  13
BRANCH  12  23
HETATM   23  O5  UNL     1      -5.322   7.291  14.567  1.00  0.00    -0.395 OA
HETATM   24  H38 UNL     1      -5.274   7.545  15.503  1.00  0.00     0.210 HD
ENDBRANCH  12  23
BRANCH   8  25
HETATM   25  N2  UNL     1      -3.171   3.062  11.985  1.00  0.00    -0.354 N 
HETATM   26  C15 UNL     1      -2.297   2.894  10.933  1.00  0.00     0.241 C 
HETATM   27  O3  UNL     1      -2.380   3.496   9.866  1.00  0.00    -0.271 OA
HETATM   28  H26 UNL     1      -3.079   2.375  12.730  1.00  0.00     0.162 HD
BRANCH  26  29
HETATM   29  C16 UNL     1      -1.180   1.888  11.224  1.00  0.00     0.269 C 
BRANCH  29  30
HETATM   30  O4  UNL     1       0.115   2.490  11.146  1.00  0.00    -0.387 OA
HETATM   31  C17 UNL     1       0.158   3.710  11.874  1.00  0.00     0.202 C 
ENDBRANCH  29  30
ENDBRANCH  26  29
ENDBRANCH   8  25
TORSDOF 9
ENDMDL
MODEL 5
REMARK minimizedAffinity -7.34039974
REMARK  9 active torsions:
REMARK  status: ('A' for Active; 'I' for Inactive)
REMARK    1  A    between atoms: O1_2  and  C2_3 
REMARK    2  A    between atoms: C2_3  and  C3_4 
REMARK    3  A    between atoms: C3_4  and  N1_5 
REMARK       I    between atoms: N1_5  and  C4_6 
REMARK    4  A    between atoms: C4_6  and  C5_8 
REMARK    5  A    between atoms: C5_8  and  C7_10 
REMARK    6  A    between atoms: C14_17  and  N2_18 
REMARK       I    between atoms: N2_18  and  C15_19 
REMARK    7  A    between atoms: C15_19  and  C16_21 
REMARK    8  A    between atoms: C16_21  and  O4_22 
REMARK    9  A    between atoms: C21_27  and  O5_28 
ROOT
HETATM    1  C7  UNL     1      -2.468   3.906  12.196  1.00  0.00     0.027 C 
HETATM    2  C8  UNL     1      -2.888   2.775  11.247  1.00  0.00     0.009 C 
HETATM    3  C9  UNL     1      -4.161   2.081  11.714  1.00  0.00     0.010 C 
HETATM    4  C10 UNL     1      -5.347   3.052  11.909  1.00  0.00    -0.037 C 
HETATM    5  C11 UNL     1      -5.748   3.634  10.531  1.00  0.00     0.015 C 
HETATM    6  C12 UNL     1      -6.530   2.238  12.482  1.00  0.00     0.011 C 
HETATM    7  C13 UNL     1      -7.734   3.100  12.827  1.00  0.00     0.026 C 
HETATM    8  C14 UNL     1      -7.375   4.259  13.762  1.00  0.00     0.088 C 
HETATM    9  C18 UNL     1      -6.165   5.096  13.255  1.00  0.00     0.012 C 
HETATM   10  C19 UNL     1      -5.847   6.195  14.283  1.00  0.00     0.012 C 
HETATM   11  C20 UNL     1      -4.944   4.158  12.936  1.00  0.00     0.028 C 
HETATM   12  C21 UNL     1      -3.639   4.885  12.497  1.00  0.00     0.128 C 
ENDROOT
BRANCH   1  13
HETATM   13  C5  UNL     1      -1.177   4.651  11.736  1.00  0.00     0.080 C 
HETATM   14  C6  UNL     1       0.066   3.769  11.595  1.00  0.00     0.020 C 
BRANCH  13  15
HETATM   15  C4  UNL     1      -0.915   5.903  12.577  1.00  0.00     0.222 C 
HETATM   16  N1  UNL     1      -0.311   5.702  13.796  1.00  0.00    -0.359 N 
HETATM   17  H8  UNL     1      -0.185   4.761  14.142  1.00  0.00     0.162 HD
HETATM   18  O2  UNL     1      -1.256   7.017  12.185  1.00  0.00    -0.273 OA
BRANCH  16  19
HETATM   19  C3  UNL     1      -0.128   6.788  14.742  1.00  0.00     0.148 C 
BRANCH  19  20
HETATM   20  C2  UNL     1       0.984   7.765  14.357  1.00  0.00     0.186 C 
BRANCH  20  21
HETATM   21  O1  UNL     1       1.664   8.181  15.545  1.00  0.00    -0.394 OA
HETATM   22  C1  UNL     1       2.825   7.395  15.781  1.00  0.00     0.201 C 
ENDBRANCH  20  21
ENDBRANCH  19  20
ENDBRANCH  16  19
ENDBRANCH  13  15
ENDBRANCH   1  13
BRANCH  12  23
HETATM   23  O5  UNL     1      -3.203   5.736  13.555  1.00  0.00    -0.395 OA
HETATM   24  H38 UNL     1      -2.683   6.463  13.174  1.00  0.00     0.210 HD
ENDBRANCH  12  23
BRANCH   8  25
HETATM   25  N2  UNL     1      -8.553   5.099  13.942  1.00  0.00    -0.354 N 
HETATM   26  C15 UNL     1      -9.100   5.855  12.929  1.00  0.00     0.241 C 
HETATM   27  O3  UNL     1      -8.723   5.817  11.761  1.00  0.00    -0.271 OA
HETATM   28  H26 UNL     1      -8.849   5.363  14.879  1.00  0.00     0.162 HD
BRANCH  26  29
HETATM   29  C16 UNL     1     -10.254   6.748  13.391  1.00  0.00     0.269 C 
BRANCH  29  30
HETATM   30  O4  UNL     1     -10.982   7.295  12.287  1.00  0.00    -0.387 OA
HETATM   31  C17 UNL     1     -11.712   8.451  12.676  1.00  0.00     0.202 C 
ENDBRANCH  29  30
ENDBRANCH  26  29
ENDBRANCH   8  25
TORSDOF 9
ENDMDL
MODEL 6
REMARK minimizedAffinity -7.23754549
REMARK  9 active torsions:
REMARK  status: ('A' for Active; 'I' for Inactive)
REMARK    1  A    between atoms: O1_2  and  C2_3 
REMARK    2  A    between atoms: C2_3  and  C3_4 
REMARK    3  A    between atoms: C3_4  and  N1_5 
REMARK       I    between atoms: N1_5  and  C4_6 
REMARK    4  A    between atoms: C4_6  and  C5_8 
REMARK    5  A    between atoms: C5_8  and  C7_10 
REMARK    6  A    between atoms: C14_17  and  N2_18 
REMARK       I    between atoms: N2_18  and  C15_19 
REMARK    7  A    between atoms: C15_19  and  C16_21 
REMARK    8  A    between atoms: C16_21  and  O4_22 
REMARK    9  A    between atoms: C21_27  and  O5_28 
ROOT
HETATM    1  C7  UNL     1      -6.339   5.219  13.578  1.00  0.00     0.027 C 
HETATM    2  C8  UNL     1      -6.762   3.932  12.857  1.00  0.00     0.009 C 
HETATM    3  C9  UNL     1      -5.964   3.706  11.578  1.00  0.00     0.010 C 
HETATM    4  C10 UNL     1      -4.437   3.685  11.810  1.00  0.00    -0.037 C 
HETATM    5  C11 UNL     1      -4.079   2.449  12.672  1.00  0.00     0.015 C 
HETATM    6  C12 UNL     1      -3.755   3.556  10.428  1.00  0.00     0.011 C 
HETATM    7  C13 UNL     1      -2.239   3.636  10.503  1.00  0.00     0.026 C 
HETATM    8  C14 UNL     1      -1.754   4.895  11.228  1.00  0.00     0.088 C 
HETATM    9  C18 UNL     1      -2.433   5.098  12.613  1.00  0.00     0.012 C 
HETATM   10  C19 UNL     1      -1.926   6.410  13.234  1.00  0.00     0.012 C 
HETATM   11  C20 UNL     1      -3.997   5.029  12.473  1.00  0.00     0.028 C 
HETATM   12  C21 UNL     1      -4.799   5.301  13.780  1.00  0.00     0.128 C 
ENDROOT
BRANCH   1  13
HETATM   13  C5  UNL     1      -7.124   5.472  14.902  1.00  0.00     0.080 C 
HETATM   14  C6  UNL     1      -7.714   4.221  15.557  1.00  0.00     0.020 C 
BRANCH  13  15
HETATM   15  C4  UNL     1      -8.155   6.592  14.745  1.00  0.00     0.222 C 
HETATM   16  N1  UNL     1      -9.469   6.200  14.634  1.00  0.00    -0.359 N 
HETATM   17  H8  UNL     1      -9.690   5.219  14.531  1.00  0.00     0.162 HD
HETATM   18  O2  UNL     1      -7.812   7.771  14.693  1.00  0.00    -0.273 OA
BRANCH  16  19
HETATM   19  C3  UNL     1     -10.526   7.153  14.349  1.00  0.00     0.148 C 
BRANCH  19  20
HETATM   20  C2  UNL     1     -10.930   7.206  12.875  1.00  0.00     0.186 C 
BRANCH  20  21
HETATM   21  O1  UNL     1     -12.183   7.888  12.765  1.00  0.00    -0.394 OA
HETATM   22  C1  UNL     1     -12.000   9.263  12.455  1.00  0.00     0.201 C 
ENDBRANCH  20  21
ENDBRANCH  19  20
ENDBRANCH  16  19
ENDBRANCH  13  15
ENDBRANCH   1  13
BRANCH  12  23
HETATM   23  O5  UNL     1      -4.512   6.622  14.235  1.00  0.00    -0.395 OA
HETATM   24  H38 UNL     1      -4.647   6.655  15.196  1.00  0.00     0.210 HD
ENDBRANCH  12  23
BRANCH   8  25
HETATM   25  N2  UNL     1      -0.303   4.831  11.360  1.00  0.00    -0.354 N 
HETATM   26  C15 UNL     1       0.543   5.779  10.827  1.00  0.00     0.241 C 
HETATM   27  O3  UNL     1       0.164   6.814  10.287  1.00  0.00    -0.271 OA
HETATM   28  H26 UNL     1       0.145   3.954  11.616  1.00  0.00     0.162 HD
BRANCH  26  29
HETATM   29  C16 UNL     1       2.025   5.431  10.988  1.00  0.00     0.269 C 
BRANCH  29  30
HETATM   30  O4  UNL     1       2.586   4.909   9.780  1.00  0.00    -0.387 OA
HETATM   31  C17 UNL     1       3.201   5.936   9.015  1.00  0.00     0.202 C 
ENDBRANCH  29  30
ENDBRANCH  26  29
ENDBRANCH   8  25
TORSDOF 9
ENDMDL
MODEL 7
REMARK minimizedAffinity -7.21278667
REMARK  9 active torsions:
REMARK  status: ('A' for Active; 'I' for Inactive)
REMARK    1  A    between atoms: O1_2  and  C2_3 
REMARK    2  A    between atoms: C2_3  and  C3_4 
REMARK    3  A    between atoms: C3_4  and  N1_5 
REMARK       I    between atoms: N1_5  and  C4_6 
REMARK    4  A    between atoms: C4_6  and  C5_8 
REMARK    5  A    between atoms: C5_8  and  C7_10 
REMARK    6  A    between atoms: C14_17  and  N2_18 
REMARK       I    between atoms: N2_18  and  C15_19 
REMARK    7  A    between atoms: C15_19  and  C16_21 
REMARK    8  A    between atoms: C16_21  and  O4_22 
REMARK    9  A    between atoms: C21_27  and  O5_28 
ROOT
HETATM    1  C7  UNL     1       0.198   6.671  12.081  1.00  0.00     0.027 C 
HETATM    2  C8  UNL     1      -0.134   7.767  13.101  1.00  0.00     0.009 C 
HETATM    3  C9  UNL     1      -1.629   8.057  13.163  1.00  0.00     0.010 C 
HETATM    4  C10 UNL     1      -2.479   6.803  13.464  1.00  0.00    -0.037 C 
HETATM    5  C11 UNL     1      -2.156   6.313  14.898  1.00  0.00     0.015 C 
HETATM    6  C12 UNL     1      -3.967   7.216  13.392  1.00  0.00     0.011 C 
HETATM    7  C13 UNL     1      -4.920   6.044  13.561  1.00  0.00     0.026 C 
HETATM    8  C14 UNL     1      -4.629   4.906  12.578  1.00  0.00     0.088 C 
HETATM    9  C18 UNL     1      -3.135   4.469  12.580  1.00  0.00     0.012 C 
HETATM   10  C19 UNL     1      -2.932   3.368  11.526  1.00  0.00     0.012 C 
HETATM   11  C20 UNL     1      -2.198   5.716  12.379  1.00  0.00     0.028 C 
HETATM   12  C21 UNL     1      -0.676   5.400  12.279  1.00  0.00     0.128 C 
ENDROOT
BRANCH   1  13
HETATM   13  C5  UNL     1       1.720   6.337  12.006  1.00  0.00     0.080 C 
HETATM   14  C6  UNL     1       2.621   7.213  12.878  1.00  0.00     0.020 C 
BRANCH  13  15
HETATM   15  C4  UNL     1       2.211   6.249  10.559  1.00  0.00     0.222 C 
HETATM   16  N1  UNL     1       2.693   7.413  10.008  1.00  0.00    -0.359 N 
HETATM   17  H8  UNL     1       2.590   8.284  10.511  1.00  0.00     0.162 HD
HETATM   18  O2  UNL     1       2.145   5.198   9.926  1.00  0.00    -0.273 OA
BRANCH  16  19
HETATM   19  C3  UNL     1       3.065   7.495   8.607  1.00  0.00     0.148 C 
BRANCH  19  20
HETATM   20  C2  UNL     1       1.945   8.006   7.699  1.00  0.00     0.186 C 
BRANCH  20  21
HETATM   21  O1  UNL     1       1.073   8.840   8.467  1.00  0.00    -0.394 OA
HETATM   22  C1  UNL     1      -0.266   8.365   8.429  1.00  0.00     0.201 C 
ENDBRANCH  20  21
ENDBRANCH  19  20
ENDBRANCH  16  19
ENDBRANCH  13  15
ENDBRANCH   1  13
BRANCH  12  23
HETATM   23  O5  UNL     1      -0.449   4.562  11.148  1.00  0.00    -0.395 OA
HETATM   24  H38 UNL     1       0.356   4.041  11.304  1.00  0.00     0.210 HD
ENDBRANCH  12  23
BRANCH   8  25
HETATM   25  N2  UNL     1      -5.503   3.782  12.888  1.00  0.00    -0.354 N 
HETATM   26  C15 UNL     1      -6.820   3.720  12.484  1.00  0.00     0.241 C 
HETATM   27  O3  UNL     1      -7.352   4.541  11.743  1.00  0.00    -0.271 OA
HETATM   28  H26 UNL     1      -5.254   3.136  13.633  1.00  0.00     0.162 HD
BRANCH  26  29
HETATM   29  C16 UNL     1      -7.568   2.504  13.035  1.00  0.00     0.269 C 
BRANCH  29  30
HETATM   30  O4  UNL     1      -6.970   1.273  12.617  1.00  0.00    -0.387 OA
HETATM   31  C17 UNL     1      -6.312   1.422  11.366  1.00  0.00     0.202 C 
ENDBRANCH  29  30
ENDBRANCH  26  29
ENDBRANCH   8  25
TORSDOF 9
ENDMDL
MODEL 8
REMARK minimizedAffinity -7.10048532
REMARK  9 active torsions:
REMARK  status: ('A' for Active; 'I' for Inactive)
REMARK    1  A    between atoms: O1_2  and  C2_3 
REMARK    2  A    between atoms: C2_3  and  C3_4 
REMARK    3  A    between atoms: C3_4  and  N1_5 
REMARK       I    between atoms: N1_5  and  C4_6 
REMARK    4  A    between atoms: C4_6  and  C5_8 
REMARK    5  A    between atoms: C5_8  and  C7_10 
REMARK    6  A    between atoms: C14_17  and  N2_18 
REMARK       I    between atoms: N2_18  and  C15_19 
REMARK    7  A    between atoms: C15_19  and  C16_21 
REMARK    8  A    between atoms: C16_21  and  O4_22 
REMARK    9  A    between atoms: C21_27  and  O5_28 
ROOT
HETATM    1  C7  UNL     1      -6.040   4.052  12.460  1.00  0.00     0.027 C 
HETATM    2  C8  UNL     1      -5.729   2.981  11.406  1.00  0.00     0.009 C 
HETATM    3  C9  UNL     1      -4.537   3.364  10.537  1.00  0.00     0.010 C 
HETATM    4  C10 UNL     1      -3.261   3.664  11.354  1.00  0.00    -0.037 C 
HETATM    5  C11 UNL     1      -2.790   2.358  12.043  1.00  0.00     0.015 C 
HETATM    6  C12 UNL     1      -2.172   4.137  10.364  1.00  0.00     0.011 C 
HETATM    7  C13 UNL     1      -0.890   4.575  11.054  1.00  0.00     0.026 C 
HETATM    8  C14 UNL     1      -1.137   5.635  12.131  1.00  0.00     0.088 C 
HETATM    9  C18 UNL     1      -2.251   5.229  13.139  1.00  0.00     0.012 C 
HETATM   10  C19 UNL     1      -2.464   6.375  14.142  1.00  0.00     0.012 C 
HETATM   11  C20 UNL     1      -3.558   4.809  12.373  1.00  0.00     0.028 C 
HETATM   12  C21 UNL     1      -4.779   4.459  13.274  1.00  0.00     0.128 C 
ENDROOT
BRANCH   1  13
HETATM   13  C5  UNL     1      -7.245   3.683  13.380  1.00  0.00     0.080 C 
HETATM   14  C6  UNL     1      -8.218   2.657  12.795  1.00  0.00     0.020 C 
BRANCH  13  15
HETATM   15  C4  UNL     1      -7.957   4.930  13.909  1.00  0.00     0.222 C 
HETATM   16  N1  UNL     1      -7.859   5.160  15.261  1.00  0.00    -0.359 N 
HETATM   17  H8  UNL     1      -7.449   4.456  15.858  1.00  0.00     0.162 HD
HETATM   18  O2  UNL     1      -8.602   5.662  13.161  1.00  0.00    -0.273 OA
BRANCH  16  19
HETATM   19  C3  UNL     1      -8.597   6.231  15.907  1.00  0.00     0.148 C 
BRANCH  19  20
HETATM   20  C2  UNL     1      -7.722   7.177  16.730  1.00  0.00     0.186 C 
BRANCH  20  21
HETATM   21  O1  UNL     1      -6.583   7.548  15.948  1.00  0.00    -0.394 OA
HETATM   22  C1  UNL     1      -6.903   8.578  15.022  1.00  0.00     0.201 C 
ENDBRANCH  20  21
ENDBRANCH  19  20
ENDBRANCH  16  19
ENDBRANCH  13  15
ENDBRANCH   1  13
BRANCH  12  23
HETATM   23  O5  UNL     1      -5.135   5.607  14.041  1.00  0.00    -0.395 OA
HETATM   24  H38 UNL     1      -5.574   5.312  14.856  1.00  0.00     0.210 HD
ENDBRANCH  12  23
BRANCH   8  25
HETATM   25  N2  UNL     1       0.119   5.906  12.820  1.00  0.00    -0.354 N 
HETATM   26  C15 UNL     1       0.775   7.115  12.739  1.00  0.00     0.241 C 
HETATM   27  O3  UNL     1       0.324   8.107  12.176  1.00  0.00    -0.271 OA
HETATM   28  H26 UNL     1       0.686   5.135  13.164  1.00  0.00     0.162 HD
BRANCH  26  29
HETATM   29  C16 UNL     1       2.134   7.118  13.445  1.00  0.00     0.269 C 
BRANCH  29  30
HETATM   30  O4  UNL     1       3.157   7.698  12.632  1.00  0.00    -0.387 OA
HETATM   31  C17 UNL     1       3.533   6.822  11.578  1.00  0.00     0.202 C 
ENDBRANCH  29  30
ENDBRANCH  26  29
ENDBRANCH   8  25
TORSDOF 9
ENDMDL
MODEL 9
REMARK minimizedAffinity -7.0449934
REMARK  9 active torsions:
REMARK  status: ('A' for Active; 'I' for Inactive)
REMARK    1  A    between atoms: O1_2  and  C2_3 
REMARK    2  A    between atoms: C2_3  and  C3_4 
REMARK    3  A    between atoms: C3_4  and  N1_5 
REMARK       I    between atoms: N1_5  and  C4_6 
REMARK    4  A    between atoms: C4_6  and  C5_8 
REMARK    5  A    between atoms: C5_8  and  C7_10 
REMARK    6  A    between atoms: C14_17  and  N2_18 
REMARK       I    between atoms: N2_18  and  C15_19 
REMARK    7  A    between atoms: C15_19  and  C16_21 
REMARK    8  A    between atoms: C16_21  and  O4_22 
REMARK    9  A    between atoms: C21_27  and  O5_28 
ROOT
HETATM    1  C7  UNL     1      -4.710   3.577  11.826  1.00  0.00     0.027 C 
HETATM    2  C8  UNL     1      -3.931   3.075  10.604  1.00  0.00     0.009 C 
HETATM    3  C9  UNL     1      -2.778   4.002  10.241  1.00  0.00     0.010 C 
HETATM    4  C10 UNL     1      -1.797   4.239  11.410  1.00  0.00    -0.037 C 
HETATM    5  C11 UNL     1      -1.085   2.904  11.743  1.00  0.00     0.015 C 
HETATM    6  C12 UNL     1      -0.747   5.272  10.940  1.00  0.00     0.011 C 
HETATM    7  C13 UNL     1       0.220   5.682  12.039  1.00  0.00     0.026 C 
HETATM    8  C14 UNL     1      -0.500   6.179  13.296  1.00  0.00     0.088 C 
HETATM    9  C18 UNL     1      -1.596   5.195  13.798  1.00  0.00     0.012 C 
HETATM   10  C19 UNL     1      -2.297   5.804  15.024  1.00  0.00     0.012 C 
HETATM   11  C20 UNL     1      -2.579   4.824  12.629  1.00  0.00     0.028 C 
HETATM   12  C21 UNL     1      -3.774   3.907  13.024  1.00  0.00     0.128 C 
ENDROOT
BRANCH   1  13
HETATM   13  C5  UNL     1      -5.888   2.639  12.236  1.00  0.00     0.080 C 
HETATM   14  C6  UNL     1      -6.133   1.455  11.299  1.00  0.00     0.020 C 
BRANCH  13  15
HETATM   15  C4  UNL     1      -7.166   3.429  12.528  1.00  0.00     0.222 C 
HETATM   16  N1  UNL     1      -7.052   4.800  12.515  1.00  0.00    -0.359 N 
HETATM   17  H8  UNL     1      -6.137   5.223  12.446  1.00  0.00     0.162 HD
HETATM   18  O2  UNL     1      -8.223   2.858  12.788  1.00  0.00    -0.273 OA
BRANCH  16  19
HETATM   19  C3  UNL     1      -8.155   5.659  12.905  1.00  0.00     0.148 C 
BRANCH  19  20
HETATM   20  C2  UNL     1      -7.854   6.541  14.118  1.00  0.00     0.186 C 
BRANCH  20  21
HETATM   21  O1  UNL     1      -6.865   5.893  14.923  1.00  0.00    -0.394 OA
HETATM   22  C1  UNL     1      -7.105   6.104  16.309  1.00  0.00     0.201 C 
ENDBRANCH  20  21
ENDBRANCH  19  20
ENDBRANCH  16  19
ENDBRANCH  13  15
ENDBRANCH   1  13
BRANCH  12  23
HETATM   23  O5  UNL     1      -4.572   4.577  13.998  1.00  0.00    -0.395 OA
HETATM   24  H38 UNL     1      -5.033   3.911  14.533  1.00  0.00     0.210 HD
ENDBRANCH  12  23
BRANCH   8  25
HETATM   25  N2  UNL     1       0.490   6.433  14.335  1.00  0.00    -0.354 N 
HETATM   26  C15 UNL     1       0.765   7.693  14.820  1.00  0.00     0.241 C 
HETATM   27  O3  UNL     1       0.137   8.702  14.511  1.00  0.00    -0.271 OA
HETATM   28  H26 UNL     1       1.197   5.732  14.545  1.00  0.00     0.162 HD
BRANCH  26  29
HETATM   29  C16 UNL     1       1.929   7.723  15.814  1.00  0.00     0.269 C 
BRANCH  29  30
HETATM   30  O4  UNL     1       1.683   8.624  16.898  1.00  0.00    -0.387 OA
HETATM   31  C17 UNL     1       2.510   9.776  16.804  1.00  0.00     0.202 C 
ENDBRANCH  29  30
ENDBRANCH  26  29
ENDBRANCH   8  25
TORSDOF 9
ENDMDL
