MODEL 1
REMARK minimizedAffinity -8.51937675
REMARK CNNscore 0.165986389
REMARK CNNaffinity 6.94950867
REMARK  14 active torsions:
REMARK  status: ('A' for Active; 'I' for Inactive)
REMARK       I    between atoms: N1_1  and  C1_2 
REMARK       I    between atoms: C1_2  and  N2_3 
REMARK    1  A    between atoms: N3_4  and  C2_6 
REMARK    2  A    between atoms: C2_6  and  C3_7 
REMARK    3  A    between atoms: C3_7  and  C4_8 
REMARK    4  A    between atoms: C4_8  and  C5_9 
REMARK    5  A    between atoms: C4_8  and  C6_11 
REMARK    6  A    between atoms: C5_9  and  O1_10 
REMARK    7  A    between atoms: C6_11  and  C7_12 
REMARK    8  A    between atoms: C21_27  and  S1_28 
REMARK    9  A    between atoms: C22_32  and  C23_33 
REMARK   10  A    between atoms: C24_34  and  C25_35 
REMARK   11  A    between atoms: C25_35  and  O6_36 
REMARK   12  A    between atoms: C25_35  and  C26_37 
REMARK   13  A    between atoms: C29_40  and  O7_41 
REMARK   14  A    between atoms: C33_45  and  NA1_51 
ROOT
HETATM    1  C2  UNL     1       1.621  52.514 -10.518  1.00  0.00     0.171 C 
HETATM    2  O2  UNL     1       1.287  51.285  -9.748  1.00  0.00    -0.316 OA
HETATM    3  C13 UNL     1       0.684  50.245 -10.405  1.00  0.00     0.072 C 
HETATM    4  C14 UNL     1       1.435  49.082 -10.568  1.00  0.00     0.037 C 
HETATM    5  C15 UNL     1       0.978  48.078 -11.423  1.00  0.00     0.010 C 
HETATM    6  C16 UNL     1      -0.246  48.218 -12.089  1.00  0.00    -0.058 C 
HETATM    7  C17 UNL     1      -1.051  49.329 -11.809  1.00  0.00     0.010 C 
HETATM    8  C18 UNL     1      -0.596  50.334 -10.953  1.00  0.00     0.037 C 
HETATM    9  C19 UNL     1      -0.702  47.191 -13.095  1.00  0.00     0.040 C 
HETATM   10  C20 UNL     1       0.074  47.194 -14.434  1.00  0.00     0.028 C 
HETATM   11  C21 UNL     1      -0.565  47.912 -15.666  1.00  0.00     0.138 C 
HETATM   12  C22 UNL     1      -0.423  49.464 -15.665  1.00  0.00     0.031 C 
HETATM   13  C32 UNL     1       1.067  49.950 -15.658  1.00  0.00     0.041 C 
HETATM   14  C33 UNL     1       1.397  50.879 -14.507  1.00  0.00     0.029 C 
HETATM   15  C34 UNL     1       0.564  51.953 -14.178  1.00  0.00     0.137 C 
HETATM   16  C35 UNL     1       0.701  52.608 -12.953  1.00  0.00     0.012 C 
HETATM   17  C36 UNL     1       1.691  52.200 -12.042  1.00  0.00    -0.003 C 
HETATM   18  C37 UNL     1       2.679  51.309 -12.503  1.00  0.00     0.010 C 
HETATM   19  C38 UNL     1       2.523  50.640 -13.714  1.00  0.00     0.001 C 
ENDROOT
BRANCH   1  20
HETATM   20  N3  UNL     1       2.908  53.072 -10.048  1.00  0.00    -0.336 N 
HETATM   21  C1  UNL     1       3.388  54.196 -10.408  1.00  0.00     0.124 C 
HETATM   22  N1  UNL     1       4.530  54.636  -9.824  1.00  0.00    -0.279 NA
HETATM   23  N2  UNL     1       2.954  55.137 -11.277  1.00  0.00    -0.279 NA
HETATM   24  H1  UNL     1       4.446  55.605  -9.532  1.00  0.00     0.126 HD
HETATM   25  H2  UNL     1       4.727  54.049  -9.021  1.00  0.00     0.126 HD
HETATM   26  H3  UNL     1       3.722  55.589 -11.757  1.00  0.00     0.126 HD
HETATM   27  H4  UNL     1       2.279  54.793 -11.960  1.00  0.00     0.126 HD
ATOM     28  H3  UNL     1       3.452  52.516  -9.388  1.00  0.00     0.165 HD
ENDBRANCH   1  20
BRANCH   1  29
HETATM   29  C3  UNL     1       0.503  53.546 -10.114  1.00  0.00     0.074 C 
BRANCH  29  30
HETATM   30  C4  UNL     1       0.179  53.664  -8.594  1.00  0.00     0.018 C 
BRANCH  30  31
HETATM   31  C5  UNL     1       1.416  53.240  -7.786  1.00  0.00     0.169 C 
BRANCH  31  32
HETATM   32  O1  UNL     1       2.175  54.374  -7.381  1.00  0.00    -0.400 OA
HETATM   33  H10 UNL     1       2.812  54.063  -6.718  1.00  0.00     0.209 HD
ENDBRANCH  31  32
ENDBRANCH  30  31
BRANCH  30  34
HETATM   34  C6  UNL     1      -1.066  52.857  -8.180  1.00  0.00     0.045 C 
BRANCH  34  35
HETATM   35  C7  UNL     1      -2.180  52.905  -9.200  1.00  0.00    -0.058 A 
HETATM   36  C8  UNL     1      -2.924  51.750  -9.482  1.00  0.00     0.007 A 
HETATM   37  C9  UNL     1      -3.967  51.787 -10.408  1.00  0.00     0.001 A 
HETATM   38  C10 UNL     1      -4.266  52.976 -11.069  1.00  0.00     0.000 A 
HETATM   39  C11 UNL     1      -3.511  54.121 -10.823  1.00  0.00     0.001 A 
HETATM   40  C12 UNL     1      -2.471  54.088  -9.894  1.00  0.00     0.007 A 
ENDBRANCH  34  35
ENDBRANCH  30  34
ENDBRANCH  29  30
ENDBRANCH   1  29
BRANCH  14  41
HETATM   41 NA1  UNL     1      -0.032  51.181 -12.930  1.00  0.00    -0.379 Na
ATOM     42 2HA1 UNL     1      -0.617  50.568 -12.363  1.00  0.00     0.091 HD
ATOM     43 1HA1 UNL     1       0.024  51.471 -11.954  1.00  0.00     0.091 HD
ENDBRANCH  14  41
BRANCH  12  44
HETATM   44  C23 UNL     1      -1.128  50.218 -16.789  1.00  0.00    -0.022 C 
HETATM   45  C24 UNL     1      -0.659  50.423 -18.034  1.00  0.00     0.006 C 
BRANCH  45  46
HETATM   46  C25 UNL     1      -1.376  51.219 -19.089  1.00  0.00     0.173 C 
BRANCH  46  47
HETATM   47  O6  UNL     1      -2.460  51.910 -18.450  1.00  0.00    -0.387 OA
HETATM   48  H31 UNL     1      -2.522  51.558 -17.543  1.00  0.00     0.210 HD
ENDBRANCH  46  47
BRANCH  46  49
HETATM   49  C26 UNL     1      -0.482  52.183 -19.853  1.00  0.00    -0.026 A 
HETATM   50  C27 UNL     1       0.061  53.345 -19.273  1.00  0.00     0.013 A 
HETATM   51  C28 UNL     1       0.879  54.201 -20.020  1.00  0.00     0.037 A 
HETATM   52  C29 UNL     1       1.155  53.905 -21.352  1.00  0.00     0.065 A 
HETATM   53  C30 UNL     1       0.630  52.767 -21.952  1.00  0.00     0.037 A 
HETATM   54  C31 UNL     1      -0.189  51.913 -21.206  1.00  0.00     0.013 A 
BRANCH  52  55
HETATM   55  O7  UNL     1       1.969  54.755 -22.047  1.00  0.00    -0.361 OA
HETATM   56  H34 UNL     1       2.092  54.378 -22.935  1.00  0.00     0.217 HD
ENDBRANCH  52  55
ENDBRANCH  46  49
ENDBRANCH  45  46
ENDBRANCH  12  44
BRANCH  11  57
HETATM   57  S1  UNL     1      -2.281  47.348 -15.917  1.00  0.00     0.106 S 
HETATM   58  O3  UNL     1      -2.524  47.551 -17.347  1.00  0.00    -0.595 OA
HETATM   59  O4  UNL     1      -2.267  45.945 -15.501  1.00  0.00    -0.595 OA
HETATM   60  O5  UNL     1      -3.082  48.229 -15.070  1.00  0.00    -0.595 OA
ENDBRANCH  11  57
TORSDOF 14
ENDMDL
MODEL 2
REMARK minimizedAffinity -9.96926498
REMARK CNNscore 0.13530758
REMARK CNNaffinity 6.94424868
REMARK  14 active torsions:
REMARK  status: ('A' for Active; 'I' for Inactive)
REMARK       I    between atoms: N1_1  and  C1_2 
REMARK       I    between atoms: C1_2  and  N2_3 
REMARK    1  A    between atoms: N3_4  and  C2_6 
REMARK    2  A    between atoms: C2_6  and  C3_7 
REMARK    3  A    between atoms: C3_7  and  C4_8 
REMARK    4  A    between atoms: C4_8  and  C5_9 
REMARK    5  A    between atoms: C4_8  and  C6_11 
REMARK    6  A    between atoms: C5_9  and  O1_10 
REMARK    7  A    between atoms: C6_11  and  C7_12 
REMARK    8  A    between atoms: C21_27  and  S1_28 
REMARK    9  A    between atoms: C22_32  and  C23_33 
REMARK   10  A    between atoms: C24_34  and  C25_35 
REMARK   11  A    between atoms: C25_35  and  O6_36 
REMARK   12  A    between atoms: C25_35  and  C26_37 
REMARK   13  A    between atoms: C29_40  and  O7_41 
REMARK   14  A    between atoms: C33_45  and  NA1_51 
ROOT
HETATM    1  C2  UNL     1      -0.995  50.672 -19.948  1.00  0.00     0.171 C 
HETATM    2  O2  UNL     1      -0.628  50.332 -21.349  1.00  0.00    -0.316 OA
HETATM    3  C13 UNL     1      -1.559  49.706 -22.135  1.00  0.00     0.072 C 
HETATM    4  C14 UNL     1      -2.080  50.438 -23.200  1.00  0.00     0.037 C 
HETATM    5  C15 UNL     1      -3.191  49.956 -23.894  1.00  0.00     0.010 C 
HETATM    6  C16 UNL     1      -3.762  48.725 -23.548  1.00  0.00    -0.058 C 
HETATM    7  C17 UNL     1      -3.144  47.939 -22.568  1.00  0.00     0.010 C 
HETATM    8  C18 UNL     1      -2.031  48.420 -21.874  1.00  0.00     0.037 C 
HETATM    9  C19 UNL     1      -5.023  48.240 -24.217  1.00  0.00     0.040 C 
HETATM   10  C20 UNL     1      -6.311  48.998 -23.816  1.00  0.00     0.028 C 
HETATM   11  C21 UNL     1      -7.256  48.351 -22.752  1.00  0.00     0.138 C 
HETATM   12  C22 UNL     1      -6.788  48.514 -21.275  1.00  0.00     0.031 C 
HETATM   13  C32 UNL     1      -6.659  50.011 -20.826  1.00  0.00     0.041 C 
HETATM   14  C33 UNL     1      -5.287  50.369 -20.293  1.00  0.00     0.029 C 
HETATM   15  C34 UNL     1      -4.634  49.555 -19.362  1.00  0.00     0.137 C 
HETATM   16  C35 UNL     1      -3.270  49.719 -19.111  1.00  0.00     0.012 C 
HETATM   17  C36 UNL     1      -2.543  50.716 -19.785  1.00  0.00    -0.003 C 
HETATM   18  C37 UNL     1      -3.270  51.685 -20.502  1.00  0.00     0.010 C 
HETATM   19  C38 UNL     1      -4.624  51.503 -20.771  1.00  0.00     0.001 C 
ENDROOT
BRANCH   1  20
HETATM   20  N3  UNL     1      -0.401  51.973 -19.569  1.00  0.00    -0.336 N 
HETATM   21  C1  UNL     1       0.317  52.695 -20.337  1.00  0.00     0.124 C 
HETATM   22  N1  UNL     1       0.715  53.915 -19.900  1.00  0.00    -0.279 NA
HETATM   23  N2  UNL     1       0.765  52.518 -21.600  1.00  0.00    -0.279 NA
HETATM   24  H1  UNL     1       0.559  54.629 -20.605  1.00  0.00     0.126 HD
HETATM   25  H2  UNL     1       0.196  54.141 -19.059  1.00  0.00     0.126 HD
HETATM   26  H3  UNL     1       1.686  52.916 -21.731  1.00  0.00     0.126 HD
HETATM   27  H4  UNL     1       0.766  51.545 -21.909  1.00  0.00     0.126 HD
ATOM     28  H3  UNL     1      -0.578  52.318 -18.626  1.00  0.00     0.165 HD
ENDBRANCH   1  20
BRANCH   1  29
HETATM   29  C3  UNL     1      -0.278  49.574 -19.077  1.00  0.00     0.074 C 
BRANCH  29  30
HETATM   30  C4  UNL     1      -0.117  49.884 -17.558  1.00  0.00     0.018 C 
BRANCH  30  31
HETATM   31  C5  UNL     1      -1.345  49.347 -16.805  1.00  0.00     0.169 C 
BRANCH  31  32
HETATM   32  O1  UNL     1      -1.270  47.935 -16.647  1.00  0.00    -0.400 OA
HETATM   33  H10 UNL     1      -1.953  47.689 -16.002  1.00  0.00     0.209 HD
ENDBRANCH  31  32
ENDBRANCH  30  31
BRANCH  30  34
HETATM   34  C6  UNL     1       0.108  51.380 -17.271  1.00  0.00     0.045 C 
BRANCH  34  35
HETATM   35  C7  UNL     1       1.388  51.664 -16.519  1.00  0.00    -0.058 A 
HETATM   36  C8  UNL     1       1.633  51.036 -15.289  1.00  0.00     0.007 A 
HETATM   37  C9  UNL     1       2.818  51.276 -14.594  1.00  0.00     0.001 A 
HETATM   38  C10 UNL     1       3.764  52.156 -15.117  1.00  0.00     0.000 A 
HETATM   39  C11 UNL     1       3.515  52.813 -16.320  1.00  0.00     0.001 A 
HETATM   40  C12 UNL     1       2.332  52.571 -17.020  1.00  0.00     0.007 A 
ENDBRANCH  34  35
ENDBRANCH  30  34
ENDBRANCH  29  30
ENDBRANCH   1  29
BRANCH  14  41
HETATM   41 NA1  UNL     1      -3.668  48.966 -20.471  1.00  0.00    -0.379 Na
ATOM     42 2HA1 UNL     1      -3.303  48.381 -21.222  1.00  0.00     0.091 HD
ATOM     43 1HA1 UNL     1      -2.651  49.040 -20.491  1.00  0.00     0.091 HD
ENDBRANCH  14  41
BRANCH  12  44
HETATM   44  C23 UNL     1      -7.618  47.803 -20.209  1.00  0.00    -0.022 C 
HETATM   45  C24 UNL     1      -8.384  48.387 -19.268  1.00  0.00     0.006 C 
BRANCH  45  46
HETATM   46  C25 UNL     1      -9.142  47.638 -18.208  1.00  0.00     0.173 C 
BRANCH  46  47
HETATM   47  O6  UNL     1      -8.725  48.149 -16.932  1.00  0.00    -0.387 OA
HETATM   48  H31 UNL     1      -7.962  48.733 -17.100  1.00  0.00     0.210 HD
ENDBRANCH  46  47
BRANCH  46  49
HETATM   49  C26 UNL     1     -10.653  47.705 -18.361  1.00  0.00    -0.026 A 
HETATM   50  C27 UNL     1     -11.282  48.149 -19.540  1.00  0.00     0.013 A 
HETATM   51  C28 UNL     1     -12.679  48.193 -19.631  1.00  0.00     0.037 A 
HETATM   52  C29 UNL     1     -13.455  47.798 -18.544  1.00  0.00     0.065 A 
HETATM   53  C30 UNL     1     -12.860  47.358 -17.367  1.00  0.00     0.037 A 
HETATM   54  C31 UNL     1     -11.465  47.318 -17.276  1.00  0.00     0.013 A 
BRANCH  52  55
HETATM   55  O7  UNL     1     -14.814  47.840 -18.672  1.00  0.00    -0.361 OA
HETATM   56  H34 UNL     1     -15.195  47.492 -17.847  1.00  0.00     0.217 HD
ENDBRANCH  52  55
ENDBRANCH  46  49
ENDBRANCH  45  46
ENDBRANCH  12  44
BRANCH  11  57
HETATM   57  S1  UNL     1      -7.636  46.624 -23.198  1.00  0.00     0.106 S 
HETATM   58  O3  UNL     1      -6.574  45.843 -22.561  1.00  0.00    -0.595 OA
HETATM   59  O4  UNL     1      -8.971  46.391 -22.645  1.00  0.00    -0.595 OA
HETATM   60  O5  UNL     1      -7.567  46.601 -24.657  1.00  0.00    -0.595 OA
ENDBRANCH  11  57
TORSDOF 14
ENDMDL
MODEL 3
REMARK minimizedAffinity -9.42968845
REMARK CNNscore 0.134029821
REMARK CNNaffinity 5.07596731
REMARK  14 active torsions:
REMARK  status: ('A' for Active; 'I' for Inactive)
REMARK       I    between atoms: N1_1  and  C1_2 
REMARK       I    between atoms: C1_2  and  N2_3 
REMARK    1  A    between atoms: N3_4  and  C2_6 
REMARK    2  A    between atoms: C2_6  and  C3_7 
REMARK    3  A    between atoms: C3_7  and  C4_8 
REMARK    4  A    between atoms: C4_8  and  C5_9 
REMARK    5  A    between atoms: C4_8  and  C6_11 
REMARK    6  A    between atoms: C5_9  and  O1_10 
REMARK    7  A    between atoms: C6_11  and  C7_12 
REMARK    8  A    between atoms: C21_27  and  S1_28 
REMARK    9  A    between atoms: C22_32  and  C23_33 
REMARK   10  A    between atoms: C24_34  and  C25_35 
REMARK   11  A    between atoms: C25_35  and  O6_36 
REMARK   12  A    between atoms: C25_35  and  C26_37 
REMARK   13  A    between atoms: C29_40  and  O7_41 
REMARK   14  A    between atoms: C33_45  and  NA1_51 
ROOT
HETATM    1  C2  UNL     1     -10.250  46.124 -27.750  1.00  0.00     0.171 C 
HETATM    2  O2  UNL     1      -9.923  44.706 -28.061  1.00  0.00    -0.316 OA
HETATM    3  C13 UNL     1     -10.883  43.752 -27.853  1.00  0.00     0.072 C 
HETATM    4  C14 UNL     1     -11.415  43.135 -28.983  1.00  0.00     0.037 C 
HETATM    5  C15 UNL     1     -12.550  42.332 -28.864  1.00  0.00     0.010 C 
HETATM    6  C16 UNL     1     -13.136  42.117 -27.611  1.00  0.00    -0.058 C 
HETATM    7  C17 UNL     1     -12.511  42.631 -26.468  1.00  0.00     0.010 C 
HETATM    8  C18 UNL     1     -11.374  43.433 -26.586  1.00  0.00     0.037 C 
HETATM    9  C19 UNL     1     -14.422  41.339 -27.480  1.00  0.00     0.040 C 
HETATM   10  C20 UNL     1     -15.686  42.071 -27.991  1.00  0.00     0.028 C 
HETATM   11  C21 UNL     1     -16.618  42.767 -26.948  1.00  0.00     0.138 C 
HETATM   12  C22 UNL     1     -16.113  44.151 -26.439  1.00  0.00     0.031 C 
HETATM   13  C32 UNL     1     -15.946  45.209 -27.583  1.00  0.00     0.041 C 
HETATM   14  C33 UNL     1     -14.555  45.806 -27.660  1.00  0.00     0.029 C 
HETATM   15  C34 UNL     1     -13.896  46.263 -26.515  1.00  0.00     0.137 C 
HETATM   16  C35 UNL     1     -12.524  46.521 -26.541  1.00  0.00     0.012 C 
HETATM   17  C36 UNL     1     -11.794  46.334 -27.728  1.00  0.00    -0.003 C 
HETATM   18  C37 UNL     1     -12.518  46.139 -28.920  1.00  0.00     0.010 C 
HETATM   19  C38 UNL     1     -13.882  45.857 -28.884  1.00  0.00     0.001 C 
ENDROOT
BRANCH   1  20
HETATM   20  N3  UNL     1      -9.623  47.020 -28.747  1.00  0.00    -0.336 N 
HETATM   21  C1  UNL     1     -10.211  47.996 -29.318  1.00  0.00     0.124 C 
HETATM   22  N1  UNL     1      -9.491  48.802 -30.137  1.00  0.00    -0.279 NA
HETATM   23  N2  UNL     1     -11.476  48.467 -29.248  1.00  0.00    -0.279 NA
HETATM   24  H1  UNL     1      -9.664  49.782 -29.937  1.00  0.00     0.126 HD
HETATM   25  H2  UNL     1      -8.507  48.592 -30.011  1.00  0.00     0.126 HD
HETATM   26  H3  UNL     1     -11.792  48.831 -30.138  1.00  0.00     0.126 HD
HETATM   27  H4  UNL     1     -12.153  47.789 -28.896  1.00  0.00     0.126 HD
ATOM     28  H3  UNL     1      -8.650  46.843 -28.995  1.00  0.00     0.165 HD
ENDBRANCH   1  20
BRANCH   1  29
HETATM   29  C3  UNL     1      -9.535  46.400 -26.375  1.00  0.00     0.074 C 
BRANCH  29  30
HETATM   30  C4  UNL     1      -8.503  47.569 -26.349  1.00  0.00     0.018 C 
BRANCH  30  31
HETATM   31  C5  UNL     1      -9.259  48.904 -26.455  1.00  0.00     0.169 C 
BRANCH  31  32
HETATM   32  O1  UNL     1      -9.039  49.707 -25.302  1.00  0.00    -0.400 OA
HETATM   33  H10 UNL     1      -9.366  50.597 -25.514  1.00  0.00     0.209 HD
ENDBRANCH  31  32
ENDBRANCH  30  31
BRANCH  30  34
HETATM   34  C6  UNL     1      -7.426  47.444 -27.442  1.00  0.00     0.045 C 
BRANCH  34  35
HETATM   35  C7  UNL     1      -6.049  47.862 -26.980  1.00  0.00    -0.058 A 
HETATM   36  C8  UNL     1      -5.022  48.049 -27.916  1.00  0.00     0.007 A 
HETATM   37  C9  UNL     1      -3.752  48.452 -27.504  1.00  0.00     0.001 A 
HETATM   38  C10 UNL     1      -3.494  48.658 -26.150  1.00  0.00     0.000 A 
HETATM   39  C11 UNL     1      -4.497  48.440 -25.208  1.00  0.00     0.001 A 
HETATM   40  C12 UNL     1      -5.770  48.042 -25.618  1.00  0.00     0.007 A 
ENDBRANCH  34  35
ENDBRANCH  30  34
ENDBRANCH  29  30
ENDBRANCH   1  29
BRANCH  14  41
HETATM   41 NA1  UNL     1     -12.967  44.980 -26.469  1.00  0.00    -0.379 Na
ATOM     42 2HA1 UNL     1     -12.631  44.038 -26.273  1.00  0.00     0.091 HD
ATOM     43 1HA1 UNL     1     -11.950  44.965 -26.537  1.00  0.00     0.091 HD
ENDBRANCH  14  41
BRANCH  12  44
HETATM   44  C23 UNL     1     -16.931  44.818 -25.337  1.00  0.00    -0.022 C 
HETATM   45  C24 UNL     1     -17.804  45.831 -25.488  1.00  0.00     0.006 C 
BRANCH  45  46
HETATM   46  C25 UNL     1     -18.548  46.485 -24.357  1.00  0.00     0.173 C 
BRANCH  46  47
HETATM   47  O6  UNL     1     -19.521  47.371 -24.932  1.00  0.00    -0.387 OA
HETATM   48  H31 UNL     1     -19.332  47.414 -25.887  1.00  0.00     0.210 HD
ENDBRANCH  46  47
BRANCH  46  49
HETATM   49  C26 UNL     1     -19.195  45.506 -23.391  1.00  0.00    -0.026 A 
HETATM   50  C27 UNL     1     -20.218  44.618 -23.775  1.00  0.00     0.013 A 
HETATM   51  C28 UNL     1     -20.783  43.735 -22.847  1.00  0.00     0.037 A 
HETATM   52  C29 UNL     1     -20.333  43.737 -21.529  1.00  0.00     0.065 A 
HETATM   53  C30 UNL     1     -19.327  44.605 -21.121  1.00  0.00     0.037 A 
HETATM   54  C31 UNL     1     -18.765  45.488 -22.048  1.00  0.00     0.013 A 
BRANCH  52  55
HETATM   55  O7  UNL     1     -20.896  42.852 -20.653  1.00  0.00    -0.361 OA
HETATM   56  H34 UNL     1     -20.439  42.956 -19.801  1.00  0.00     0.217 HD
ENDBRANCH  52  55
ENDBRANCH  46  49
ENDBRANCH  45  46
ENDBRANCH  12  44
BRANCH  11  57
HETATM   57  S1  UNL     1     -17.041  41.617 -25.598  1.00  0.00     0.106 S 
HETATM   58  O3  UNL     1     -18.346  42.081 -25.121  1.00  0.00    -0.595 OA
HETATM   59  O4  UNL     1     -17.066  40.301 -26.237  1.00  0.00    -0.595 OA
HETATM   60  O5  UNL     1     -15.976  41.799 -24.615  1.00  0.00    -0.595 OA
ENDBRANCH  11  57
TORSDOF 14
ENDMDL
MODEL 4
REMARK minimizedAffinity -8.75784111
REMARK CNNscore 0.131083399
REMARK CNNaffinity 7.15006208
REMARK  14 active torsions:
REMARK  status: ('A' for Active; 'I' for Inactive)
REMARK       I    between atoms: N1_1  and  C1_2 
REMARK       I    between atoms: C1_2  and  N2_3 
REMARK    1  A    between atoms: N3_4  and  C2_6 
REMARK    2  A    between atoms: C2_6  and  C3_7 
REMARK    3  A    between atoms: C3_7  and  C4_8 
REMARK    4  A    between atoms: C4_8  and  C5_9 
REMARK    5  A    between atoms: C4_8  and  C6_11 
REMARK    6  A    between atoms: C5_9  and  O1_10 
REMARK    7  A    between atoms: C6_11  and  C7_12 
REMARK    8  A    between atoms: C21_27  and  S1_28 
REMARK    9  A    between atoms: C22_32  and  C23_33 
REMARK   10  A    between atoms: C24_34  and  C25_35 
REMARK   11  A    between atoms: C25_35  and  O6_36 
REMARK   12  A    between atoms: C25_35  and  C26_37 
REMARK   13  A    between atoms: C29_40  and  O7_41 
REMARK   14  A    between atoms: C33_45  and  NA1_51 
ROOT
HETATM    1  C2  UNL     1       0.299  52.191 -11.539  1.00  0.00     0.171 C 
HETATM    2  O2  UNL     1      -1.011  51.551 -11.241  1.00  0.00    -0.316 OA
HETATM    3  C13 UNL     1      -1.747  51.053 -12.282  1.00  0.00     0.072 C 
HETATM    4  C14 UNL     1      -1.890  49.668 -12.349  1.00  0.00     0.037 C 
HETATM    5  C15 UNL     1      -2.421  49.082 -13.499  1.00  0.00     0.010 C 
HETATM    6  C16 UNL     1      -2.844  49.879 -14.570  1.00  0.00    -0.058 C 
HETATM    7  C17 UNL     1      -2.822  51.273 -14.432  1.00  0.00     0.010 C 
HETATM    8  C18 UNL     1      -2.291  51.861 -13.282  1.00  0.00     0.037 C 
HETATM    9  C19 UNL     1      -3.322  49.257 -15.858  1.00  0.00     0.040 C 
HETATM   10  C20 UNL     1      -2.215  48.609 -16.723  1.00  0.00     0.028 C 
HETATM   11  C21 UNL     1      -1.650  49.414 -17.938  1.00  0.00     0.138 C 
HETATM   12  C22 UNL     1      -0.612  50.516 -17.567  1.00  0.00     0.031 C 
HETATM   13  C32 UNL     1       0.660  49.952 -16.845  1.00  0.00     0.041 C 
HETATM   14  C33 UNL     1       0.930  50.596 -15.500  1.00  0.00     0.029 C 
HETATM   15  C34 UNL     1       0.890  51.985 -15.339  1.00  0.00     0.137 C 
HETATM   16  C35 UNL     1       0.834  52.549 -14.063  1.00  0.00     0.012 C 
HETATM   17  C36 UNL     1       0.831  51.723 -12.926  1.00  0.00    -0.003 C 
HETATM   18  C37 UNL     1       1.143  50.361 -13.104  1.00  0.00     0.010 C 
HETATM   19  C38 UNL     1       1.172  49.800 -14.378  1.00  0.00     0.001 C 
ENDROOT
BRANCH   1  20
HETATM   20  N3  UNL     1       1.276  51.866 -10.476  1.00  0.00    -0.336 N 
HETATM   21  C1  UNL     1       2.474  52.297 -10.433  1.00  0.00     0.124 C 
HETATM   22  N1  UNL     1       3.235  52.004  -9.350  1.00  0.00    -0.279 NA
HETATM   23  N2  UNL     1       3.194  53.076 -11.272  1.00  0.00    -0.279 NA
HETATM   24  H1  UNL     1       3.713  52.829  -9.001  1.00  0.00     0.126 HD
HETATM   25  H2  UNL     1       2.634  51.623  -8.628  1.00  0.00     0.126 HD
HETATM   26  H3  UNL     1       4.168  52.803 -11.296  1.00  0.00     0.126 HD
HETATM   27  H4  UNL     1       2.826  53.113 -12.223  1.00  0.00     0.126 HD
ATOM     28  H3  UNL     1       0.968  51.251  -9.723  1.00  0.00     0.165 HD
ENDBRANCH   1  20
BRANCH   1  29
HETATM   29  C3  UNL     1       0.013  53.736 -11.437  1.00  0.00     0.074 C 
BRANCH  29  30
HETATM   30  C4  UNL     1      -0.443  54.270 -10.046  1.00  0.00     0.018 C 
BRANCH  30  31
HETATM   31  C5  UNL     1      -1.792  54.990 -10.205  1.00  0.00     0.169 C 
BRANCH  31  32
HETATM   32  O1  UNL     1      -2.689  54.223 -10.999  1.00  0.00    -0.400 OA
HETATM   33  H10 UNL     1      -3.568  54.624 -10.894  1.00  0.00     0.209 HD
ENDBRANCH  31  32
ENDBRANCH  30  31
BRANCH  30  34
HETATM   34  C6  UNL     1       0.605  55.180  -9.379  1.00  0.00     0.045 C 
BRANCH  34  35
HETATM   35  C7  UNL     1       0.358  55.403  -7.905  1.00  0.00    -0.058 A 
HETATM   36  C8  UNL     1       0.510  56.683  -7.353  1.00  0.00     0.007 A 
HETATM   37  C9  UNL     1       0.267  56.904  -5.997  1.00  0.00     0.001 A 
HETATM   38  C10 UNL     1      -0.116  55.843  -5.178  1.00  0.00     0.000 A 
HETATM   39  C11 UNL     1      -0.235  54.561  -5.708  1.00  0.00     0.001 A 
HETATM   40  C12 UNL     1       0.002  54.337  -7.065  1.00  0.00     0.007 A 
ENDBRANCH  34  35
ENDBRANCH  30  34
ENDBRANCH  29  30
ENDBRANCH   1  29
BRANCH  14  41
HETATM   41 NA1  UNL     1      -0.526  51.918 -14.633  1.00  0.00    -0.379 Na
ATOM     42 2HA1 UNL     1      -1.536  51.884 -14.495  1.00  0.00     0.091 HD
ATOM     43 1HA1 UNL     1      -0.747  52.223 -13.685  1.00  0.00     0.091 HD
ENDBRANCH  14  41
BRANCH  12  44
HETATM   44  C23 UNL     1      -0.117  51.403 -18.706  1.00  0.00    -0.022 C 
HETATM   45  C24 UNL     1      -0.217  52.744 -18.779  1.00  0.00     0.006 C 
BRANCH  45  46
HETATM   46  C25 UNL     1       0.244  53.566 -19.951  1.00  0.00     0.173 C 
BRANCH  46  47
HETATM   47  O6  UNL     1       1.635  53.862 -19.752  1.00  0.00    -0.387 OA
HETATM   48  H31 UNL     1       1.857  53.578 -18.846  1.00  0.00     0.210 HD
ENDBRANCH  46  47
BRANCH  46  49
HETATM   49  C26 UNL     1       0.008  52.908 -21.301  1.00  0.00    -0.026 A 
HETATM   50  C27 UNL     1       1.009  52.804 -22.285  1.00  0.00     0.013 A 
HETATM   51  C28 UNL     1       0.741  52.189 -23.514  1.00  0.00     0.037 A 
HETATM   52  C29 UNL     1      -0.529  51.679 -23.769  1.00  0.00     0.065 A 
HETATM   53  C30 UNL     1      -1.538  51.770 -22.817  1.00  0.00     0.037 A 
HETATM   54  C31 UNL     1      -1.270  52.387 -21.590  1.00  0.00     0.013 A 
BRANCH  52  55
HETATM   55  O7  UNL     1      -0.753  51.072 -24.973  1.00  0.00    -0.361 OA
HETATM   56  H34 UNL     1      -1.665  50.738 -24.965  1.00  0.00     0.217 HD
ENDBRANCH  52  55
ENDBRANCH  46  49
ENDBRANCH  45  46
ENDBRANCH  12  44
BRANCH  11  57
HETATM   57  S1  UNL     1      -3.009  50.031 -18.985  1.00  0.00     0.106 S 
HETATM   58  O3  UNL     1      -4.145  49.171 -18.649  1.00  0.00    -0.595 OA
HETATM   59  O4  UNL     1      -3.171  51.429 -18.584  1.00  0.00    -0.595 OA
HETATM   60  O5  UNL     1      -2.532  49.839 -20.353  1.00  0.00    -0.595 OA
ENDBRANCH  11  57
TORSDOF 14
ENDMDL
MODEL 5
REMARK minimizedAffinity -9.54530716
REMARK CNNscore 0.128344283
REMARK CNNaffinity 6.43788719
REMARK  14 active torsions:
REMARK  status: ('A' for Active; 'I' for Inactive)
REMARK       I    between atoms: N1_1  and  C1_2 
REMARK       I    between atoms: C1_2  and  N2_3 
REMARK    1  A    between atoms: N3_4  and  C2_6 
REMARK    2  A    between atoms: C2_6  and  C3_7 
REMARK    3  A    between atoms: C3_7  and  C4_8 
REMARK    4  A    between atoms: C4_8  and  C5_9 
REMARK    5  A    between atoms: C4_8  and  C6_11 
REMARK    6  A    between atoms: C5_9  and  O1_10 
REMARK    7  A    between atoms: C6_11  and  C7_12 
REMARK    8  A    between atoms: C21_27  and  S1_28 
REMARK    9  A    between atoms: C22_32  and  C23_33 
REMARK   10  A    between atoms: C24_34  and  C25_35 
REMARK   11  A    between atoms: C25_35  and  O6_36 
REMARK   12  A    between atoms: C25_35  and  C26_37 
REMARK   13  A    between atoms: C29_40  and  O7_41 
REMARK   14  A    between atoms: C33_45  and  NA1_51 
ROOT
HETATM    1  C2  UNL     1      -6.618  45.646 -32.185  1.00  0.00     0.171 C 
HETATM    2  O2  UNL     1      -7.904  45.203 -32.789  1.00  0.00    -0.316 OA
HETATM    3  C13 UNL     1      -9.052  45.342 -32.056  1.00  0.00     0.072 C 
HETATM    4  C14 UNL     1      -9.981  46.278 -32.510  1.00  0.00     0.037 C 
HETATM    5  C15 UNL     1     -11.055  46.638 -31.694  1.00  0.00     0.010 C 
HETATM    6  C16 UNL     1     -11.223  46.039 -30.439  1.00  0.00    -0.058 C 
HETATM    7  C17 UNL     1     -10.361  45.003 -30.058  1.00  0.00     0.010 C 
HETATM    8  C18 UNL     1      -9.287  44.641 -30.873  1.00  0.00     0.037 C 
HETATM    9  C19 UNL     1     -12.316  46.492 -29.505  1.00  0.00     0.040 C 
HETATM   10  C20 UNL     1     -12.093  47.880 -28.858  1.00  0.00     0.028 C 
HETATM   11  C21 UNL     1     -11.543  47.943 -27.396  1.00  0.00     0.138 C 
HETATM   12  C22 UNL     1     -10.007  47.716 -27.264  1.00  0.00     0.031 C 
HETATM   13  C32 UNL     1      -9.154  48.771 -28.049  1.00  0.00     0.041 C 
HETATM   14  C33 UNL     1      -8.190  48.155 -29.043  1.00  0.00     0.029 C 
HETATM   15  C34 UNL     1      -7.372  47.077 -28.690  1.00  0.00     0.137 C 
HETATM   16  C35 UNL     1      -6.724  46.327 -29.673  1.00  0.00     0.012 C 
HETATM   17  C36 UNL     1      -6.879  46.659 -31.030  1.00  0.00    -0.003 C 
HETATM   18  C37 UNL     1      -7.478  47.895 -31.339  1.00  0.00     0.010 C 
HETATM   19  C38 UNL     1      -8.145  48.625 -30.359  1.00  0.00     0.001 C 
ENDROOT
BRANCH   1  20
HETATM   20  N3  UNL     1      -5.756  46.258 -33.220  1.00  0.00    -0.336 N 
HETATM   21  C1  UNL     1      -4.567  46.675 -33.023  1.00  0.00     0.124 C 
HETATM   22  N1  UNL     1      -3.849  47.122 -34.082  1.00  0.00    -0.279 NA
HETATM   23  N2  UNL     1      -3.793  46.733 -31.916  1.00  0.00    -0.279 NA
HETATM   24  H1  UNL     1      -2.914  46.725 -34.089  1.00  0.00     0.126 HD
HETATM   25  H2  UNL     1      -4.337  46.867 -34.933  1.00  0.00     0.126 HD
HETATM   26  H3  UNL     1      -3.197  47.551 -31.918  1.00  0.00     0.126 HD
HETATM   27  H4  UNL     1      -4.315  46.692 -31.041  1.00  0.00     0.126 HD
ATOM     28  H3  UNL     1      -6.140  46.353 -34.160  1.00  0.00     0.165 HD
ENDBRANCH   1  20
BRANCH   1  29
HETATM   29  C3  UNL     1      -5.915  44.311 -31.737  1.00  0.00     0.074 C 
BRANCH  29  30
HETATM   30  C4  UNL     1      -5.614  43.271 -32.858  1.00  0.00     0.018 C 
BRANCH  30  31
HETATM   31  C5  UNL     1      -6.487  42.026 -32.631  1.00  0.00     0.169 C 
BRANCH  31  32
HETATM   32  O1  UNL     1      -6.847  41.898 -31.260  1.00  0.00    -0.400 OA
HETATM   33  H10 UNL     1      -7.549  41.228 -31.217  1.00  0.00     0.209 HD
ENDBRANCH  31  32
ENDBRANCH  30  31
BRANCH  30  34
HETATM   34  C6  UNL     1      -4.122  42.902 -32.951  1.00  0.00     0.045 C 
BRANCH  34  35
HETATM   35  C7  UNL     1      -3.842  41.765 -33.906  1.00  0.00    -0.058 A 
HETATM   36  C8  UNL     1      -3.142  40.632 -33.463  1.00  0.00     0.007 A 
HETATM   37  C9  UNL     1      -2.893  39.569 -34.331  1.00  0.00     0.001 A 
HETATM   38  C10 UNL     1      -3.330  39.634 -35.653  1.00  0.00     0.000 A 
HETATM   39  C11 UNL     1      -3.995  40.768 -36.112  1.00  0.00     0.001 A 
HETATM   40  C12 UNL     1      -4.249  41.832 -35.246  1.00  0.00     0.007 A 
ENDBRANCH  34  35
ENDBRANCH  30  34
ENDBRANCH  29  30
ENDBRANCH   1  29
BRANCH  14  41
HETATM   41 NA1  UNL     1      -8.291  46.051 -29.471  1.00  0.00    -0.379 Na
ATOM     42 2HA1 UNL     1      -9.043  45.396 -29.684  1.00  0.00     0.091 HD
ATOM     43 1HA1 UNL     1      -8.012  45.462 -30.256  1.00  0.00     0.091 HD
ENDBRANCH  14  41
BRANCH  12  44
HETATM   44  C23 UNL     1      -9.441  47.655 -25.848  1.00  0.00    -0.022 C 
HETATM   45  C24 UNL     1      -8.507  46.799 -25.394  1.00  0.00     0.006 C 
BRANCH  45  46
HETATM   46  C25 UNL     1      -8.021  46.751 -23.972  1.00  0.00     0.173 C 
BRANCH  46  47
HETATM   47  O6  UNL     1      -8.052  45.379 -23.549  1.00  0.00    -0.387 OA
HETATM   48  H31 UNL     1      -8.518  44.881 -24.246  1.00  0.00     0.210 HD
ENDBRANCH  46  47
BRANCH  46  49
HETATM   49  C26 UNL     1      -6.643  47.359 -23.766  1.00  0.00    -0.026 A 
HETATM   50  C27 UNL     1      -5.954  48.052 -24.780  1.00  0.00     0.013 A 
HETATM   51  C28 UNL     1      -4.686  48.594 -24.539  1.00  0.00     0.037 A 
HETATM   52  C29 UNL     1      -4.096  48.444 -23.287  1.00  0.00     0.065 A 
HETATM   53  C30 UNL     1      -4.752  47.763 -22.268  1.00  0.00     0.037 A 
HETATM   54  C31 UNL     1      -6.018  47.219 -22.510  1.00  0.00     0.013 A 
BRANCH  52  55
HETATM   55  O7  UNL     1      -2.865  48.998 -23.082  1.00  0.00    -0.361 OA
HETATM   56  H34 UNL     1      -2.626  48.841 -22.153  1.00  0.00     0.217 HD
ENDBRANCH  52  55
ENDBRANCH  46  49
ENDBRANCH  45  46
ENDBRANCH  12  44
BRANCH  11  57
HETATM   57  S1  UNL     1     -12.524  46.870 -26.297  1.00  0.00     0.106 S 
HETATM   58  O3  UNL     1     -11.910  45.548 -26.437  1.00  0.00    -0.595 OA
HETATM   59  O4  UNL     1     -12.370  47.469 -24.971  1.00  0.00    -0.595 OA
HETATM   60  O5  UNL     1     -13.879  46.931 -26.840  1.00  0.00    -0.595 OA
ENDBRANCH  11  57
TORSDOF 14
ENDMDL
MODEL 6
REMARK minimizedAffinity -9.1104784
REMARK CNNscore 0.12046849
REMARK CNNaffinity 7.06135702
REMARK  14 active torsions:
REMARK  status: ('A' for Active; 'I' for Inactive)
REMARK       I    between atoms: N1_1  and  C1_2 
REMARK       I    between atoms: C1_2  and  N2_3 
REMARK    1  A    between atoms: N3_4  and  C2_6 
REMARK    2  A    between atoms: C2_6  and  C3_7 
REMARK    3  A    between atoms: C3_7  and  C4_8 
REMARK    4  A    between atoms: C4_8  and  C5_9 
REMARK    5  A    between atoms: C4_8  and  C6_11 
REMARK    6  A    between atoms: C5_9  and  O1_10 
REMARK    7  A    between atoms: C6_11  and  C7_12 
REMARK    8  A    between atoms: C21_27  and  S1_28 
REMARK    9  A    between atoms: C22_32  and  C23_33 
REMARK   10  A    between atoms: C24_34  and  C25_35 
REMARK   11  A    between atoms: C25_35  and  O6_36 
REMARK   12  A    between atoms: C25_35  and  C26_37 
REMARK   13  A    between atoms: C29_40  and  O7_41 
REMARK   14  A    between atoms: C33_45  and  NA1_51 
ROOT
HETATM    1  C2  UNL     1       0.515  51.946 -11.811  1.00  0.00     0.171 C 
HETATM    2  O2  UNL     1      -0.765  51.283 -11.441  1.00  0.00    -0.316 OA
HETATM    3  C13 UNL     1      -1.571  50.811 -12.443  1.00  0.00     0.072 C 
HETATM    4  C14 UNL     1      -1.707  49.428 -12.546  1.00  0.00     0.037 C 
HETATM    5  C15 UNL     1      -2.315  48.874 -13.673  1.00  0.00     0.010 C 
HETATM    6  C16 UNL     1      -2.819  49.702 -14.684  1.00  0.00    -0.058 C 
HETATM    7  C17 UNL     1      -2.798  51.090 -14.502  1.00  0.00     0.010 C 
HETATM    8  C18 UNL     1      -2.191  51.646 -13.374  1.00  0.00     0.037 C 
HETATM    9  C19 UNL     1      -3.384  49.117 -15.955  1.00  0.00     0.040 C 
HETATM   10  C20 UNL     1      -2.338  48.509 -16.918  1.00  0.00     0.028 C 
HETATM   11  C21 UNL     1      -1.868  49.359 -18.143  1.00  0.00     0.138 C 
HETATM   12  C22 UNL     1      -0.814  50.458 -17.811  1.00  0.00     0.031 C 
HETATM   13  C32 UNL     1       0.510  49.884 -17.201  1.00  0.00     0.041 C 
HETATM   14  C33 UNL     1       0.872  50.487 -15.858  1.00  0.00     0.029 C 
HETATM   15  C34 UNL     1       0.833  51.869 -15.648  1.00  0.00     0.137 C 
HETATM   16  C35 UNL     1       0.865  52.391 -14.354  1.00  0.00     0.012 C 
HETATM   17  C36 UNL     1       0.950  51.528 -13.247  1.00  0.00    -0.003 C 
HETATM   18  C37 UNL     1       1.259  50.176 -13.492  1.00  0.00     0.010 C 
HETATM   19  C38 UNL     1       1.200  49.656 -14.783  1.00  0.00     0.001 C 
ENDROOT
BRANCH   1  20
HETATM   20  N3  UNL     1       1.568  51.595 -10.833  1.00  0.00    -0.336 N 
HETATM   21  C1  UNL     1       1.549  50.567 -10.080  1.00  0.00     0.124 C 
HETATM   22  N1  UNL     1       2.627  50.309  -9.299  1.00  0.00    -0.279 NA
HETATM   23  N2  UNL     1       0.641  49.579  -9.908  1.00  0.00    -0.279 NA
HETATM   24  H1  UNL     1       2.908  49.335  -9.368  1.00  0.00     0.126 HD
HETATM   25  H2  UNL     1       3.389  50.909  -9.594  1.00  0.00     0.126 HD
HETATM   26  H3  UNL     1       0.607  49.263  -8.947  1.00  0.00     0.126 HD
HETATM   27  H4  UNL     1      -0.300  49.820 -10.221  1.00  0.00     0.126 HD
ATOM     28  H3  UNL     1       2.368  52.223 -10.754  1.00  0.00     0.165 HD
ENDBRANCH   1  20
BRANCH   1  29
HETATM   29  C3  UNL     1       0.225  53.483 -11.638  1.00  0.00     0.074 C 
BRANCH  29  30
HETATM   30  C4  UNL     1       0.831  54.169 -10.376  1.00  0.00     0.018 C 
BRANCH  30  31
HETATM   31  C5  UNL     1      -0.299  54.453  -9.372  1.00  0.00     0.169 C 
BRANCH  31  32
HETATM   32  O1  UNL     1      -1.041  55.606  -9.752  1.00  0.00    -0.400 OA
HETATM   33  H10 UNL     1      -1.845  55.613  -9.208  1.00  0.00     0.209 HD
ENDBRANCH  31  32
ENDBRANCH  30  31
BRANCH  30  34
HETATM   34  C6  UNL     1       1.623  55.447 -10.707  1.00  0.00     0.045 C 
BRANCH  34  35
HETATM   35  C7  UNL     1       2.958  55.527 -10.005  1.00  0.00    -0.058 A 
HETATM   36  C8  UNL     1       3.074  56.228  -8.796  1.00  0.00     0.007 A 
HETATM   37  C9  UNL     1       4.298  56.294  -8.129  1.00  0.00     0.001 A 
HETATM   38  C10 UNL     1       5.419  55.670  -8.673  1.00  0.00     0.000 A 
HETATM   39  C11 UNL     1       5.323  55.001  -9.891  1.00  0.00     0.001 A 
HETATM   40  C12 UNL     1       4.100  54.929 -10.558  1.00  0.00     0.007 A 
ENDBRANCH  34  35
ENDBRANCH  30  34
ENDBRANCH  29  30
ENDBRANCH   1  29
BRANCH  14  41
HETATM   41 NA1  UNL     1      -0.528  51.765 -14.846  1.00  0.00    -0.379 Na
ATOM     42 2HA1 UNL     1      -1.525  51.716 -14.637  1.00  0.00     0.091 HD
ATOM     43 1HA1 UNL     1      -0.682  52.037 -13.874  1.00  0.00     0.091 HD
ENDBRANCH  14  41
BRANCH  12  44
HETATM   44  C23 UNL     1      -0.409  51.387 -18.952  1.00  0.00    -0.022 C 
HETATM   45  C24 UNL     1      -0.102  52.694 -18.851  1.00  0.00     0.006 C 
BRANCH  45  46
HETATM   46  C25 UNL     1       0.242  53.576 -20.019  1.00  0.00     0.173 C 
BRANCH  46  47
HETATM   47  O6  UNL     1       1.613  53.978 -19.870  1.00  0.00    -0.387 OA
HETATM   48  H31 UNL     1       1.895  53.691 -18.982  1.00  0.00     0.210 HD
ENDBRANCH  46  47
BRANCH  46  49
HETATM   49  C26 UNL     1       0.001  52.933 -21.375  1.00  0.00    -0.026 A 
HETATM   50  C27 UNL     1       0.942  52.980 -22.421  1.00  0.00     0.013 A 
HETATM   51  C28 UNL     1       0.671  52.371 -23.653  1.00  0.00     0.037 A 
HETATM   52  C29 UNL     1      -0.542  51.717 -23.849  1.00  0.00     0.065 A 
HETATM   53  C30 UNL     1      -1.491  51.657 -22.834  1.00  0.00     0.037 A 
HETATM   54  C31 UNL     1      -1.221  52.268 -21.605  1.00  0.00     0.013 A 
BRANCH  52  55
HETATM   55  O7  UNL     1      -0.768  51.122 -25.058  1.00  0.00    -0.361 OA
HETATM   56  H34 UNL     1      -1.631  50.678 -25.007  1.00  0.00     0.217 HD
ENDBRANCH  52  55
ENDBRANCH  46  49
ENDBRANCH  45  46
ENDBRANCH  12  44
BRANCH  11  57
HETATM   57  S1  UNL     1      -3.303  49.995 -19.069  1.00  0.00     0.106 S 
HETATM   58  O3  UNL     1      -3.328  51.427 -18.760  1.00  0.00    -0.595 OA
HETATM   59  O4  UNL     1      -3.000  49.686 -20.467  1.00  0.00    -0.595 OA
HETATM   60  O5  UNL     1      -4.445  49.271 -18.516  1.00  0.00    -0.595 OA
ENDBRANCH  11  57
TORSDOF 14
ENDMDL
MODEL 7
REMARK minimizedAffinity -9.9203825
REMARK CNNscore 0.118877172
REMARK CNNaffinity 6.58808136
REMARK  14 active torsions:
REMARK  status: ('A' for Active; 'I' for Inactive)
REMARK       I    between atoms: N1_1  and  C1_2 
REMARK       I    between atoms: C1_2  and  N2_3 
REMARK    1  A    between atoms: N3_4  and  C2_6 
REMARK    2  A    between atoms: C2_6  and  C3_7 
REMARK    3  A    between atoms: C3_7  and  C4_8 
REMARK    4  A    between atoms: C4_8  and  C5_9 
REMARK    5  A    between atoms: C4_8  and  C6_11 
REMARK    6  A    between atoms: C5_9  and  O1_10 
REMARK    7  A    between atoms: C6_11  and  C7_12 
REMARK    8  A    between atoms: C21_27  and  S1_28 
REMARK    9  A    between atoms: C22_32  and  C23_33 
REMARK   10  A    between atoms: C24_34  and  C25_35 
REMARK   11  A    between atoms: C25_35  and  O6_36 
REMARK   12  A    between atoms: C25_35  and  C26_37 
REMARK   13  A    between atoms: C29_40  and  O7_41 
REMARK   14  A    between atoms: C33_45  and  NA1_51 
ROOT
HETATM    1  C2  UNL     1      -8.600  46.998 -24.747  1.00  0.00     0.171 C 
HETATM    2  O2  UNL     1      -8.889  46.209 -23.519  1.00  0.00    -0.316 OA
HETATM    3  C13 UNL     1      -8.017  46.295 -22.467  1.00  0.00     0.072 C 
HETATM    4  C14 UNL     1      -8.481  46.924 -21.313  1.00  0.00     0.037 C 
HETATM    5  C15 UNL     1      -7.584  47.255 -20.297  1.00  0.00     0.010 C 
HETATM    6  C16 UNL     1      -6.227  46.925 -20.415  1.00  0.00    -0.058 C 
HETATM    7  C17 UNL     1      -5.802  46.172 -21.516  1.00  0.00     0.010 C 
HETATM    8  C18 UNL     1      -6.699  45.840 -22.534  1.00  0.00     0.037 C 
HETATM    9  C19 UNL     1      -5.229  47.368 -19.374  1.00  0.00     0.040 C 
HETATM   10  C20 UNL     1      -4.905  48.881 -19.378  1.00  0.00     0.028 C 
HETATM   11  C21 UNL     1      -3.592  49.361 -20.079  1.00  0.00     0.138 C 
HETATM   12  C22 UNL     1      -3.675  49.450 -21.632  1.00  0.00     0.031 C 
HETATM   13  C32 UNL     1      -4.776  50.443 -22.139  1.00  0.00     0.041 C 
HETATM   14  C33 UNL     1      -5.779  49.809 -23.081  1.00  0.00     0.029 C 
HETATM   15  C34 UNL     1      -5.366  49.001 -24.146  1.00  0.00     0.137 C 
HETATM   16  C35 UNL     1      -6.281  48.183 -24.812  1.00  0.00     0.012 C 
HETATM   17  C36 UNL     1      -7.633  48.175 -24.424  1.00  0.00    -0.003 C 
HETATM   18  C37 UNL     1      -8.069  49.184 -23.543  1.00  0.00     0.010 C 
HETATM   19  C38 UNL     1      -7.149  49.979 -22.863  1.00  0.00     0.001 C 
ENDROOT
BRANCH   1  20
HETATM   20  N3  UNL     1      -9.861  47.513 -25.327  1.00  0.00    -0.336 N 
HETATM   21  C1  UNL     1      -9.971  48.608 -25.970  1.00  0.00     0.124 C 
HETATM   22  N1  UNL     1     -11.164  48.915 -26.537  1.00  0.00    -0.279 NA
HETATM   23  N2  UNL     1      -9.084  49.583 -26.271  1.00  0.00    -0.279 NA
HETATM   24  H1  UNL     1     -11.049  49.224 -27.497  1.00  0.00     0.126 HD
HETATM   25  H2  UNL     1     -11.755  48.091 -26.509  1.00  0.00     0.126 HD
HETATM   26  H3  UNL     1      -9.516  50.498 -26.270  1.00  0.00     0.126 HD
HETATM   27  H4  UNL     1      -8.259  49.594 -25.671  1.00  0.00     0.126 HD
ATOM     28  H3  UNL     1     -10.703  46.952 -25.202  1.00  0.00     0.165 HD
ENDBRANCH   1  20
BRANCH   1  29
HETATM   29  C3  UNL     1      -8.028  45.944 -25.767  1.00  0.00     0.074 C 
BRANCH  29  30
HETATM   30  C4  UNL     1      -8.317  46.206 -27.276  1.00  0.00     0.018 C 
BRANCH  30  31
HETATM   31  C5  UNL     1      -8.573  44.861 -27.976  1.00  0.00     0.169 C 
BRANCH  31  32
HETATM   32  O1  UNL     1      -7.354  44.277 -28.421  1.00  0.00    -0.400 OA
HETATM   33  H10 UNL     1      -7.557  43.358 -28.663  1.00  0.00     0.209 HD
ENDBRANCH  31  32
ENDBRANCH  30  31
BRANCH  30  34
HETATM   34  C6  UNL     1      -7.197  46.998 -27.974  1.00  0.00     0.045 C 
BRANCH  34  35
HETATM   35  C7  UNL     1      -7.604  47.561 -29.316  1.00  0.00    -0.058 A 
HETATM   36  C8  UNL     1      -6.752  47.425 -30.422  1.00  0.00     0.007 A 
HETATM   37  C9  UNL     1      -7.125  47.925 -31.670  1.00  0.00     0.001 A 
HETATM   38  C10 UNL     1      -8.347  48.578 -31.819  1.00  0.00     0.000 A 
HETATM   39  C11 UNL     1      -9.185  48.750 -30.720  1.00  0.00     0.001 A 
HETATM   40  C12 UNL     1      -8.817  48.247 -29.472  1.00  0.00     0.007 A 
ENDBRANCH  34  35
ENDBRANCH  30  34
ENDBRANCH  29  30
ENDBRANCH   1  29
BRANCH  14  41
HETATM   41 NA1  UNL     1      -5.775  47.679 -23.375  1.00  0.00    -0.379 Na
ATOM     42 2HA1 UNL     1      -5.733  46.869 -22.758  1.00  0.00     0.091 HD
ATOM     43 1HA1 UNL     1      -6.469  46.993 -23.673  1.00  0.00     0.091 HD
ENDBRANCH  14  41
BRANCH  12  44
HETATM   44  C23 UNL     1      -2.386  49.805 -22.368  1.00  0.00    -0.022 C 
HETATM   45  C24 UNL     1      -2.261  50.665 -23.397  1.00  0.00     0.006 C 
BRANCH  45  46
HETATM   46  C25 UNL     1      -0.972  50.940 -24.120  1.00  0.00     0.173 C 
BRANCH  46  47
HETATM   47  O6  UNL     1      -1.294  51.212 -25.493  1.00  0.00    -0.387 OA
HETATM   48  H31 UNL     1      -2.238  50.998 -25.608  1.00  0.00     0.210 HD
ENDBRANCH  46  47
BRANCH  46  49
HETATM   49  C26 UNL     1      -0.148  52.065 -23.514  1.00  0.00    -0.026 A 
HETATM   50  C27 UNL     1       0.242  52.082 -22.161  1.00  0.00     0.013 A 
HETATM   51  C28 UNL     1       1.001  53.143 -21.651  1.00  0.00     0.037 A 
HETATM   52  C29 UNL     1       1.370  54.194 -22.486  1.00  0.00     0.065 A 
HETATM   53  C30 UNL     1       0.996  54.204 -23.826  1.00  0.00     0.037 A 
HETATM   54  C31 UNL     1       0.235  53.146 -24.334  1.00  0.00     0.013 A 
BRANCH  52  55
HETATM   55  O7  UNL     1       2.123  55.205 -21.960  1.00  0.00    -0.361 OA
HETATM   56  H34 UNL     1       2.326  55.823 -22.682  1.00  0.00     0.217 HD
ENDBRANCH  52  55
ENDBRANCH  46  49
ENDBRANCH  45  46
ENDBRANCH  12  44
BRANCH  11  57
HETATM   57  S1  UNL     1      -2.162  48.396 -19.489  1.00  0.00     0.106 S 
HETATM   58  O3  UNL     1      -2.470  48.113 -18.085  1.00  0.00    -0.595 OA
HETATM   59  O4  UNL     1      -2.140  47.215 -20.352  1.00  0.00    -0.595 OA
HETATM   60  O5  UNL     1      -1.022  49.295 -19.654  1.00  0.00    -0.595 OA
ENDBRANCH  11  57
TORSDOF 14
ENDMDL
MODEL 8
REMARK minimizedAffinity -8.23756599
REMARK CNNscore 0.115935005
REMARK CNNaffinity 6.0848012
REMARK  14 active torsions:
REMARK  status: ('A' for Active; 'I' for Inactive)
REMARK       I    between atoms: N1_1  and  C1_2 
REMARK       I    between atoms: C1_2  and  N2_3 
REMARK    1  A    between atoms: N3_4  and  C2_6 
REMARK    2  A    between atoms: C2_6  and  C3_7 
REMARK    3  A    between atoms: C3_7  and  C4_8 
REMARK    4  A    between atoms: C4_8  and  C5_9 
REMARK    5  A    between atoms: C4_8  and  C6_11 
REMARK    6  A    between atoms: C5_9  and  O1_10 
REMARK    7  A    between atoms: C6_11  and  C7_12 
REMARK    8  A    between atoms: C21_27  and  S1_28 
REMARK    9  A    between atoms: C22_32  and  C23_33 
REMARK   10  A    between atoms: C24_34  and  C25_35 
REMARK   11  A    between atoms: C25_35  and  O6_36 
REMARK   12  A    between atoms: C25_35  and  C26_37 
REMARK   13  A    between atoms: C29_40  and  O7_41 
REMARK   14  A    between atoms: C33_45  and  NA1_51 
ROOT
HETATM    1  C2  UNL     1      -3.768  50.018 -22.063  1.00  0.00     0.171 C 
HETATM    2  O2  UNL     1      -2.670  49.041 -21.829  1.00  0.00    -0.316 OA
HETATM    3  C13 UNL     1      -2.909  47.974 -21.006  1.00  0.00     0.072 C 
HETATM    4  C14 UNL     1      -2.944  46.714 -21.600  1.00  0.00     0.037 C 
HETATM    5  C15 UNL     1      -3.410  45.618 -20.873  1.00  0.00     0.010 C 
HETATM    6  C16 UNL     1      -3.809  45.772 -19.539  1.00  0.00    -0.058 C 
HETATM    7  C17 UNL     1      -3.638  47.014 -18.915  1.00  0.00     0.010 C 
HETATM    8  C18 UNL     1      -3.171  48.111 -19.642  1.00  0.00     0.037 C 
HETATM    9  C19 UNL     1      -4.412  44.621 -18.773  1.00  0.00     0.040 C 
HETATM   10  C20 UNL     1      -5.846  44.229 -19.200  1.00  0.00     0.028 C 
HETATM   11  C21 UNL     1      -7.047  44.741 -18.340  1.00  0.00     0.138 C 
HETATM   12  C22 UNL     1      -7.454  46.223 -18.601  1.00  0.00     0.031 C 
HETATM   13  C32 UNL     1      -7.887  46.496 -20.082  1.00  0.00     0.041 C 
HETATM   14  C33 UNL     1      -7.096  47.601 -20.752  1.00  0.00     0.029 C 
HETATM   15  C34 UNL     1      -6.864  48.822 -20.111  1.00  0.00     0.137 C 
HETATM   16  C35 UNL     1      -5.894  49.703 -20.591  1.00  0.00     0.012 C 
HETATM   17  C36 UNL     1      -5.148  49.374 -21.737  1.00  0.00    -0.003 C 
HETATM   18  C37 UNL     1      -5.582  48.281 -22.511  1.00  0.00     0.010 C 
HETATM   19  C38 UNL     1      -6.532  47.392 -22.014  1.00  0.00     0.001 C 
ENDROOT
BRANCH   1  20
HETATM   20  N3  UNL     1      -3.738  50.488 -23.466  1.00  0.00    -0.336 N 
HETATM   21  C1  UNL     1      -4.520  51.368 -23.954  1.00  0.00     0.124 C 
HETATM   22  N1  UNL     1      -4.320  51.783 -25.229  1.00  0.00    -0.279 NA
HETATM   23  N2  UNL     1      -5.554  52.063 -23.428  1.00  0.00    -0.279 NA
HETATM   24  H1  UNL     1      -4.345  52.796 -25.297  1.00  0.00     0.126 HD
HETATM   25  H2  UNL     1      -3.419  51.439 -25.542  1.00  0.00     0.126 HD
HETATM   26  H3  UNL     1      -6.282  52.229 -24.112  1.00  0.00     0.126 HD
HETATM   27  H4  UNL     1      -5.959  51.637 -22.594  1.00  0.00     0.126 HD
ATOM     28  H3  UNL     1      -3.041  50.078 -24.087  1.00  0.00     0.165 HD
ENDBRANCH   1  20
BRANCH   1  29
HETATM   29  C3  UNL     1      -3.394  51.253 -21.161  1.00  0.00     0.074 C 
BRANCH  29  30
HETATM   30  C4  UNL     1      -1.910  51.727 -21.209  1.00  0.00     0.018 C 
BRANCH  30  31
HETATM   31  C5  UNL     1      -1.574  52.171 -22.642  1.00  0.00     0.169 C 
BRANCH  31  32
HETATM   32  O1  UNL     1      -0.853  51.158 -23.334  1.00  0.00    -0.400 OA
HETATM   33  H10 UNL     1      -0.851  51.407 -24.273  1.00  0.00     0.209 HD
ENDBRANCH  31  32
ENDBRANCH  30  31
BRANCH  30  34
HETATM   34  C6  UNL     1      -0.921  50.660 -20.705  1.00  0.00     0.045 C 
BRANCH  34  35
HETATM   35  C7  UNL     1      -0.323  50.983 -19.355  1.00  0.00    -0.058 A 
HETATM   36  C8  UNL     1       0.297  52.223 -19.140  1.00  0.00     0.007 A 
HETATM   37  C9  UNL     1       0.836  52.539 -17.893  1.00  0.00     0.001 A 
HETATM   38  C10 UNL     1       0.772  51.613 -16.854  1.00  0.00     0.000 A 
HETATM   39  C11 UNL     1       0.190  50.366 -17.066  1.00  0.00     0.001 A 
HETATM   40  C12 UNL     1      -0.355  50.048 -18.311  1.00  0.00     0.007 A 
ENDBRANCH  34  35
ENDBRANCH  30  34
ENDBRANCH  29  30
ENDBRANCH   1  29
BRANCH  14  41
HETATM   41 NA1  UNL     1      -5.368  48.426 -19.775  1.00  0.00    -0.379 Na
ATOM     42 2HA1 UNL     1      -4.556  48.034 -19.299  1.00  0.00     0.091 HD
ATOM     43 1HA1 UNL     1      -4.527  48.911 -20.089  1.00  0.00     0.091 HD
ENDBRANCH  14  41
BRANCH  12  44
HETATM   44  C23 UNL     1      -8.546  46.802 -17.706  1.00  0.00    -0.022 C 
HETATM   45  C24 UNL     1      -9.806  46.344 -17.580  1.00  0.00     0.006 C 
BRANCH  45  46
HETATM   46  C25 UNL     1     -10.859  46.985 -16.720  1.00  0.00     0.173 C 
BRANCH  46  47
HETATM   47  O6  UNL     1     -10.319  48.218 -16.219  1.00  0.00    -0.387 OA
HETATM   48  H31 UNL     1      -9.372  48.225 -16.452  1.00  0.00     0.210 HD
ENDBRANCH  46  47
BRANCH  46  49
HETATM   49  C26 UNL     1     -12.185  47.213 -17.429  1.00  0.00    -0.026 A 
HETATM   50  C27 UNL     1     -13.429  46.944 -16.826  1.00  0.00     0.013 A 
HETATM   51  C28 UNL     1     -14.623  47.171 -17.522  1.00  0.00     0.037 A 
HETATM   52  C29 UNL     1     -14.582  47.661 -18.824  1.00  0.00     0.065 A 
HETATM   53  C30 UNL     1     -13.367  47.932 -19.445  1.00  0.00     0.037 A 
HETATM   54  C31 UNL     1     -12.175  47.703 -18.751  1.00  0.00     0.013 A 
BRANCH  52  55
HETATM   55  O7  UNL     1     -15.765  47.884 -19.469  1.00  0.00    -0.361 OA
HETATM   56  H34 UNL     1     -15.556  48.264 -20.339  1.00  0.00     0.217 HD
ENDBRANCH  52  55
ENDBRANCH  46  49
ENDBRANCH  45  46
ENDBRANCH  12  44
BRANCH  11  57
HETATM   57  S1  UNL     1      -6.776  44.370 -16.576  1.00  0.00     0.106 S 
HETATM   58  O3  UNL     1      -5.904  43.193 -16.583  1.00  0.00    -0.595 OA
HETATM   59  O4  UNL     1      -6.151  45.580 -16.042  1.00  0.00    -0.595 OA
HETATM   60  O5  UNL     1      -8.111  44.089 -16.052  1.00  0.00    -0.595 OA
ENDBRANCH  11  57
TORSDOF 14
ENDMDL
MODEL 9
REMARK minimizedAffinity -9.04247379
REMARK CNNscore 0.113963597
REMARK CNNaffinity 6.64431
REMARK  14 active torsions:
REMARK  status: ('A' for Active; 'I' for Inactive)
REMARK       I    between atoms: N1_1  and  C1_2 
REMARK       I    between atoms: C1_2  and  N2_3 
REMARK    1  A    between atoms: N3_4  and  C2_6 
REMARK    2  A    between atoms: C2_6  and  C3_7 
REMARK    3  A    between atoms: C3_7  and  C4_8 
REMARK    4  A    between atoms: C4_8  and  C5_9 
REMARK    5  A    between atoms: C4_8  and  C6_11 
REMARK    6  A    between atoms: C5_9  and  O1_10 
REMARK    7  A    between atoms: C6_11  and  C7_12 
REMARK    8  A    between atoms: C21_27  and  S1_28 
REMARK    9  A    between atoms: C22_32  and  C23_33 
REMARK   10  A    between atoms: C24_34  and  C25_35 
REMARK   11  A    between atoms: C25_35  and  O6_36 
REMARK   12  A    between atoms: C25_35  and  C26_37 
REMARK   13  A    between atoms: C29_40  and  O7_41 
REMARK   14  A    between atoms: C33_45  and  NA1_51 
ROOT
HETATM    1  C2  UNL     1      -6.759  47.873 -20.105  1.00  0.00     0.171 C 
HETATM    2  O2  UNL     1      -7.357  47.934 -21.467  1.00  0.00    -0.316 OA
HETATM    3  C13 UNL     1      -6.673  48.594 -22.452  1.00  0.00     0.072 C 
HETATM    4  C14 UNL     1      -6.156  47.819 -23.489  1.00  0.00     0.037 C 
HETATM    5  C15 UNL     1      -5.257  48.385 -24.394  1.00  0.00     0.010 C 
HETATM    6  C16 UNL     1      -4.900  49.735 -24.287  1.00  0.00    -0.058 C 
HETATM    7  C17 UNL     1      -5.534  50.533 -23.326  1.00  0.00     0.010 C 
HETATM    8  C18 UNL     1      -6.434  49.968 -22.420  1.00  0.00     0.037 C 
HETATM    9  C19 UNL     1      -3.852  50.334 -25.192  1.00  0.00     0.040 C 
HETATM   10  C20 UNL     1      -2.401  49.885 -24.900  1.00  0.00     0.028 C 
HETATM   11  C21 UNL     1      -1.476  50.838 -24.075  1.00  0.00     0.138 C 
HETATM   12  C22 UNL     1      -1.715  50.811 -22.536  1.00  0.00     0.031 C 
HETATM   13  C32 UNL     1      -1.490  49.397 -21.898  1.00  0.00     0.041 C 
HETATM   14  C33 UNL     1      -2.687  48.881 -21.126  1.00  0.00     0.029 C 
HETATM   15  C34 UNL     1      -3.366  49.693 -20.211  1.00  0.00     0.137 C 
HETATM   16  C35 UNL     1      -4.629  49.327 -19.740  1.00  0.00     0.012 C 
HETATM   17  C36 UNL     1      -5.224  48.130 -20.173  1.00  0.00    -0.003 C 
HETATM   18  C37 UNL     1      -4.416  47.211 -20.871  1.00  0.00     0.010 C 
HETATM   19  C38 UNL     1      -3.168  47.590 -21.360  1.00  0.00     0.001 C 
ENDROOT
BRANCH   1  20
HETATM   20  N3  UNL     1      -7.033  46.556 -19.490  1.00  0.00    -0.336 N 
HETATM   21  C1  UNL     1      -6.581  46.172 -18.362  1.00  0.00     0.124 C 
HETATM   22  N1  UNL     1      -6.991  44.979 -17.865  1.00  0.00    -0.279 NA
HETATM   23  N2  UNL     1      -5.754  46.755 -17.464  1.00  0.00    -0.279 NA
HETATM   24  H1  UNL     1      -7.266  45.059 -16.891  1.00  0.00     0.126 HD
HETATM   25  H2  UNL     1      -7.775  44.653 -18.419  1.00  0.00     0.126 HD
HETATM   26  H3  UNL     1      -5.162  46.076 -17.002  1.00  0.00     0.126 HD
HETATM   27  H4  UNL     1      -5.179  47.503 -17.853  1.00  0.00     0.126 HD
ATOM     28  H3  UNL     1      -7.627  45.907 -20.006  1.00  0.00     0.165 HD
ENDBRANCH   1  20
BRANCH   1  29
HETATM   29  C3  UNL     1      -7.563  48.941 -19.274  1.00  0.00     0.074 C 
BRANCH  29  30
HETATM   30  C4  UNL     1      -9.079  48.655 -19.054  1.00  0.00     0.018 C 
BRANCH  30  31
HETATM   31  C5  UNL     1      -9.377  48.673 -17.546  1.00  0.00     0.169 C 
BRANCH  31  32
HETATM   32  O1  UNL     1      -8.643  47.660 -16.868  1.00  0.00    -0.400 OA
HETATM   33  H10 UNL     1      -8.714  47.851 -15.919  1.00  0.00     0.209 HD
ENDBRANCH  31  32
ENDBRANCH  30  31
BRANCH  30  34
HETATM   34  C6  UNL     1      -9.543  47.337 -19.702  1.00  0.00     0.045 C 
BRANCH  34  35
HETATM   35  C7  UNL     1     -10.954  47.394 -20.238  1.00  0.00    -0.058 A 
HETATM   36  C8  UNL     1     -11.939  48.114 -19.547  1.00  0.00     0.007 A 
HETATM   37  C9  UNL     1     -13.242  48.188 -20.042  1.00  0.00     0.001 A 
HETATM   38  C10 UNL     1     -13.574  47.531 -21.225  1.00  0.00     0.000 A 
HETATM   39  C11 UNL     1     -12.612  46.783 -21.901  1.00  0.00     0.001 A 
HETATM   40  C12 UNL     1     -11.308  46.711 -21.411  1.00  0.00     0.007 A 
ENDBRANCH  34  35
ENDBRANCH  30  34
ENDBRANCH  29  30
ENDBRANCH   1  29
BRANCH  14  41
HETATM   41 NA1  UNL     1      -4.559  49.932 -21.225  1.00  0.00    -0.379 Na
ATOM     42 2HA1 UNL     1      -5.123  50.327 -21.977  1.00  0.00     0.091 HD
ATOM     43 1HA1 UNL     1      -5.537  49.676 -21.083  1.00  0.00     0.091 HD
ENDBRANCH  14  41
BRANCH  12  44
HETATM   44  C23 UNL     1      -0.914  51.805 -21.700  1.00  0.00    -0.022 C 
HETATM   45  C24 UNL     1       0.263  51.575 -21.089  1.00  0.00     0.006 C 
BRANCH  45  46
HETATM   46  C25 UNL     1       0.985  52.578 -20.233  1.00  0.00     0.173 C 
BRANCH  46  47
HETATM   47  O6  UNL     1       0.447  53.874 -20.537  1.00  0.00    -0.387 OA
HETATM   48  H31 UNL     1      -0.129  53.764 -21.316  1.00  0.00     0.210 HD
ENDBRANCH  46  47
BRANCH  46  49
HETATM   49  C26 UNL     1       0.914  52.287 -18.743  1.00  0.00    -0.026 A 
HETATM   50  C27 UNL     1       1.807  52.851 -17.811  1.00  0.00     0.013 A 
HETATM   51  C28 UNL     1       1.700  52.550 -16.448  1.00  0.00     0.037 A 
HETATM   52  C29 UNL     1       0.704  51.683 -16.007  1.00  0.00     0.065 A 
HETATM   53  C30 UNL     1      -0.190  51.110 -16.905  1.00  0.00     0.037 A 
HETATM   54  C31 UNL     1      -0.080  51.408 -18.267  1.00  0.00     0.013 A 
BRANCH  52  55
HETATM   55  O7  UNL     1       0.619  51.423 -14.669  1.00  0.00    -0.361 OA
HETATM   56  H34 UNL     1      -0.149  50.843 -14.533  1.00  0.00     0.217 HD
ENDBRANCH  52  55
ENDBRANCH  46  49
ENDBRANCH  45  46
ENDBRANCH  12  44
BRANCH  11  57
HETATM   57  S1  UNL     1      -1.502  52.520 -24.777  1.00  0.00     0.106 S 
HETATM   58  O3  UNL     1      -2.674  53.151 -24.165  1.00  0.00    -0.595 OA
HETATM   59  O4  UNL     1      -0.223  53.103 -24.371  1.00  0.00    -0.595 OA
HETATM   60  O5  UNL     1      -1.650  52.314 -26.216  1.00  0.00    -0.595 OA
ENDBRANCH  11  57
TORSDOF 14
ENDMDL
