MODEL 1
REMARK minimizedAffinity -6.4194541
REMARK CNNscore 0.662603438
REMARK CNNaffinity 6.83985329
REMARK  8 active torsions:
REMARK  status: ('A' for Active; 'I' for Inactive)
REMARK    1  A    between atoms: C4_4  and  C5_5 
REMARK    2  A    between atoms: C5_5  and  C6_6 
REMARK    3  A    between atoms: C6_6  and  C7_7 
REMARK    4  A    between atoms: C7_7  and  C9_9 
REMARK    5  A    between atoms: C21_21  and  C22_22 
REMARK    6  A    between atoms: C22_22  and  C23_23 
REMARK    7  A    between atoms: C23_23  and  C24_24 
REMARK    8  A    between atoms: C24_24  and  O1_25 
ROOT
HETATM    1  C9  UNL     1       0.849  54.874  -9.716  1.00  0.00    -0.002 C 
HETATM    2  C10 UNL     1       0.163  54.886  -8.312  1.00  0.00     0.006 C 
HETATM    3  C11 UNL     1      -1.027  53.900  -8.382  1.00  0.00     0.011 C 
HETATM    4  C12 UNL     1      -1.213  53.632  -9.888  1.00  0.00    -0.032 C 
HETATM    5  C13 UNL     1      -2.001  54.873 -10.430  1.00  0.00     0.016 C 
HETATM    6  C14 UNL     1      -1.924  52.299 -10.252  1.00  0.00     0.003 C 
HETATM    7  C15 UNL     1      -3.337  52.119  -9.651  1.00  0.00     0.010 C 
HETATM    8  C16 UNL     1      -4.077  50.902 -10.216  1.00  0.00     0.035 C 
HETATM    9  C17 UNL     1      -3.112  49.850 -10.715  1.00  0.00    -0.073 C 
HETATM   10  C18 UNL     1      -3.014  48.619 -10.147  1.00  0.00    -0.085 C 
HETATM   11  C19 UNL     1      -2.051  47.541 -10.582  1.00  0.00     0.043 C 
HETATM   12  C20 UNL     1      -3.885  48.195  -8.986  1.00  0.00     0.043 C 
HETATM   13  C21 UNL     1      -2.206  50.342 -11.869  1.00  0.00     0.023 C 
HETATM   14  C25 UNL     1      -1.872  51.914 -11.788  1.00  0.00    -0.032 C 
HETATM   15  C26 UNL     1      -2.868  52.750 -12.635  1.00  0.00     0.016 C 
HETATM   16  C27 UNL     1      -0.439  52.179 -12.382  1.00  0.00     0.011 C 
HETATM   17  C28 UNL     1       0.307  53.442 -11.891  1.00  0.00     0.011 C 
HETATM   18  C29 UNL     1       0.298  53.563 -10.358  1.00  0.00    -0.032 C 
HETATM   19  C30 UNL     1       1.099  52.348  -9.797  1.00  0.00     0.016 C 
ENDROOT
BRANCH   1  20
HETATM   20  C7  UNL     1       2.365  55.247  -9.680  1.00  0.00    -0.014 C 
HETATM   21  C8  UNL     1       2.913  56.009 -10.892  1.00  0.00     0.010 C 
BRANCH  20  22
HETATM   22  C6  UNL     1       2.735  55.946  -8.348  1.00  0.00     0.008 C 
BRANCH  22  23
HETATM   23  C5  UNL     1       3.907  56.941  -8.431  1.00  0.00     0.028 C 
BRANCH  23  24
HETATM   24  C4  UNL     1       5.106  56.535  -7.618  1.00  0.00    -0.025 C 
HETATM   25  C2  UNL     1       6.137  55.754  -7.997  1.00  0.00    -0.091 C 
HETATM   26  C1  UNL     1       7.280  55.486  -7.054  1.00  0.00     0.042 C 
HETATM   27  C3  UNL     1       6.275  55.096  -9.341  1.00  0.00     0.042 C 
ENDBRANCH  23  24
ENDBRANCH  22  23
ENDBRANCH  20  22
ENDBRANCH   1  20
BRANCH  13  28
HETATM   28  C22 UNL     1      -2.788  49.795 -13.199  1.00  0.00     0.012 C 
BRANCH  28  29
HETATM   29  C23 UNL     1      -2.981  50.848 -14.296  1.00  0.00     0.027 C 
BRANCH  29  30
HETATM   30  C24 UNL     1      -2.774  50.280 -15.699  1.00  0.00     0.164 C 
BRANCH  30  31
HETATM   31  O1  UNL     1      -3.380  49.002 -15.828  1.00  0.00    -0.401 OA
HETATM   32  H42 UNL     1      -4.341  49.137 -15.893  1.00  0.00     0.209 HD
ENDBRANCH  30  31
ENDBRANCH  29  30
ENDBRANCH  28  29
ENDBRANCH  13  28
TORSDOF 8
ENDMDL
MODEL 2
REMARK minimizedAffinity -6.08085299
REMARK CNNscore 0.608560801
REMARK CNNaffinity 5.44427824
REMARK  8 active torsions:
REMARK  status: ('A' for Active; 'I' for Inactive)
REMARK    1  A    between atoms: C4_4  and  C5_5 
REMARK    2  A    between atoms: C5_5  and  C6_6 
REMARK    3  A    between atoms: C6_6  and  C7_7 
REMARK    4  A    between atoms: C7_7  and  C9_9 
REMARK    5  A    between atoms: C21_21  and  C22_22 
REMARK    6  A    between atoms: C22_22  and  C23_23 
REMARK    7  A    between atoms: C23_23  and  C24_24 
REMARK    8  A    between atoms: C24_24  and  O1_25 
ROOT
HETATM    1  C9  UNL     1       3.813  67.323 -37.055  1.00  0.00    -0.002 C 
HETATM    2  C10 UNL     1       4.609  68.667 -37.020  1.00  0.00     0.006 C 
HETATM    3  C11 UNL     1       3.953  69.608 -38.057  1.00  0.00     0.011 C 
HETATM    4  C12 UNL     1       3.054  68.682 -38.900  1.00  0.00    -0.032 C 
HETATM    5  C13 UNL     1       4.023  67.980 -39.911  1.00  0.00     0.016 C 
HETATM    6  C14 UNL     1       1.869  69.374 -39.629  1.00  0.00     0.003 C 
HETATM    7  C15 UNL     1       2.265  70.512 -40.597  1.00  0.00     0.010 C 
HETATM    8  C16 UNL     1       1.092  71.006 -41.450  1.00  0.00     0.035 C 
HETATM    9  C17 UNL     1      -0.234  70.752 -40.769  1.00  0.00    -0.073 C 
HETATM   10  C18 UNL     1      -1.051  71.758 -40.359  1.00  0.00    -0.085 C 
HETATM   11  C19 UNL     1      -2.369  71.565 -39.649  1.00  0.00     0.043 C 
HETATM   12  C20 UNL     1      -0.708  73.214 -40.577  1.00  0.00     0.043 C 
HETATM   13  C21 UNL     1      -0.521  69.252 -40.520  1.00  0.00     0.023 C 
HETATM   14  C25 UNL     1       0.811  68.384 -40.268  1.00  0.00    -0.032 C 
HETATM   15  C26 UNL     1       1.328  67.742 -41.582  1.00  0.00     0.016 C 
HETATM   16  C27 UNL     1       0.488  67.200 -39.282  1.00  0.00     0.011 C 
HETATM   17  C28 UNL     1       1.665  66.624 -38.460  1.00  0.00     0.011 C 
HETATM   18  C29 UNL     1       2.486  67.726 -37.771  1.00  0.00    -0.032 C 
HETATM   19  C30 UNL     1       1.546  68.424 -36.741  1.00  0.00     0.016 C 
ENDROOT
BRANCH   1  20
HETATM   20  C7  UNL     1       3.861  66.526 -35.713  1.00  0.00    -0.014 C 
HETATM   21  C8  UNL     1       2.941  65.305 -35.606  1.00  0.00     0.010 C 
BRANCH  20  22
HETATM   22  C6  UNL     1       5.320  66.179 -35.324  1.00  0.00     0.008 C 
BRANCH  22  23
HETATM   23  C5  UNL     1       5.477  65.017 -34.328  1.00  0.00     0.028 C 
BRANCH  23  24
HETATM   24  C4  UNL     1       4.711  65.206 -33.048  1.00  0.00    -0.025 C 
HETATM   25  C2  UNL     1       4.146  64.259 -32.273  1.00  0.00    -0.091 C 
HETATM   26  C1  UNL     1       3.446  64.635 -30.993  1.00  0.00     0.042 C 
HETATM   27  C3  UNL     1       4.151  62.785 -32.567  1.00  0.00     0.042 C 
ENDBRANCH  23  24
ENDBRANCH  22  23
ENDBRANCH  20  22
ENDBRANCH   1  20
BRANCH  13  28
HETATM   28  C22 UNL     1      -1.503  68.765 -41.619  1.00  0.00     0.012 C 
BRANCH  28  29
HETATM   29  C23 UNL     1      -1.051  67.509 -42.372  1.00  0.00     0.027 C 
BRANCH  29  30
HETATM   30  C24 UNL     1      -2.187  66.850 -43.153  1.00  0.00     0.164 C 
BRANCH  30  31
HETATM   31  O1  UNL     1      -3.373  67.630 -43.085  1.00  0.00    -0.401 OA
HETATM   32  H42 UNL     1      -3.254  68.398 -43.669  1.00  0.00     0.209 HD
ENDBRANCH  30  31
ENDBRANCH  29  30
ENDBRANCH  28  29
ENDBRANCH  13  28
TORSDOF 8
ENDMDL
MODEL 3
REMARK minimizedAffinity -6.284235
REMARK CNNscore 0.489187032
REMARK CNNaffinity 6.53469849
REMARK  8 active torsions:
REMARK  status: ('A' for Active; 'I' for Inactive)
REMARK    1  A    between atoms: C4_4  and  C5_5 
REMARK    2  A    between atoms: C5_5  and  C6_6 
REMARK    3  A    between atoms: C6_6  and  C7_7 
REMARK    4  A    between atoms: C7_7  and  C9_9 
REMARK    5  A    between atoms: C21_21  and  C22_22 
REMARK    6  A    between atoms: C22_22  and  C23_23 
REMARK    7  A    between atoms: C23_23  and  C24_24 
REMARK    8  A    between atoms: C24_24  and  O1_25 
ROOT
HETATM    1  C9  UNL     1       2.112  55.335  -8.954  1.00  0.00    -0.002 C 
HETATM    2  C10 UNL     1       2.195  54.765  -7.502  1.00  0.00     0.006 C 
HETATM    3  C11 UNL     1       1.110  53.669  -7.384  1.00  0.00     0.011 C 
HETATM    4  C12 UNL     1       0.212  53.885  -8.617  1.00  0.00    -0.032 C 
HETATM    5  C13 UNL     1      -0.726  55.081  -8.236  1.00  0.00     0.016 C 
HETATM    6  C14 UNL     1      -0.601  52.646  -9.084  1.00  0.00     0.003 C 
HETATM    7  C15 UNL     1      -1.545  52.038  -8.022  1.00  0.00     0.010 C 
HETATM    8  C16 UNL     1      -2.480  50.968  -8.594  1.00  0.00     0.035 C 
HETATM    9  C17 UNL     1      -1.891  50.322  -9.829  1.00  0.00    -0.073 C 
HETATM   10  C18 UNL     1      -1.544  49.008  -9.872  1.00  0.00    -0.085 C 
HETATM   11  C19 UNL     1      -0.926  48.316 -11.062  1.00  0.00     0.043 C 
HETATM   12  C20 UNL     1      -1.745  48.082  -8.694  1.00  0.00     0.043 C 
HETATM   13  C21 UNL     1      -1.655  51.315 -10.992  1.00  0.00     0.023 C 
HETATM   14  C25 UNL     1      -1.307  52.805 -10.493  1.00  0.00    -0.032 C 
HETATM   15  C26 UNL     1      -2.579  53.689 -10.415  1.00  0.00     0.016 C 
HETATM   16  C27 UNL     1      -0.341  53.492 -11.528  1.00  0.00     0.011 C 
HETATM   17  C28 UNL     1       0.564  54.631 -11.000  1.00  0.00     0.011 C 
HETATM   18  C29 UNL     1       1.303  54.236  -9.711  1.00  0.00    -0.032 C 
HETATM   19  C30 UNL     1       2.262  53.060 -10.072  1.00  0.00     0.016 C 
ENDROOT
BRANCH   1  20
HETATM   20  C7  UNL     1       3.457  55.930  -9.477  1.00  0.00    -0.014 C 
HETATM   21  C8  UNL     1       3.464  56.453 -10.917  1.00  0.00     0.010 C 
BRANCH  20  22
HETATM   22  C6  UNL     1       4.026  56.976  -8.485  1.00  0.00     0.008 C 
BRANCH  22  23
HETATM   23  C5  UNL     1       5.188  56.485  -7.604  1.00  0.00     0.028 C 
BRANCH  23  24
HETATM   24  C4  UNL     1       5.645  57.492  -6.585  1.00  0.00    -0.025 C 
HETATM   25  C2  UNL     1       6.752  57.449  -5.816  1.00  0.00    -0.091 C 
HETATM   26  C1  UNL     1       7.072  58.577  -4.872  1.00  0.00     0.042 C 
HETATM   27  C3  UNL     1       7.759  56.333  -5.814  1.00  0.00     0.042 C 
ENDBRANCH  23  24
ENDBRANCH  22  23
ENDBRANCH  20  22
ENDBRANCH   1  20
BRANCH  13  28
HETATM   28  C22 UNL     1      -2.817  51.146 -12.007  1.00  0.00     0.012 C 
BRANCH  28  29
HETATM   29  C23 UNL     1      -2.400  51.236 -13.479  1.00  0.00     0.027 C 
BRANCH  29  30
HETATM   30  C24 UNL     1      -3.481  51.863 -14.359  1.00  0.00     0.164 C 
BRANCH  30  31
HETATM   31  O1  UNL     1      -3.852  53.147 -13.877  1.00  0.00    -0.401 OA
HETATM   32  H42 UNL     1      -3.137  53.765 -14.105  1.00  0.00     0.209 HD
ENDBRANCH  30  31
ENDBRANCH  29  30
ENDBRANCH  28  29
ENDBRANCH  13  28
TORSDOF 8
ENDMDL
MODEL 4
REMARK minimizedAffinity -6.36857939
REMARK CNNscore 0.486762136
REMARK CNNaffinity 6.78048658
REMARK  8 active torsions:
REMARK  status: ('A' for Active; 'I' for Inactive)
REMARK    1  A    between atoms: C4_4  and  C5_5 
REMARK    2  A    between atoms: C5_5  and  C6_6 
REMARK    3  A    between atoms: C6_6  and  C7_7 
REMARK    4  A    between atoms: C7_7  and  C9_9 
REMARK    5  A    between atoms: C21_21  and  C22_22 
REMARK    6  A    between atoms: C22_22  and  C23_23 
REMARK    7  A    between atoms: C23_23  and  C24_24 
REMARK    8  A    between atoms: C24_24  and  O1_25 
ROOT
HETATM    1  C9  UNL     1      -2.029  52.294  -9.892  1.00  0.00    -0.002 C 
HETATM    2  C10 UNL     1      -2.059  51.722  -8.438  1.00  0.00     0.006 C 
HETATM    3  C11 UNL     1      -0.726  52.126  -7.766  1.00  0.00     0.011 C 
HETATM    4  C12 UNL     1       0.166  52.590  -8.934  1.00  0.00    -0.032 C 
HETATM    5  C13 UNL     1       0.708  51.271  -9.583  1.00  0.00     0.016 C 
HETATM    6  C14 UNL     1       1.321  53.558  -8.557  1.00  0.00     0.003 C 
HETATM    7  C15 UNL     1       2.315  53.020  -7.502  1.00  0.00     0.010 C 
HETATM    8  C16 UNL     1       3.549  53.913  -7.332  1.00  0.00     0.035 C 
HETATM    9  C17 UNL     1       3.253  55.344  -7.721  1.00  0.00    -0.073 C 
HETATM   10  C18 UNL     1       3.285  56.367  -6.826  1.00  0.00    -0.085 C 
HETATM   11  C19 UNL     1       2.971  57.808  -7.149  1.00  0.00     0.043 C 
HETATM   12  C20 UNL     1       3.646  56.156  -5.373  1.00  0.00     0.043 C 
HETATM   13  C21 UNL     1       2.839  55.507  -9.203  1.00  0.00     0.023 C 
HETATM   14  C25 UNL     1       2.058  54.228  -9.788  1.00  0.00    -0.032 C 
HETATM   15  C26 UNL     1       3.028  53.245 -10.496  1.00  0.00     0.016 C 
HETATM   16  C27 UNL     1       1.019  54.698 -10.873  1.00  0.00     0.011 C 
HETATM   17  C28 UNL     1      -0.201  53.781 -11.126  1.00  0.00     0.011 C 
HETATM   18  C29 UNL     1      -0.896  53.363  -9.819  1.00  0.00    -0.032 C 
HETATM   19  C30 UNL     1      -1.464  54.661  -9.166  1.00  0.00     0.016 C 
ENDROOT
BRANCH   1  20
HETATM   20  C7  UNL     1      -3.444  52.575 -10.488  1.00  0.00    -0.014 C 
HETATM   21  C8  UNL     1      -3.798  54.042 -10.754  1.00  0.00     0.010 C 
BRANCH  20  22
HETATM   22  C6  UNL     1      -3.712  51.688 -11.730  1.00  0.00     0.008 C 
BRANCH  22  23
HETATM   23  C5  UNL     1      -3.190  50.243 -11.633  1.00  0.00     0.028 C 
BRANCH  23  24
HETATM   24  C4  UNL     1      -4.229  49.200 -11.938  1.00  0.00    -0.025 C 
HETATM   25  C2  UNL     1      -5.330  48.894 -11.224  1.00  0.00    -0.091 C 
HETATM   26  C1  UNL     1      -6.288  47.837 -11.709  1.00  0.00     0.042 C 
HETATM   27  C3  UNL     1      -5.726  49.541  -9.927  1.00  0.00     0.042 C 
ENDBRANCH  23  24
ENDBRANCH  22  23
ENDBRANCH  20  22
ENDBRANCH   1  20
BRANCH  13  28
HETATM   28  C22 UNL     1       4.075  56.022  -9.989  1.00  0.00     0.012 C 
BRANCH  28  29
HETATM   29  C23 UNL     1       5.258  55.049 -10.033  1.00  0.00     0.027 C 
BRANCH  29  30
HETATM   30  C24 UNL     1       6.408  55.481  -9.126  1.00  0.00     0.164 C 
BRANCH  30  31
HETATM   31  O1  UNL     1       7.494  54.567  -9.206  1.00  0.00    -0.401 OA
HETATM   32  H42 UNL     1       7.945  54.719 -10.054  1.00  0.00     0.209 HD
ENDBRANCH  30  31
ENDBRANCH  29  30
ENDBRANCH  28  29
ENDBRANCH  13  28
TORSDOF 8
ENDMDL
MODEL 5
REMARK minimizedAffinity -6.4972434
REMARK CNNscore 0.464499205
REMARK CNNaffinity 6.28577089
REMARK  8 active torsions:
REMARK  status: ('A' for Active; 'I' for Inactive)
REMARK    1  A    between atoms: C4_4  and  C5_5 
REMARK    2  A    between atoms: C5_5  and  C6_6 
REMARK    3  A    between atoms: C6_6  and  C7_7 
REMARK    4  A    between atoms: C7_7  and  C9_9 
REMARK    5  A    between atoms: C21_21  and  C22_22 
REMARK    6  A    between atoms: C22_22  and  C23_23 
REMARK    7  A    between atoms: C23_23  and  C24_24 
REMARK    8  A    between atoms: C24_24  and  O1_25 
ROOT
HETATM    1  C9  UNL     1       1.286  54.209 -10.645  1.00  0.00    -0.002 C 
HETATM    2  C10 UNL     1       2.417  53.324 -11.260  1.00  0.00     0.006 C 
HETATM    3  C11 UNL     1       3.727  53.686 -10.522  1.00  0.00     0.011 C 
HETATM    4  C12 UNL     1       3.396  54.994  -9.777  1.00  0.00    -0.032 C 
HETATM    5  C13 UNL     1       3.506  56.121 -10.859  1.00  0.00     0.016 C 
HETATM    6  C14 UNL     1       4.278  55.305  -8.536  1.00  0.00     0.003 C 
HETATM    7  C15 UNL     1       5.797  55.391  -8.812  1.00  0.00     0.010 C 
HETATM    8  C16 UNL     1       6.594  55.915  -7.613  1.00  0.00     0.035 C 
HETATM    9  C17 UNL     1       5.875  55.644  -6.310  1.00  0.00    -0.073 C 
HETATM   10  C18 UNL     1       6.376  54.813  -5.357  1.00  0.00    -0.085 C 
HETATM   11  C19 UNL     1       5.691  54.482  -4.053  1.00  0.00     0.043 C 
HETATM   12  C20 UNL     1       7.707  54.114  -5.516  1.00  0.00     0.043 C 
HETATM   13  C21 UNL     1       4.496  56.338  -6.211  1.00  0.00     0.023 C 
HETATM   14  C25 UNL     1       3.764  56.501  -7.634  1.00  0.00    -0.032 C 
HETATM   15  C26 UNL     1       4.061  57.884  -8.271  1.00  0.00     0.016 C 
HETATM   16  C27 UNL     1       2.205  56.420  -7.436  1.00  0.00     0.011 C 
HETATM   17  C28 UNL     1       1.360  55.968  -8.651  1.00  0.00     0.011 C 
HETATM   18  C29 UNL     1       1.916  54.690  -9.301  1.00  0.00    -0.032 C 
HETATM   19  C30 UNL     1       1.794  53.547  -8.247  1.00  0.00     0.016 C 
ENDROOT
BRANCH   1  20
HETATM   20  C7  UNL     1      -0.138  53.578 -10.754  1.00  0.00    -0.014 C 
HETATM   21  C8  UNL     1      -0.243  52.072 -10.492  1.00  0.00     0.010 C 
BRANCH  20  22
HETATM   22  C6  UNL     1      -1.168  54.378  -9.916  1.00  0.00     0.008 C 
BRANCH  22  23
HETATM   23  C5  UNL     1      -2.579  54.469 -10.521  1.00  0.00     0.028 C 
BRANCH  23  24
HETATM   24  C4  UNL     1      -3.453  53.287 -10.205  1.00  0.00    -0.025 C 
HETATM   25  C2  UNL     1      -3.821  52.285 -11.028  1.00  0.00    -0.091 C 
HETATM   26  C1  UNL     1      -4.676  51.153 -10.521  1.00  0.00     0.042 C 
HETATM   27  C3  UNL     1      -3.435  52.171 -12.476  1.00  0.00     0.042 C 
ENDBRANCH  23  24
ENDBRANCH  22  23
ENDBRANCH  20  22
ENDBRANCH   1  20
BRANCH  13  28
HETATM   28  C22 UNL     1       4.662  57.609  -5.334  1.00  0.00     0.012 C 
BRANCH  28  29
HETATM   29  C23 UNL     1       6.092  58.159  -5.268  1.00  0.00     0.027 C 
BRANCH  29  30
HETATM   30  C24 UNL     1       6.464  58.660  -3.873  1.00  0.00     0.164 C 
BRANCH  30  31
HETATM   31  O1  UNL     1       5.630  59.740  -3.479  1.00  0.00    -0.401 OA
HETATM   32  H42 UNL     1       4.761  59.371  -3.246  1.00  0.00     0.209 HD
ENDBRANCH  30  31
ENDBRANCH  29  30
ENDBRANCH  28  29
ENDBRANCH  13  28
TORSDOF 8
ENDMDL
MODEL 6
REMARK minimizedAffinity -6.22530699
REMARK CNNscore 0.374613255
REMARK CNNaffinity 5.94329309
REMARK  8 active torsions:
REMARK  status: ('A' for Active; 'I' for Inactive)
REMARK    1  A    between atoms: C4_4  and  C5_5 
REMARK    2  A    between atoms: C5_5  and  C6_6 
REMARK    3  A    between atoms: C6_6  and  C7_7 
REMARK    4  A    between atoms: C7_7  and  C9_9 
REMARK    5  A    between atoms: C21_21  and  C22_22 
REMARK    6  A    between atoms: C22_22  and  C23_23 
REMARK    7  A    between atoms: C23_23  and  C24_24 
REMARK    8  A    between atoms: C24_24  and  O1_25 
ROOT
HETATM    1  C9  UNL     1      -9.568  47.380 -24.958  1.00  0.00    -0.002 C 
HETATM    2  C10 UNL     1     -10.660  46.299 -24.673  1.00  0.00     0.006 C 
HETATM    3  C11 UNL     1     -11.047  45.679 -26.036  1.00  0.00     0.011 C 
HETATM    4  C12 UNL     1     -10.453  46.645 -27.079  1.00  0.00    -0.032 C 
HETATM    5  C13 UNL     1     -11.465  47.839 -27.154  1.00  0.00     0.016 C 
HETATM    6  C14 UNL     1     -10.181  46.038 -28.483  1.00  0.00     0.003 C 
HETATM    7  C15 UNL     1     -11.413  45.422 -29.185  1.00  0.00     0.010 C 
HETATM    8  C16 UNL     1     -11.141  45.041 -30.645  1.00  0.00     0.035 C 
HETATM    9  C17 UNL     1      -9.673  44.767 -30.881  1.00  0.00    -0.073 C 
HETATM   10  C18 UNL     1      -9.205  43.540 -31.231  1.00  0.00    -0.085 C 
HETATM   11  C19 UNL     1      -7.750  43.200 -31.450  1.00  0.00     0.043 C 
HETATM   12  C20 UNL     1     -10.122  42.356 -31.439  1.00  0.00     0.043 C 
HETATM   13  C21 UNL     1      -8.766  45.990 -30.608  1.00  0.00     0.023 C 
HETATM   14  C25 UNL     1      -9.334  46.958 -29.455  1.00  0.00    -0.032 C 
HETATM   15  C26 UNL     1     -10.179  48.115 -30.050  1.00  0.00     0.016 C 
HETATM   16  C27 UNL     1      -8.132  47.623 -28.687  1.00  0.00     0.011 C 
HETATM   17  C28 UNL     1      -8.393  48.091 -27.236  1.00  0.00     0.011 C 
HETATM   18  C29 UNL     1      -9.073  47.003 -26.388  1.00  0.00    -0.032 C 
HETATM   19  C30 UNL     1      -8.072  45.811 -26.281  1.00  0.00     0.016 C 
ENDROOT
BRANCH   1  20
HETATM   20  C7  UNL     1      -8.609  47.639 -23.753  1.00  0.00    -0.014 C 
HETATM   21  C8  UNL     1      -9.125  47.241 -22.367  1.00  0.00     0.010 C 
BRANCH  20  22
HETATM   22  C6  UNL     1      -7.199  47.058 -24.028  1.00  0.00     0.008 C 
BRANCH  22  23
HETATM   23  C5  UNL     1      -6.054  48.085 -24.041  1.00  0.00     0.028 C 
BRANCH  23  24
HETATM   24  C4  UNL     1      -5.372  48.218 -25.375  1.00  0.00    -0.025 C 
HETATM   25  C2  UNL     1      -4.072  48.477 -25.618  1.00  0.00    -0.091 C 
HETATM   26  C1  UNL     1      -3.554  48.534 -27.032  1.00  0.00     0.042 C 
HETATM   27  C3  UNL     1      -3.027  48.717 -24.565  1.00  0.00     0.042 C 
ENDBRANCH  23  24
ENDBRANCH  22  23
ENDBRANCH  20  22
ENDBRANCH   1  20
BRANCH  13  28
HETATM   28  C22 UNL     1      -8.404  46.631 -31.975  1.00  0.00     0.012 C 
BRANCH  28  29
HETATM   29  C23 UNL     1      -6.959  47.129 -32.088  1.00  0.00     0.027 C 
BRANCH  29  30
HETATM   30  C24 UNL     1      -5.991  46.327 -31.219  1.00  0.00     0.164 C 
BRANCH  30  31
HETATM   31  O1  UNL     1      -4.775  47.035 -31.022  1.00  0.00    -0.401 OA
HETATM   32  H42 UNL     1      -4.948  47.747 -30.384  1.00  0.00     0.209 HD
ENDBRANCH  30  31
ENDBRANCH  29  30
ENDBRANCH  28  29
ENDBRANCH  13  28
TORSDOF 8
ENDMDL
MODEL 7
REMARK minimizedAffinity -6.25435257
REMARK CNNscore 0.326021135
REMARK CNNaffinity 6.4805398
REMARK  8 active torsions:
REMARK  status: ('A' for Active; 'I' for Inactive)
REMARK    1  A    between atoms: C4_4  and  C5_5 
REMARK    2  A    between atoms: C5_5  and  C6_6 
REMARK    3  A    between atoms: C6_6  and  C7_7 
REMARK    4  A    between atoms: C7_7  and  C9_9 
REMARK    5  A    between atoms: C21_21  and  C22_22 
REMARK    6  A    between atoms: C22_22  and  C23_23 
REMARK    7  A    between atoms: C23_23  and  C24_24 
REMARK    8  A    between atoms: C24_24  and  O1_25 
ROOT
HETATM    1  C9  UNL     1      -2.017  52.272 -10.315  1.00  0.00    -0.002 C 
HETATM    2  C10 UNL     1      -2.271  51.728  -8.872  1.00  0.00     0.006 C 
HETATM    3  C11 UNL     1      -1.070  52.173  -8.004  1.00  0.00     0.011 C 
HETATM    4  C12 UNL     1      -0.010  52.632  -9.024  1.00  0.00    -0.032 C 
HETATM    5  C13 UNL     1       0.652  51.312  -9.548  1.00  0.00     0.016 C 
HETATM    6  C14 UNL     1       1.053  53.631  -8.489  1.00  0.00     0.003 C 
HETATM    7  C15 UNL     1       1.873  53.134  -7.276  1.00  0.00     0.010 C 
HETATM    8  C16 UNL     1       3.048  54.055  -6.931  1.00  0.00     0.035 C 
HETATM    9  C17 UNL     1       2.794  55.473  -7.394  1.00  0.00    -0.073 C 
HETATM   10  C18 UNL     1       2.665  56.513  -6.530  1.00  0.00    -0.085 C 
HETATM   11  C19 UNL     1       2.382  57.941  -6.931  1.00  0.00     0.043 C 
HETATM   12  C20 UNL     1       2.791  56.338  -5.033  1.00  0.00     0.043 C 
HETATM   13  C21 UNL     1       2.621  55.598  -8.927  1.00  0.00     0.023 C 
HETATM   14  C25 UNL     1       1.966  54.292  -9.601  1.00  0.00    -0.032 C 
HETATM   15  C26 UNL     1       3.054  53.315 -10.122  1.00  0.00     0.016 C 
HETATM   16  C27 UNL     1       1.107  54.718 -10.848  1.00  0.00     0.011 C 
HETATM   17  C28 UNL     1      -0.040  53.772 -11.273  1.00  0.00     0.011 C 
HETATM   18  C29 UNL     1      -0.929  53.366 -10.085  1.00  0.00    -0.032 C 
HETATM   19  C30 UNL     1      -1.617  54.664  -9.561  1.00  0.00     0.016 C 
ENDROOT
BRANCH   1  20
HETATM   20  C7  UNL     1      -3.323  52.512 -11.136  1.00  0.00    -0.014 C 
HETATM   21  C8  UNL     1      -4.140  53.758 -10.778  1.00  0.00     0.010 C 
BRANCH  20  22
HETATM   22  C6  UNL     1      -3.047  52.426 -12.659  1.00  0.00     0.008 C 
BRANCH  22  23
HETATM   23  C5  UNL     1      -2.196  51.225 -13.107  1.00  0.00     0.028 C 
BRANCH  23  24
HETATM   24  C4  UNL     1      -0.990  51.606 -13.920  1.00  0.00    -0.025 C 
HETATM   25  C2  UNL     1      -0.121  50.787 -14.547  1.00  0.00    -0.091 C 
HETATM   26  C1  UNL     1       1.015  51.353 -15.357  1.00  0.00     0.042 C 
HETATM   27  C3  UNL     1      -0.182  49.285 -14.528  1.00  0.00     0.042 C 
ENDBRANCH  23  24
ENDBRANCH  22  23
ENDBRANCH  20  22
ENDBRANCH   1  20
BRANCH  13  28
HETATM   28  C22 UNL     1       3.958  56.123  -9.517  1.00  0.00     0.012 C 
BRANCH  28  29
HETATM   29  C23 UNL     1       5.212  55.678  -8.757  1.00  0.00     0.027 C 
BRANCH  29  30
HETATM   30  C24 UNL     1       6.190  54.904  -9.639  1.00  0.00     0.164 C 
BRANCH  30  31
HETATM   31  O1  UNL     1       7.494  54.899  -9.074  1.00  0.00    -0.401 OA
HETATM   32  H42 UNL     1       7.489  54.279  -8.326  1.00  0.00     0.209 HD
ENDBRANCH  30  31
ENDBRANCH  29  30
ENDBRANCH  28  29
ENDBRANCH  13  28
TORSDOF 8
ENDMDL
MODEL 8
REMARK minimizedAffinity -6.96643543
REMARK CNNscore 0.321315795
REMARK CNNaffinity 6.33912039
REMARK  8 active torsions:
REMARK  status: ('A' for Active; 'I' for Inactive)
REMARK    1  A    between atoms: C4_4  and  C5_5 
REMARK    2  A    between atoms: C5_5  and  C6_6 
REMARK    3  A    between atoms: C6_6  and  C7_7 
REMARK    4  A    between atoms: C7_7  and  C9_9 
REMARK    5  A    between atoms: C21_21  and  C22_22 
REMARK    6  A    between atoms: C22_22  and  C23_23 
REMARK    7  A    between atoms: C23_23  and  C24_24 
REMARK    8  A    between atoms: C24_24  and  O1_25 
ROOT
HETATM    1  C9  UNL     1       2.953  56.156  -7.634  1.00  0.00    -0.002 C 
HETATM    2  C10 UNL     1       2.513  55.672  -6.215  1.00  0.00     0.006 C 
HETATM    3  C11 UNL     1       1.270  54.773  -6.409  1.00  0.00     0.011 C 
HETATM    4  C12 UNL     1       0.818  55.052  -7.855  1.00  0.00    -0.032 C 
HETATM    5  C13 UNL     1       0.029  56.403  -7.785  1.00  0.00     0.016 C 
HETATM    6  C14 UNL     1      -0.024  53.932  -8.526  1.00  0.00     0.003 C 
HETATM    7  C15 UNL     1      -1.325  53.550  -7.783  1.00  0.00     0.010 C 
HETATM    8  C16 UNL     1      -2.223  52.609  -8.593  1.00  0.00     0.035 C 
HETATM    9  C17 UNL     1      -1.422  51.801  -9.589  1.00  0.00    -0.073 C 
HETATM   10  C18 UNL     1      -1.307  50.449  -9.511  1.00  0.00    -0.085 C 
HETATM   11  C19 UNL     1      -0.499  49.594 -10.456  1.00  0.00     0.043 C 
HETATM   12  C20 UNL     1      -1.996  49.643  -8.433  1.00  0.00     0.043 C 
HETATM   13  C21 UNL     1      -0.693  52.669 -10.643  1.00  0.00     0.023 C 
HETATM   14  C25 UNL     1      -0.254  54.112 -10.083  1.00  0.00    -0.032 C 
HETATM   15  C26 UNL     1      -1.324  55.192 -10.396  1.00  0.00     0.016 C 
HETATM   16  C27 UNL     1       1.073  54.571 -10.794  1.00  0.00     0.011 C 
HETATM   17  C28 UNL     1       1.967  55.581 -10.037  1.00  0.00     0.011 C 
HETATM   18  C29 UNL     1       2.222  55.155  -8.582  1.00  0.00    -0.032 C 
HETATM   19  C30 UNL     1       3.029  53.821  -8.629  1.00  0.00     0.016 C 
ENDROOT
BRANCH   1  20
HETATM   20  C7  UNL     1       4.473  56.494  -7.743  1.00  0.00    -0.014 C 
HETATM   21  C8  UNL     1       5.323  56.241  -6.493  1.00  0.00     0.010 C 
BRANCH  20  22
HETATM   22  C6  UNL     1       5.100  55.846  -9.003  1.00  0.00     0.008 C 
BRANCH  22  23
HETATM   23  C5  UNL     1       6.528  55.302  -8.822  1.00  0.00     0.028 C 
BRANCH  23  24
HETATM   24  C4  UNL     1       6.713  53.900  -9.334  1.00  0.00    -0.025 C 
HETATM   25  C2  UNL     1       6.680  52.751  -8.631  1.00  0.00    -0.091 C 
HETATM   26  C1  UNL     1       6.847  51.425  -9.324  1.00  0.00     0.042 C 
HETATM   27  C3  UNL     1       6.470  52.652  -7.146  1.00  0.00     0.042 C 
ENDBRANCH  23  24
ENDBRANCH  22  23
ENDBRANCH  20  22
ENDBRANCH   1  20
BRANCH  13  28
HETATM   28  C22 UNL     1      -1.522  52.624 -11.954  1.00  0.00     0.012 C 
BRANCH  28  29
HETATM   29  C23 UNL     1      -2.975  52.166 -11.779  1.00  0.00     0.027 C 
BRANCH  29  30
HETATM   30  C24 UNL     1      -3.967  53.327 -11.826  1.00  0.00     0.164 C 
BRANCH  30  31
HETATM   31  O1  UNL     1      -4.228  53.723 -13.165  1.00  0.00    -0.401 OA
HETATM   32  H42 UNL     1      -4.808  53.052 -13.563  1.00  0.00     0.209 HD
ENDBRANCH  30  31
ENDBRANCH  29  30
ENDBRANCH  28  29
ENDBRANCH  13  28
TORSDOF 8
ENDMDL
MODEL 9
REMARK minimizedAffinity -6.2522645
REMARK CNNscore 0.249928609
REMARK CNNaffinity 6.19066572
REMARK  8 active torsions:
REMARK  status: ('A' for Active; 'I' for Inactive)
REMARK    1  A    between atoms: C4_4  and  C5_5 
REMARK    2  A    between atoms: C5_5  and  C6_6 
REMARK    3  A    between atoms: C6_6  and  C7_7 
REMARK    4  A    between atoms: C7_7  and  C9_9 
REMARK    5  A    between atoms: C21_21  and  C22_22 
REMARK    6  A    between atoms: C22_22  and  C23_23 
REMARK    7  A    between atoms: C23_23  and  C24_24 
REMARK    8  A    between atoms: C24_24  and  O1_25 
ROOT
HETATM    1  C9  UNL     1       2.642  54.635  -9.159  1.00  0.00    -0.002 C 
HETATM    2  C10 UNL     1       3.149  53.783  -7.951  1.00  0.00     0.006 C 
HETATM    3  C11 UNL     1       2.047  52.746  -7.635  1.00  0.00     0.011 C 
HETATM    4  C12 UNL     1       0.813  53.251  -8.408  1.00  0.00    -0.032 C 
HETATM    5  C13 UNL     1       0.215  54.395  -7.521  1.00  0.00     0.016 C 
HETATM    6  C14 UNL     1      -0.254  52.176  -8.751  1.00  0.00     0.003 C 
HETATM    7  C15 UNL     1      -0.843  51.420  -7.538  1.00  0.00     0.010 C 
HETATM    8  C16 UNL     1      -2.040  50.537  -7.905  1.00  0.00     0.035 C 
HETATM    9  C17 UNL     1      -1.993  50.119  -9.358  1.00  0.00    -0.073 C 
HETATM   10  C18 UNL     1      -1.843  48.823  -9.742  1.00  0.00    -0.085 C 
HETATM   11  C19 UNL     1      -1.760  48.350 -11.174  1.00  0.00     0.043 C 
HETATM   12  C20 UNL     1      -1.738  47.693  -8.744  1.00  0.00     0.043 C 
HETATM   13  C21 UNL     1      -2.052  51.309 -10.345  1.00  0.00     0.023 C 
HETATM   14  C25 UNL     1      -1.376  52.649  -9.764  1.00  0.00    -0.032 C 
HETATM   15  C26 UNL     1      -2.427  53.567  -9.086  1.00  0.00     0.016 C 
HETATM   16  C27 UNL     1      -0.748  53.476 -10.946  1.00  0.00     0.011 C 
HETATM   17  C28 UNL     1       0.413  54.437 -10.597  1.00  0.00     0.011 C 
HETATM   18  C29 UNL     1       1.496  53.754  -9.746  1.00  0.00    -0.032 C 
HETATM   19  C30 UNL     1       2.123  52.624 -10.619  1.00  0.00     0.016 C 
ENDROOT
BRANCH   1  20
HETATM   20  C7  UNL     1       3.788  55.249 -10.023  1.00  0.00    -0.014 C 
HETATM   21  C8  UNL     1       3.417  56.446 -10.905  1.00  0.00     0.010 C 
BRANCH  20  22
HETATM   22  C6  UNL     1       5.042  55.539  -9.161  1.00  0.00     0.008 C 
BRANCH  22  23
HETATM   23  C5  UNL     1       6.342  54.873  -9.644  1.00  0.00     0.028 C 
BRANCH  23  24
HETATM   24  C4  UNL     1       6.839  53.782  -8.736  1.00  0.00    -0.025 C 
HETATM   25  C2  UNL     1       6.531  52.470  -8.771  1.00  0.00    -0.091 C 
HETATM   26  C1  UNL     1       7.162  51.510  -7.798  1.00  0.00     0.042 C 
HETATM   27  C3  UNL     1       5.579  51.833  -9.743  1.00  0.00     0.042 C 
ENDBRANCH  23  24
ENDBRANCH  22  23
ENDBRANCH  20  22
ENDBRANCH   1  20
BRANCH  13  28
HETATM   28  C22 UNL     1      -3.504  51.409 -10.886  1.00  0.00     0.012 C 
BRANCH  28  29
HETATM   29  C23 UNL     1      -3.844  52.739 -11.569  1.00  0.00     0.027 C 
BRANCH  29  30
HETATM   30  C24 UNL     1      -3.570  52.715 -13.072  1.00  0.00     0.164 C 
BRANCH  30  31
HETATM   31  O1  UNL     1      -4.283  53.748 -13.737  1.00  0.00    -0.401 OA
HETATM   32  H42 UNL     1      -3.831  54.588 -13.546  1.00  0.00     0.209 HD
ENDBRANCH  30  31
ENDBRANCH  29  30
ENDBRANCH  28  29
ENDBRANCH  13  28
TORSDOF 8
ENDMDL
