MODEL 1
REMARK minimizedAffinity -6.91481352
REMARK  8 active torsions:
REMARK  status: ('A' for Active; 'I' for Inactive)
REMARK    1  A    between atoms: C5_5  and  C6_6 
REMARK    2  A    between atoms: C6_6  and  O1_9 
REMARK    3  A    between atoms: C11_12  and  C12_13 
REMARK    4  A    between atoms: C12_13  and  C13_14 
REMARK    5  A    between atoms: C17_18  and  O2_19 
REMARK    6  A    between atoms: C18_20  and  C19_21 
REMARK    7  A    between atoms: C20_23  and  O4_24 
REMARK    8  A    between atoms: C21_25  and  C22_26 
ROOT
HETATM    1  C1  UNL     1       0.210   8.002  15.455  1.00  0.00     0.019 C 
HETATM    2  C2  UNL     1       1.293   7.370  14.973  1.00  0.00    -0.068 C 
HETATM    3  C3  UNL     1       1.141   6.512  13.826  1.00  0.00     0.003 C 
HETATM    4  C4  UNL     1       1.569   6.619  12.560  1.00  0.00    -0.019 C 
HETATM    5  C5  UNL     1       2.390   7.583  11.699  1.00  0.00     0.042 C 
HETATM    6  C9  UNL     1       2.814   8.972  12.295  1.00  0.00     0.020 C 
HETATM    7  C10 UNL     1       4.055   9.163  13.218  1.00  0.00     0.030 C 
HETATM    8  C11 UNL     1       5.446   9.334  12.520  1.00  0.00     0.031 C 
HETATM    9  C16 UNL     1       6.477   9.233  13.630  1.00  0.00     0.015 A 
HETATM   10  C17 UNL     1       7.671   8.492  13.548  1.00  0.00     0.091 A 
HETATM   11  C18 UNL     1       8.586   8.485  14.617  1.00  0.00     0.069 A 
HETATM   12  C20 UNL     1       8.306   9.193  15.795  1.00  0.00     0.097 A 
HETATM   13  C21 UNL     1       7.114   9.915  15.897  1.00  0.00     0.070 A 
HETATM   14  C23 UNL     1       6.212   9.935  14.816  1.00  0.00     0.095 A 
HETATM   15  O6  UNL     1       5.087  10.701  14.948  1.00  0.00    -0.338 OA
HETATM   16  C24 UNL     1       3.866  10.308  14.283  1.00  0.00     0.068 C 
HETATM   17  C25 UNL     1       3.305  11.623  13.679  1.00  0.00     0.047 C 
HETATM   18  C26 UNL     1       2.882   9.951  15.432  1.00  0.00     0.039 C 
HETATM   19  C27 UNL     1       3.145   8.677  16.248  1.00  0.00     0.007 C 
HETATM   20  C28 UNL     1       2.630   7.353  15.674  1.00  0.00     0.038 C 
ENDROOT
BRANCH   5  21
HETATM   21  C6  UNL     1       3.434   6.764  10.846  1.00  0.00     0.057 C 
HETATM   22  C7  UNL     1       4.192   7.617   9.823  1.00  0.00     0.046 C 
HETATM   23  C8  UNL     1       2.844   5.488  10.236  1.00  0.00     0.046 C 
BRANCH  21  24
HETATM   24  O1  UNL     1       4.481   6.284  11.729  1.00  0.00    -0.390 OA
HETATM   25  H12 UNL     1       4.085   5.677  12.378  1.00  0.00     0.210 HD
ENDBRANCH  21  24
ENDBRANCH   5  21
BRANCH   8  26
HETATM   26  C12 UNL     1       5.651  10.605  11.656  1.00  0.00     0.014 C 
BRANCH  26  27
HETATM   27  C13 UNL     1       6.874  11.468  12.063  1.00  0.00    -0.022 C 
HETATM   28  C14 UNL     1       8.035  11.242  11.089  1.00  0.00     0.009 C 
HETATM   29  C15 UNL     1       6.534  12.961  12.082  1.00  0.00     0.009 C 
ENDBRANCH  26  27
ENDBRANCH   8  26
BRANCH  10  30
HETATM   30  O2  UNL     1       8.010   7.770  12.435  1.00  0.00    -0.359 OA
HETATM   31  H26 UNL     1       7.285   7.726  11.796  1.00  0.00     0.217 HD
ENDBRANCH  10  30
BRANCH  11  32
HETATM   32  C19 UNL     1       9.861   7.748  14.474  1.00  0.00     0.275 C 
HETATM   33  O3  UNL     1      10.640   8.000  13.557  1.00  0.00    -0.301 OA
ENDBRANCH  11  32
BRANCH  13  34
HETATM   34  C22 UNL     1       6.741  10.654  17.131  1.00  0.00     0.275 C 
HETATM   35  O5  UNL     1       7.032  10.296  18.265  1.00  0.00    -0.301 OA
ENDBRANCH  13  34
BRANCH  12  36
HETATM   36  O4  UNL     1       9.198   9.226  16.835  1.00  0.00    -0.359 OA
HETATM   37  H28 UNL     1       9.971   8.649  16.627  1.00  0.00     0.217 HD
ENDBRANCH  12  36
TORSDOF 8
ENDMDL
MODEL 2
REMARK minimizedAffinity -6.50578642
REMARK  8 active torsions:
REMARK  status: ('A' for Active; 'I' for Inactive)
REMARK    1  A    between atoms: C5_5  and  C6_6 
REMARK    2  A    between atoms: C6_6  and  O1_9 
REMARK    3  A    between atoms: C11_12  and  C12_13 
REMARK    4  A    between atoms: C12_13  and  C13_14 
REMARK    5  A    between atoms: C17_18  and  O2_19 
REMARK    6  A    between atoms: C18_20  and  C19_21 
REMARK    7  A    between atoms: C20_23  and  O4_24 
REMARK    8  A    between atoms: C21_25  and  C22_26 
ROOT
HETATM    1  C1  UNL     1       3.066  12.097  23.707  1.00  0.00     0.019 C 
HETATM    2  C2  UNL     1       3.370  11.306  22.663  1.00  0.00    -0.068 C 
HETATM    3  C3  UNL     1       2.301  10.814  21.833  1.00  0.00     0.003 C 
HETATM    4  C4  UNL     1       1.951  11.078  20.566  1.00  0.00    -0.019 C 
HETATM    5  C5  UNL     1       2.435  11.935  19.392  1.00  0.00     0.042 C 
HETATM    6  C9  UNL     1       3.594  12.968  19.623  1.00  0.00     0.020 C 
HETATM    7  C10 UNL     1       5.102  12.578  19.612  1.00  0.00     0.030 C 
HETATM    8  C11 UNL     1       5.810  12.495  18.218  1.00  0.00     0.031 C 
HETATM    9  C16 UNL     1       7.159  11.851  18.480  1.00  0.00     0.015 A 
HETATM   10  C17 UNL     1       7.729  10.836  17.688  1.00  0.00     0.091 A 
HETATM   11  C18 UNL     1       9.004  10.322  17.988  1.00  0.00     0.069 A 
HETATM   12  C20 UNL     1       9.714  10.793  19.103  1.00  0.00     0.097 A 
HETATM   13  C21 UNL     1       9.149  11.785  19.909  1.00  0.00     0.070 A 
HETATM   14  C23 UNL     1       7.883  12.310  19.592  1.00  0.00     0.095 A 
HETATM   15  O6  UNL     1       7.401  13.316  20.383  1.00  0.00    -0.338 OA
HETATM   16  C24 UNL     1       5.977  13.454  20.585  1.00  0.00     0.068 C 
HETATM   17  C25 UNL     1       5.706  14.977  20.453  1.00  0.00     0.047 C 
HETATM   18  C26 UNL     1       5.756  13.144  22.092  1.00  0.00     0.039 C 
HETATM   19  C27 UNL     1       5.940  11.697  22.573  1.00  0.00     0.007 C 
HETATM   20  C28 UNL     1       4.750  10.746  22.415  1.00  0.00     0.038 C 
ENDROOT
BRANCH   5  21
HETATM   21  C6  UNL     1       2.435  11.066  18.075  1.00  0.00     0.057 C 
HETATM   22  C7  UNL     1       3.718  11.208  17.248  1.00  0.00     0.046 C 
HETATM   23  C8  UNL     1       1.164  11.244  17.237  1.00  0.00     0.046 C 
BRANCH  21  24
HETATM   24  O1  UNL     1       2.422   9.663  18.443  1.00  0.00    -0.390 OA
HETATM   25  H12 UNL     1       1.597   9.476  18.924  1.00  0.00     0.210 HD
ENDBRANCH  21  24
ENDBRANCH   5  21
BRANCH   8  26
HETATM   26  C12 UNL     1       5.946  13.815  17.416  1.00  0.00     0.014 C 
BRANCH  26  27
HETATM   27  C13 UNL     1       5.932  13.635  15.875  1.00  0.00    -0.022 C 
HETATM   28  C14 UNL     1       4.623  14.170  15.287  1.00  0.00     0.009 C 
HETATM   29  C15 UNL     1       7.103  14.362  15.208  1.00  0.00     0.009 C 
ENDBRANCH  26  27
ENDBRANCH   8  26
BRANCH  10  30
HETATM   30  O2  UNL     1       7.094  10.320  16.590  1.00  0.00    -0.359 OA
HETATM   31  H26 UNL     1       6.181  10.634  16.518  1.00  0.00     0.217 HD
ENDBRANCH  10  30
BRANCH  11  32
HETATM   32  C19 UNL     1       9.601   9.301  17.100  1.00  0.00     0.275 C 
HETATM   33  O3  UNL     1       9.174   8.149  17.082  1.00  0.00    -0.301 OA
ENDBRANCH  11  32
BRANCH  13  34
HETATM   34  C22 UNL     1       9.834  12.298  21.125  1.00  0.00     0.275 C 
HETATM   35  O5  UNL     1      10.521  13.311  21.155  1.00  0.00    -0.301 OA
ENDBRANCH  13  34
BRANCH  12  36
HETATM   36  O4  UNL     1      10.970  10.329  19.394  1.00  0.00    -0.359 OA
HETATM   37  H28 UNL     1      11.217   9.617  18.757  1.00  0.00     0.217 HD
ENDBRANCH  12  36
TORSDOF 8
ENDMDL
MODEL 3
REMARK minimizedAffinity -6.41941023
REMARK  8 active torsions:
REMARK  status: ('A' for Active; 'I' for Inactive)
REMARK    1  A    between atoms: C5_5  and  C6_6 
REMARK    2  A    between atoms: C6_6  and  O1_9 
REMARK    3  A    between atoms: C11_12  and  C12_13 
REMARK    4  A    between atoms: C12_13  and  C13_14 
REMARK    5  A    between atoms: C17_18  and  O2_19 
REMARK    6  A    between atoms: C18_20  and  C19_21 
REMARK    7  A    between atoms: C20_23  and  O4_24 
REMARK    8  A    between atoms: C21_25  and  C22_26 
ROOT
HETATM    1  C1  UNL     1     -13.890   2.520  30.439  1.00  0.00     0.019 C 
HETATM    2  C2  UNL     1     -13.184   2.995  29.398  1.00  0.00    -0.068 C 
HETATM    3  C3  UNL     1     -12.314   2.096  28.683  1.00  0.00     0.003 C 
HETATM    4  C4  UNL     1     -12.371   1.586  27.444  1.00  0.00    -0.019 C 
HETATM    5  C5  UNL     1     -13.267   1.666  26.205  1.00  0.00     0.042 C 
HETATM    6  C9  UNL     1     -14.639   2.423  26.299  1.00  0.00     0.020 C 
HETATM    7  C10 UNL     1     -14.773   3.969  26.165  1.00  0.00     0.030 C 
HETATM    8  C11 UNL     1     -14.847   4.559  24.717  1.00  0.00     0.031 C 
HETATM    9  C16 UNL     1     -14.705   6.062  24.878  1.00  0.00     0.015 A 
HETATM   10  C17 UNL     1     -13.892   6.880  24.072  1.00  0.00     0.091 A 
HETATM   11  C18 UNL     1     -13.851   8.272  24.274  1.00  0.00     0.069 A 
HETATM   12  C20 UNL     1     -14.598   8.862  25.304  1.00  0.00     0.097 A 
HETATM   13  C21 UNL     1     -15.393   8.057  26.126  1.00  0.00     0.070 A 
HETATM   14  C23 UNL     1     -15.445   6.668  25.906  1.00  0.00     0.095 A 
HETATM   15  O6  UNL     1     -16.279   5.935  26.703  1.00  0.00    -0.338 OA
HETATM   16  C24 UNL     1     -15.948   4.566  27.028  1.00  0.00     0.068 C 
HETATM   17  C25 UNL     1     -17.283   3.789  26.871  1.00  0.00     0.047 C 
HETATM   18  C26 UNL     1     -15.674   4.574  28.558  1.00  0.00     0.039 C 
HETATM   19  C27 UNL     1     -14.402   5.269  29.067  1.00  0.00     0.007 C 
HETATM   20  C28 UNL     1     -13.101   4.461  29.046  1.00  0.00     0.038 C 
ENDROOT
BRANCH   5  21
HETATM   21  C6  UNL     1     -12.369   1.861  24.923  1.00  0.00     0.057 C 
HETATM   22  C7  UNL     1     -11.276   0.797  24.773  1.00  0.00     0.046 C 
HETATM   23  C8  UNL     1     -11.833   3.290  24.776  1.00  0.00     0.046 C 
BRANCH  21  24
HETATM   24  O1  UNL     1     -13.193   1.670  23.745  1.00  0.00    -0.390 OA
HETATM   25  H12 UNL     1     -13.883   2.356  23.733  1.00  0.00     0.210 HD
ENDBRANCH  21  24
ENDBRANCH   5  21
BRANCH   8  26
HETATM   26  C12 UNL     1     -16.086   4.184  23.864  1.00  0.00     0.014 C 
BRANCH  26  27
HETATM   27  C13 UNL     1     -15.798   4.031  22.347  1.00  0.00    -0.022 C 
HETATM   28  C14 UNL     1     -16.167   5.316  21.601  1.00  0.00     0.009 C 
HETATM   29  C15 UNL     1     -14.324   3.713  22.078  1.00  0.00     0.009 C 
ENDBRANCH  26  27
ENDBRANCH   8  26
BRANCH  10  30
HETATM   30  O2  UNL     1     -13.129   6.378  23.052  1.00  0.00    -0.359 OA
HETATM   31  H26 UNL     1     -13.116   5.410  23.051  1.00  0.00     0.217 HD
ENDBRANCH  10  30
BRANCH  11  32
HETATM   32  C19 UNL     1     -13.036   9.112  23.368  1.00  0.00     0.275 C 
HETATM   33  O3  UNL     1     -11.816   9.187  23.502  1.00  0.00    -0.301 OA
ENDBRANCH  11  32
BRANCH  13  34
HETATM   34  C22 UNL     1     -16.177   8.615  27.258  1.00  0.00     0.275 C 
HETATM   35  O5  UNL     1     -16.099   9.774  27.647  1.00  0.00    -0.301 OA
ENDBRANCH  13  34
BRANCH  12  36
HETATM   36  O4  UNL     1     -14.597  10.219  25.497  1.00  0.00    -0.359 OA
HETATM   37  H28 UNL     1     -13.971  10.644  24.864  1.00  0.00     0.217 HD
ENDBRANCH  12  36
TORSDOF 8
ENDMDL
MODEL 4
REMARK minimizedAffinity -6.28091908
REMARK  8 active torsions:
REMARK  status: ('A' for Active; 'I' for Inactive)
REMARK    1  A    between atoms: C5_5  and  C6_6 
REMARK    2  A    between atoms: C6_6  and  O1_9 
REMARK    3  A    between atoms: C11_12  and  C12_13 
REMARK    4  A    between atoms: C12_13  and  C13_14 
REMARK    5  A    between atoms: C17_18  and  O2_19 
REMARK    6  A    between atoms: C18_20  and  C19_21 
REMARK    7  A    between atoms: C20_23  and  O4_24 
REMARK    8  A    between atoms: C21_25  and  C22_26 
ROOT
HETATM    1  C1  UNL     1     -13.876  -8.251  14.459  1.00  0.00     0.019 C 
HETATM    2  C2  UNL     1     -13.547  -7.003  14.083  1.00  0.00    -0.068 C 
HETATM    3  C3  UNL     1     -13.033  -6.793  12.754  1.00  0.00     0.003 C 
HETATM    4  C4  UNL     1     -13.545  -6.175  11.679  1.00  0.00    -0.019 C 
HETATM    5  C5  UNL     1     -14.808  -5.404  11.286  1.00  0.00     0.042 C 
HETATM    6  C9  UNL     1     -16.016  -5.350  12.288  1.00  0.00     0.020 C 
HETATM    7  C10 UNL     1     -16.097  -4.346  13.476  1.00  0.00     0.030 C 
HETATM    8  C11 UNL     1     -16.631  -2.908  13.164  1.00  0.00     0.031 C 
HETATM    9  C16 UNL     1     -16.355  -2.088  14.411  1.00  0.00     0.015 A 
HETATM   10  C17 UNL     1     -15.824  -0.784  14.410  1.00  0.00     0.091 A 
HETATM   11  C18 UNL     1     -15.634  -0.086  15.616  1.00  0.00     0.069 A 
HETATM   12  C20 UNL     1     -15.942  -0.692  16.843  1.00  0.00     0.097 A 
HETATM   13  C21 UNL     1     -16.449  -1.994  16.859  1.00  0.00     0.070 A 
HETATM   14  C23 UNL     1     -16.656  -2.680  15.648  1.00  0.00     0.095 A 
HETATM   15  O6  UNL     1     -17.205  -3.930  15.718  1.00  0.00    -0.338 OA
HETATM   16  C24 UNL     1     -16.863  -4.924  14.725  1.00  0.00     0.068 C 
HETATM   17  C25 UNL     1     -18.213  -5.598  14.360  1.00  0.00     0.047 C 
HETATM   18  C26 UNL     1     -16.076  -6.014  15.506  1.00  0.00     0.039 C 
HETATM   19  C27 UNL     1     -14.669  -5.672  16.016  1.00  0.00     0.007 C 
HETATM   20  C28 UNL     1     -13.505  -5.830  15.032  1.00  0.00     0.038 C 
ENDROOT
BRANCH   5  21
HETATM   21  C6  UNL     1     -14.400  -4.095  10.506  1.00  0.00     0.057 C 
HETATM   22  C7  UNL     1     -13.629  -3.086  11.365  1.00  0.00     0.046 C 
HETATM   23  C8  UNL     1     -15.569  -3.459   9.745  1.00  0.00     0.046 C 
BRANCH  21  24
HETATM   24  O1  UNL     1     -13.452  -4.449   9.467  1.00  0.00    -0.390 OA
HETATM   25  H12 UNL     1     -13.891  -5.046   8.837  1.00  0.00     0.210 HD
ENDBRANCH  21  24
ENDBRANCH   5  21
BRANCH   8  26
HETATM   26  C12 UNL     1     -18.109  -2.788  12.710  1.00  0.00     0.014 C 
BRANCH  26  27
HETATM   27  C13 UNL     1     -18.593  -1.332  12.480  1.00  0.00    -0.022 C 
HETATM   28  C14 UNL     1     -19.089  -1.156  11.041  1.00  0.00     0.009 C 
HETATM   29  C15 UNL     1     -19.725  -0.952  13.439  1.00  0.00     0.009 C 
ENDBRANCH  26  27
ENDBRANCH   8  26
BRANCH  10  30
HETATM   30  O2  UNL     1     -15.492  -0.129  13.255  1.00  0.00    -0.359 OA
HETATM   31  H26 UNL     1     -15.537  -0.711  12.481  1.00  0.00     0.217 HD
ENDBRANCH  10  30
BRANCH  11  32
HETATM   32  C19 UNL     1     -15.134   1.307  15.577  1.00  0.00     0.275 C 
HETATM   33  O3  UNL     1     -14.408   1.693  14.663  1.00  0.00    -0.301 OA
ENDBRANCH  11  32
BRANCH  13  34
HETATM   34  C22 UNL     1     -16.758  -2.706  18.127  1.00  0.00     0.275 C 
HETATM   35  O5  UNL     1     -16.320  -2.385  19.224  1.00  0.00    -0.301 OA
ENDBRANCH  13  34
BRANCH  12  36
HETATM   36  O4  UNL     1     -15.794  -0.018  18.027  1.00  0.00    -0.359 OA
HETATM   37  H28 UNL     1     -15.402   0.871  17.857  1.00  0.00     0.217 HD
ENDBRANCH  12  36
TORSDOF 8
ENDMDL
MODEL 5
REMARK minimizedAffinity -6.22826004
REMARK  8 active torsions:
REMARK  status: ('A' for Active; 'I' for Inactive)
REMARK    1  A    between atoms: C5_5  and  C6_6 
REMARK    2  A    between atoms: C6_6  and  O1_9 
REMARK    3  A    between atoms: C11_12  and  C12_13 
REMARK    4  A    between atoms: C12_13  and  C13_14 
REMARK    5  A    between atoms: C17_18  and  O2_19 
REMARK    6  A    between atoms: C18_20  and  C19_21 
REMARK    7  A    between atoms: C20_23  and  O4_24 
REMARK    8  A    between atoms: C21_25  and  C22_26 
ROOT
HETATM    1  C1  UNL     1      10.842  11.962  17.829  1.00  0.00     0.019 C 
HETATM    2  C2  UNL     1      10.082  11.571  18.866  1.00  0.00    -0.068 C 
HETATM    3  C3  UNL     1      10.580  11.770  20.204  1.00  0.00     0.003 C 
HETATM    4  C4  UNL     1      10.190  12.583  21.196  1.00  0.00    -0.019 C 
HETATM    5  C5  UNL     1       9.108  13.632  21.469  1.00  0.00     0.042 C 
HETATM    6  C9  UNL     1       8.185  14.105  20.291  1.00  0.00     0.020 C 
HETATM    7  C10 UNL     1       6.926  13.318  19.822  1.00  0.00     0.030 C 
HETATM    8  C11 UNL     1       5.595  13.559  20.611  1.00  0.00     0.031 C 
HETATM    9  C16 UNL     1       4.630  12.493  20.125  1.00  0.00     0.015 A 
HETATM   10  C17 UNL     1       3.792  11.731  20.960  1.00  0.00     0.091 A 
HETATM   11  C18 UNL     1       2.903  10.787  20.415  1.00  0.00     0.069 A 
HETATM   12  C20 UNL     1       2.860  10.569  19.030  1.00  0.00     0.097 A 
HETATM   13  C21 UNL     1       3.703  11.304  18.192  1.00  0.00     0.070 A 
HETATM   14  C23 UNL     1       4.577  12.261  18.741  1.00  0.00     0.095 A 
HETATM   15  O6  UNL     1       5.340  12.990  17.872  1.00  0.00    -0.338 OA
HETATM   16  C24 UNL     1       6.645  13.460  18.279  1.00  0.00     0.068 C 
HETATM   17  C25 UNL     1       6.711  14.926  17.774  1.00  0.00     0.047 C 
HETATM   18  C26 UNL     1       7.646  12.687  17.376  1.00  0.00     0.039 C 
HETATM   19  C27 UNL     1       7.834  11.182  17.618  1.00  0.00     0.007 C 
HETATM   20  C28 UNL     1       8.817  10.761  18.715  1.00  0.00     0.038 C 
ENDROOT
BRANCH   5  21
HETATM   21  C6  UNL     1       8.467  13.365  22.886  1.00  0.00     0.057 C 
HETATM   22  C7  UNL     1       7.488  12.185  22.901  1.00  0.00     0.046 C 
HETATM   23  C8  UNL     1       7.886  14.628  23.531  1.00  0.00     0.046 C 
BRANCH  21  24
HETATM   24  O1  UNL     1       9.514  12.950  23.800  1.00  0.00    -0.390 OA
HETATM   25  H12 UNL     1      10.151  13.678  23.894  1.00  0.00     0.210 HD
ENDBRANCH  21  24
ENDBRANCH   5  21
BRANCH   8  26
HETATM   26  C12 UNL     1       4.975  14.978  20.534  1.00  0.00     0.014 C 
BRANCH  26  27
HETATM   27  C13 UNL     1       4.243  15.430  21.824  1.00  0.00    -0.022 C 
HETATM   28  C14 UNL     1       2.735  15.195  21.693  1.00  0.00     0.009 C 
HETATM   29  C15 UNL     1       4.752  14.678  23.058  1.00  0.00     0.009 C 
ENDBRANCH  26  27
ENDBRANCH   8  26
BRANCH  10  30
HETATM   30  O2  UNL     1       3.782  11.880  22.321  1.00  0.00    -0.359 OA
HETATM   31  H26 UNL     1       4.498  12.455  22.629  1.00  0.00     0.217 HD
ENDBRANCH  10  30
BRANCH  11  32
HETATM   32  C19 UNL     1       1.990  10.047  21.315  1.00  0.00     0.275 C 
HETATM   33  O3  UNL     1       2.124   8.839  21.499  1.00  0.00    -0.301 OA
ENDBRANCH  11  32
BRANCH  13  34
HETATM   34  C22 UNL     1       3.734  11.093  16.721  1.00  0.00     0.275 C 
HETATM   35  O5  UNL     1       3.754   9.994  16.181  1.00  0.00    -0.301 OA
ENDBRANCH  13  34
BRANCH  12  36
HETATM   36  O4  UNL     1       1.978   9.678  18.476  1.00  0.00    -0.359 OA
HETATM   37  H28 UNL     1       1.477   9.219  19.191  1.00  0.00     0.217 HD
ENDBRANCH  12  36
TORSDOF 8
ENDMDL
MODEL 6
REMARK minimizedAffinity -6.19729137
REMARK  8 active torsions:
REMARK  status: ('A' for Active; 'I' for Inactive)
REMARK    1  A    between atoms: C5_5  and  C6_6 
REMARK    2  A    between atoms: C6_6  and  O1_9 
REMARK    3  A    between atoms: C11_12  and  C12_13 
REMARK    4  A    between atoms: C12_13  and  C13_14 
REMARK    5  A    between atoms: C17_18  and  O2_19 
REMARK    6  A    between atoms: C18_20  and  C19_21 
REMARK    7  A    between atoms: C20_23  and  O4_24 
REMARK    8  A    between atoms: C21_25  and  C22_26 
ROOT
HETATM    1  C1  UNL     1       5.706  18.032  22.237  1.00  0.00     0.019 C 
HETATM    2  C2  UNL     1       5.901  16.900  21.541  1.00  0.00    -0.068 C 
HETATM    3  C3  UNL     1       7.154  16.203  21.689  1.00  0.00     0.003 C 
HETATM    4  C4  UNL     1       7.467  15.025  22.248  1.00  0.00    -0.019 C 
HETATM    5  C5  UNL     1       6.764  13.859  22.949  1.00  0.00     0.042 C 
HETATM    6  C9  UNL     1       5.244  13.992  23.320  1.00  0.00     0.020 C 
HETATM    7  C10 UNL     1       4.090  13.727  22.307  1.00  0.00     0.030 C 
HETATM    8  C11 UNL     1       3.641  12.241  22.106  1.00  0.00     0.031 C 
HETATM    9  C16 UNL     1       2.716  12.252  20.901  1.00  0.00     0.015 A 
HETATM   10  C17 UNL     1       2.755  11.311  19.855  1.00  0.00     0.091 A 
HETATM   11  C18 UNL     1       1.833  11.380  18.794  1.00  0.00     0.069 A 
HETATM   12  C20 UNL     1       0.880  12.408  18.748  1.00  0.00     0.097 A 
HETATM   13  C21 UNL     1       0.846  13.361  19.770  1.00  0.00     0.070 A 
HETATM   14  C23 UNL     1       1.757  13.275  20.839  1.00  0.00     0.095 A 
HETATM   15  O6  UNL     1       1.645  14.201  21.839  1.00  0.00    -0.338 OA
HETATM   16  C24 UNL     1       2.821  14.622  22.566  1.00  0.00     0.068 C 
HETATM   17  C25 UNL     1       2.377  14.645  24.054  1.00  0.00     0.047 C 
HETATM   18  C26 UNL     1       3.008  16.118  22.188  1.00  0.00     0.039 C 
HETATM   19  C27 UNL     1       3.460  16.458  20.760  1.00  0.00     0.007 C 
HETATM   20  C28 UNL     1       4.962  16.408  20.465  1.00  0.00     0.038 C 
ENDROOT
BRANCH   5  21
HETATM   21  C6  UNL     1       7.291  12.497  22.355  1.00  0.00     0.057 C 
HETATM   22  C7  UNL     1       8.801  12.296  22.531  1.00  0.00     0.046 C 
HETATM   23  C8  UNL     1       6.822  12.245  20.918  1.00  0.00     0.046 C 
BRANCH  21  24
HETATM   24  O1  UNL     1       6.713  11.403  23.113  1.00  0.00    -0.390 OA
HETATM   25  H12 UNL     1       5.747  11.423  22.999  1.00  0.00     0.210 HD
ENDBRANCH  21  24
ENDBRANCH   5  21
BRANCH   8  26
HETATM   26  C12 UNL     1       2.996  11.528  23.322  1.00  0.00     0.014 C 
BRANCH  26  27
HETATM   27  C13 UNL     1       3.584  10.126  23.630  1.00  0.00    -0.022 C 
HETATM   28  C14 UNL     1       2.462   9.138  23.962  1.00  0.00     0.009 C 
HETATM   29  C15 UNL     1       4.389   9.577  22.449  1.00  0.00     0.009 C 
ENDBRANCH  26  27
ENDBRANCH   8  26
BRANCH  10  30
HETATM   30  O2  UNL     1       3.660  10.285  19.825  1.00  0.00    -0.359 OA
HETATM   31  H26 UNL     1       4.331  10.372  20.518  1.00  0.00     0.217 HD
ENDBRANCH  10  30
BRANCH  11  32
HETATM   32  C19 UNL     1       1.859  10.339  17.743  1.00  0.00     0.275 C 
HETATM   33  O3  UNL     1       2.918   9.986  17.228  1.00  0.00    -0.301 OA
ENDBRANCH  11  32
BRANCH  13  34
HETATM   34  C22 UNL     1      -0.114  14.496  19.760  1.00  0.00     0.275 C 
HETATM   35  O5  UNL     1      -0.473  15.107  20.759  1.00  0.00    -0.301 OA
ENDBRANCH  13  34
BRANCH  12  36
HETATM   36  O4  UNL     1      -0.047  12.474  17.741  1.00  0.00    -0.359 OA
HETATM   37  H28 UNL     1       0.123  11.757  17.085  1.00  0.00     0.217 HD
ENDBRANCH  12  36
TORSDOF 8
ENDMDL
MODEL 7
REMARK minimizedAffinity -6.12941074
REMARK  8 active torsions:
REMARK  status: ('A' for Active; 'I' for Inactive)
REMARK    1  A    between atoms: C5_5  and  C6_6 
REMARK    2  A    between atoms: C6_6  and  O1_9 
REMARK    3  A    between atoms: C11_12  and  C12_13 
REMARK    4  A    between atoms: C12_13  and  C13_14 
REMARK    5  A    between atoms: C17_18  and  O2_19 
REMARK    6  A    between atoms: C18_20  and  C19_21 
REMARK    7  A    between atoms: C20_23  and  O4_24 
REMARK    8  A    between atoms: C21_25  and  C22_26 
ROOT
HETATM    1  C1  UNL     1      -5.909 -11.569   3.318  1.00  0.00     0.019 C 
HETATM    2  C2  UNL     1      -6.292 -10.451   2.678  1.00  0.00    -0.068 C 
HETATM    3  C3  UNL     1      -5.865 -10.252   1.317  1.00  0.00     0.003 C 
HETATM    4  C4  UNL     1      -6.536 -10.246   0.156  1.00  0.00    -0.019 C 
HETATM    5  C5  UNL     1      -7.974 -10.404  -0.345  1.00  0.00     0.042 C 
HETATM    6  C9  UNL     1      -9.094 -10.841   0.666  1.00  0.00     0.020 C 
HETATM    7  C10 UNL     1      -9.820  -9.846   1.620  1.00  0.00     0.030 C 
HETATM    8  C11 UNL     1     -11.030  -9.045   1.033  1.00  0.00     0.031 C 
HETATM    9  C16 UNL     1     -11.363  -7.987   2.071  1.00  0.00     0.015 A 
HETATM   10  C17 UNL     1     -11.643  -6.639   1.778  1.00  0.00     0.091 A 
HETATM   11  C18 UNL     1     -11.977  -5.737   2.804  1.00  0.00     0.069 A 
HETATM   12  C20 UNL     1     -12.005  -6.161   4.141  1.00  0.00     0.097 A 
HETATM   13  C21 UNL     1     -11.708  -7.492   4.446  1.00  0.00     0.070 A 
HETATM   14  C23 UNL     1     -11.395  -8.395   3.414  1.00  0.00     0.095 A 
HETATM   15  O6  UNL     1     -11.165  -9.697   3.763  1.00  0.00    -0.338 OA
HETATM   16  C24 UNL     1     -10.245 -10.499   2.988  1.00  0.00     0.068 C 
HETATM   17  C25 UNL     1     -10.960 -11.867   2.821  1.00  0.00     0.047 C 
HETATM   18  C26 UNL     1      -9.061 -10.789   3.952  1.00  0.00     0.039 C 
HETATM   19  C27 UNL     1      -8.127  -9.630   4.328  1.00  0.00     0.007 C 
HETATM   20  C28 UNL     1      -6.989  -9.297   3.359  1.00  0.00     0.038 C 
ENDROOT
BRANCH   5  21
HETATM   21  C6  UNL     1      -8.290  -9.271  -1.395  1.00  0.00     0.057 C 
HETATM   22  C7  UNL     1      -9.614  -9.478  -2.140  1.00  0.00     0.046 C 
HETATM   23  C8  UNL     1      -7.117  -8.980  -2.338  1.00  0.00     0.046 C 
BRANCH  21  24
HETATM   24  O1  UNL     1      -8.492  -8.022  -0.686  1.00  0.00    -0.390 OA
HETATM   25  H12 UNL     1      -7.665  -7.785  -0.233  1.00  0.00     0.210 HD
ENDBRANCH  21  24
ENDBRANCH   5  21
BRANCH   8  26
HETATM   26  C12 UNL     1     -12.281  -9.859   0.617  1.00  0.00     0.014 C 
BRANCH  26  27
HETATM   27  C13 UNL     1     -13.146  -9.190  -0.483  1.00  0.00    -0.022 C 
HETATM   28  C14 UNL     1     -14.258  -8.349   0.151  1.00  0.00     0.009 C 
HETATM   29  C15 UNL     1     -12.308  -8.289  -1.394  1.00  0.00     0.009 C 
ENDBRANCH  26  27
ENDBRANCH   8  26
BRANCH  10  30
HETATM   30  O2  UNL     1     -11.627  -6.148   0.500  1.00  0.00    -0.359 OA
HETATM   31  H26 UNL     1     -11.275  -6.792  -0.132  1.00  0.00     0.217 HD
ENDBRANCH  10  30
BRANCH  11  32
HETATM   32  C19 UNL     1     -12.327  -4.341   2.456  1.00  0.00     0.275 C 
HETATM   33  O3  UNL     1     -11.849  -3.395   3.078  1.00  0.00    -0.301 OA
ENDBRANCH  11  32
BRANCH  13  34
HETATM   34  C22 UNL     1     -11.683  -7.995   5.845  1.00  0.00     0.275 C 
HETATM   35  O5  UNL     1     -11.556  -7.282   6.833  1.00  0.00    -0.301 OA
ENDBRANCH  13  34
BRANCH  12  36
HETATM   36  O4  UNL     1     -12.360  -5.306   5.152  1.00  0.00    -0.359 OA
HETATM   37  H28 UNL     1     -12.510  -4.402   4.785  1.00  0.00     0.217 HD
ENDBRANCH  12  36
TORSDOF 8
ENDMDL
MODEL 8
REMARK minimizedAffinity -6.08800745
REMARK  8 active torsions:
REMARK  status: ('A' for Active; 'I' for Inactive)
REMARK    1  A    between atoms: C5_5  and  C6_6 
REMARK    2  A    between atoms: C6_6  and  O1_9 
REMARK    3  A    between atoms: C11_12  and  C12_13 
REMARK    4  A    between atoms: C12_13  and  C13_14 
REMARK    5  A    between atoms: C17_18  and  O2_19 
REMARK    6  A    between atoms: C18_20  and  C19_21 
REMARK    7  A    between atoms: C20_23  and  O4_24 
REMARK    8  A    between atoms: C21_25  and  C22_26 
ROOT
HETATM    1  C1  UNL     1       8.314  14.375  23.528  1.00  0.00     0.019 C 
HETATM    2  C2  UNL     1       8.036  13.194  22.949  1.00  0.00    -0.068 C 
HETATM    3  C3  UNL     1       6.869  12.469  23.382  1.00  0.00     0.003 C 
HETATM    4  C4  UNL     1       5.708  12.188  22.773  1.00  0.00    -0.019 C 
HETATM    5  C5  UNL     1       5.030  12.423  21.420  1.00  0.00     0.042 C 
HETATM    6  C9  UNL     1       5.714  13.372  20.374  1.00  0.00     0.020 C 
HETATM    7  C10 UNL     1       6.856  12.911  19.419  1.00  0.00     0.030 C 
HETATM    8  C11 UNL     1       6.435  12.189  18.096  1.00  0.00     0.031 C 
HETATM    9  C16 UNL     1       7.717  11.627  17.509  1.00  0.00     0.015 A 
HETATM   10  C17 UNL     1       7.851  10.334  16.969  1.00  0.00     0.091 A 
HETATM   11  C18 UNL     1       9.073   9.912  16.414  1.00  0.00     0.069 A 
HETATM   12  C20 UNL     1      10.187  10.764  16.418  1.00  0.00     0.097 A 
HETATM   13  C21 UNL     1      10.073  12.043  16.971  1.00  0.00     0.070 A 
HETATM   14  C23 UNL     1       8.842  12.467  17.506  1.00  0.00     0.095 A 
HETATM   15  O6  UNL     1       8.771  13.746  17.985  1.00  0.00    -0.338 OA
HETATM   16  C24 UNL     1       7.882  14.056  19.081  1.00  0.00     0.068 C 
HETATM   17  C25 UNL     1       7.202  15.390  18.672  1.00  0.00     0.047 C 
HETATM   18  C26 UNL     1       8.821  14.439  20.260  1.00  0.00     0.039 C 
HETATM   19  C27 UNL     1       9.654  13.329  20.917  1.00  0.00     0.007 C 
HETATM   20  C28 UNL     1       8.975  12.487  22.002  1.00  0.00     0.038 C 
ENDROOT
BRANCH   5  21
HETATM   21  C6  UNL     1       4.378  11.076  20.921  1.00  0.00     0.057 C 
HETATM   22  C7  UNL     1       3.210  11.284  19.949  1.00  0.00     0.046 C 
HETATM   23  C8  UNL     1       4.036  10.113  22.064  1.00  0.00     0.046 C 
BRANCH  21  24
HETATM   24  O1  UNL     1       5.353  10.352  20.129  1.00  0.00    -0.390 OA
HETATM   25  H12 UNL     1       6.108  10.124  20.698  1.00  0.00     0.210 HD
ENDBRANCH  21  24
ENDBRANCH   5  21
BRANCH   8  26
HETATM   26  C12 UNL     1       5.642  13.025  17.057  1.00  0.00     0.014 C 
BRANCH  26  27
HETATM   27  C13 UNL     1       4.630  12.207  16.213  1.00  0.00    -0.022 C 
HETATM   28  C14 UNL     1       5.269  11.767  14.893  1.00  0.00     0.009 C 
HETATM   29  C15 UNL     1       4.143  10.962  16.961  1.00  0.00     0.009 C 
ENDBRANCH  26  27
ENDBRANCH   8  26
BRANCH  10  30
HETATM   30  O2  UNL     1       6.813   9.443  16.936  1.00  0.00    -0.359 OA
HETATM   31  H26 UNL     1       6.047   9.758  17.439  1.00  0.00     0.217 HD
ENDBRANCH  10  30
BRANCH  11  32
HETATM   32  C19 UNL     1       9.163   8.569  15.798  1.00  0.00     0.275 C 
HETATM   33  O3  UNL     1       9.208   7.556  16.492  1.00  0.00    -0.301 OA
ENDBRANCH  11  32
BRANCH  13  34
HETATM   34  C22 UNL     1      11.225  12.979  17.041  1.00  0.00     0.275 C 
HETATM   35  O5  UNL     1      12.308  12.705  17.543  1.00  0.00    -0.301 OA
ENDBRANCH  13  34
BRANCH  12  36
HETATM   36  O4  UNL     1      11.376  10.384  15.853  1.00  0.00    -0.359 OA
HETATM   37  H28 UNL     1      11.310   9.452  15.535  1.00  0.00     0.217 HD
ENDBRANCH  12  36
TORSDOF 8
ENDMDL
MODEL 9
REMARK minimizedAffinity -6.0623455
REMARK  8 active torsions:
REMARK  status: ('A' for Active; 'I' for Inactive)
REMARK    1  A    between atoms: C5_5  and  C6_6 
REMARK    2  A    between atoms: C6_6  and  O1_9 
REMARK    3  A    between atoms: C11_12  and  C12_13 
REMARK    4  A    between atoms: C12_13  and  C13_14 
REMARK    5  A    between atoms: C17_18  and  O2_19 
REMARK    6  A    between atoms: C18_20  and  C19_21 
REMARK    7  A    between atoms: C20_23  and  O4_24 
REMARK    8  A    between atoms: C21_25  and  C22_26 
ROOT
HETATM    1  C1  UNL     1      -5.448   6.187  15.086  1.00  0.00     0.019 C 
HETATM    2  C2  UNL     1      -4.211   5.671  14.986  1.00  0.00    -0.068 C 
HETATM    3  C3  UNL     1      -4.017   4.489  14.186  1.00  0.00     0.003 C 
HETATM    4  C4  UNL     1      -3.382   4.285  13.022  1.00  0.00    -0.019 C 
HETATM    5  C5  UNL     1      -2.572   5.083  11.996  1.00  0.00     0.042 C 
HETATM    6  C9  UNL     1      -2.480   6.643  12.138  1.00  0.00     0.020 C 
HETATM    7  C10 UNL     1      -1.475   7.359  13.089  1.00  0.00     0.030 C 
HETATM    8  C11 UNL     1      -0.021   7.586  12.555  1.00  0.00     0.031 C 
HETATM    9  C16 UNL     1       0.790   8.044  13.754  1.00  0.00     0.015 A 
HETATM   10  C17 UNL     1       2.076   7.573  14.077  1.00  0.00     0.091 A 
HETATM   11  C18 UNL     1       2.767   8.083  15.192  1.00  0.00     0.069 A 
HETATM   12  C20 UNL     1       2.171   9.047  16.017  1.00  0.00     0.097 A 
HETATM   13  C21 UNL     1       0.884   9.507  15.719  1.00  0.00     0.070 A 
HETATM   14  C23 UNL     1       0.206   9.008  14.591  1.00  0.00     0.095 A 
HETATM   15  O6  UNL     1      -1.027   9.531  14.315  1.00  0.00    -0.338 OA
HETATM   16  C24 UNL     1      -2.030   8.712  13.673  1.00  0.00     0.068 C 
HETATM   17  C25 UNL     1      -2.661   9.634  12.596  1.00  0.00     0.047 C 
HETATM   18  C26 UNL     1      -3.144   8.535  14.742  1.00  0.00     0.039 C 
HETATM   19  C27 UNL     1      -2.847   7.656  15.966  1.00  0.00     0.007 C 
HETATM   20  C28 UNL     1      -3.040   6.144  15.813  1.00  0.00     0.038 C 
ENDROOT
BRANCH   5  21
HETATM   21  C6  UNL     1      -1.276   4.271  11.608  1.00  0.00     0.057 C 
HETATM   22  C7  UNL     1      -1.573   2.877  11.043  1.00  0.00     0.046 C 
HETATM   23  C8  UNL     1      -0.224   4.249  12.723  1.00  0.00     0.046 C 
BRANCH  21  24
HETATM   24  O1  UNL     1      -0.614   4.948  10.510  1.00  0.00    -0.390 OA
HETATM   25  H12 UNL     1      -0.333   5.830  10.812  1.00  0.00     0.210 HD
ENDBRANCH  21  24
ENDBRANCH   5  21
BRANCH   8  26
HETATM   26  C12 UNL     1       0.146   8.541  11.346  1.00  0.00     0.014 C 
BRANCH  26  27
HETATM   27  C13 UNL     1       0.592   7.845  10.034  1.00  0.00    -0.022 C 
HETATM   28  C14 UNL     1       0.012   8.574   8.818  1.00  0.00     0.009 C 
HETATM   29  C15 UNL     1       2.117   7.808   9.902  1.00  0.00     0.009 C 
ENDBRANCH  26  27
ENDBRANCH   8  26
BRANCH  10  30
HETATM   30  O2  UNL     1       2.721   6.628  13.326  1.00  0.00    -0.359 OA
HETATM   31  H26 UNL     1       2.141   6.241  12.653  1.00  0.00     0.217 HD
ENDBRANCH  10  30
BRANCH  11  32
HETATM   32  C19 UNL     1       4.143   7.613  15.468  1.00  0.00     0.275 C 
HETATM   33  O3  UNL     1       5.080   8.406  15.544  1.00  0.00    -0.301 OA
ENDBRANCH  11  32
BRANCH  13  34
HETATM   34  C22 UNL     1       0.182  10.498  16.575  1.00  0.00     0.275 C 
HETATM   35  O5  UNL     1       0.080  10.411  17.792  1.00  0.00    -0.301 OA
ENDBRANCH  13  34
BRANCH  12  36
HETATM   36  O4  UNL     1       2.839   9.580  17.088  1.00  0.00    -0.359 OA
HETATM   37  H28 UNL     1       3.715   9.138  17.186  1.00  0.00     0.217 HD
ENDBRANCH  12  36
TORSDOF 8
ENDMDL
