MODEL 1
REMARK minimizedAffinity -7.02648258
REMARK CNNscore 0.80008781
REMARK CNNaffinity 5.25310278
REMARK  11 active torsions:
REMARK  status: ('A' for Active; 'I' for Inactive)
REMARK    1  A    between atoms: C1_2  and  C2_3 
REMARK    2  A    between atoms: C1_2  and  O4_13 
REMARK    3  A    between atoms: C3_4  and  C4_5 
REMARK    4  A    between atoms: C7_8  and  O2_9 
REMARK    5  A    between atoms: C8_10  and  O3_11 
REMARK    6  A    between atoms: O4_13  and  C10_14 
REMARK    7  A    between atoms: C12_16  and  O5_17 
REMARK    8  A    between atoms: C12_16  and  C13_18 
REMARK    9  A    between atoms: C13_18  and  O7_20 
REMARK   10  A    between atoms: C15_22  and  O8_23 
REMARK   11  A    between atoms: C16_24  and  O9_25 
ROOT
HETATM    1  C10 UNL     1      -1.721  51.264 -19.429  1.00  0.00     0.166 C 
HETATM    2  C11 UNL     1      -0.680  51.712 -18.396  1.00  0.00     0.084 C 
HETATM    3  C12 UNL     1      -0.630  50.779 -17.184  1.00  0.00     0.147 C 
HETATM    4  C14 UNL     1      -0.383  49.327 -17.609  1.00  0.00     0.083 C 
HETATM    5  C15 UNL     1      -1.413  48.855 -18.636  1.00  0.00     0.152 C 
HETATM    6  C16 UNL     1      -1.495  49.800 -19.845  1.00  0.00     0.176 C 
ENDROOT
BRANCH   1   7
HETATM    7  O4  UNL     1      -1.585  52.085 -20.613  1.00  0.00    -0.310 OA
BRANCH   7   8
HETATM    8  C1  UNL     1      -0.369  52.068 -21.209  1.00  0.00     0.283 C 
HETATM    9  O1  UNL     1       0.714  52.006 -20.653  1.00  0.00    -0.260 OA
BRANCH   8  10
HETATM   10  C2  UNL     1      -0.577  52.120 -22.670  1.00  0.00     0.083 C 
HETATM   11  C3  UNL     1       0.479  52.202 -23.493  1.00  0.00     0.017 C 
BRANCH  11  12
HETATM   12  C4  UNL     1       0.375  52.275 -24.956  1.00  0.00    -0.033 A 
HETATM   13  C5  UNL     1       1.406  51.831 -25.802  1.00  0.00     0.014 A 
HETATM   14  C6  UNL     1       1.288  51.939 -27.190  1.00  0.00     0.040 A 
HETATM   15  C7  UNL     1       0.141  52.501 -27.729  1.00  0.00     0.098 A 
HETATM   16  C8  UNL     1      -0.883  52.958 -26.905  1.00  0.00     0.099 A 
HETATM   17  C9  UNL     1      -0.772  52.855 -25.521  1.00  0.00     0.050 A 
BRANCH  15  18
HETATM   18  O2  UNL     1       0.027  52.608 -29.085  1.00  0.00    -0.358 OA
HETATM   19  H5  UNL     1      -0.847  53.027 -29.223  1.00  0.00     0.217 HD
ENDBRANCH  15  18
BRANCH  16  20
HETATM   20  O3  UNL     1      -1.983  53.506 -27.505  1.00  0.00    -0.358 OA
HETATM   21  H6  UNL     1      -2.611  53.765 -26.808  1.00  0.00     0.217 HD
ENDBRANCH  16  20
ENDBRANCH  11  12
ENDBRANCH   8  10
ENDBRANCH   7   8
ENDBRANCH   1   7
BRANCH   6  22
HETATM   22  O9  UNL     1      -2.574  49.369 -20.688  1.00  0.00    -0.390 OA
HETATM   23  H18 UNL     1      -3.267  49.040 -20.079  1.00  0.00     0.210 HD
ENDBRANCH   6  22
BRANCH   3  24
HETATM   24  O5  UNL     1      -1.905  50.821 -16.524  1.00  0.00    -0.379 OA
HETATM   25  H11 UNL     1      -1.868  51.597 -15.925  1.00  0.00     0.211 HD
ENDBRANCH   3  24
BRANCH   3  26
HETATM   26  C13 UNL     1       0.491  51.246 -16.244  1.00  0.00     0.176 C 
HETATM   27  O6  UNL     1       1.052  52.328 -16.244  1.00  0.00    -0.648 OA
BRANCH  26  28
HETATM   28  O7  UNL     1       0.799  50.304 -15.323  1.00  0.00    -0.774 OA
HETATM   29  H12 UNL     1       1.512  50.715 -14.786  1.00  0.00     0.167 HD
ENDBRANCH  26  28
ENDBRANCH   3  26
BRANCH   5  30
HETATM   30  O8  UNL     1      -2.718  48.748 -18.046  1.00  0.00    -0.393 OA
HETATM   31  H16 UNL     1      -2.783  49.428 -17.340  1.00  0.00     0.210 HD
ENDBRANCH   5  30
TORSDOF 11
ENDMDL
MODEL 2
REMARK minimizedAffinity -7.42230654
REMARK CNNscore 0.6775527
REMARK CNNaffinity 5.2050128
REMARK  11 active torsions:
REMARK  status: ('A' for Active; 'I' for Inactive)
REMARK    1  A    between atoms: C1_2  and  C2_3 
REMARK    2  A    between atoms: C1_2  and  O4_13 
REMARK    3  A    between atoms: C3_4  and  C4_5 
REMARK    4  A    between atoms: C7_8  and  O2_9 
REMARK    5  A    between atoms: C8_10  and  O3_11 
REMARK    6  A    between atoms: O4_13  and  C10_14 
REMARK    7  A    between atoms: C12_16  and  O5_17 
REMARK    8  A    between atoms: C12_16  and  C13_18 
REMARK    9  A    between atoms: C13_18  and  O7_20 
REMARK   10  A    between atoms: C15_22  and  O8_23 
REMARK   11  A    between atoms: C16_24  and  O9_25 
ROOT
HETATM    1  C10 UNL     1      -0.723  50.507 -20.129  1.00  0.00     0.166 C 
HETATM    2  C11 UNL     1      -2.031  50.606 -20.923  1.00  0.00     0.084 C 
HETATM    3  C12 UNL     1      -3.246  50.197 -20.089  1.00  0.00     0.147 C 
HETATM    4  C14 UNL     1      -3.334  51.015 -18.795  1.00  0.00     0.083 C 
HETATM    5  C15 UNL     1      -2.043  50.927 -17.982  1.00  0.00     0.152 C 
HETATM    6  C16 UNL     1      -0.809  51.306 -18.817  1.00  0.00     0.176 C 
ENDROOT
BRANCH   1   7
HETATM    7  O4  UNL     1       0.348  51.073 -20.921  1.00  0.00    -0.310 OA
BRANCH   7   8
HETATM    8  C1  UNL     1       0.292  52.411 -21.122  1.00  0.00     0.283 C 
HETATM    9  O1  UNL     1       0.116  53.269 -20.272  1.00  0.00    -0.260 OA
BRANCH   8  10
HETATM   10  C2  UNL     1       0.500  52.665 -22.561  1.00  0.00     0.083 C 
HETATM   11  C3  UNL     1      -0.233  52.004 -23.469  1.00  0.00     0.017 C 
BRANCH  11  12
HETATM   12  C4  UNL     1      -0.090  52.175 -24.920  1.00  0.00    -0.033 A 
HETATM   13  C5  UNL     1       1.122  51.922 -25.587  1.00  0.00     0.014 A 
HETATM   14  C6  UNL     1       1.235  52.121 -26.965  1.00  0.00     0.040 A 
HETATM   15  C7  UNL     1       0.136  52.581 -27.674  1.00  0.00     0.098 A 
HETATM   16  C8  UNL     1      -1.067  52.849 -27.027  1.00  0.00     0.099 A 
HETATM   17  C9  UNL     1      -1.187  52.655 -25.654  1.00  0.00     0.050 A 
BRANCH  15  18
HETATM   18  O2  UNL     1       0.246  52.776 -29.020  1.00  0.00    -0.358 OA
HETATM   19  H5  UNL     1      -0.638  53.097 -29.293  1.00  0.00     0.217 HD
ENDBRANCH  15  18
BRANCH  16  20
HETATM   20  O3  UNL     1      -2.108  53.305 -27.788  1.00  0.00    -0.358 OA
HETATM   21  H6  UNL     1      -2.876  53.434 -27.204  1.00  0.00     0.217 HD
ENDBRANCH  16  20
ENDBRANCH  11  12
ENDBRANCH   8  10
ENDBRANCH   7   8
ENDBRANCH   1   7
BRANCH   6  22
HETATM   22  O9  UNL     1       0.367  51.064 -18.029  1.00  0.00    -0.390 OA
HETATM   23  H18 UNL     1       0.167  50.264 -17.501  1.00  0.00     0.210 HD
ENDBRANCH   6  22
BRANCH   3  24
HETATM   24  O5  UNL     1      -3.099  48.819 -19.715  1.00  0.00    -0.379 OA
HETATM   25  H11 UNL     1      -3.447  48.300 -20.471  1.00  0.00     0.211 HD
ENDBRANCH   3  24
BRANCH   3  26
HETATM   26  C13 UNL     1      -4.517  50.407 -20.927  1.00  0.00     0.176 C 
HETATM   27  O6  UNL     1      -5.203  49.549 -21.453  1.00  0.00    -0.648 OA
BRANCH  26  28
HETATM   28  O7  UNL     1      -4.859  51.714 -21.003  1.00  0.00    -0.774 OA
HETATM   29  H12 UNL     1      -5.675  51.718 -21.549  1.00  0.00     0.167 HD
ENDBRANCH  26  28
ENDBRANCH   3  26
BRANCH   5  30
HETATM   30  O8  UNL     1      -1.853  49.605 -17.455  1.00  0.00    -0.393 OA
HETATM   31  H16 UNL     1      -2.255  48.970 -18.090  1.00  0.00     0.210 HD
ENDBRANCH   5  30
TORSDOF 11
ENDMDL
MODEL 3
REMARK minimizedAffinity -8.37961578
REMARK CNNscore 0.485652089
REMARK CNNaffinity 4.44397688
REMARK  11 active torsions:
REMARK  status: ('A' for Active; 'I' for Inactive)
REMARK    1  A    between atoms: C1_2  and  C2_3 
REMARK    2  A    between atoms: C1_2  and  O4_13 
REMARK    3  A    between atoms: C3_4  and  C4_5 
REMARK    4  A    between atoms: C7_8  and  O2_9 
REMARK    5  A    between atoms: C8_10  and  O3_11 
REMARK    6  A    between atoms: O4_13  and  C10_14 
REMARK    7  A    between atoms: C12_16  and  O5_17 
REMARK    8  A    between atoms: C12_16  and  C13_18 
REMARK    9  A    between atoms: C13_18  and  O7_20 
REMARK   10  A    between atoms: C15_22  and  O8_23 
REMARK   11  A    between atoms: C16_24  and  O9_25 
ROOT
HETATM    1  C10 UNL     1      -4.208  49.454 -22.339  1.00  0.00     0.166 C 
HETATM    2  C11 UNL     1      -3.625  49.020 -23.688  1.00  0.00     0.084 C 
HETATM    3  C12 UNL     1      -4.349  49.672 -24.867  1.00  0.00     0.147 C 
HETATM    4  C14 UNL     1      -4.352  51.201 -24.743  1.00  0.00     0.083 C 
HETATM    5  C15 UNL     1      -4.935  51.658 -23.406  1.00  0.00     0.152 C 
HETATM    6  C16 UNL     1      -4.236  50.987 -22.213  1.00  0.00     0.176 C 
ENDROOT
BRANCH   1   7
HETATM    7  O4  UNL     1      -3.366  48.940 -21.280  1.00  0.00    -0.310 OA
BRANCH   7   8
HETATM    8  C1  UNL     1      -2.121  48.556 -21.648  1.00  0.00     0.283 C 
HETATM    9  O1  UNL     1      -1.692  47.414 -21.686  1.00  0.00    -0.260 OA
BRANCH   8  10
HETATM   10  C2  UNL     1      -1.361  49.766 -22.018  1.00  0.00     0.083 C 
HETATM   11  C3  UNL     1      -0.780  50.508 -21.065  1.00  0.00     0.017 C 
BRANCH  11  12
HETATM   12  C4  UNL     1      -0.018  51.735 -21.331  1.00  0.00    -0.033 A 
HETATM   13  C5  UNL     1       0.496  52.536 -20.296  1.00  0.00     0.014 A 
HETATM   14  C6  UNL     1       1.193  53.713 -20.581  1.00  0.00     0.040 A 
HETATM   15  C7  UNL     1       1.366  54.092 -21.903  1.00  0.00     0.098 A 
HETATM   16  C8  UNL     1       0.851  53.318 -22.939  1.00  0.00     0.099 A 
HETATM   17  C9  UNL     1       0.155  52.145 -22.663  1.00  0.00     0.050 A 
BRANCH  15  18
HETATM   18  O2  UNL     1       2.045  55.242 -22.182  1.00  0.00    -0.358 OA
HETATM   19  H5  UNL     1       2.038  55.299 -23.159  1.00  0.00     0.217 HD
ENDBRANCH  15  18
BRANCH  16  20
HETATM   20  O3  UNL     1       1.055  53.755 -24.219  1.00  0.00    -0.358 OA
HETATM   21  H6  UNL     1       0.654  53.111 -24.827  1.00  0.00     0.217 HD
ENDBRANCH  16  20
ENDBRANCH  11  12
ENDBRANCH   8  10
ENDBRANCH   7   8
ENDBRANCH   1   7
BRANCH   6  22
HETATM   22  O9  UNL     1      -4.929  51.358 -21.011  1.00  0.00    -0.390 OA
HETATM   23  H18 UNL     1      -5.875  51.407 -21.260  1.00  0.00     0.210 HD
ENDBRANCH   6  22
BRANCH   3  24
HETATM   24  O5  UNL     1      -5.719  49.240 -24.856  1.00  0.00    -0.379 OA
HETATM   25  H11 UNL     1      -5.729  48.380 -25.329  1.00  0.00     0.211 HD
ENDBRANCH   3  24
BRANCH   3  26
HETATM   26  C13 UNL     1      -3.652  49.256 -26.171  1.00  0.00     0.176 C 
HETATM   27  O6  UNL     1      -2.461  49.059 -26.341  1.00  0.00    -0.648 OA
BRANCH  26  28
HETATM   28  O7  UNL     1      -4.537  49.073 -27.178  1.00  0.00    -0.774 OA
HETATM   29  H12 UNL     1      -3.980  48.808 -27.943  1.00  0.00     0.167 HD
ENDBRANCH  26  28
ENDBRANCH   3  26
BRANCH   5  30
HETATM   30  O8  UNL     1      -6.342  51.377 -23.333  1.00  0.00    -0.393 OA
HETATM   31  H16 UNL     1      -6.512  50.566 -23.862  1.00  0.00     0.210 HD
ENDBRANCH   5  30
TORSDOF 11
ENDMDL
MODEL 4
REMARK minimizedAffinity -7.34259558
REMARK CNNscore 0.477224827
REMARK CNNaffinity 4.3073101
REMARK  11 active torsions:
REMARK  status: ('A' for Active; 'I' for Inactive)
REMARK    1  A    between atoms: C1_2  and  C2_3 
REMARK    2  A    between atoms: C1_2  and  O4_13 
REMARK    3  A    between atoms: C3_4  and  C4_5 
REMARK    4  A    between atoms: C7_8  and  O2_9 
REMARK    5  A    between atoms: C8_10  and  O3_11 
REMARK    6  A    between atoms: O4_13  and  C10_14 
REMARK    7  A    between atoms: C12_16  and  O5_17 
REMARK    8  A    between atoms: C12_16  and  C13_18 
REMARK    9  A    between atoms: C13_18  and  O7_20 
REMARK   10  A    between atoms: C15_22  and  O8_23 
REMARK   11  A    between atoms: C16_24  and  O9_25 
ROOT
HETATM    1  C10 UNL     1      -0.388  51.937 -13.527  1.00  0.00     0.166 C 
HETATM    2  C11 UNL     1      -1.883  52.202 -13.319  1.00  0.00     0.084 C 
HETATM    3  C12 UNL     1      -2.280  52.151 -11.842  1.00  0.00     0.147 C 
HETATM    4  C14 UNL     1      -1.436  53.119 -11.005  1.00  0.00     0.083 C 
HETATM    5  C15 UNL     1       0.061  52.870 -11.191  1.00  0.00     0.152 C 
HETATM    6  C16 UNL     1       0.468  52.890 -12.673  1.00  0.00     0.176 C 
ENDROOT
BRANCH   1   7
HETATM    7  O4  UNL     1      -0.060  52.176 -14.916  1.00  0.00    -0.310 OA
BRANCH   7   8
HETATM    8  C1  UNL     1       0.677  51.216 -15.523  1.00  0.00     0.283 C 
HETATM    9  O1  UNL     1       1.400  50.397 -14.979  1.00  0.00    -0.260 OA
BRANCH   8  10
HETATM   10  C2  UNL     1       0.443  51.313 -16.978  1.00  0.00     0.083 C 
HETATM   11  C3  UNL     1       0.940  52.351 -17.666  1.00  0.00     0.017 C 
BRANCH  11  12
HETATM   12  C4  UNL     1       0.747  52.545 -19.109  1.00  0.00    -0.033 A 
HETATM   13  C5  UNL     1      -0.046  51.679 -19.881  1.00  0.00     0.014 A 
HETATM   14  C6  UNL     1      -0.187  51.874 -21.258  1.00  0.00     0.040 A 
HETATM   15  C7  UNL     1       0.475  52.933 -21.861  1.00  0.00     0.098 A 
HETATM   16  C8  UNL     1       1.275  53.791 -21.113  1.00  0.00     0.099 A 
HETATM   17  C9  UNL     1       1.421  53.602 -19.742  1.00  0.00     0.050 A 
BRANCH  15  18
HETATM   18  O2  UNL     1       0.338  53.124 -23.205  1.00  0.00    -0.358 OA
HETATM   19  H5  UNL     1       0.886  53.912 -23.397  1.00  0.00     0.217 HD
ENDBRANCH  15  18
BRANCH  16  20
HETATM   20  O3  UNL     1       1.902  54.811 -21.775  1.00  0.00    -0.358 OA
HETATM   21  H6  UNL     1       2.409  55.328 -21.125  1.00  0.00     0.217 HD
ENDBRANCH  16  20
ENDBRANCH  11  12
ENDBRANCH   8  10
ENDBRANCH   7   8
ENDBRANCH   1   7
BRANCH   6  22
HETATM   22  O9  UNL     1       1.850  52.512 -12.771  1.00  0.00    -0.390 OA
HETATM   23  H18 UNL     1       1.987  51.838 -12.073  1.00  0.00     0.210 HD
ENDBRANCH   6  22
BRANCH   3  24
HETATM   24  O5  UNL     1      -2.027  50.826 -11.348  1.00  0.00    -0.379 OA
HETATM   25  H11 UNL     1      -2.824  50.301 -11.578  1.00  0.00     0.211 HD
ENDBRANCH   3  24
BRANCH   3  26
HETATM   26  C13 UNL     1      -3.767  52.510 -11.715  1.00  0.00     0.176 C 
HETATM   27  O6  UNL     1      -4.584  52.014 -10.959  1.00  0.00    -0.648 OA
BRANCH  26  28
HETATM   28  O7  UNL     1      -4.113  53.524 -12.541  1.00  0.00    -0.774 OA
HETATM   29  H12 UNL     1      -5.069  53.663 -12.366  1.00  0.00     0.167 HD
ENDBRANCH  26  28
ENDBRANCH   3  26
BRANCH   5  30
HETATM   30  O8  UNL     1       0.450  51.611 -10.622  1.00  0.00    -0.393 OA
HETATM   31  H16 UNL     1      -0.316  50.999 -10.702  1.00  0.00     0.210 HD
ENDBRANCH   5  30
TORSDOF 11
ENDMDL
MODEL 5
REMARK minimizedAffinity -8.58269596
REMARK CNNscore 0.441319227
REMARK CNNaffinity 4.95300531
REMARK  11 active torsions:
REMARK  status: ('A' for Active; 'I' for Inactive)
REMARK    1  A    between atoms: C1_2  and  C2_3 
REMARK    2  A    between atoms: C1_2  and  O4_13 
REMARK    3  A    between atoms: C3_4  and  C4_5 
REMARK    4  A    between atoms: C7_8  and  O2_9 
REMARK    5  A    between atoms: C8_10  and  O3_11 
REMARK    6  A    between atoms: O4_13  and  C10_14 
REMARK    7  A    between atoms: C12_16  and  O5_17 
REMARK    8  A    between atoms: C12_16  and  C13_18 
REMARK    9  A    between atoms: C13_18  and  O7_20 
REMARK   10  A    between atoms: C15_22  and  O8_23 
REMARK   11  A    between atoms: C16_24  and  O9_25 
ROOT
HETATM    1  C10 UNL     1      -3.340  51.374 -26.307  1.00  0.00     0.166 C 
HETATM    2  C11 UNL     1      -3.279  50.863 -24.863  1.00  0.00     0.084 C 
HETATM    3  C12 UNL     1      -3.897  49.472 -24.715  1.00  0.00     0.147 C 
HETATM    4  C14 UNL     1      -3.244  48.468 -25.673  1.00  0.00     0.083 C 
HETATM    5  C15 UNL     1      -3.298  48.953 -27.121  1.00  0.00     0.152 C 
HETATM    6  C16 UNL     1      -2.707  50.362 -27.280  1.00  0.00     0.176 C 
ENDROOT
BRANCH   1   7
HETATM    7  O4  UNL     1      -2.585  52.605 -26.399  1.00  0.00    -0.310 OA
BRANCH   7   8
HETATM    8  C1  UNL     1      -1.263  52.511 -26.122  1.00  0.00     0.283 C 
HETATM    9  O1  UNL     1      -0.364  52.300 -26.919  1.00  0.00    -0.260 OA
BRANCH   8  10
HETATM   10  C2  UNL     1      -1.084  52.728 -24.672  1.00  0.00     0.083 C 
HETATM   11  C3  UNL     1      -0.255  51.937 -23.976  1.00  0.00     0.017 C 
BRANCH  11  12
HETATM   12  C4  UNL     1      -0.023  52.062 -22.531  1.00  0.00    -0.033 A 
HETATM   13  C5  UNL     1      -0.538  51.135 -21.608  1.00  0.00     0.014 A 
HETATM   14  C6  UNL     1      -0.324  51.297 -20.237  1.00  0.00     0.040 A 
HETATM   15  C7  UNL     1       0.400  52.392 -19.791  1.00  0.00     0.098 A 
HETATM   16  C8  UNL     1       0.906  53.326 -20.691  1.00  0.00     0.099 A 
HETATM   17  C9  UNL     1       0.695  53.172 -22.058  1.00  0.00     0.050 A 
BRANCH  15  18
HETATM   18  O2  UNL     1       0.609  52.551 -18.452  1.00  0.00    -0.358 OA
HETATM   19  H5  UNL     1       1.131  53.376 -18.383  1.00  0.00     0.217 HD
ENDBRANCH  15  18
BRANCH  16  20
HETATM   20  O3  UNL     1       1.606  54.384 -20.180  1.00  0.00    -0.358 OA
HETATM   21  H6  UNL     1       1.904  54.937 -20.923  1.00  0.00     0.217 HD
ENDBRANCH  16  20
ENDBRANCH  11  12
ENDBRANCH   8  10
ENDBRANCH   7   8
ENDBRANCH   1   7
BRANCH   6  22
HETATM   22  O9  UNL     1      -2.921  50.798 -28.631  1.00  0.00    -0.390 OA
HETATM   23  H18 UNL     1      -3.792  50.431 -28.889  1.00  0.00     0.210 HD
ENDBRANCH   6  22
BRANCH   3  24
HETATM   24  O5  UNL     1      -5.288  49.552 -25.062  1.00  0.00    -0.379 OA
HETATM   25  H11 UNL     1      -5.749  49.840 -24.245  1.00  0.00     0.211 HD
ENDBRANCH   3  24
BRANCH   3  26
HETATM   26  C13 UNL     1      -3.718  49.000 -23.264  1.00  0.00     0.176 C 
HETATM   27  O6  UNL     1      -2.994  48.107 -22.862  1.00  0.00    -0.648 OA
BRANCH  26  28
HETATM   28  O7  UNL     1      -4.454  49.739 -22.401  1.00  0.00    -0.774 OA
HETATM   29  H12 UNL     1      -4.254  49.351 -21.521  1.00  0.00     0.167 HD
ENDBRANCH  26  28
ENDBRANCH   3  26
BRANCH   5  30
HETATM   30  O8  UNL     1      -4.646  48.960 -27.614  1.00  0.00    -0.393 OA
HETATM   31  H16 UNL     1      -5.241  49.148 -26.854  1.00  0.00     0.210 HD
ENDBRANCH   5  30
TORSDOF 11
ENDMDL
MODEL 6
REMARK minimizedAffinity -7.0086894
REMARK CNNscore 0.440788776
REMARK CNNaffinity 4.32780886
REMARK  11 active torsions:
REMARK  status: ('A' for Active; 'I' for Inactive)
REMARK    1  A    between atoms: C1_2  and  C2_3 
REMARK    2  A    between atoms: C1_2  and  O4_13 
REMARK    3  A    between atoms: C3_4  and  C4_5 
REMARK    4  A    between atoms: C7_8  and  O2_9 
REMARK    5  A    between atoms: C8_10  and  O3_11 
REMARK    6  A    between atoms: O4_13  and  C10_14 
REMARK    7  A    between atoms: C12_16  and  O5_17 
REMARK    8  A    between atoms: C12_16  and  C13_18 
REMARK    9  A    between atoms: C13_18  and  O7_20 
REMARK   10  A    between atoms: C15_22  and  O8_23 
REMARK   11  A    between atoms: C16_24  and  O9_25 
ROOT
HETATM    1  C10 UNL     1      -7.891  47.818 -26.249  1.00  0.00     0.166 C 
HETATM    2  C11 UNL     1      -9.233  47.187 -25.862  1.00  0.00     0.084 C 
HETATM    3  C12 UNL     1     -10.382  47.687 -26.739  1.00  0.00     0.147 C 
HETATM    4  C14 UNL     1     -10.085  47.463 -28.227  1.00  0.00     0.083 C 
HETATM    5  C15 UNL     1      -8.753  48.089 -28.638  1.00  0.00     0.152 C 
HETATM    6  C16 UNL     1      -7.594  47.617 -27.746  1.00  0.00     0.176 C 
ENDROOT
BRANCH   1   7
HETATM    7  O4  UNL     1      -6.837  47.169 -25.500  1.00  0.00    -0.310 OA
BRANCH   7   8
HETATM    8  C1  UNL     1      -6.407  47.822 -24.394  1.00  0.00     0.283 C 
HETATM    9  O1  UNL     1      -6.816  47.674 -23.255  1.00  0.00    -0.260 OA
BRANCH   8  10
HETATM   10  C2  UNL     1      -5.330  48.747 -24.801  1.00  0.00     0.083 C 
HETATM   11  C3  UNL     1      -4.064  48.499 -24.436  1.00  0.00     0.017 C 
BRANCH  11  12
HETATM   12  C4  UNL     1      -2.928  49.365 -24.777  1.00  0.00    -0.033 A 
HETATM   13  C5  UNL     1      -2.451  49.490 -26.094  1.00  0.00     0.014 A 
HETATM   14  C6  UNL     1      -1.350  50.301 -26.381  1.00  0.00     0.040 A 
HETATM   15  C7  UNL     1      -0.722  50.979 -25.348  1.00  0.00     0.098 A 
HETATM   16  C8  UNL     1      -1.173  50.855 -24.037  1.00  0.00     0.099 A 
HETATM   17  C9  UNL     1      -2.268  50.048 -23.743  1.00  0.00     0.050 A 
BRANCH  15  18
HETATM   18  O2  UNL     1       0.354  51.770 -25.628  1.00  0.00    -0.358 OA
HETATM   19  H5  UNL     1       0.621  52.135 -24.760  1.00  0.00     0.217 HD
ENDBRANCH  15  18
BRANCH  16  20
HETATM   20  O3  UNL     1      -0.503  51.549 -23.068  1.00  0.00    -0.358 OA
HETATM   21  H6  UNL     1      -0.937  51.375 -22.215  1.00  0.00     0.217 HD
ENDBRANCH  16  20
ENDBRANCH  11  12
ENDBRANCH   8  10
ENDBRANCH   7   8
ENDBRANCH   1   7
BRANCH   6  22
HETATM   22  O9  UNL     1      -6.414  48.352 -28.104  1.00  0.00    -0.390 OA
HETATM   23  H18 UNL     1      -6.726  49.252 -28.334  1.00  0.00     0.210 HD
ENDBRANCH   6  22
BRANCH   3  24
HETATM   24  O5  UNL     1     -10.524  49.102 -26.541  1.00  0.00    -0.379 OA
HETATM   25  H11 UNL     1     -11.090  49.203 -25.746  1.00  0.00     0.211 HD
ENDBRANCH   3  24
BRANCH   3  26
HETATM   26  C13 UNL     1     -11.668  46.945 -26.346  1.00  0.00     0.176 C 
HETATM   27  O6  UNL     1     -12.064  45.876 -26.776  1.00  0.00    -0.648 OA
BRANCH  26  28
HETATM   28  O7  UNL     1     -12.354  47.604 -25.383  1.00  0.00    -0.774 OA
HETATM   29  H12 UNL     1     -13.138  47.037 -25.216  1.00  0.00     0.167 HD
ENDBRANCH  26  28
ENDBRANCH   3  26
BRANCH   5  30
HETATM   30  O8  UNL     1      -8.819  49.522 -28.589  1.00  0.00    -0.393 OA
HETATM   31  H16 UNL     1      -9.448  49.767 -27.873  1.00  0.00     0.210 HD
ENDBRANCH   5  30
TORSDOF 11
ENDMDL
MODEL 7
REMARK minimizedAffinity -7.4746623
REMARK CNNscore 0.43257907
REMARK CNNaffinity 4.93380737
REMARK  11 active torsions:
REMARK  status: ('A' for Active; 'I' for Inactive)
REMARK    1  A    between atoms: C1_2  and  C2_3 
REMARK    2  A    between atoms: C1_2  and  O4_13 
REMARK    3  A    between atoms: C3_4  and  C4_5 
REMARK    4  A    between atoms: C7_8  and  O2_9 
REMARK    5  A    between atoms: C8_10  and  O3_11 
REMARK    6  A    between atoms: O4_13  and  C10_14 
REMARK    7  A    between atoms: C12_16  and  O5_17 
REMARK    8  A    between atoms: C12_16  and  C13_18 
REMARK    9  A    between atoms: C13_18  and  O7_20 
REMARK   10  A    between atoms: C15_22  and  O8_23 
REMARK   11  A    between atoms: C16_24  and  O9_25 
ROOT
HETATM    1  C10 UNL     1      -3.571  48.839 -24.618  1.00  0.00     0.166 C 
HETATM    2  C11 UNL     1      -2.988  48.327 -23.296  1.00  0.00     0.084 C 
HETATM    3  C12 UNL     1      -3.969  48.480 -22.133  1.00  0.00     0.147 C 
HETATM    4  C14 UNL     1      -5.306  47.793 -22.438  1.00  0.00     0.083 C 
HETATM    5  C15 UNL     1      -5.911  48.292 -23.750  1.00  0.00     0.152 C 
HETATM    6  C16 UNL     1      -4.925  48.172 -24.922  1.00  0.00     0.176 C 
ENDROOT
BRANCH   1   7
HETATM    7  O4  UNL     1      -2.662  48.501 -25.692  1.00  0.00    -0.310 OA
BRANCH   7   8
HETATM    8  C1  UNL     1      -2.708  49.304 -26.781  1.00  0.00     0.283 C 
HETATM    9  O1  UNL     1      -3.310  49.090 -27.820  1.00  0.00    -0.260 OA
BRANCH   8  10
HETATM   10  C2  UNL     1      -1.909  50.511 -26.491  1.00  0.00     0.083 C 
HETATM   11  C3  UNL     1      -1.411  50.703 -25.261  1.00  0.00     0.017 C 
BRANCH  11  12
HETATM   12  C4  UNL     1      -0.620  51.877 -24.871  1.00  0.00    -0.033 A 
HETATM   13  C5  UNL     1       0.033  51.960 -23.629  1.00  0.00     0.014 A 
HETATM   14  C6  UNL     1       0.755  53.103 -23.275  1.00  0.00     0.040 A 
HETATM   15  C7  UNL     1       0.815  54.165 -24.163  1.00  0.00     0.098 A 
HETATM   16  C8  UNL     1       0.164  54.105 -25.391  1.00  0.00     0.099 A 
HETATM   17  C9  UNL     1      -0.560  52.971 -25.749  1.00  0.00     0.050 A 
BRANCH  15  18
HETATM   18  O2  UNL     1       1.520  55.282 -23.817  1.00  0.00    -0.358 OA
HETATM   19  H5  UNL     1       1.419  55.881 -24.585  1.00  0.00     0.217 HD
ENDBRANCH  15  18
BRANCH  16  20
HETATM   20  O3  UNL     1       0.262  55.192 -26.215  1.00  0.00    -0.358 OA
HETATM   21  H6  UNL     1      -0.230  54.999 -27.032  1.00  0.00     0.217 HD
ENDBRANCH  16  20
ENDBRANCH  11  12
ENDBRANCH   8  10
ENDBRANCH   7   8
ENDBRANCH   1   7
BRANCH   6  22
HETATM   22  O9  UNL     1      -5.513  48.785 -26.079  1.00  0.00    -0.390 OA
HETATM   23  H18 UNL     1      -6.020  49.551 -25.739  1.00  0.00     0.210 HD
ENDBRANCH   6  22
BRANCH   3  24
HETATM   24  O5  UNL     1      -4.240  49.878 -21.946  1.00  0.00    -0.379 OA
HETATM   25  H11 UNL     1      -3.516  50.215 -21.376  1.00  0.00     0.211 HD
ENDBRANCH   3  24
BRANCH   3  26
HETATM   26  C13 UNL     1      -3.344  47.868 -20.871  1.00  0.00     0.176 C 
HETATM   27  O6  UNL     1      -3.408  48.298 -19.733  1.00  0.00    -0.648 OA
BRANCH  26  28
HETATM   28  O7  UNL     1      -2.703  46.707 -21.140  1.00  0.00    -0.774 OA
HETATM   29  H12 UNL     1      -2.357  46.415 -20.268  1.00  0.00     0.167 HD
ENDBRANCH  26  28
ENDBRANCH   3  26
BRANCH   5  30
HETATM   30  O8  UNL     1      -6.329  49.661 -23.638  1.00  0.00    -0.393 OA
HETATM   31  H16 UNL     1      -5.727  50.106 -23.002  1.00  0.00     0.210 HD
ENDBRANCH   5  30
TORSDOF 11
ENDMDL
MODEL 8
REMARK minimizedAffinity -7.12792778
REMARK CNNscore 0.42651242
REMARK CNNaffinity 4.30461073
REMARK  11 active torsions:
REMARK  status: ('A' for Active; 'I' for Inactive)
REMARK    1  A    between atoms: C1_2  and  C2_3 
REMARK    2  A    between atoms: C1_2  and  O4_13 
REMARK    3  A    between atoms: C3_4  and  C4_5 
REMARK    4  A    between atoms: C7_8  and  O2_9 
REMARK    5  A    between atoms: C8_10  and  O3_11 
REMARK    6  A    between atoms: O4_13  and  C10_14 
REMARK    7  A    between atoms: C12_16  and  O5_17 
REMARK    8  A    between atoms: C12_16  and  C13_18 
REMARK    9  A    between atoms: C13_18  and  O7_20 
REMARK   10  A    between atoms: C15_22  and  O8_23 
REMARK   11  A    between atoms: C16_24  and  O9_25 
ROOT
HETATM    1  C10 UNL     1      -1.869  51.118 -19.625  1.00  0.00     0.166 C 
HETATM    2  C11 UNL     1      -0.705  51.631 -18.770  1.00  0.00     0.084 C 
HETATM    3  C12 UNL     1      -0.557  50.848 -17.464  1.00  0.00     0.147 C 
HETATM    4  C14 UNL     1      -0.414  49.344 -17.729  1.00  0.00     0.083 C 
HETATM    5  C15 UNL     1      -1.568  48.808 -18.576  1.00  0.00     0.152 C 
HETATM    6  C16 UNL     1      -1.747  49.604 -19.878  1.00  0.00     0.176 C 
ENDROOT
BRANCH   1   7
HETATM    7  O4  UNL     1      -1.834  51.783 -20.909  1.00  0.00    -0.310 OA
BRANCH   7   8
HETATM    8  C1  UNL     1      -0.797  51.458 -21.716  1.00  0.00     0.283 C 
HETATM    9  O1  UNL     1       0.331  51.153 -21.367  1.00  0.00    -0.260 OA
BRANCH   8  10
HETATM   10  C2  UNL     1      -1.271  51.516 -23.114  1.00  0.00     0.083 C 
HETATM   11  C3  UNL     1      -1.815  50.430 -23.680  1.00  0.00     0.017 C 
BRANCH  11  12
HETATM   12  C4  UNL     1      -2.300  50.383 -25.066  1.00  0.00    -0.033 A 
HETATM   13  C5  UNL     1      -2.952  49.255 -25.592  1.00  0.00     0.014 A 
HETATM   14  C6  UNL     1      -3.377  49.231 -26.924  1.00  0.00     0.040 A 
HETATM   15  C7  UNL     1      -3.139  50.335 -27.728  1.00  0.00     0.098 A 
HETATM   16  C8  UNL     1      -2.483  51.454 -27.226  1.00  0.00     0.099 A 
HETATM   17  C9  UNL     1      -2.055  51.485 -25.902  1.00  0.00     0.050 A 
BRANCH  15  18
HETATM   18  O2  UNL     1      -3.553  50.311 -29.029  1.00  0.00    -0.358 OA
HETATM   19  H5  UNL     1      -3.280  51.180 -29.387  1.00  0.00     0.217 HD
ENDBRANCH  15  18
BRANCH  16  20
HETATM   20  O3  UNL     1      -2.278  52.504 -28.079  1.00  0.00    -0.358 OA
HETATM   21  H6  UNL     1      -1.823  53.210 -27.586  1.00  0.00     0.217 HD
ENDBRANCH  16  20
ENDBRANCH  11  12
ENDBRANCH   8  10
ENDBRANCH   7   8
ENDBRANCH   1   7
BRANCH   6  22
HETATM   22  O9  UNL     1      -2.929  49.132 -20.543  1.00  0.00    -0.390 OA
HETATM   23  H18 UNL     1      -3.562  48.915 -19.828  1.00  0.00     0.210 HD
ENDBRANCH   6  22
BRANCH   3  24
HETATM   24  O5  UNL     1      -1.749  51.034 -16.685  1.00  0.00    -0.379 OA
HETATM   25  H11 UNL     1      -1.616  51.872 -16.193  1.00  0.00     0.211 HD
ENDBRANCH   3  24
BRANCH   3  26
HETATM   26  C13 UNL     1       0.678  51.365 -16.712  1.00  0.00     0.176 C 
HETATM   27  O6  UNL     1       1.283  52.403 -16.912  1.00  0.00    -0.648 OA
BRANCH  26  28
HETATM   28  O7  UNL     1       1.041  50.532 -15.709  1.00  0.00    -0.774 OA
HETATM   29  H12 UNL     1       1.825  50.967 -15.307  1.00  0.00     0.167 HD
ENDBRANCH  26  28
ENDBRANCH   3  26
BRANCH   5  30
HETATM   30  O8  UNL     1      -2.803  48.838 -17.844  1.00  0.00    -0.393 OA
HETATM   31  H16 UNL     1      -2.764  49.601 -17.224  1.00  0.00     0.210 HD
ENDBRANCH   5  30
TORSDOF 11
ENDMDL
MODEL 9
REMARK minimizedAffinity -7.77473354
REMARK CNNscore 0.426480085
REMARK CNNaffinity 4.73065233
REMARK  11 active torsions:
REMARK  status: ('A' for Active; 'I' for Inactive)
REMARK    1  A    between atoms: C1_2  and  C2_3 
REMARK    2  A    between atoms: C1_2  and  O4_13 
REMARK    3  A    between atoms: C3_4  and  C4_5 
REMARK    4  A    between atoms: C7_8  and  O2_9 
REMARK    5  A    between atoms: C8_10  and  O3_11 
REMARK    6  A    between atoms: O4_13  and  C10_14 
REMARK    7  A    between atoms: C12_16  and  O5_17 
REMARK    8  A    between atoms: C12_16  and  C13_18 
REMARK    9  A    between atoms: C13_18  and  O7_20 
REMARK   10  A    between atoms: C15_22  and  O8_23 
REMARK   11  A    between atoms: C16_24  and  O9_25 
ROOT
HETATM    1  C10 UNL     1       0.227  51.863 -18.076  1.00  0.00     0.166 C 
HETATM    2  C11 UNL     1       1.634  52.209 -17.576  1.00  0.00     0.084 C 
HETATM    3  C12 UNL     1       1.768  52.038 -16.062  1.00  0.00     0.147 C 
HETATM    4  C14 UNL     1       1.367  50.624 -15.623  1.00  0.00     0.083 C 
HETATM    5  C15 UNL     1      -0.036  50.259 -16.105  1.00  0.00     0.152 C 
HETATM    6  C16 UNL     1      -0.193  50.454 -17.621  1.00  0.00     0.176 C 
ENDROOT
BRANCH   1   7
HETATM    7  O4  UNL     1       0.229  51.877 -19.523  1.00  0.00    -0.310 OA
BRANCH   7   8
HETATM    8  C1  UNL     1       0.251  53.101 -20.103  1.00  0.00     0.283 C 
HETATM    9  O1  UNL     1       0.143  54.177 -19.539  1.00  0.00    -0.260 OA
BRANCH   8  10
HETATM   10  C2  UNL     1       0.448  52.914 -21.554  1.00  0.00     0.083 C 
HETATM   11  C3  UNL     1      -0.397  52.138 -22.249  1.00  0.00     0.017 C 
BRANCH  11  12
HETATM   12  C4  UNL     1      -0.275  51.878 -23.689  1.00  0.00    -0.033 A 
HETATM   13  C5  UNL     1      -1.233  51.132 -24.398  1.00  0.00     0.014 A 
HETATM   14  C6  UNL     1      -1.074  50.878 -25.763  1.00  0.00     0.040 A 
HETATM   15  C7  UNL     1       0.048  51.363 -26.414  1.00  0.00     0.098 A 
HETATM   16  C8  UNL     1       1.013  52.092 -25.725  1.00  0.00     0.099 A 
HETATM   17  C9  UNL     1       0.863  52.348 -24.364  1.00  0.00     0.050 A 
BRANCH  15  18
HETATM   18  O2  UNL     1       0.204  51.115 -27.748  1.00  0.00    -0.358 OA
HETATM   19  H5  UNL     1       1.052  51.546 -27.979  1.00  0.00     0.217 HD
ENDBRANCH  15  18
BRANCH  16  20
HETATM   20  O3  UNL     1       2.097  52.536 -26.430  1.00  0.00    -0.358 OA
HETATM   21  H6  UNL     1       2.671  53.034 -25.822  1.00  0.00     0.217 HD
ENDBRANCH  16  20
ENDBRANCH  11  12
ENDBRANCH   8  10
ENDBRANCH   7   8
ENDBRANCH   1   7
BRANCH   6  22
HETATM   22  O9  UNL     1      -1.567  50.227 -17.971  1.00  0.00    -0.390 OA
HETATM   23  H18 UNL     1      -2.089  50.575 -17.218  1.00  0.00     0.210 HD
ENDBRANCH   6  22
BRANCH   3  24
HETATM   24  O5  UNL     1       0.869  52.956 -15.419  1.00  0.00    -0.379 OA
HETATM   25  H11 UNL     1       1.354  53.806 -15.363  1.00  0.00     0.211 HD
ENDBRANCH   3  24
BRANCH   3  26
HETATM   26  C13 UNL     1       3.222  52.318 -15.656  1.00  0.00     0.176 C 
HETATM   27  O6  UNL     1       4.197  52.361 -16.387  1.00  0.00    -0.648 OA
BRANCH  26  28
HETATM   28  O7  UNL     1       3.335  52.573 -14.332  1.00  0.00    -0.774 OA
HETATM   29  H12 UNL     1       4.294  52.739 -14.200  1.00  0.00     0.167 HD
ENDBRANCH  26  28
ENDBRANCH   3  26
BRANCH   5  30
HETATM   30  O8  UNL     1      -1.034  51.044 -15.434  1.00  0.00    -0.393 OA
HETATM   31  H16 UNL     1      -0.635  51.919 -15.227  1.00  0.00     0.210 HD
ENDBRANCH   5  30
TORSDOF 11
ENDMDL
