MODEL 1
REMARK minimizedAffinity -9.29787636
REMARK  10 active torsions:
REMARK  status: ('A' for Active; 'I' for Inactive)
REMARK    1  A    between atoms: C2_2  and  C3_3 
REMARK    2  A    between atoms: C5_5  and  C6_6 
REMARK    3  A    between atoms: C6_6  and  C7_7 
REMARK    4  A    between atoms: C13_13  and  C15_15 
REMARK    5  A    between atoms: C15_15  and  O1_16 
REMARK    6  A    between atoms: O1_16  and  C16_17 
REMARK    7  A    between atoms: C17_19  and  C18_20 
REMARK    8  A    between atoms: C18_20  and  O3_21 
REMARK    9  A    between atoms: C19_22  and  O4_23 
REMARK   10  A    between atoms: C20_24  and  O5_25 
ROOT
HETATM    1  C7  UNL     1      -2.682  50.280 -24.853  1.00  0.00     0.025 C 
HETATM    2  C8  UNL     1      -3.867  51.033 -24.236  1.00  0.00    -0.084 C 
HETATM    3  C9  UNL     1      -5.102  50.539 -24.033  1.00  0.00     0.015 C 
HETATM    4  C10 UNL     1      -3.573  52.437 -23.765  1.00  0.00     0.034 C 
HETATM    5  C11 UNL     1      -2.079  52.749 -23.758  1.00  0.00     0.010 C 
HETATM    6  C12 UNL     1      -1.480  52.592 -25.171  1.00  0.00     0.005 C 
HETATM    7  C13 UNL     1       0.031  53.018 -25.251  1.00  0.00    -0.018 C 
HETATM    8  C14 UNL     1       0.149  54.556 -25.075  1.00  0.00     0.018 C 
HETATM    9  C21 UNL     1       0.547  52.698 -26.671  1.00  0.00     0.012 C 
HETATM   10  C22 UNL     1       0.482  51.225 -27.042  1.00  0.00     0.002 C 
HETATM   11  C23 UNL     1      -0.580  50.418 -26.303  1.00  0.00     0.010 C 
HETATM   12  C24 UNL     1      -1.846  51.195 -25.856  1.00  0.00    -0.032 C 
HETATM   13  C25 UNL     1      -2.665  51.520 -27.136  1.00  0.00     0.016 C 
ENDROOT
BRANCH   7  14
HETATM   14  C15 UNL     1       0.914  52.360 -24.155  1.00  0.00     0.180 C 
BRANCH  14  15
HETATM   15  O1  UNL     1       0.107  51.985 -23.038  1.00  0.00    -0.358 OA
BRANCH  15  16
HETATM   16  C16 UNL     1       0.817  52.061 -21.803  1.00  0.00     0.291 C 
HETATM   17  O2  UNL     1       0.274  51.147 -20.828  1.00  0.00    -0.348 OA
HETATM   18  C17 UNL     1      -0.183  51.928 -19.716  1.00  0.00     0.179 C 
HETATM   19  C19 UNL     1       0.639  53.206 -19.743  1.00  0.00     0.182 C 
HETATM   20  C20 UNL     1       0.683  53.480 -21.229  1.00  0.00     0.204 C 
BRANCH  18  21
HETATM   21  C18 UNL     1      -0.022  51.158 -18.410  1.00  0.00     0.198 C 
BRANCH  21  22
HETATM   22  O3  UNL     1       0.752  51.911 -17.478  1.00  0.00    -0.398 OA
HETATM   23  H27 UNL     1       0.827  51.364 -16.674  1.00  0.00     0.209 HD
ENDBRANCH  21  22
ENDBRANCH  18  21
BRANCH  19  24
HETATM   24  O4  UNL     1       0.051  54.283 -19.023  1.00  0.00    -0.390 OA
HETATM   25  H29 UNL     1      -0.178  53.920 -18.140  1.00  0.00     0.210 HD
ENDBRANCH  19  24
BRANCH  20  26
HETATM   26  O5  UNL     1       1.776  54.334 -21.562  1.00  0.00    -0.388 OA
HETATM   27  H31 UNL     1       1.634  55.156 -21.052  1.00  0.00     0.210 HD
ENDBRANCH  20  26
ENDBRANCH  15  16
ENDBRANCH  14  15
ENDBRANCH   7  14
BRANCH   1  28
HETATM   28  C6  UNL     1      -2.973  48.814 -25.321  1.00  0.00     0.037 C 
BRANCH  28  29
HETATM   29  C5  UNL     1      -3.441  48.612 -26.740  1.00  0.00    -0.019 C 
HETATM   30  C3  UNL     1      -4.659  48.210 -27.162  1.00  0.00    -0.067 C 
HETATM   31  C4  UNL     1      -5.818  47.931 -26.239  1.00  0.00     0.048 C 
BRANCH  30  32
HETATM   32  C2  UNL     1      -4.877  48.044 -28.597  1.00  0.00    -0.004 C 
HETATM   33  C1  UNL     1      -6.056  48.049 -29.234  1.00  0.00     0.012 C 
ENDBRANCH  30  32
ENDBRANCH  28  29
ENDBRANCH   1  28
TORSDOF 10
ENDMDL
MODEL 2
REMARK minimizedAffinity -8.83198643
REMARK  10 active torsions:
REMARK  status: ('A' for Active; 'I' for Inactive)
REMARK    1  A    between atoms: C2_2  and  C3_3 
REMARK    2  A    between atoms: C5_5  and  C6_6 
REMARK    3  A    between atoms: C6_6  and  C7_7 
REMARK    4  A    between atoms: C13_13  and  C15_15 
REMARK    5  A    between atoms: C15_15  and  O1_16 
REMARK    6  A    between atoms: O1_16  and  C16_17 
REMARK    7  A    between atoms: C17_19  and  C18_20 
REMARK    8  A    between atoms: C18_20  and  O3_21 
REMARK    9  A    between atoms: C19_22  and  O4_23 
REMARK   10  A    between atoms: C20_24  and  O5_25 
ROOT
HETATM    1  C7  UNL     1      -1.182  49.667 -21.676  1.00  0.00     0.025 C 
HETATM    2  C8  UNL     1      -0.764  50.997 -21.036  1.00  0.00    -0.084 C 
HETATM    3  C9  UNL     1      -0.169  51.150 -19.839  1.00  0.00     0.015 C 
HETATM    4  C10 UNL     1      -0.998  52.228 -21.879  1.00  0.00     0.034 C 
HETATM    5  C11 UNL     1      -1.371  51.886 -23.319  1.00  0.00     0.010 C 
HETATM    6  C12 UNL     1      -2.656  51.033 -23.364  1.00  0.00     0.005 C 
HETATM    7  C13 UNL     1      -3.157  50.752 -24.827  1.00  0.00    -0.018 C 
HETATM    8  C14 UNL     1      -3.683  52.069 -25.461  1.00  0.00     0.018 C 
HETATM    9  C21 UNL     1      -4.365  49.793 -24.746  1.00  0.00     0.012 C 
HETATM   10  C22 UNL     1      -4.050  48.443 -24.119  1.00  0.00     0.002 C 
HETATM   11  C23 UNL     1      -2.872  48.440 -23.150  1.00  0.00     0.010 C 
HETATM   12  C24 UNL     1      -2.602  49.766 -22.392  1.00  0.00    -0.032 C 
HETATM   13  C25 UNL     1      -3.744  49.946 -21.353  1.00  0.00     0.016 C 
ENDROOT
BRANCH   7  14
HETATM   14  C15 UNL     1      -2.047  50.202 -25.764  1.00  0.00     0.180 C 
BRANCH  14  15
HETATM   15  O1  UNL     1      -2.213  50.731 -27.081  1.00  0.00    -0.358 OA
BRANCH  15  16
HETATM   16  C16 UNL     1      -1.023  51.338 -27.578  1.00  0.00     0.291 C 
HETATM   17  O2  UNL     1       0.155  50.734 -27.004  1.00  0.00    -0.348 OA
HETATM   18  C17 UNL     1       0.859  51.760 -26.292  1.00  0.00     0.179 C 
HETATM   19  C19 UNL     1       0.459  53.070 -26.952  1.00  0.00     0.182 C 
HETATM   20  C20 UNL     1      -1.014  52.824 -27.191  1.00  0.00     0.204 C 
BRANCH  18  21
HETATM   21  C18 UNL     1       2.364  51.518 -26.341  1.00  0.00     0.198 C 
BRANCH  21  22
HETATM   22  O3  UNL     1       2.820  51.473 -27.692  1.00  0.00    -0.398 OA
HETATM   23  H27 UNL     1       3.780  51.307 -27.656  1.00  0.00     0.209 HD
ENDBRANCH  21  22
ENDBRANCH  18  21
BRANCH  19  24
HETATM   24  O4  UNL     1       0.680  54.214 -26.137  1.00  0.00    -0.390 OA
HETATM   25  H29 UNL     1       1.606  54.142 -25.820  1.00  0.00     0.210 HD
ENDBRANCH  19  24
BRANCH  20  26
HETATM   26  O5  UNL     1      -1.518  53.683 -28.213  1.00  0.00    -0.388 OA
HETATM   27  H31 UNL     1      -1.355  54.593 -27.898  1.00  0.00     0.210 HD
ENDBRANCH  20  26
ENDBRANCH  15  16
ENDBRANCH  14  15
ENDBRANCH   7  14
BRANCH   1  28
HETATM   28  C6  UNL     1      -0.919  48.384 -20.818  1.00  0.00     0.037 C 
BRANCH  28  29
HETATM   29  C5  UNL     1      -1.394  48.390 -19.386  1.00  0.00    -0.019 C 
HETATM   30  C3  UNL     1      -2.405  47.677 -18.846  1.00  0.00    -0.067 C 
HETATM   31  C4  UNL     1      -3.231  46.675 -19.612  1.00  0.00     0.048 C 
BRANCH  30  32
HETATM   32  C2  UNL     1      -2.715  47.874 -17.431  1.00  0.00    -0.004 C 
HETATM   33  C1  UNL     1      -1.877  48.306 -16.480  1.00  0.00     0.012 C 
ENDBRANCH  30  32
ENDBRANCH  28  29
ENDBRANCH   1  28
TORSDOF 10
ENDMDL
MODEL 3
REMARK minimizedAffinity -8.82217026
REMARK  10 active torsions:
REMARK  status: ('A' for Active; 'I' for Inactive)
REMARK    1  A    between atoms: C2_2  and  C3_3 
REMARK    2  A    between atoms: C5_5  and  C6_6 
REMARK    3  A    between atoms: C6_6  and  C7_7 
REMARK    4  A    between atoms: C13_13  and  C15_15 
REMARK    5  A    between atoms: C15_15  and  O1_16 
REMARK    6  A    between atoms: O1_16  and  C16_17 
REMARK    7  A    between atoms: C17_19  and  C18_20 
REMARK    8  A    between atoms: C18_20  and  O3_21 
REMARK    9  A    between atoms: C19_22  and  O4_23 
REMARK   10  A    between atoms: C20_24  and  O5_25 
ROOT
HETATM    1  C7  UNL     1      -3.655  48.803 -23.582  1.00  0.00     0.025 C 
HETATM    2  C8  UNL     1      -3.513  48.023 -22.269  1.00  0.00    -0.084 C 
HETATM    3  C9  UNL     1      -4.229  46.944 -21.905  1.00  0.00     0.015 C 
HETATM    4  C10 UNL     1      -2.415  48.496 -21.346  1.00  0.00     0.034 C 
HETATM    5  C11 UNL     1      -1.485  49.503 -22.015  1.00  0.00     0.010 C 
HETATM    6  C12 UNL     1      -2.270  50.745 -22.487  1.00  0.00     0.005 C 
HETATM    7  C13 UNL     1      -1.345  51.872 -23.076  1.00  0.00    -0.018 C 
HETATM    8  C14 UNL     1      -0.500  52.502 -21.935  1.00  0.00     0.018 C 
HETATM    9  C21 UNL     1      -2.248  52.997 -23.625  1.00  0.00     0.012 C 
HETATM   10  C22 UNL     1      -3.180  52.560 -24.745  1.00  0.00     0.002 C 
HETATM   11  C23 UNL     1      -3.544  51.079 -24.741  1.00  0.00     0.010 C 
HETATM   12  C24 UNL     1      -3.559  50.378 -23.358  1.00  0.00    -0.032 C 
HETATM   13  C25 UNL     1      -4.794  50.913 -22.582  1.00  0.00     0.016 C 
ENDROOT
BRANCH   7  14
HETATM   14  C15 UNL     1      -0.351  51.353 -24.151  1.00  0.00     0.180 C 
BRANCH  14  15
HETATM   15  O1  UNL     1       0.900  52.031 -24.026  1.00  0.00    -0.358 OA
BRANCH  15  16
HETATM   16  C16 UNL     1       1.315  52.639 -25.247  1.00  0.00     0.291 C 
HETATM   17  O2  UNL     1       0.321  53.563 -25.738  1.00  0.00    -0.348 OA
HETATM   18  C17 UNL     1      -0.104  53.091 -27.024  1.00  0.00     0.179 C 
HETATM   19  C19 UNL     1       1.055  52.271 -27.568  1.00  0.00     0.182 C 
HETATM   20  C20 UNL     1       1.500  51.551 -26.316  1.00  0.00     0.204 C 
BRANCH  18  21
HETATM   21  C18 UNL     1      -0.472  54.258 -27.935  1.00  0.00     0.198 C 
BRANCH  21  22
HETATM   22  O3  UNL     1      -1.812  54.123 -28.404  1.00  0.00    -0.398 OA
HETATM   23  H27 UNL     1      -1.981  54.888 -28.984  1.00  0.00     0.209 HD
ENDBRANCH  21  22
ENDBRANCH  18  21
BRANCH  19  24
HETATM   24  O4  UNL     1       0.683  51.364 -28.598  1.00  0.00    -0.390 OA
HETATM   25  H29 UNL     1       0.169  51.892 -29.247  1.00  0.00     0.210 HD
ENDBRANCH  19  24
BRANCH  20  26
HETATM   26  O5  UNL     1       2.847  51.095 -26.437  1.00  0.00    -0.388 OA
HETATM   27  H31 UNL     1       2.856  50.501 -27.213  1.00  0.00     0.210 HD
ENDBRANCH  20  26
ENDBRANCH  15  16
ENDBRANCH  14  15
ENDBRANCH   7  14
BRANCH   1  28
HETATM   28  C6  UNL     1      -4.775  48.302 -24.555  1.00  0.00     0.037 C 
BRANCH  28  29
HETATM   29  C5  UNL     1      -4.486  48.344 -26.035  1.00  0.00    -0.019 C 
HETATM   30  C3  UNL     1      -5.312  48.009 -27.050  1.00  0.00    -0.067 C 
HETATM   31  C4  UNL     1      -6.739  47.563 -26.861  1.00  0.00     0.048 C 
BRANCH  30  32
HETATM   32  C2  UNL     1      -4.801  48.092 -28.416  1.00  0.00    -0.004 C 
HETATM   33  C1  UNL     1      -5.524  48.083 -29.544  1.00  0.00     0.012 C 
ENDBRANCH  30  32
ENDBRANCH  28  29
ENDBRANCH   1  28
TORSDOF 10
ENDMDL
MODEL 4
REMARK minimizedAffinity -8.71547127
REMARK  10 active torsions:
REMARK  status: ('A' for Active; 'I' for Inactive)
REMARK    1  A    between atoms: C2_2  and  C3_3 
REMARK    2  A    between atoms: C5_5  and  C6_6 
REMARK    3  A    between atoms: C6_6  and  C7_7 
REMARK    4  A    between atoms: C13_13  and  C15_15 
REMARK    5  A    between atoms: C15_15  and  O1_16 
REMARK    6  A    between atoms: O1_16  and  C16_17 
REMARK    7  A    between atoms: C17_19  and  C18_20 
REMARK    8  A    between atoms: C18_20  and  O3_21 
REMARK    9  A    between atoms: C19_22  and  O4_23 
REMARK   10  A    between atoms: C20_24  and  O5_25 
ROOT
HETATM    1  C7  UNL     1      -2.380  49.960 -25.855  1.00  0.00     0.025 C 
HETATM    2  C8  UNL     1      -3.374  48.832 -26.159  1.00  0.00    -0.084 C 
HETATM    3  C9  UNL     1      -3.656  48.329 -27.374  1.00  0.00     0.015 C 
HETATM    4  C10 UNL     1      -4.037  48.206 -24.956  1.00  0.00     0.034 C 
HETATM    5  C11 UNL     1      -3.394  48.644 -23.643  1.00  0.00     0.010 C 
HETATM    6  C12 UNL     1      -3.472  50.176 -23.478  1.00  0.00     0.005 C 
HETATM    7  C13 UNL     1      -2.934  50.674 -22.088  1.00  0.00    -0.018 C 
HETATM    8  C14 UNL     1      -3.909  50.231 -20.962  1.00  0.00     0.018 C 
HETATM    9  C21 UNL     1      -2.946  52.218 -22.093  1.00  0.00     0.012 C 
HETATM   10  C22 UNL     1      -2.062  52.846 -23.160  1.00  0.00     0.002 C 
HETATM   11  C23 UNL     1      -1.814  51.976 -24.387  1.00  0.00     0.010 C 
HETATM   12  C24 UNL     1      -2.937  50.972 -24.757  1.00  0.00    -0.032 C 
HETATM   13  C25 UNL     1      -4.133  51.797 -25.307  1.00  0.00     0.016 C 
ENDROOT
BRANCH   7  14
HETATM   14  C15 UNL     1      -1.532  50.110 -21.731  1.00  0.00     0.180 C 
BRANCH  14  15
HETATM   15  O1  UNL     1      -1.381  50.038 -20.312  1.00  0.00    -0.358 OA
BRANCH  15  16
HETATM   16  C16 UNL     1      -0.109  50.512 -19.875  1.00  0.00     0.291 C 
HETATM   17  O2  UNL     1      -0.025  50.540 -18.435  1.00  0.00    -0.348 OA
HETATM   18  C17 UNL     1       0.204  51.901 -18.045  1.00  0.00     0.179 C 
HETATM   19  C19 UNL     1       0.875  52.565 -19.237  1.00  0.00     0.182 C 
HETATM   20  C20 UNL     1       0.093  51.950 -20.376  1.00  0.00     0.204 C 
BRANCH  18  21
HETATM   21  C18 UNL     1       1.059  51.966 -16.784  1.00  0.00     0.198 C 
BRANCH  21  22
HETATM   22  O3  UNL     1       1.437  53.313 -16.505  1.00  0.00    -0.398 OA
HETATM   23  H27 UNL     1       1.986  53.286 -15.700  1.00  0.00     0.209 HD
ENDBRANCH  21  22
ENDBRANCH  18  21
BRANCH  19  24
HETATM   24  O4  UNL     1       0.779  53.983 -19.233  1.00  0.00    -0.390 OA
HETATM   25  H29 UNL     1       1.074  54.269 -18.342  1.00  0.00     0.210 HD
ENDBRANCH  19  24
BRANCH  20  26
HETATM   26  O5  UNL     1       0.822  52.030 -21.601  1.00  0.00    -0.388 OA
HETATM   27  H31 UNL     1       0.983  52.982 -21.751  1.00  0.00     0.210 HD
ENDBRANCH  20  26
ENDBRANCH  15  16
ENDBRANCH  14  15
ENDBRANCH   7  14
BRANCH   1  28
HETATM   28  C6  UNL     1      -1.669  50.597 -27.096  1.00  0.00     0.037 C 
BRANCH  28  29
HETATM   29  C5  UNL     1      -0.180  50.820 -27.013  1.00  0.00    -0.019 C 
HETATM   30  C3  UNL     1       0.522  51.892 -27.440  1.00  0.00    -0.067 C 
HETATM   31  C4  UNL     1      -0.104  53.118 -28.054  1.00  0.00     0.048 C 
BRANCH  30  32
HETATM   32  C2  UNL     1       1.975  51.874 -27.289  1.00  0.00    -0.004 C 
HETATM   33  C1  UNL     1       2.678  51.191 -26.376  1.00  0.00     0.012 C 
ENDBRANCH  30  32
ENDBRANCH  28  29
ENDBRANCH   1  28
TORSDOF 10
ENDMDL
MODEL 5
REMARK minimizedAffinity -8.56150818
REMARK  10 active torsions:
REMARK  status: ('A' for Active; 'I' for Inactive)
REMARK    1  A    between atoms: C2_2  and  C3_3 
REMARK    2  A    between atoms: C5_5  and  C6_6 
REMARK    3  A    between atoms: C6_6  and  C7_7 
REMARK    4  A    between atoms: C13_13  and  C15_15 
REMARK    5  A    between atoms: C15_15  and  O1_16 
REMARK    6  A    between atoms: O1_16  and  C16_17 
REMARK    7  A    between atoms: C17_19  and  C18_20 
REMARK    8  A    between atoms: C18_20  and  O3_21 
REMARK    9  A    between atoms: C19_22  and  O4_23 
REMARK   10  A    between atoms: C20_24  and  O5_25 
ROOT
HETATM    1  C7  UNL     1      -2.560  49.743 -20.806  1.00  0.00     0.025 C 
HETATM    2  C8  UNL     1      -3.426  49.731 -19.541  1.00  0.00    -0.084 C 
HETATM    3  C9  UNL     1      -2.986  49.586 -18.278  1.00  0.00     0.015 C 
HETATM    4  C10 UNL     1      -4.901  49.970 -19.759  1.00  0.00     0.034 C 
HETATM    5  C11 UNL     1      -5.213  50.435 -21.178  1.00  0.00     0.010 C 
HETATM    6  C12 UNL     1      -4.748  49.390 -22.213  1.00  0.00     0.005 C 
HETATM    7  C13 UNL     1      -5.151  49.759 -23.687  1.00  0.00    -0.018 C 
HETATM    8  C14 UNL     1      -6.691  49.638 -23.852  1.00  0.00     0.018 C 
HETATM    9  C21 UNL     1      -4.526  48.712 -24.634  1.00  0.00     0.012 C 
HETATM   10  C22 UNL     1      -3.006  48.660 -24.591  1.00  0.00     0.002 C 
HETATM   11  C23 UNL     1      -2.380  49.130 -23.282  1.00  0.00     0.010 C 
HETATM   12  C24 UNL     1      -3.232  48.930 -22.001  1.00  0.00    -0.032 C 
HETATM   13  C25 UNL     1      -3.261  47.406 -21.699  1.00  0.00     0.016 C 
ENDROOT
BRANCH   7  14
HETATM   14  C15 UNL     1      -4.758  51.207 -24.088  1.00  0.00     0.180 C 
BRANCH  14  15
HETATM   15  O1  UNL     1      -3.953  51.185 -25.268  1.00  0.00    -0.358 OA
BRANCH  15  16
HETATM   16  C16 UNL     1      -3.137  52.347 -25.393  1.00  0.00     0.291 C 
HETATM   17  O2  UNL     1      -2.797  52.605 -26.771  1.00  0.00    -0.348 OA
HETATM   18  C17 UNL     1      -1.368  52.544 -26.879  1.00  0.00     0.179 C 
HETATM   19  C19 UNL     1      -0.835  52.876 -25.494  1.00  0.00     0.182 C 
HETATM   20  C20 UNL     1      -1.824  52.128 -24.627  1.00  0.00     0.204 C 
BRANCH  18  21
HETATM   21  C18 UNL     1      -0.863  53.510 -27.945  1.00  0.00     0.198 C 
BRANCH  21  22
HETATM   22  O3  UNL     1      -1.938  54.293 -28.460  1.00  0.00    -0.398 OA
HETATM   23  H27 UNL     1      -1.554  54.879 -29.139  1.00  0.00     0.209 HD
ENDBRANCH  21  22
ENDBRANCH  18  21
BRANCH  19  24
HETATM   24  O4  UNL     1       0.500  52.438 -25.272  1.00  0.00    -0.390 OA
HETATM   25  H29 UNL     1       1.019  52.766 -26.038  1.00  0.00     0.210 HD
ENDBRANCH  19  24
BRANCH  20  26
HETATM   26  O5  UNL     1      -1.843  52.654 -23.301  1.00  0.00    -0.388 OA
HETATM   27  H31 UNL     1      -0.931  52.558 -22.965  1.00  0.00     0.210 HD
ENDBRANCH  20  26
ENDBRANCH  15  16
ENDBRANCH  14  15
ENDBRANCH   7  14
BRANCH   1  28
HETATM   28  C6  UNL     1      -1.026  49.521 -20.585  1.00  0.00     0.037 C 
BRANCH  28  29
HETATM   29  C5  UNL     1      -0.090  50.621 -21.020  1.00  0.00    -0.019 C 
HETATM   30  C3  UNL     1       0.154  51.795 -20.400  1.00  0.00    -0.067 C 
HETATM   31  C4  UNL     1      -0.462  52.195 -19.083  1.00  0.00     0.048 C 
BRANCH  30  32
HETATM   32  C2  UNL     1       1.079  52.734 -21.030  1.00  0.00    -0.004 C 
HETATM   33  C1  UNL     1       1.156  54.054 -20.810  1.00  0.00     0.012 C 
ENDBRANCH  30  32
ENDBRANCH  28  29
ENDBRANCH   1  28
TORSDOF 10
ENDMDL
MODEL 6
REMARK minimizedAffinity -8.55277252
REMARK  10 active torsions:
REMARK  status: ('A' for Active; 'I' for Inactive)
REMARK    1  A    between atoms: C2_2  and  C3_3 
REMARK    2  A    between atoms: C5_5  and  C6_6 
REMARK    3  A    between atoms: C6_6  and  C7_7 
REMARK    4  A    between atoms: C13_13  and  C15_15 
REMARK    5  A    between atoms: C15_15  and  O1_16 
REMARK    6  A    between atoms: O1_16  and  C16_17 
REMARK    7  A    between atoms: C17_19  and  C18_20 
REMARK    8  A    between atoms: C18_20  and  O3_21 
REMARK    9  A    between atoms: C19_22  and  O4_23 
REMARK   10  A    between atoms: C20_24  and  O5_25 
ROOT
HETATM    1  C7  UNL     1      -5.359  48.374 -23.117  1.00  0.00     0.025 C 
HETATM    2  C8  UNL     1      -5.270  47.179 -22.158  1.00  0.00    -0.084 C 
HETATM    3  C9  UNL     1      -6.219  46.247 -21.961  1.00  0.00     0.015 C 
HETATM    4  C10 UNL     1      -3.956  47.026 -21.430  1.00  0.00     0.034 C 
HETATM    5  C11 UNL     1      -2.872  47.947 -21.982  1.00  0.00     0.010 C 
HETATM    6  C12 UNL     1      -3.300  49.425 -21.873  1.00  0.00     0.005 C 
HETATM    7  C13 UNL     1      -2.173  50.428 -22.315  1.00  0.00    -0.018 C 
HETATM    8  C14 UNL     1      -1.017  50.404 -21.278  1.00  0.00     0.018 C 
HETATM    9  C21 UNL     1      -2.760  51.856 -22.283  1.00  0.00     0.012 C 
HETATM   10  C22 UNL     1      -3.935  52.069 -23.225  1.00  0.00     0.002 C 
HETATM   11  C23 UNL     1      -4.730  50.812 -23.562  1.00  0.00     0.010 C 
HETATM   12  C24 UNL     1      -4.754  49.703 -22.478  1.00  0.00    -0.032 C 
HETATM   13  C25 UNL     1      -5.638  50.218 -21.308  1.00  0.00     0.016 C 
ENDROOT
BRANCH   7  14
HETATM   14  C15 UNL     1      -1.556  50.089 -23.699  1.00  0.00     0.180 C 
BRANCH  14  15
HETATM   15  O1  UNL     1      -0.733  51.169 -24.144  1.00  0.00    -0.358 OA
BRANCH  15  16
HETATM   16  C16 UNL     1      -0.678  51.262 -25.566  1.00  0.00     0.291 C 
HETATM   17  O2  UNL     1       0.657  51.019 -26.057  1.00  0.00    -0.348 OA
HETATM   18  C17 UNL     1       1.084  52.205 -26.742  1.00  0.00     0.179 C 
HETATM   19  C19 UNL     1      -0.189  52.897 -27.202  1.00  0.00     0.182 C 
HETATM   20  C20 UNL     1      -1.076  52.682 -25.996  1.00  0.00     0.204 C 
BRANCH  18  21
HETATM   21  C18 UNL     1       2.009  51.856 -27.903  1.00  0.00     0.198 C 
BRANCH  21  22
HETATM   22  O3  UNL     1       3.312  51.527 -27.423  1.00  0.00    -0.398 OA
HETATM   23  H27 UNL     1       3.854  51.326 -28.208  1.00  0.00     0.209 HD
ENDBRANCH  21  22
ENDBRANCH  18  21
BRANCH  19  24
HETATM   24  O4  UNL     1      -0.018  54.279 -27.493  1.00  0.00    -0.390 OA
HETATM   25  H29 UNL     1       0.757  54.331 -28.093  1.00  0.00     0.210 HD
ENDBRANCH  19  24
BRANCH  20  26
HETATM   26  O5  UNL     1      -2.454  52.807 -26.343  1.00  0.00    -0.388 OA
HETATM   27  H31 UNL     1      -2.555  53.710 -26.703  1.00  0.00     0.210 HD
ENDBRANCH  20  26
ENDBRANCH  15  16
ENDBRANCH  14  15
ENDBRANCH   7  14
BRANCH   1  28
HETATM   28  C6  UNL     1      -6.709  48.524 -23.895  1.00  0.00     0.037 C 
BRANCH  28  29
HETATM   29  C5  UNL     1      -6.741  48.072 -25.334  1.00  0.00    -0.019 C 
HETATM   30  C3  UNL     1      -5.715  48.025 -26.211  1.00  0.00    -0.067 C 
HETATM   31  C4  UNL     1      -4.294  48.388 -25.863  1.00  0.00     0.048 C 
BRANCH  30  32
HETATM   32  C2  UNL     1      -5.990  47.586 -27.577  1.00  0.00    -0.004 C 
HETATM   33  C1  UNL     1      -5.353  47.978 -28.688  1.00  0.00     0.012 C 
ENDBRANCH  30  32
ENDBRANCH  28  29
ENDBRANCH   1  28
TORSDOF 10
ENDMDL
MODEL 7
REMARK minimizedAffinity -8.47037697
REMARK  10 active torsions:
REMARK  status: ('A' for Active; 'I' for Inactive)
REMARK    1  A    between atoms: C2_2  and  C3_3 
REMARK    2  A    between atoms: C5_5  and  C6_6 
REMARK    3  A    between atoms: C6_6  and  C7_7 
REMARK    4  A    between atoms: C13_13  and  C15_15 
REMARK    5  A    between atoms: C15_15  and  O1_16 
REMARK    6  A    between atoms: O1_16  and  C16_17 
REMARK    7  A    between atoms: C17_19  and  C18_20 
REMARK    8  A    between atoms: C18_20  and  O3_21 
REMARK    9  A    between atoms: C19_22  and  O4_23 
REMARK   10  A    between atoms: C20_24  and  O5_25 
ROOT
HETATM    1  C7  UNL     1      -1.028  49.952 -21.332  1.00  0.00     0.025 C 
HETATM    2  C8  UNL     1      -0.487  51.340 -20.962  1.00  0.00    -0.084 C 
HETATM    3  C9  UNL     1       0.297  51.631 -19.909  1.00  0.00     0.015 C 
HETATM    4  C10 UNL     1      -0.833  52.451 -21.924  1.00  0.00     0.034 C 
HETATM    5  C11 UNL     1      -1.441  51.930 -23.223  1.00  0.00     0.010 C 
HETATM    6  C12 UNL     1      -2.732  51.132 -22.942  1.00  0.00     0.005 C 
HETATM    7  C13 UNL     1      -3.470  50.674 -24.253  1.00  0.00    -0.018 C 
HETATM    8  C14 UNL     1      -4.068  51.912 -24.975  1.00  0.00     0.018 C 
HETATM    9  C21 UNL     1      -4.665  49.785 -23.846  1.00  0.00     0.012 C 
HETATM   10  C22 UNL     1      -4.277  48.523 -23.091  1.00  0.00     0.002 C 
HETATM   11  C23 UNL     1      -2.957  48.604 -22.331  1.00  0.00     0.010 C 
HETATM   12  C24 UNL     1      -2.544  50.010 -21.821  1.00  0.00    -0.032 C 
HETATM   13  C25 UNL     1      -3.498  50.377 -20.651  1.00  0.00     0.016 C 
ENDROOT
BRANCH   7  14
HETATM   14  C15 UNL     1      -2.536  49.956 -25.265  1.00  0.00     0.180 C 
BRANCH  14  15
HETATM   15  O1  UNL     1      -1.247  50.571 -25.261  1.00  0.00    -0.358 OA
BRANCH  15  16
HETATM   16  C16 UNL     1      -0.623  50.537 -26.543  1.00  0.00     0.291 C 
HETATM   17  O2  UNL     1       0.794  50.788 -26.444  1.00  0.00    -0.348 OA
HETATM   18  C17 UNL     1       1.074  51.972 -27.203  1.00  0.00     0.179 C 
HETATM   19  C19 UNL     1      -0.028  52.063 -28.247  1.00  0.00     0.182 C 
HETATM   20  C20 UNL     1      -1.225  51.639 -27.427  1.00  0.00     0.204 C 
BRANCH  18  21
HETATM   21  C18 UNL     1       2.464  51.900 -27.827  1.00  0.00     0.198 C 
BRANCH  21  22
HETATM   22  O3  UNL     1       3.376  51.252 -26.943  1.00  0.00    -0.398 OA
HETATM   23  H27 UNL     1       4.242  51.247 -27.392  1.00  0.00     0.209 HD
ENDBRANCH  21  22
ENDBRANCH  18  21
BRANCH  19  24
HETATM   24  O4  UNL     1      -0.194  53.366 -28.794  1.00  0.00    -0.390 OA
HETATM   25  H29 UNL     1       0.702  53.657 -29.067  1.00  0.00     0.210 HD
ENDBRANCH  19  24
BRANCH  20  26
HETATM   26  O5  UNL     1      -2.285  51.180 -28.267  1.00  0.00    -0.388 OA
HETATM   27  H31 UNL     1      -2.502  51.932 -28.852  1.00  0.00     0.210 HD
ENDBRANCH  20  26
ENDBRANCH  15  16
ENDBRANCH  14  15
ENDBRANCH   7  14
BRANCH   1  28
HETATM   28  C6  UNL     1      -0.652  48.790 -20.353  1.00  0.00     0.037 C 
BRANCH  28  29
HETATM   29  C5  UNL     1      -1.615  48.477 -19.235  1.00  0.00    -0.019 C 
HETATM   30  C3  UNL     1      -1.456  48.713 -17.915  1.00  0.00    -0.067 C 
HETATM   31  C4  UNL     1      -0.255  49.404 -17.322  1.00  0.00     0.048 C 
BRANCH  30  32
HETATM   32  C2  UNL     1      -2.514  48.286 -17.002  1.00  0.00    -0.004 C 
HETATM   33  C1  UNL     1      -2.389  48.037 -15.692  1.00  0.00     0.012 C 
ENDBRANCH  30  32
ENDBRANCH  28  29
ENDBRANCH   1  28
TORSDOF 10
ENDMDL
MODEL 8
REMARK minimizedAffinity -8.45078945
REMARK  10 active torsions:
REMARK  status: ('A' for Active; 'I' for Inactive)
REMARK    1  A    between atoms: C2_2  and  C3_3 
REMARK    2  A    between atoms: C5_5  and  C6_6 
REMARK    3  A    between atoms: C6_6  and  C7_7 
REMARK    4  A    between atoms: C13_13  and  C15_15 
REMARK    5  A    between atoms: C15_15  and  O1_16 
REMARK    6  A    between atoms: O1_16  and  C16_17 
REMARK    7  A    between atoms: C17_19  and  C18_20 
REMARK    8  A    between atoms: C18_20  and  O3_21 
REMARK    9  A    between atoms: C19_22  and  O4_23 
REMARK   10  A    between atoms: C20_24  and  O5_25 
ROOT
HETATM    1  C7  UNL     1      -2.242  50.306 -21.392  1.00  0.00     0.025 C 
HETATM    2  C8  UNL     1      -1.432  49.051 -21.041  1.00  0.00    -0.084 C 
HETATM    3  C9  UNL     1      -0.610  48.905 -19.987  1.00  0.00     0.015 C 
HETATM    4  C10 UNL     1      -1.650  47.862 -21.947  1.00  0.00     0.034 C 
HETATM    5  C11 UNL     1      -2.833  48.057 -22.891  1.00  0.00     0.010 C 
HETATM    6  C12 UNL     1      -2.623  49.297 -23.784  1.00  0.00     0.005 C 
HETATM    7  C13 UNL     1      -3.753  49.479 -24.862  1.00  0.00    -0.018 C 
HETATM    8  C14 UNL     1      -3.644  48.355 -25.928  1.00  0.00     0.018 C 
HETATM    9  C21 UNL     1      -3.502  50.810 -25.603  1.00  0.00     0.012 C 
HETATM   10  C22 UNL     1      -3.542  52.040 -24.708  1.00  0.00     0.002 C 
HETATM   11  C23 UNL     1      -3.203  51.784 -23.243  1.00  0.00     0.010 C 
HETATM   12  C24 UNL     1      -2.234  50.608 -22.957  1.00  0.00    -0.032 C 
HETATM   13  C25 UNL     1      -0.822  51.043 -23.439  1.00  0.00     0.016 C 
ENDROOT
BRANCH   7  14
HETATM   14  C15 UNL     1      -5.187  49.411 -24.268  1.00  0.00     0.180 C 
BRANCH  14  15
HETATM   15  O1  UNL     1      -5.608  48.050 -24.165  1.00  0.00    -0.358 OA
BRANCH  15  16
HETATM   16  C16 UNL     1      -7.028  47.920 -24.131  1.00  0.00     0.291 C 
HETATM   17  O2  UNL     1      -7.503  47.060 -25.187  1.00  0.00    -0.348 OA
HETATM   18  C17 UNL     1      -8.374  47.840 -26.017  1.00  0.00     0.179 C 
HETATM   19  C19 UNL     1      -8.910  48.949 -25.126  1.00  0.00     0.182 C 
HETATM   20  C20 UNL     1      -7.666  49.302 -24.340  1.00  0.00     0.204 C 
BRANCH  18  21
HETATM   21  C18 UNL     1      -9.485  46.974 -26.602  1.00  0.00     0.198 C 
BRANCH  21  22
HETATM   22  O3  UNL     1     -10.280  47.729 -27.514  1.00  0.00    -0.398 OA
HETATM   23  H27 UNL     1     -10.973  47.127 -27.842  1.00  0.00     0.209 HD
ENDBRANCH  21  22
ENDBRANCH  18  21
BRANCH  19  24
HETATM   24  O4  UNL     1      -9.418  50.067 -25.843  1.00  0.00    -0.390 OA
HETATM   25  H29 UNL     1     -10.034  49.698 -26.512  1.00  0.00     0.210 HD
ENDBRANCH  19  24
BRANCH  20  26
HETATM   26  O5  UNL     1      -8.001  49.966 -23.122  1.00  0.00    -0.388 OA
HETATM   27  H31 UNL     1      -8.496  50.766 -23.384  1.00  0.00     0.210 HD
ENDBRANCH  20  26
ENDBRANCH  15  16
ENDBRANCH  14  15
ENDBRANCH   7  14
BRANCH   1  28
HETATM   28  C6  UNL     1      -2.041  51.534 -20.442  1.00  0.00     0.037 C 
BRANCH  28  29
HETATM   29  C5  UNL     1      -0.823  52.397 -20.660  1.00  0.00    -0.019 C 
HETATM   30  C3  UNL     1       0.150  52.695 -19.773  1.00  0.00    -0.067 C 
HETATM   31  C4  UNL     1       0.206  52.149 -18.369  1.00  0.00     0.048 C 
BRANCH  30  32
HETATM   32  C2  UNL     1       1.224  53.591 -20.197  1.00  0.00    -0.004 C 
HETATM   33  C1  UNL     1       1.431  54.067 -21.432  1.00  0.00     0.012 C 
ENDBRANCH  30  32
ENDBRANCH  28  29
ENDBRANCH   1  28
TORSDOF 10
ENDMDL
MODEL 9
REMARK minimizedAffinity -8.28680515
REMARK  10 active torsions:
REMARK  status: ('A' for Active; 'I' for Inactive)
REMARK    1  A    between atoms: C2_2  and  C3_3 
REMARK    2  A    between atoms: C5_5  and  C6_6 
REMARK    3  A    between atoms: C6_6  and  C7_7 
REMARK    4  A    between atoms: C13_13  and  C15_15 
REMARK    5  A    between atoms: C15_15  and  O1_16 
REMARK    6  A    between atoms: O1_16  and  C16_17 
REMARK    7  A    between atoms: C17_19  and  C18_20 
REMARK    8  A    between atoms: C18_20  and  O3_21 
REMARK    9  A    between atoms: C19_22  and  O4_23 
REMARK   10  A    between atoms: C20_24  and  O5_25 
ROOT
HETATM    1  C7  UNL     1      -2.623  49.559 -25.422  1.00  0.00     0.025 C 
HETATM    2  C8  UNL     1      -3.882  48.762 -25.783  1.00  0.00    -0.084 C 
HETATM    3  C9  UNL     1      -4.253  48.378 -27.017  1.00  0.00     0.015 C 
HETATM    4  C10 UNL     1      -4.733  48.326 -24.614  1.00  0.00     0.034 C 
HETATM    5  C11 UNL     1      -4.038  48.543 -23.273  1.00  0.00     0.010 C 
HETATM    6  C12 UNL     1      -3.689  50.032 -23.071  1.00  0.00     0.005 C 
HETATM    7  C13 UNL     1      -3.080  50.336 -21.654  1.00  0.00    -0.018 C 
HETATM    8  C14 UNL     1      -4.177  50.165 -20.567  1.00  0.00     0.018 C 
HETATM    9  C21 UNL     1      -2.659  51.822 -21.620  1.00  0.00     0.012 C 
HETATM   10  C22 UNL     1      -1.600  52.194 -22.646  1.00  0.00     0.002 C 
HETATM   11  C23 UNL     1      -1.564  51.310 -23.889  1.00  0.00     0.010 C 
HETATM   12  C24 UNL     1      -2.911  50.668 -24.314  1.00  0.00    -0.032 C 
HETATM   13  C25 UNL     1      -3.809  51.805 -24.875  1.00  0.00     0.016 C 
ENDROOT
BRANCH   7  14
HETATM   14  C15 UNL     1      -1.905  49.395 -21.275  1.00  0.00     0.180 C 
BRANCH  14  15
HETATM   15  O1  UNL     1      -0.945  50.105 -20.490  1.00  0.00    -0.358 OA
BRANCH  15  16
HETATM   16  C16 UNL     1      -1.298  50.154 -19.110  1.00  0.00     0.291 C 
HETATM   17  O2  UNL     1      -0.580  51.199 -18.421  1.00  0.00    -0.348 OA
HETATM   18  C17 UNL     1       0.205  50.575 -17.395  1.00  0.00     0.179 C 
HETATM   19  C19 UNL     1      -0.509  49.275 -17.062  1.00  0.00     0.182 C 
HETATM   20  C20 UNL     1      -0.924  48.822 -18.444  1.00  0.00     0.204 C 
BRANCH  18  21
HETATM   21  C18 UNL     1       0.341  51.492 -16.184  1.00  0.00     0.198 C 
BRANCH  21  22
HETATM   22  O3  UNL     1       1.683  51.959 -16.059  1.00  0.00    -0.398 OA
HETATM   23  H27 UNL     1       1.706  52.527 -15.267  1.00  0.00     0.209 HD
ENDBRANCH  21  22
ENDBRANCH  18  21
BRANCH  19  24
HETATM   24  O4  UNL     1       0.318  48.315 -16.416  1.00  0.00    -0.390 OA
HETATM   25  H29 UNL     1       0.746  48.790 -15.671  1.00  0.00     0.210 HD
ENDBRANCH  19  24
BRANCH  20  26
HETATM   26  O5  UNL     1      -2.007  47.895 -18.376  1.00  0.00    -0.388 OA
HETATM   27  H31 UNL     1      -1.681  47.147 -17.839  1.00  0.00     0.210 HD
ENDBRANCH  20  26
ENDBRANCH  15  16
ENDBRANCH  14  15
ENDBRANCH   7  14
BRANCH   1  28
HETATM   28  C6  UNL     1      -1.721  49.993 -26.627  1.00  0.00     0.037 C 
BRANCH  28  29
HETATM   29  C5  UNL     1      -0.337  50.505 -26.317  1.00  0.00    -0.019 C 
HETATM   30  C3  UNL     1       0.203  51.694 -26.661  1.00  0.00    -0.067 C 
HETATM   31  C4  UNL     1      -0.543  52.773 -27.404  1.00  0.00     0.048 C 
BRANCH  30  32
HETATM   32  C2  UNL     1       1.589  51.962 -26.284  1.00  0.00    -0.004 C 
HETATM   33  C1  UNL     1       2.689  51.499 -26.892  1.00  0.00     0.012 C 
ENDBRANCH  30  32
ENDBRANCH  28  29
ENDBRANCH   1  28
TORSDOF 10
ENDMDL
