MODEL 1
REMARK minimizedAffinity -7.20285702
REMARK CNNscore 0.381189346
REMARK CNNaffinity 5.88147879
REMARK  6 active torsions:
REMARK  status: ('A' for Active; 'I' for Inactive)
REMARK    1  A    between atoms: C3_3  and  C4_4 
REMARK    2  A    between atoms: C4_4  and  O2_6 
REMARK    3  A    between atoms: O2_6  and  C5_7 
REMARK    4  A    between atoms: C5_7  and  C6_8 
REMARK    5  A    between atoms: C6_8  and  C7_9 
REMARK    6  A    between atoms: C13_15  and  C14_16 
ROOT
HETATM    1  C1  UNL     1      -2.215   7.792  16.447  1.00  0.00     0.069 C 
HETATM    2  C2  UNL     1      -1.882   9.205  16.853  1.00  0.00     0.018 C 
HETATM    3  C3  UNL     1      -0.774   9.876  16.461  1.00  0.00     0.052 C 
HETATM    4  C13 UNL     1      -0.484  11.303  16.916  1.00  0.00     0.104 C 
HETATM    5  C23 UNL     1      -1.683  11.920  17.640  1.00  0.00     0.024 C 
HETATM    6  C24 UNL     1      -2.764  11.186  17.981  1.00  0.00     0.020 C 
HETATM    7  C25 UNL     1      -3.969  11.768  18.680  1.00  0.00     0.058 C 
HETATM    8  C26 UNL     1      -4.076  13.276  18.487  1.00  0.00     0.014 C 
HETATM    9  C27 UNL     1      -2.756  13.961  18.796  1.00  0.00     0.084 C 
HETATM   10  C28 UNL     1      -1.631  13.371  17.974  1.00  0.00     0.158 C 
HETATM   11  O5  UNL     1      -0.663  14.053  17.643  1.00  0.00    -0.293 OA
HETATM   12  N1  UNL     1      -2.815   9.842  17.659  1.00  0.00    -0.362 N 
HETATM   13  H24 UNL     1      -3.677   9.338  17.857  1.00  0.00     0.165 HD
ENDROOT
BRANCH   4  14
HETATM   14  C14 UNL     1       0.770  11.333  17.779  1.00  0.00     0.029 A 
HETATM   15  C15 UNL     1       1.963  11.821  17.405  1.00  0.00     0.154 A 
HETATM   16  O3  UNL     1       3.119  11.840  18.148  1.00  0.00    -0.321 OA
HETATM   17  C16 UNL     1       3.084  11.255  19.388  1.00  0.00     0.089 A 
HETATM   18  C17 UNL     1       4.275  11.225  20.114  1.00  0.00     0.040 A 
HETATM   19  C21 UNL     1       1.921  10.713  19.933  1.00  0.00     0.050 A 
HETATM   20  C18 UNL     1       4.296  10.649  21.387  1.00  0.00     0.026 A 
HETATM   21  C19 UNL     1       3.126  10.107  21.928  1.00  0.00     0.035 A 
HETATM   22 CL1  UNL     1       3.159   9.403  23.498  1.00  0.00    -0.084 Cl
HETATM   23  C20 UNL     1       1.934  10.136  21.207  1.00  0.00     0.042 A 
HETATM   24  C22 UNL     1       0.675  10.773  19.151  1.00  0.00     0.194 A 
HETATM   25  O4  UNL     1      -0.384  10.403  19.637  1.00  0.00    -0.287 OA
ENDBRANCH   4  14
BRANCH   3  26
HETATM   26  C4  UNL     1       0.227   9.247  15.581  1.00  0.00     0.292 C 
HETATM   27  O1  UNL     1       1.112   8.505  15.974  1.00  0.00    -0.259 OA
BRANCH  26  28
HETATM   28  O2  UNL     1      -0.010   9.635  14.306  1.00  0.00    -0.317 OA
BRANCH  28  29
HETATM   29  C5  UNL     1       0.926   9.132  13.343  1.00  0.00     0.183 C 
BRANCH  29  30
HETATM   30  C6  UNL     1       0.239   8.030  12.540  1.00  0.00     0.065 C 
BRANCH  30  31
HETATM   31  C7  UNL     1       0.622   8.065  11.083  1.00  0.00    -0.056 A 
HETATM   32  C8  UNL     1       1.912   7.690  10.679  1.00  0.00     0.007 A 
HETATM   33  C9  UNL     1       2.262   7.702   9.329  1.00  0.00     0.001 A 
HETATM   34  C10 UNL     1       1.327   8.088   8.369  1.00  0.00     0.000 A 
HETATM   35  C11 UNL     1       0.043   8.464   8.760  1.00  0.00     0.001 A 
HETATM   36  C12 UNL     1      -0.310   8.451  10.111  1.00  0.00     0.007 A 
ENDBRANCH  30  31
ENDBRANCH  29  30
ENDBRANCH  28  29
ENDBRANCH  26  28
ENDBRANCH   3  26
TORSDOF 6
ENDMDL
MODEL 2
REMARK minimizedAffinity -8.91804886
REMARK CNNscore 0.35508126
REMARK CNNaffinity 6.5330162
REMARK  6 active torsions:
REMARK  status: ('A' for Active; 'I' for Inactive)
REMARK    1  A    between atoms: C3_3  and  C4_4 
REMARK    2  A    between atoms: C4_4  and  O2_6 
REMARK    3  A    between atoms: O2_6  and  C5_7 
REMARK    4  A    between atoms: C5_7  and  C6_8 
REMARK    5  A    between atoms: C6_8  and  C7_9 
REMARK    6  A    between atoms: C13_15  and  C14_16 
ROOT
HETATM    1  C1  UNL     1      -5.216   7.312  15.758  1.00  0.00     0.069 C 
HETATM    2  C2  UNL     1      -3.943   8.088  15.536  1.00  0.00     0.018 C 
HETATM    3  C3  UNL     1      -3.421   8.377  14.322  1.00  0.00     0.052 C 
HETATM    4  C13 UNL     1      -2.118   9.155  14.161  1.00  0.00     0.104 C 
HETATM    5  C23 UNL     1      -1.644   9.744  15.492  1.00  0.00     0.024 C 
HETATM    6  C24 UNL     1      -2.232   9.421  16.663  1.00  0.00     0.020 C 
HETATM    7  C25 UNL     1      -1.798   9.997  17.990  1.00  0.00     0.058 C 
HETATM    8  C26 UNL     1      -1.042  11.311  17.829  1.00  0.00     0.014 C 
HETATM    9  C27 UNL     1       0.057  11.185  16.789  1.00  0.00     0.084 C 
HETATM   10  C28 UNL     1      -0.496  10.693  15.470  1.00  0.00     0.158 C 
HETATM   11  O5  UNL     1       0.028  11.015  14.404  1.00  0.00    -0.293 OA
HETATM   12  N1  UNL     1      -3.306   8.549  16.680  1.00  0.00    -0.362 N 
HETATM   13  H24 UNL     1      -3.776   8.391  17.569  1.00  0.00     0.165 HD
ENDROOT
BRANCH   4  14
HETATM   14  C14 UNL     1      -1.054   8.271  13.527  1.00  0.00     0.029 A 
HETATM   15  C15 UNL     1      -0.384   7.287  14.148  1.00  0.00     0.154 A 
HETATM   16  O3  UNL     1       0.598   6.490  13.611  1.00  0.00    -0.321 OA
HETATM   17  C16 UNL     1       0.987   6.743  12.321  1.00  0.00     0.089 A 
HETATM   18  C17 UNL     1       2.024   5.969  11.802  1.00  0.00     0.040 A 
HETATM   19  C21 UNL     1       0.383   7.720  11.531  1.00  0.00     0.050 A 
HETATM   20  C18 UNL     1       2.456   6.178  10.489  1.00  0.00     0.026 A 
HETATM   21  C19 UNL     1       1.846   7.160   9.703  1.00  0.00     0.035 A 
HETATM   22 CL1  UNL     1       2.380   7.409   8.086  1.00  0.00    -0.084 Cl
HETATM   23  C20 UNL     1       0.809   7.935  10.216  1.00  0.00     0.042 A 
HETATM   24  C22 UNL     1      -0.720   8.512  12.100  1.00  0.00     0.194 A 
HETATM   25  O4  UNL     1      -1.341   9.305  11.405  1.00  0.00    -0.287 OA
ENDBRANCH   4  14
BRANCH   3  26
HETATM   26  C4  UNL     1      -4.081   7.931  13.082  1.00  0.00     0.292 C 
HETATM   27  O1  UNL     1      -5.037   8.494  12.577  1.00  0.00    -0.259 OA
BRANCH  26  28
HETATM   28  O2  UNL     1      -3.452   6.820  12.630  1.00  0.00    -0.317 OA
BRANCH  28  29
HETATM   29  C5  UNL     1      -3.801   5.612  13.320  1.00  0.00     0.183 C 
BRANCH  29  30
HETATM   30  C6  UNL     1      -3.890   4.485  12.293  1.00  0.00     0.065 C 
BRANCH  30  31
HETATM   31  C7  UNL     1      -5.163   3.691  12.429  1.00  0.00    -0.056 A 
HETATM   32  C8  UNL     1      -6.170   4.111  13.310  1.00  0.00     0.007 A 
HETATM   33  C9  UNL     1      -7.359   3.389  13.422  1.00  0.00     0.001 A 
HETATM   34  C10 UNL     1      -7.552   2.241  12.654  1.00  0.00     0.000 A 
HETATM   35  C11 UNL     1      -6.557   1.814  11.777  1.00  0.00     0.001 A 
HETATM   36  C12 UNL     1      -5.367   2.537  11.662  1.00  0.00     0.007 A 
ENDBRANCH  30  31
ENDBRANCH  29  30
ENDBRANCH  28  29
ENDBRANCH  26  28
ENDBRANCH   3  26
TORSDOF 6
ENDMDL
MODEL 3
REMARK minimizedAffinity -8.23995495
REMARK CNNscore 0.331228673
REMARK CNNaffinity 6.30934286
REMARK  6 active torsions:
REMARK  status: ('A' for Active; 'I' for Inactive)
REMARK    1  A    between atoms: C3_3  and  C4_4 
REMARK    2  A    between atoms: C4_4  and  O2_6 
REMARK    3  A    between atoms: O2_6  and  C5_7 
REMARK    4  A    between atoms: C5_7  and  C6_8 
REMARK    5  A    between atoms: C6_8  and  C7_9 
REMARK    6  A    between atoms: C13_15  and  C14_16 
ROOT
HETATM    1  C1  UNL     1       4.337   7.764  13.850  1.00  0.00     0.069 C 
HETATM    2  C2  UNL     1       3.249   7.886  12.814  1.00  0.00     0.018 C 
HETATM    3  C3  UNL     1       1.987   8.299  13.070  1.00  0.00     0.052 C 
HETATM    4  C13 UNL     1       0.924   8.390  11.980  1.00  0.00     0.104 C 
HETATM    5  C23 UNL     1       1.525   8.194  10.587  1.00  0.00     0.024 C 
HETATM    6  C24 UNL     1       2.804   7.796  10.413  1.00  0.00     0.020 C 
HETATM    7  C25 UNL     1       3.431   7.610   9.052  1.00  0.00     0.058 C 
HETATM    8  C26 UNL     1       2.698   8.389   7.966  1.00  0.00     0.014 C 
HETATM    9  C27 UNL     1       1.202   8.138   8.028  1.00  0.00     0.084 C 
HETATM   10  C28 UNL     1       0.654   8.446   9.404  1.00  0.00     0.158 C 
HETATM   11  O5  UNL     1      -0.503   8.835   9.553  1.00  0.00    -0.293 OA
HETATM   12  N1  UNL     1       3.614   7.574  11.511  1.00  0.00    -0.362 N 
HETATM   13  H24 UNL     1       4.593   7.356  11.344  1.00  0.00     0.165 HD
ENDROOT
BRANCH   4  14
HETATM   14  C14 UNL     1      -0.195   7.395  12.255  1.00  0.00     0.029 A 
HETATM   15  C15 UNL     1      -0.109   6.063  12.110  1.00  0.00     0.154 A 
HETATM   16  O3  UNL     1      -1.106   5.142  12.325  1.00  0.00    -0.321 OA
HETATM   17  C16 UNL     1      -2.343   5.617  12.676  1.00  0.00     0.089 A 
HETATM   18  C17 UNL     1      -3.365   4.681  12.836  1.00  0.00     0.040 A 
HETATM   19  C21 UNL     1      -2.599   6.971  12.883  1.00  0.00     0.050 A 
HETATM   20  C18 UNL     1      -4.644   5.108  13.202  1.00  0.00     0.026 A 
HETATM   21  C19 UNL     1      -4.894   6.468  13.408  1.00  0.00     0.035 A 
HETATM   22 CL1  UNL     1      -6.471   6.986  13.863  1.00  0.00    -0.084 Cl
HETATM   23  C20 UNL     1      -3.876   7.406  13.251  1.00  0.00     0.042 A 
HETATM   24  C22 UNL     1      -1.497   7.935  12.722  1.00  0.00     0.194 A 
HETATM   25  O4  UNL     1      -1.658   9.116  12.996  1.00  0.00    -0.287 OA
ENDBRANCH   4  14
BRANCH   3  26
HETATM   26  C4  UNL     1       1.567   8.668  14.435  1.00  0.00     0.292 C 
HETATM   27  O1  UNL     1       1.374   7.863  15.330  1.00  0.00    -0.259 OA
BRANCH  26  28
HETATM   28  O2  UNL     1       1.441  10.014  14.501  1.00  0.00    -0.317 OA
BRANCH  28  29
HETATM   29  C5  UNL     1       0.905  10.505  15.738  1.00  0.00     0.183 C 
BRANCH  29  30
HETATM   30  C6  UNL     1      -0.315  11.366  15.421  1.00  0.00     0.065 C 
BRANCH  30  31
HETATM   31  C7  UNL     1      -1.356  11.300  16.509  1.00  0.00    -0.056 A 
HETATM   32  C8  UNL     1      -1.409  12.291  17.500  1.00  0.00     0.007 A 
HETATM   33  C9  UNL     1      -2.386  12.243  18.496  1.00  0.00     0.001 A 
HETATM   34  C10 UNL     1      -3.317  11.205  18.510  1.00  0.00     0.000 A 
HETATM   35  C11 UNL     1      -3.272  10.215  17.530  1.00  0.00     0.001 A 
HETATM   36  C12 UNL     1      -2.297  10.262  16.532  1.00  0.00     0.007 A 
ENDBRANCH  30  31
ENDBRANCH  29  30
ENDBRANCH  28  29
ENDBRANCH  26  28
ENDBRANCH   3  26
TORSDOF 6
ENDMDL
MODEL 4
REMARK minimizedAffinity -8.86825275
REMARK CNNscore 0.33035031
REMARK CNNaffinity 6.12559843
REMARK  6 active torsions:
REMARK  status: ('A' for Active; 'I' for Inactive)
REMARK    1  A    between atoms: C3_3  and  C4_4 
REMARK    2  A    between atoms: C4_4  and  O2_6 
REMARK    3  A    between atoms: O2_6  and  C5_7 
REMARK    4  A    between atoms: C5_7  and  C6_8 
REMARK    5  A    between atoms: C6_8  and  C7_9 
REMARK    6  A    between atoms: C13_15  and  C14_16 
ROOT
HETATM    1  C1  UNL     1       4.277   8.130  13.443  1.00  0.00     0.069 C 
HETATM    2  C2  UNL     1       3.151   8.184  12.442  1.00  0.00     0.018 C 
HETATM    3  C3  UNL     1       1.941   8.742  12.677  1.00  0.00     0.052 C 
HETATM    4  C13 UNL     1       0.834   8.754  11.627  1.00  0.00     0.104 C 
HETATM    5  C23 UNL     1       1.345   8.291  10.261  1.00  0.00     0.024 C 
HETATM    6  C24 UNL     1       2.577   7.760  10.104  1.00  0.00     0.020 C 
HETATM    7  C25 UNL     1       3.116   7.310   8.768  1.00  0.00     0.058 C 
HETATM    8  C26 UNL     1       2.394   7.971   7.601  1.00  0.00     0.014 C 
HETATM    9  C27 UNL     1       0.888   7.865   7.759  1.00  0.00     0.084 C 
HETATM   10  C28 UNL     1       0.438   8.431   9.087  1.00  0.00     0.158 C 
HETATM   11  O5  UNL     1      -0.675   8.938   9.216  1.00  0.00    -0.293 OA
HETATM   12  N1  UNL     1       3.422   7.643  11.193  1.00  0.00    -0.362 N 
HETATM   13  H24 UNL     1       4.371   7.316  11.025  1.00  0.00     0.165 HD
ENDROOT
BRANCH   4  14
HETATM   14  C14 UNL     1      -0.346   7.916  12.100  1.00  0.00     0.029 A 
HETATM   15  C15 UNL     1      -0.405   6.575  12.089  1.00  0.00     0.154 A 
HETATM   16  O3  UNL     1      -1.463   5.791  12.484  1.00  0.00    -0.321 OA
HETATM   17  C16 UNL     1      -2.608   6.428  12.888  1.00  0.00     0.089 A 
HETATM   18  C17 UNL     1      -3.697   5.628  13.232  1.00  0.00     0.040 A 
HETATM   19  C21 UNL     1      -2.708   7.816  12.972  1.00  0.00     0.050 A 
HETATM   20  C18 UNL     1      -4.887   6.223  13.659  1.00  0.00     0.026 A 
HETATM   21  C19 UNL     1      -4.981   7.615  13.741  1.00  0.00     0.035 A 
HETATM   22 CL1  UNL     1      -6.449   8.340  14.271  1.00  0.00    -0.084 Cl
HETATM   23  C20 UNL     1      -3.896   8.419  13.399  1.00  0.00     0.042 A 
HETATM   24  C22 UNL     1      -1.538   8.635  12.617  1.00  0.00     0.194 A 
HETATM   25  O4  UNL     1      -1.554   9.848  12.777  1.00  0.00    -0.287 OA
ENDBRANCH   4  14
BRANCH   3  26
HETATM   26  C4  UNL     1       1.623   9.354  13.979  1.00  0.00     0.292 C 
HETATM   27  O1  UNL     1       1.650  10.554  14.195  1.00  0.00    -0.259 OA
BRANCH  26  28
HETATM   28  O2  UNL     1       1.311   8.371  14.856  1.00  0.00    -0.317 OA
BRANCH  28  29
HETATM   29  C5  UNL     1       2.033   8.422  16.095  1.00  0.00     0.183 C 
BRANCH  29  30
HETATM   30  C6  UNL     1       2.273   9.888  16.447  1.00  0.00     0.065 C 
BRANCH  30  31
HETATM   31  C7  UNL     1       1.602  10.280  17.738  1.00  0.00    -0.056 A 
HETATM   32  C8  UNL     1       2.343  10.356  18.927  1.00  0.00     0.007 A 
HETATM   33  C9  UNL     1       1.728  10.739  20.120  1.00  0.00     0.001 A 
HETATM   34  C10 UNL     1       0.369  11.050  20.136  1.00  0.00     0.000 A 
HETATM   35  C11 UNL     1      -0.376  10.976  18.960  1.00  0.00     0.001 A 
HETATM   36  C12 UNL     1       0.238  10.595  17.765  1.00  0.00     0.007 A 
ENDBRANCH  30  31
ENDBRANCH  29  30
ENDBRANCH  28  29
ENDBRANCH  26  28
ENDBRANCH   3  26
TORSDOF 6
ENDMDL
MODEL 5
REMARK minimizedAffinity -8.52881718
REMARK CNNscore 0.32934925
REMARK CNNaffinity 6.65254831
REMARK  6 active torsions:
REMARK  status: ('A' for Active; 'I' for Inactive)
REMARK    1  A    between atoms: C3_3  and  C4_4 
REMARK    2  A    between atoms: C4_4  and  O2_6 
REMARK    3  A    between atoms: O2_6  and  C5_7 
REMARK    4  A    between atoms: C5_7  and  C6_8 
REMARK    5  A    between atoms: C6_8  and  C7_9 
REMARK    6  A    between atoms: C13_15  and  C14_16 
ROOT
HETATM    1  C1  UNL     1       3.874   7.672  13.659  1.00  0.00     0.069 C 
HETATM    2  C2  UNL     1       2.846   7.869  12.575  1.00  0.00     0.018 C 
HETATM    3  C3  UNL     1       1.672   8.520  12.739  1.00  0.00     0.052 C 
HETATM    4  C13 UNL     1       0.663   8.676  11.605  1.00  0.00     0.104 C 
HETATM    5  C23 UNL     1       1.248   8.230  10.263  1.00  0.00     0.024 C 
HETATM    6  C24 UNL     1       2.439   7.599  10.180  1.00  0.00     0.020 C 
HETATM    7  C25 UNL     1       3.050   7.162   8.870  1.00  0.00     0.058 C 
HETATM    8  C26 UNL     1       2.488   7.935   7.683  1.00  0.00     0.014 C 
HETATM    9  C27 UNL     1       0.970   7.955   7.713  1.00  0.00     0.084 C 
HETATM   10  C28 UNL     1       0.459   8.501   9.028  1.00  0.00     0.158 C 
HETATM   11  O5  UNL     1      -0.614   9.098   9.092  1.00  0.00    -0.293 OA
HETATM   12  N1  UNL     1       3.175   7.360  11.326  1.00  0.00    -0.362 N 
HETATM   13  H24 UNL     1       4.104   6.958  11.219  1.00  0.00     0.165 HD
ENDROOT
BRANCH   4  14
HETATM   14  C14 UNL     1      -0.619   7.926  11.938  1.00  0.00     0.029 A 
HETATM   15  C15 UNL     1      -1.726   8.470  12.468  1.00  0.00     0.154 A 
HETATM   16  O3  UNL     1      -2.888   7.817  12.804  1.00  0.00    -0.321 OA
HETATM   17  C16 UNL     1      -2.923   6.457  12.635  1.00  0.00     0.089 A 
HETATM   18  C17 UNL     1      -4.083   5.793  13.032  1.00  0.00     0.040 A 
HETATM   19  C21 UNL     1      -1.863   5.739  12.083  1.00  0.00     0.050 A 
HETATM   20  C18 UNL     1      -4.177   4.407  12.875  1.00  0.00     0.026 A 
HETATM   21  C19 UNL     1      -3.111   3.694  12.321  1.00  0.00     0.035 A 
HETATM   22 CL1  UNL     1      -3.235   1.988  12.127  1.00  0.00    -0.084 Cl
HETATM   23  C20 UNL     1      -1.950   4.352  11.922  1.00  0.00     0.042 A 
HETATM   24  C22 UNL     1      -0.656   6.468  11.659  1.00  0.00     0.194 A 
HETATM   25  O4  UNL     1       0.250   5.888  11.076  1.00  0.00    -0.287 OA
ENDBRANCH   4  14
BRANCH   3  26
HETATM   26  C4  UNL     1       1.297   9.101  14.041  1.00  0.00     0.292 C 
HETATM   27  O1  UNL     1       1.255  10.298  14.268  1.00  0.00    -0.259 OA
BRANCH  26  28
HETATM   28  O2  UNL     1       1.023   8.093  14.902  1.00  0.00    -0.317 OA
BRANCH  28  29
HETATM   29  C5  UNL     1      -0.181   8.266  15.663  1.00  0.00     0.183 C 
BRANCH  29  30
HETATM   30  C6  UNL     1       0.067   9.352  16.707  1.00  0.00     0.065 C 
BRANCH  30  31
HETATM   31  C7  UNL     1      -1.216   9.971  17.200  1.00  0.00    -0.056 A 
HETATM   32  C8  UNL     1      -1.206  10.837  18.303  1.00  0.00     0.007 A 
HETATM   33  C9  UNL     1      -2.389  11.428  18.749  1.00  0.00     0.001 A 
HETATM   34  C10 UNL     1      -3.592  11.157  18.097  1.00  0.00     0.000 A 
HETATM   35  C11 UNL     1      -3.613  10.296  17.002  1.00  0.00     0.001 A 
HETATM   36  C12 UNL     1      -2.429   9.706  16.553  1.00  0.00     0.007 A 
ENDBRANCH  30  31
ENDBRANCH  29  30
ENDBRANCH  28  29
ENDBRANCH  26  28
ENDBRANCH   3  26
TORSDOF 6
ENDMDL
MODEL 6
REMARK minimizedAffinity -8.58499622
REMARK CNNscore 0.246943399
REMARK CNNaffinity 6.29059601
REMARK  6 active torsions:
REMARK  status: ('A' for Active; 'I' for Inactive)
REMARK    1  A    between atoms: C3_3  and  C4_4 
REMARK    2  A    between atoms: C4_4  and  O2_6 
REMARK    3  A    between atoms: O2_6  and  C5_7 
REMARK    4  A    between atoms: C5_7  and  C6_8 
REMARK    5  A    between atoms: C6_8  and  C7_9 
REMARK    6  A    between atoms: C13_15  and  C14_16 
ROOT
HETATM    1  C1  UNL     1       3.811   7.482  13.822  1.00  0.00     0.069 C 
HETATM    2  C2  UNL     1       2.797   7.709  12.730  1.00  0.00     0.018 C 
HETATM    3  C3  UNL     1       1.589   8.291  12.913  1.00  0.00     0.052 C 
HETATM    4  C13 UNL     1       0.597   8.482  11.770  1.00  0.00     0.104 C 
HETATM    5  C23 UNL     1       1.230   8.163  10.414  1.00  0.00     0.024 C 
HETATM    6  C24 UNL     1       2.452   7.598  10.313  1.00  0.00     0.020 C 
HETATM    7  C25 UNL     1       3.110   7.287   8.990  1.00  0.00     0.058 C 
HETATM    8  C26 UNL     1       2.536   8.118   7.850  1.00  0.00     0.014 C 
HETATM    9  C27 UNL     1       1.018   8.065   7.845  1.00  0.00     0.084 C 
HETATM   10  C28 UNL     1       0.454   8.487   9.183  1.00  0.00     0.158 C 
HETATM   11  O5  UNL     1      -0.648   9.027   9.265  1.00  0.00    -0.293 OA
HETATM   12  N1  UNL     1       3.176   7.310  11.456  1.00  0.00    -0.362 N 
HETATM   13  H24 UNL     1       4.125   6.961  11.343  1.00  0.00     0.165 HD
ENDROOT
BRANCH   4  14
HETATM   14  C14 UNL     1      -0.653   7.650  12.017  1.00  0.00     0.029 A 
HETATM   15  C15 UNL     1      -1.804   8.105  12.539  1.00  0.00     0.154 A 
HETATM   16  O3  UNL     1      -2.939   7.376  12.798  1.00  0.00    -0.321 OA
HETATM   17  C16 UNL     1      -2.897   6.028  12.553  1.00  0.00     0.089 A 
HETATM   18  C17 UNL     1      -4.032   5.284  12.873  1.00  0.00     0.040 A 
HETATM   19  C21 UNL     1      -1.784   5.398  11.999  1.00  0.00     0.050 A 
HETATM   20  C18 UNL     1      -4.048   3.907  12.637  1.00  0.00     0.026 A 
HETATM   21  C19 UNL     1      -2.929   3.281  12.081  1.00  0.00     0.035 A 
HETATM   22 CL1  UNL     1      -2.957   1.585  11.789  1.00  0.00    -0.084 Cl
HETATM   23  C20 UNL     1      -1.793   4.020  11.759  1.00  0.00     0.042 A 
HETATM   24  C22 UNL     1      -0.604   6.210  11.657  1.00  0.00     0.194 A 
HETATM   25  O4  UNL     1       0.349   5.711  11.075  1.00  0.00    -0.287 OA
ENDBRANCH   4  14
BRANCH   3  26
HETATM   26  C4  UNL     1       1.161   8.756  14.245  1.00  0.00     0.292 C 
HETATM   27  O1  UNL     1       0.821   8.013  15.151  1.00  0.00    -0.259 OA
BRANCH  26  28
HETATM   28  O2  UNL     1       1.210  10.109  14.269  1.00  0.00    -0.317 OA
BRANCH  28  29
HETATM   29  C5  UNL     1       1.764  10.666  15.469  1.00  0.00     0.183 C 
BRANCH  29  30
HETATM   30  C6  UNL     1       0.611  11.075  16.382  1.00  0.00     0.065 C 
BRANCH  30  31
HETATM   31  C7  UNL     1       0.957  10.924  17.840  1.00  0.00    -0.056 A 
HETATM   32  C8  UNL     1       2.242  10.513  18.225  1.00  0.00     0.007 A 
HETATM   33  C9  UNL     1       2.572  10.392  19.575  1.00  0.00     0.001 A 
HETATM   34  C10 UNL     1       1.621  10.679  20.553  1.00  0.00     0.000 A 
HETATM   35  C11 UNL     1       0.341  11.086  20.182  1.00  0.00     0.001 A 
HETATM   36  C12 UNL     1       0.010  11.210  18.831  1.00  0.00     0.007 A 
ENDBRANCH  30  31
ENDBRANCH  29  30
ENDBRANCH  28  29
ENDBRANCH  26  28
ENDBRANCH   3  26
TORSDOF 6
ENDMDL
MODEL 7
REMARK minimizedAffinity -6.69921494
REMARK CNNscore 0.196613103
REMARK CNNaffinity 5.11316109
REMARK  6 active torsions:
REMARK  status: ('A' for Active; 'I' for Inactive)
REMARK    1  A    between atoms: C3_3  and  C4_4 
REMARK    2  A    between atoms: C4_4  and  O2_6 
REMARK    3  A    between atoms: O2_6  and  C5_7 
REMARK    4  A    between atoms: C5_7  and  C6_8 
REMARK    5  A    between atoms: C6_8  and  C7_9 
REMARK    6  A    between atoms: C13_15  and  C14_16 
ROOT
HETATM    1  C1  UNL     1     -13.886  -3.356  12.407  1.00  0.00     0.069 C 
HETATM    2  C2  UNL     1     -14.569  -2.833  13.644  1.00  0.00     0.018 C 
HETATM    3  C3  UNL     1     -14.750  -3.545  14.780  1.00  0.00     0.052 C 
HETATM    4  C13 UNL     1     -15.463  -2.965  15.998  1.00  0.00     0.104 C 
HETATM    5  C23 UNL     1     -15.711  -1.463  15.846  1.00  0.00     0.024 C 
HETATM    6  C24 UNL     1     -15.488  -0.819  14.680  1.00  0.00     0.020 C 
HETATM    7  C25 UNL     1     -15.707   0.664  14.503  1.00  0.00     0.058 C 
HETATM    8  C26 UNL     1     -15.683   1.414  15.829  1.00  0.00     0.014 C 
HETATM    9  C27 UNL     1     -16.585   0.746  16.852  1.00  0.00     0.084 C 
HETATM   10  C28 UNL     1     -16.221  -0.712  17.027  1.00  0.00     0.158 C 
HETATM   11  O5  UNL     1     -16.402  -1.285  18.101  1.00  0.00    -0.293 OA
HETATM   12  N1  UNL     1     -15.002  -1.516  13.588  1.00  0.00    -0.362 N 
HETATM   13  H24 UNL     1     -14.768  -0.986  12.752  1.00  0.00     0.165 HD
ENDROOT
BRANCH   4  14
HETATM   14  C14 UNL     1     -16.756  -3.725  16.259  1.00  0.00     0.029 A 
HETATM   15  C15 UNL     1     -17.898  -3.585  15.567  1.00  0.00     0.154 A 
HETATM   16  O3  UNL     1     -19.087  -4.235  15.794  1.00  0.00    -0.321 OA
HETATM   17  C16 UNL     1     -19.150  -5.085  16.868  1.00  0.00     0.089 A 
HETATM   18  C17 UNL     1     -20.376  -5.698  17.127  1.00  0.00     0.040 A 
HETATM   19  C21 UNL     1     -18.050  -5.355  17.680  1.00  0.00     0.050 A 
HETATM   20  C18 UNL     1     -20.496  -6.581  18.204  1.00  0.00     0.026 A 
HETATM   21  C19 UNL     1     -19.389  -6.847  19.014  1.00  0.00     0.035 A 
HETATM   22 CL1  UNL     1     -19.544  -7.938  20.336  1.00  0.00    -0.084 Cl
HETATM   23  C20 UNL     1     -18.163  -6.238  18.759  1.00  0.00     0.042 A 
HETATM   24  C22 UNL     1     -16.765  -4.706  17.374  1.00  0.00     0.194 A 
HETATM   25  O4  UNL     1     -15.755  -4.998  18.000  1.00  0.00    -0.287 OA
ENDBRANCH   4  14
BRANCH   3  26
HETATM   26  C4  UNL     1     -14.279  -4.937  14.891  1.00  0.00     0.292 C 
HETATM   27  O1  UNL     1     -14.877  -5.899  14.438  1.00  0.00    -0.259 OA
BRANCH  26  28
HETATM   28  O2  UNL     1     -13.105  -4.946  15.566  1.00  0.00    -0.317 OA
BRANCH  28  29
HETATM   29  C5  UNL     1     -12.302  -6.116  15.355  1.00  0.00     0.183 C 
BRANCH  29  30
HETATM   30  C6  UNL     1     -11.601  -6.457  16.668  1.00  0.00     0.065 C 
BRANCH  30  31
HETATM   31  C7  UNL     1     -11.285  -7.925  16.780  1.00  0.00    -0.056 A 
HETATM   32  C8  UNL     1     -10.410  -8.389  17.774  1.00  0.00     0.007 A 
HETATM   33  C9  UNL     1     -10.132  -9.751  17.892  1.00  0.00     0.001 A 
HETATM   34  C10 UNL     1     -10.725 -10.662  17.019  1.00  0.00     0.000 A 
HETATM   35  C11 UNL     1     -11.594 -10.212  16.026  1.00  0.00     0.001 A 
HETATM   36  C12 UNL     1     -11.875  -8.849  15.908  1.00  0.00     0.007 A 
ENDBRANCH  30  31
ENDBRANCH  29  30
ENDBRANCH  28  29
ENDBRANCH  26  28
ENDBRANCH   3  26
TORSDOF 6
ENDMDL
MODEL 8
REMARK minimizedAffinity -9.09986687
REMARK CNNscore 0.188977852
REMARK CNNaffinity 6.1734376
REMARK  6 active torsions:
REMARK  status: ('A' for Active; 'I' for Inactive)
REMARK    1  A    between atoms: C3_3  and  C4_4 
REMARK    2  A    between atoms: C4_4  and  O2_6 
REMARK    3  A    between atoms: O2_6  and  C5_7 
REMARK    4  A    between atoms: C5_7  and  C6_8 
REMARK    5  A    between atoms: C6_8  and  C7_9 
REMARK    6  A    between atoms: C13_15  and  C14_16 
ROOT
HETATM    1  C1  UNL     1      -2.251   7.148  16.006  1.00  0.00     0.069 C 
HETATM    2  C2  UNL     1      -1.065   7.835  15.378  1.00  0.00     0.018 C 
HETATM    3  C3  UNL     1      -0.974   8.166  14.070  1.00  0.00     0.052 C 
HETATM    4  C13 UNL     1       0.261   8.849  13.488  1.00  0.00     0.104 C 
HETATM    5  C23 UNL     1       1.224   9.304  14.586  1.00  0.00     0.024 C 
HETATM    6  C24 UNL     1       1.053   8.947  15.877  1.00  0.00     0.020 C 
HETATM    7  C25 UNL     1       1.976   9.393  16.985  1.00  0.00     0.058 C 
HETATM    8  C26 UNL     1       2.754  10.651  16.618  1.00  0.00     0.014 C 
HETATM    9  C27 UNL     1       3.404  10.512  15.252  1.00  0.00     0.084 C 
HETATM   10  C28 UNL     1       2.381  10.159  14.196  1.00  0.00     0.158 C 
HETATM   11  O5  UNL     1       2.529  10.512  13.027  1.00  0.00    -0.293 OA
HETATM   12  N1  UNL     1      -0.028   8.164  16.239  1.00  0.00    -0.362 N 
HETATM   13  H24 UNL     1      -0.172   7.981  17.230  1.00  0.00     0.165 HD
ENDROOT
BRANCH   4  14
HETATM   14  C14 UNL     1       0.944   7.930  12.485  1.00  0.00     0.029 A 
HETATM   15  C15 UNL     1       1.733   6.888  12.792  1.00  0.00     0.154 A 
HETATM   16  O3  UNL     1       2.384   6.057  11.913  1.00  0.00    -0.321 OA
HETATM   17  C16 UNL     1       2.271   6.335  10.575  1.00  0.00     0.089 A 
HETATM   18  C17 UNL     1       2.981   5.524   9.691  1.00  0.00     0.040 A 
HETATM   19  C21 UNL     1       1.479   7.373  10.086  1.00  0.00     0.050 A 
HETATM   20  C18 UNL     1       2.896   5.757   8.315  1.00  0.00     0.026 A 
HETATM   21  C19 UNL     1       2.100   6.799   7.832  1.00  0.00     0.035 A 
HETATM   22 CL1  UNL     1       1.997   7.077   6.137  1.00  0.00    -0.084 Cl
HETATM   23  C20 UNL     1       1.388   7.612   8.711  1.00  0.00     0.042 A 
HETATM   24  C22 UNL     1       0.729   8.205  11.042  1.00  0.00     0.194 A 
HETATM   25  O4  UNL     1      -0.056   9.056  10.646  1.00  0.00    -0.287 OA
ENDBRANCH   4  14
BRANCH   3  26
HETATM   26  C4  UNL     1      -2.065   7.861  13.127  1.00  0.00     0.292 C 
HETATM   27  O1  UNL     1      -2.795   8.704  12.632  1.00  0.00    -0.259 OA
BRANCH  26  28
HETATM   28  O2  UNL     1      -2.104   6.523  12.926  1.00  0.00    -0.317 OA
BRANCH  28  29
HETATM   29  C5  UNL     1      -3.425   5.972  12.816  1.00  0.00     0.183 C 
BRANCH  29  30
HETATM   30  C6  UNL     1      -3.324   4.636  12.084  1.00  0.00     0.065 C 
BRANCH  30  31
HETATM   31  C7  UNL     1      -4.608   3.850  12.157  1.00  0.00    -0.056 A 
HETATM   32  C8  UNL     1      -4.769   2.684  11.394  1.00  0.00     0.007 A 
HETATM   33  C9  UNL     1      -5.949   1.943  11.475  1.00  0.00     0.001 A 
HETATM   34  C10 UNL     1      -6.978   2.361  12.318  1.00  0.00     0.000 A 
HETATM   35  C11 UNL     1      -6.829   3.520  13.078  1.00  0.00     0.001 A 
HETATM   36  C12 UNL     1      -5.648   4.261  13.000  1.00  0.00     0.007 A 
ENDBRANCH  30  31
ENDBRANCH  29  30
ENDBRANCH  28  29
ENDBRANCH  26  28
ENDBRANCH   3  26
TORSDOF 6
ENDMDL
MODEL 9
REMARK minimizedAffinity -8.57120705
REMARK CNNscore 0.161791414
REMARK CNNaffinity 6.11495972
REMARK  6 active torsions:
REMARK  status: ('A' for Active; 'I' for Inactive)
REMARK    1  A    between atoms: C3_3  and  C4_4 
REMARK    2  A    between atoms: C4_4  and  O2_6 
REMARK    3  A    between atoms: O2_6  and  C5_7 
REMARK    4  A    between atoms: C5_7  and  C6_8 
REMARK    5  A    between atoms: C6_8  and  C7_9 
REMARK    6  A    between atoms: C13_15  and  C14_16 
ROOT
HETATM    1  C1  UNL     1       4.074   7.980  14.146  1.00  0.00     0.069 C 
HETATM    2  C2  UNL     1       3.183   7.858  12.936  1.00  0.00     0.018 C 
HETATM    3  C3  UNL     1       1.834   7.767  12.982  1.00  0.00     0.052 C 
HETATM    4  C13 UNL     1       0.985   7.632  11.721  1.00  0.00     0.104 C 
HETATM    5  C23 UNL     1       1.816   7.852  10.455  1.00  0.00     0.024 C 
HETATM    6  C24 UNL     1       3.161   7.952  10.494  1.00  0.00     0.020 C 
HETATM    7  C25 UNL     1       4.007   8.186   9.265  1.00  0.00     0.058 C 
HETATM    8  C26 UNL     1       3.209   8.804   8.123  1.00  0.00     0.014 C 
HETATM    9  C27 UNL     1       1.917   8.041   7.884  1.00  0.00     0.084 C 
HETATM   10  C28 UNL     1       1.098   7.946   9.152  1.00  0.00     0.158 C 
HETATM   11  O5  UNL     1      -0.130   7.883   9.110  1.00  0.00    -0.293 OA
HETATM   12  N1  UNL     1       3.824   7.877  11.706  1.00  0.00    -0.362 N 
HETATM   13  H24 UNL     1       4.829   8.038  11.709  1.00  0.00     0.165 HD
ENDROOT
BRANCH   4  14
HETATM   14  C14 UNL     1       0.282   6.282  11.706  1.00  0.00     0.029 A 
HETATM   15  C15 UNL     1       0.844   5.113  11.358  1.00  0.00     0.154 A 
HETATM   16  O3  UNL     1       0.231   3.884  11.309  1.00  0.00    -0.321 OA
HETATM   17  C16 UNL     1      -1.110   3.831  11.591  1.00  0.00     0.089 A 
HETATM   18  C17 UNL     1      -1.738   2.591  11.483  1.00  0.00     0.040 A 
HETATM   19  C21 UNL     1      -1.841   4.952  11.983  1.00  0.00     0.050 A 
HETATM   20  C18 UNL     1      -3.102   2.478  11.767  1.00  0.00     0.026 A 
HETATM   21  C19 UNL     1      -3.829   3.605  12.159  1.00  0.00     0.035 A 
HETATM   22 CL1  UNL     1      -5.507   3.457  12.511  1.00  0.00    -0.084 Cl
HETATM   23  C20 UNL     1      -3.205   4.846  12.270  1.00  0.00     0.042 A 
HETATM   24  C22 UNL     1      -1.148   6.246  12.104  1.00  0.00     0.194 A 
HETATM   25  O4  UNL     1      -1.732   7.226  12.544  1.00  0.00    -0.287 OA
ENDBRANCH   4  14
BRANCH   3  26
HETATM   26  C4  UNL     1       1.112   7.774  14.267  1.00  0.00     0.292 C 
HETATM   27  O1  UNL     1       1.064   6.822  15.028  1.00  0.00    -0.259 OA
BRANCH  26  28
HETATM   28  O2  UNL     1       0.534   8.987  14.433  1.00  0.00    -0.317 OA
BRANCH  28  29
HETATM   29  C5  UNL     1      -0.531   9.016  15.395  1.00  0.00     0.183 C 
BRANCH  29  30
HETATM   30  C6  UNL     1      -0.032   9.750  16.637  1.00  0.00     0.065 C 
BRANCH  30  31
HETATM   31  C7  UNL     1      -1.150  10.432  17.382  1.00  0.00    -0.056 A 
HETATM   32  C8  UNL     1      -2.428   9.856  17.424  1.00  0.00     0.007 A 
HETATM   33  C9  UNL     1      -3.460  10.476  18.131  1.00  0.00     0.001 A 
HETATM   34  C10 UNL     1      -3.224  11.675  18.801  1.00  0.00     0.000 A 
HETATM   35  C11 UNL     1      -1.957  12.257  18.764  1.00  0.00     0.001 A 
HETATM   36  C12 UNL     1      -0.923  11.637  18.059  1.00  0.00     0.007 A 
ENDBRANCH  30  31
ENDBRANCH  29  30
ENDBRANCH  28  29
ENDBRANCH  26  28
ENDBRANCH   3  26
TORSDOF 6
ENDMDL
