MODEL 1
REMARK minimizedAffinity -9.52080441
REMARK  7 active torsions:
REMARK  status: ('A' for Active; 'I' for Inactive)
REMARK    1  A    between atoms: C2_2  and  C30_32 
REMARK    2  A    between atoms: C3_3  and  C4_4 
REMARK    3  A    between atoms: C4_4  and  O1_5 
REMARK    4  A    between atoms: C4_4  and  C5_6 
REMARK    5  A    between atoms: C5_6  and  C6_7 
REMARK    6  A    between atoms: C6_7  and  C8_9 
REMARK    7  A    between atoms: C30_32  and  O3_33 
ROOT
HETATM    1  C8  UNL     1       0.727   6.654  12.528  1.00  0.00    -0.002 C 
HETATM    2  C9  UNL     1       0.619   5.868  11.183  1.00  0.00     0.007 C 
HETATM    3  C10 UNL     1      -0.820   5.323  11.076  1.00  0.00     0.015 C 
HETATM    4  C11 UNL     1      -1.405   5.505  12.487  1.00  0.00    -0.013 C 
HETATM    5  C12 UNL     1      -0.889   4.287  13.331  1.00  0.00     0.021 C 
HETATM    6  C13 UNL     1      -2.928   5.499  12.656  1.00  0.00    -0.070 C 
HETATM    7  C14 UNL     1      -3.681   4.622  11.980  1.00  0.00    -0.022 C 
HETATM    8  C15 UNL     1      -5.107   4.347  12.289  1.00  0.00     0.034 C 
HETATM    9  C16 UNL     1      -5.504   4.660  13.760  1.00  0.00     0.013 C 
HETATM   10  C17 UNL     1      -7.041   4.338  13.972  1.00  0.00     0.018 C 
HETATM   11  C18 UNL     1      -7.434   2.991  13.310  1.00  0.00     0.023 C 
HETATM   12  C19 UNL     1      -7.440   4.202  15.459  1.00  0.00     0.023 C 
HETATM   13  C20 UNL     1      -7.879   5.459  13.339  1.00  0.00     0.135 C 
HETATM   14  O2  UNL     1      -8.913   5.227  12.711  1.00  0.00    -0.297 OA
HETATM   15  C21 UNL     1      -7.463   6.890  13.602  1.00  0.00     0.080 C 
HETATM   16  C22 UNL     1      -5.974   7.116  13.380  1.00  0.00     0.017 C 
HETATM   17  C23 UNL     1      -5.047   6.122  14.151  1.00  0.00    -0.031 C 
HETATM   18  C24 UNL     1      -5.208   6.401  15.662  1.00  0.00     0.016 C 
HETATM   19  C25 UNL     1      -3.527   6.430  13.713  1.00  0.00     0.024 C 
HETATM   20  C26 UNL     1      -2.495   6.658  14.850  1.00  0.00     0.010 C 
HETATM   21  C27 UNL     1      -1.090   7.131  14.386  1.00  0.00     0.011 C 
HETATM   22  C28 UNL     1      -0.779   6.884  12.895  1.00  0.00    -0.029 C 
HETATM   23  C29 UNL     1      -1.290   8.089  12.040  1.00  0.00     0.016 C 
ENDROOT
BRANCH   1  24
HETATM   24  C6  UNL     1       1.704   7.866  12.429  1.00  0.00    -0.011 C 
HETATM   25  C7  UNL     1       2.834   7.773  13.460  1.00  0.00     0.010 C 
BRANCH  24  26
HETATM   26  C5  UNL     1       2.293   7.960  10.991  1.00  0.00     0.040 C 
BRANCH  26  27
HETATM   27  C4  UNL     1       3.780   7.595  10.863  1.00  0.00     0.141 C 
BRANCH  27  28
HETATM   28  C3  UNL     1       3.968   6.154  10.456  1.00  0.00     0.009 C 
HETATM   29  C2  UNL     1       3.574   5.513   9.333  1.00  0.00    -0.062 C 
HETATM   30  C1  UNL     1       2.764   6.152   8.232  1.00  0.00     0.045 C 
BRANCH  29  31
HETATM   31  C30 UNL     1       3.895   4.060   9.055  1.00  0.00     0.198 C 
BRANCH  31  32
HETATM   32  O3  UNL     1       3.215   3.182   9.939  1.00  0.00    -0.397 OA
HETATM   33  H48 UNL     1       2.268   3.275   9.737  1.00  0.00     0.209 HD
ENDBRANCH  31  32
ENDBRANCH  29  31
ENDBRANCH  27  28
BRANCH  27  34
HETATM   34  O1  UNL     1       4.430   8.463   9.945  1.00  0.00    -0.392 OA
HETATM   35  H6  UNL     1       5.294   8.064   9.748  1.00  0.00     0.210 HD
ENDBRANCH  27  34
ENDBRANCH  26  27
ENDBRANCH  24  26
ENDBRANCH   1  24
TORSDOF 7
ENDMDL
MODEL 2
REMARK minimizedAffinity -9.50564384
REMARK  7 active torsions:
REMARK  status: ('A' for Active; 'I' for Inactive)
REMARK    1  A    between atoms: C2_2  and  C30_32 
REMARK    2  A    between atoms: C3_3  and  C4_4 
REMARK    3  A    between atoms: C4_4  and  O1_5 
REMARK    4  A    between atoms: C4_4  and  C5_6 
REMARK    5  A    between atoms: C5_6  and  C6_7 
REMARK    6  A    between atoms: C6_7  and  C8_9 
REMARK    7  A    between atoms: C30_32  and  O3_33 
ROOT
HETATM    1  C8  UNL     1       0.856   6.368  12.541  1.00  0.00    -0.002 C 
HETATM    2  C9  UNL     1       0.745   5.589  11.192  1.00  0.00     0.007 C 
HETATM    3  C10 UNL     1      -0.709   5.089  11.061  1.00  0.00     0.015 C 
HETATM    4  C11 UNL     1      -1.309   5.286  12.465  1.00  0.00    -0.013 C 
HETATM    5  C12 UNL     1      -0.845   4.049  13.312  1.00  0.00     0.021 C 
HETATM    6  C13 UNL     1      -2.834   5.326  12.610  1.00  0.00    -0.070 C 
HETATM    7  C14 UNL     1      -3.604   4.475  11.919  1.00  0.00    -0.022 C 
HETATM    8  C15 UNL     1      -5.042   4.243  12.206  1.00  0.00     0.034 C 
HETATM    9  C16 UNL     1      -5.452   4.565  13.671  1.00  0.00     0.013 C 
HETATM   10  C17 UNL     1      -7.001   4.290  13.859  1.00  0.00     0.018 C 
HETATM   11  C18 UNL     1      -7.425   2.958  13.187  1.00  0.00     0.023 C 
HETATM   12  C19 UNL     1      -7.427   4.162  15.339  1.00  0.00     0.023 C 
HETATM   13  C20 UNL     1      -7.794   5.438  13.218  1.00  0.00     0.135 C 
HETATM   14  O2  UNL     1      -8.825   5.240  12.572  1.00  0.00    -0.297 OA
HETATM   15  C21 UNL     1      -7.338   6.855  13.492  1.00  0.00     0.080 C 
HETATM   16  C22 UNL     1      -5.839   7.035  13.293  1.00  0.00     0.017 C 
HETATM   17  C23 UNL     1      -4.955   6.010  14.074  1.00  0.00    -0.031 C 
HETATM   18  C24 UNL     1      -5.131   6.290  15.584  1.00  0.00     0.016 C 
HETATM   19  C25 UNL     1      -3.420   6.272  13.661  1.00  0.00     0.024 C 
HETATM   20  C26 UNL     1      -2.399   6.465  14.814  1.00  0.00     0.010 C 
HETATM   21  C27 UNL     1      -0.973   6.896  14.374  1.00  0.00     0.011 C 
HETATM   22  C28 UNL     1      -0.647   6.643  12.886  1.00  0.00    -0.029 C 
HETATM   23  C29 UNL     1      -1.108   7.866  12.027  1.00  0.00     0.016 C 
ENDROOT
BRANCH   1  24
HETATM   24  C6  UNL     1       1.872   7.549  12.462  1.00  0.00    -0.011 C 
HETATM   25  C7  UNL     1       1.754   8.486  13.669  1.00  0.00     0.010 C 
BRANCH  24  26
HETATM   26  C5  UNL     1       3.323   6.997  12.348  1.00  0.00     0.040 C 
BRANCH  26  27
HETATM   27  C4  UNL     1       3.725   6.481  10.958  1.00  0.00     0.141 C 
BRANCH  27  28
HETATM   28  C3  UNL     1       3.409   7.484   9.877  1.00  0.00     0.009 C 
HETATM   29  C2  UNL     1       2.957   7.286   8.617  1.00  0.00    -0.062 C 
HETATM   30  C1  UNL     1       2.729   5.928   8.002  1.00  0.00     0.045 C 
BRANCH  29  31
HETATM   31  C30 UNL     1       2.636   8.421   7.667  1.00  0.00     0.198 C 
BRANCH  31  32
HETATM   32  O3  UNL     1       3.603   9.459   7.726  1.00  0.00    -0.397 OA
HETATM   33  H48 UNL     1       4.433   9.076   7.393  1.00  0.00     0.209 HD
ENDBRANCH  31  32
ENDBRANCH  29  31
ENDBRANCH  27  28
BRANCH  27  34
HETATM   34  O1  UNL     1       5.103   6.135  10.933  1.00  0.00    -0.392 OA
HETATM   35  H6  UNL     1       5.344   6.019   9.998  1.00  0.00     0.210 HD
ENDBRANCH  27  34
ENDBRANCH  26  27
ENDBRANCH  24  26
ENDBRANCH   1  24
TORSDOF 7
ENDMDL
MODEL 3
REMARK minimizedAffinity -9.44070816
REMARK  7 active torsions:
REMARK  status: ('A' for Active; 'I' for Inactive)
REMARK    1  A    between atoms: C2_2  and  C30_32 
REMARK    2  A    between atoms: C3_3  and  C4_4 
REMARK    3  A    between atoms: C4_4  and  O1_5 
REMARK    4  A    between atoms: C4_4  and  C5_6 
REMARK    5  A    between atoms: C5_6  and  C6_7 
REMARK    6  A    between atoms: C6_7  and  C8_9 
REMARK    7  A    between atoms: C30_32  and  O3_33 
ROOT
HETATM    1  C8  UNL     1      -3.546   7.544  15.395  1.00  0.00    -0.002 C 
HETATM    2  C9  UNL     1      -3.168   9.019  15.743  1.00  0.00     0.007 C 
HETATM    3  C10 UNL     1      -1.897   9.374  14.945  1.00  0.00     0.015 C 
HETATM    4  C11 UNL     1      -1.378   8.020  14.428  1.00  0.00    -0.013 C 
HETATM    5  C12 UNL     1      -0.583   7.378  15.619  1.00  0.00     0.021 C 
HETATM    6  C13 UNL     1      -0.408   8.012  13.242  1.00  0.00    -0.070 C 
HETATM    7  C14 UNL     1       0.577   8.917  13.165  1.00  0.00    -0.022 C 
HETATM    8  C15 UNL     1       1.723   8.813  12.226  1.00  0.00     0.034 C 
HETATM    9  C16 UNL     1       2.039   7.358  11.779  1.00  0.00     0.013 C 
HETATM   10  C17 UNL     1       3.269   7.368  10.778  1.00  0.00     0.018 C 
HETATM   11  C18 UNL     1       4.394   8.313  11.275  1.00  0.00     0.023 C 
HETATM   12  C19 UNL     1       3.933   5.984  10.607  1.00  0.00     0.023 C 
HETATM   13  C20 UNL     1       2.789   7.856   9.403  1.00  0.00     0.135 C 
HETATM   14  O2  UNL     1       3.463   8.620   8.709  1.00  0.00    -0.297 OA
HETATM   15  C21 UNL     1       1.499   7.283   8.857  1.00  0.00     0.080 C 
HETATM   16  C22 UNL     1       0.371   7.305   9.879  1.00  0.00     0.017 C 
HETATM   17  C23 UNL     1       0.729   6.649  11.251  1.00  0.00    -0.031 C 
HETATM   18  C24 UNL     1       0.937   5.136  11.011  1.00  0.00     0.016 C 
HETATM   19  C25 UNL     1      -0.527   6.863  12.238  1.00  0.00     0.024 C 
HETATM   20  C26 UNL     1      -1.088   5.604  12.953  1.00  0.00     0.010 C 
HETATM   21  C27 UNL     1      -2.405   5.823  13.747  1.00  0.00     0.011 C 
HETATM   22  C28 UNL     1      -2.724   7.295  14.085  1.00  0.00    -0.029 C 
HETATM   23  C29 UNL     1      -3.515   7.951  12.906  1.00  0.00     0.016 C 
ENDROOT
BRANCH   1  24
HETATM   24  C6  UNL     1      -5.089   7.308  15.411  1.00  0.00    -0.011 C 
HETATM   25  C7  UNL     1      -5.848   8.459  14.741  1.00  0.00     0.010 C 
BRANCH  24  26
HETATM   26  C5  UNL     1      -5.428   5.959  14.713  1.00  0.00     0.040 C 
BRANCH  26  27
HETATM   27  C4  UNL     1      -6.893   5.508  14.828  1.00  0.00     0.141 C 
BRANCH  27  28
HETATM   28  C3  UNL     1      -7.174   4.300  13.970  1.00  0.00     0.009 C 
HETATM   29  C2  UNL     1      -6.420   3.730  13.003  1.00  0.00    -0.062 C 
HETATM   30  C1  UNL     1      -5.094   4.272  12.533  1.00  0.00     0.045 C 
BRANCH  29  31
HETATM   31  C30 UNL     1      -6.832   2.473  12.267  1.00  0.00     0.198 C 
BRANCH  31  32
HETATM   32  O3  UNL     1      -8.101   1.995  12.691  1.00  0.00    -0.397 OA
HETATM   33  H48 UNL     1      -8.748   2.670  12.423  1.00  0.00     0.209 HD
ENDBRANCH  31  32
ENDBRANCH  29  31
ENDBRANCH  27  28
BRANCH  27  34
HETATM   34  O1  UNL     1      -7.230   5.249  16.184  1.00  0.00    -0.392 OA
HETATM   35  H6  UNL     1      -8.080   4.776  16.174  1.00  0.00     0.210 HD
ENDBRANCH  27  34
ENDBRANCH  26  27
ENDBRANCH  24  26
ENDBRANCH   1  24
TORSDOF 7
ENDMDL
MODEL 4
REMARK minimizedAffinity -9.34685993
REMARK  7 active torsions:
REMARK  status: ('A' for Active; 'I' for Inactive)
REMARK    1  A    between atoms: C2_2  and  C30_32 
REMARK    2  A    between atoms: C3_3  and  C4_4 
REMARK    3  A    between atoms: C4_4  and  O1_5 
REMARK    4  A    between atoms: C4_4  and  C5_6 
REMARK    5  A    between atoms: C5_6  and  C6_7 
REMARK    6  A    between atoms: C6_7  and  C8_9 
REMARK    7  A    between atoms: C30_32  and  O3_33 
ROOT
HETATM    1  C8  UNL     1      -3.732   7.354  14.461  1.00  0.00    -0.002 C 
HETATM    2  C9  UNL     1      -3.254   6.122  15.293  1.00  0.00     0.007 C 
HETATM    3  C10 UNL     1      -1.934   5.623  14.669  1.00  0.00     0.015 C 
HETATM    4  C11 UNL     1      -1.855   6.343  13.311  1.00  0.00    -0.013 C 
HETATM    5  C12 UNL     1      -2.760   5.517  12.330  1.00  0.00     0.021 C 
HETATM    6  C13 UNL     1      -0.494   6.448  12.616  1.00  0.00    -0.070 C 
HETATM    7  C14 UNL     1       0.346   5.405  12.607  1.00  0.00    -0.022 C 
HETATM    8  C15 UNL     1       1.539   5.312  11.729  1.00  0.00     0.034 C 
HETATM    9  C16 UNL     1       1.436   6.169  10.435  1.00  0.00     0.013 C 
HETATM   10  C17 UNL     1       2.761   6.000   9.582  1.00  0.00     0.018 C 
HETATM   11  C18 UNL     1       3.209   4.516   9.521  1.00  0.00     0.023 C 
HETATM   12  C19 UNL     1       2.606   6.448   8.112  1.00  0.00     0.023 C 
HETATM   13  C20 UNL     1       3.882   6.825  10.231  1.00  0.00     0.135 C 
HETATM   14  O2  UNL     1       5.038   6.406  10.315  1.00  0.00    -0.297 OA
HETATM   15  C21 UNL     1       3.559   8.236  10.674  1.00  0.00     0.080 C 
HETATM   16  C22 UNL     1       2.272   8.314  11.483  1.00  0.00     0.017 C 
HETATM   17  C23 UNL     1       1.034   7.656  10.794  1.00  0.00    -0.031 C 
HETATM   18  C24 UNL     1       0.694   8.490   9.537  1.00  0.00     0.016 C 
HETATM   19  C25 UNL     1      -0.199   7.728  11.829  1.00  0.00     0.024 C 
HETATM   20  C26 UNL     1      -1.528   8.335  11.306  1.00  0.00     0.010 C 
HETATM   21  C27 UNL     1      -2.627   8.554  12.382  1.00  0.00     0.011 C 
HETATM   22  C28 UNL     1      -2.429   7.752  13.686  1.00  0.00    -0.029 C 
HETATM   23  C29 UNL     1      -1.527   8.562  14.674  1.00  0.00     0.016 C 
ENDROOT
BRANCH   1  24
HETATM   24  C6  UNL     1      -4.477   8.408  15.337  1.00  0.00    -0.011 C 
HETATM   25  C7  UNL     1      -3.786   9.776  15.296  1.00  0.00     0.010 C 
BRANCH  24  26
HETATM   26  C5  UNL     1      -5.956   8.538  14.870  1.00  0.00     0.040 C 
BRANCH  26  27
HETATM   27  C4  UNL     1      -6.909   7.451  15.390  1.00  0.00     0.141 C 
BRANCH  27  28
HETATM   28  C3  UNL     1      -7.104   6.348  14.379  1.00  0.00     0.009 C 
HETATM   29  C2  UNL     1      -8.209   5.997  13.683  1.00  0.00    -0.062 C 
HETATM   30  C1  UNL     1      -9.558   6.650  13.849  1.00  0.00     0.045 C 
BRANCH  29  31
HETATM   31  C30 UNL     1      -8.219   4.886  12.655  1.00  0.00     0.198 C 
BRANCH  31  32
HETATM   32  O3  UNL     1      -8.659   3.652  13.203  1.00  0.00    -0.397 OA
HETATM   33  H48 UNL     1      -9.592   3.780  13.446  1.00  0.00     0.209 HD
ENDBRANCH  31  32
ENDBRANCH  29  31
ENDBRANCH  27  28
BRANCH  27  34
HETATM   34  O1  UNL     1      -6.439   6.922  16.623  1.00  0.00    -0.392 OA
HETATM   35  H6  UNL     1      -6.952   6.113  16.793  1.00  0.00     0.210 HD
ENDBRANCH  27  34
ENDBRANCH  26  27
ENDBRANCH  24  26
ENDBRANCH   1  24
TORSDOF 7
ENDMDL
MODEL 5
REMARK minimizedAffinity -8.92675209
REMARK  7 active torsions:
REMARK  status: ('A' for Active; 'I' for Inactive)
REMARK    1  A    between atoms: C2_2  and  C30_32 
REMARK    2  A    between atoms: C3_3  and  C4_4 
REMARK    3  A    between atoms: C4_4  and  O1_5 
REMARK    4  A    between atoms: C4_4  and  C5_6 
REMARK    5  A    between atoms: C5_6  and  C6_7 
REMARK    6  A    between atoms: C6_7  and  C8_9 
REMARK    7  A    between atoms: C30_32  and  O3_33 
ROOT
HETATM    1  C8  UNL     1      -1.958   5.904  12.404  1.00  0.00    -0.002 C 
HETATM    2  C9  UNL     1      -1.365   4.636  11.712  1.00  0.00     0.007 C 
HETATM    3  C10 UNL     1       0.148   4.871  11.528  1.00  0.00     0.015 C 
HETATM    4  C11 UNL     1       0.338   6.374  11.795  1.00  0.00    -0.013 C 
HETATM    5  C12 UNL     1      -0.048   7.104  10.460  1.00  0.00     0.021 C 
HETATM    6  C13 UNL     1       1.740   6.885  12.144  1.00  0.00    -0.070 C 
HETATM    7  C14 UNL     1       2.814   6.417  11.494  1.00  0.00    -0.022 C 
HETATM    8  C15 UNL     1       4.157   7.047  11.555  1.00  0.00     0.034 C 
HETATM    9  C16 UNL     1       4.124   8.563  11.903  1.00  0.00     0.013 C 
HETATM   10  C17 UNL     1       5.605   9.126  11.947  1.00  0.00     0.018 C 
HETATM   11  C18 UNL     1       6.447   8.600  10.756  1.00  0.00     0.023 C 
HETATM   12  C19 UNL     1       5.679  10.667  11.859  1.00  0.00     0.023 C 
HETATM   13  C20 UNL     1       6.272   8.677  13.256  1.00  0.00     0.135 C 
HETATM   14  O2  UNL     1       7.446   8.305  13.297  1.00  0.00    -0.297 OA
HETATM   15  C21 UNL     1       5.478   8.808  14.538  1.00  0.00     0.080 C 
HETATM   16  C22 UNL     1       4.067   8.248  14.411  1.00  0.00     0.017 C 
HETATM   17  C23 UNL     1       3.255   8.809  13.200  1.00  0.00    -0.031 C 
HETATM   18  C24 UNL     1       3.000  10.311  13.458  1.00  0.00     0.016 C 
HETATM   19  C25 UNL     1       1.845   8.030  13.154  1.00  0.00     0.024 C 
HETATM   20  C26 UNL     1       0.559   8.898  13.091  1.00  0.00     0.010 C 
HETATM   21  C27 UNL     1      -0.776   8.117  13.233  1.00  0.00     0.011 C 
HETATM   22  C28 UNL     1      -0.674   6.599  12.971  1.00  0.00    -0.029 C 
HETATM   23  C29 UNL     1      -0.286   5.858  14.291  1.00  0.00     0.016 C 
ENDROOT
BRANCH   1  24
HETATM   24  C6  UNL     1      -3.149   5.560  13.352  1.00  0.00    -0.011 C 
HETATM   25  C7  UNL     1      -2.694   5.420  14.809  1.00  0.00     0.010 C 
BRANCH  24  26
HETATM   26  C5  UNL     1      -4.254   6.650  13.235  1.00  0.00     0.040 C 
BRANCH  26  27
HETATM   27  C4  UNL     1      -5.692   6.155  13.455  1.00  0.00     0.141 C 
BRANCH  27  28
HETATM   28  C3  UNL     1      -5.840   4.695  13.107  1.00  0.00     0.009 C 
HETATM   29  C2  UNL     1      -6.954   3.979  12.830  1.00  0.00    -0.062 C 
HETATM   30  C1  UNL     1      -8.354   4.537  12.882  1.00  0.00     0.045 C 
BRANCH  29  31
HETATM   31  C30 UNL     1      -6.921   2.516  12.443  1.00  0.00     0.198 C 
BRANCH  31  32
HETATM   32  O3  UNL     1      -8.186   1.890  12.603  1.00  0.00    -0.397 OA
HETATM   33  H48 UNL     1      -8.779   2.310  11.956  1.00  0.00     0.209 HD
ENDBRANCH  31  32
ENDBRANCH  29  31
ENDBRANCH  27  28
BRANCH  27  34
HETATM   34  O1  UNL     1      -6.104   6.396  14.794  1.00  0.00    -0.392 OA
HETATM   35  H6  UNL     1      -6.921   5.885  14.930  1.00  0.00     0.210 HD
ENDBRANCH  27  34
ENDBRANCH  26  27
ENDBRANCH  24  26
ENDBRANCH   1  24
TORSDOF 7
ENDMDL
MODEL 6
REMARK minimizedAffinity -8.89496422
REMARK  7 active torsions:
REMARK  status: ('A' for Active; 'I' for Inactive)
REMARK    1  A    between atoms: C2_2  and  C30_32 
REMARK    2  A    between atoms: C3_3  and  C4_4 
REMARK    3  A    between atoms: C4_4  and  O1_5 
REMARK    4  A    between atoms: C4_4  and  C5_6 
REMARK    5  A    between atoms: C5_6  and  C6_7 
REMARK    6  A    between atoms: C6_7  and  C8_9 
REMARK    7  A    between atoms: C30_32  and  O3_33 
ROOT
HETATM    1  C8  UNL     1       0.958   6.064  12.463  1.00  0.00    -0.002 C 
HETATM    2  C9  UNL     1       0.783   5.282  11.122  1.00  0.00     0.007 C 
HETATM    3  C10 UNL     1      -0.698   4.864  11.017  1.00  0.00     0.015 C 
HETATM    4  C11 UNL     1      -1.266   5.106  12.427  1.00  0.00    -0.013 C 
HETATM    5  C12 UNL     1      -0.860   3.851  13.278  1.00  0.00     0.021 C 
HETATM    6  C13 UNL     1      -2.784   5.233  12.593  1.00  0.00    -0.070 C 
HETATM    7  C14 UNL     1      -3.611   4.422  11.921  1.00  0.00    -0.022 C 
HETATM    8  C15 UNL     1      -5.056   4.275  12.229  1.00  0.00     0.034 C 
HETATM    9  C16 UNL     1      -5.425   4.630  13.698  1.00  0.00     0.013 C 
HETATM   10  C17 UNL     1      -6.985   4.445  13.911  1.00  0.00     0.018 C 
HETATM   11  C18 UNL     1      -7.493   3.134  13.256  1.00  0.00     0.023 C 
HETATM   12  C19 UNL     1      -7.395   4.353  15.397  1.00  0.00     0.023 C 
HETATM   13  C20 UNL     1      -7.720   5.632  13.270  1.00  0.00     0.135 C 
HETATM   14  O2  UNL     1      -8.771   5.487  12.641  1.00  0.00    -0.297 OA
HETATM   15  C21 UNL     1      -7.181   7.022  13.525  1.00  0.00     0.080 C 
HETATM   16  C22 UNL     1      -5.677   7.115  13.304  1.00  0.00     0.017 C 
HETATM   17  C23 UNL     1      -4.842   6.049  14.081  1.00  0.00    -0.031 C 
HETATM   18  C24 UNL     1      -4.979   6.350  15.591  1.00  0.00     0.016 C 
HETATM   19  C25 UNL     1      -3.300   6.220  13.644  1.00  0.00     0.024 C 
HETATM   20  C26 UNL     1      -2.254   6.363  14.781  1.00  0.00     0.010 C 
HETATM   21  C27 UNL     1      -0.812   6.709  14.317  1.00  0.00     0.011 C 
HETATM   22  C28 UNL     1      -0.523   6.426  12.827  1.00  0.00    -0.029 C 
HETATM   23  C29 UNL     1      -0.925   7.667  11.964  1.00  0.00     0.016 C 
ENDROOT
BRANCH   1  24
HETATM   24  C6  UNL     1       2.038   7.185  12.359  1.00  0.00    -0.011 C 
HETATM   25  C7  UNL     1       2.544   7.619  13.739  1.00  0.00     0.010 C 
BRANCH  24  26
HETATM   26  C5  UNL     1       3.225   6.700  11.478  1.00  0.00     0.040 C 
BRANCH  26  27
HETATM   27  C4  UNL     1       3.428   7.469  10.163  1.00  0.00     0.141 C 
BRANCH  27  28
HETATM   28  C3  UNL     1       4.453   8.565  10.309  1.00  0.00     0.009 C 
HETATM   29  C2  UNL     1       5.767   8.486  10.620  1.00  0.00    -0.062 C 
HETATM   30  C1  UNL     1       6.481   7.203  10.961  1.00  0.00     0.045 C 
BRANCH  29  31
HETATM   31  C30 UNL     1       6.678   9.695  10.673  1.00  0.00     0.198 C 
BRANCH  31  32
HETATM   32  O3  UNL     1       7.658   9.583  11.695  1.00  0.00    -0.397 OA
HETATM   33  H48 UNL     1       8.234   8.843  11.438  1.00  0.00     0.209 HD
ENDBRANCH  31  32
ENDBRANCH  29  31
ENDBRANCH  27  28
BRANCH  27  34
HETATM   34  O1  UNL     1       3.791   6.580   9.115  1.00  0.00    -0.392 OA
HETATM   35  H6  UNL     1       4.104   7.132   8.378  1.00  0.00     0.210 HD
ENDBRANCH  27  34
ENDBRANCH  26  27
ENDBRANCH  24  26
ENDBRANCH   1  24
TORSDOF 7
ENDMDL
MODEL 7
REMARK minimizedAffinity -8.8493948
REMARK  7 active torsions:
REMARK  status: ('A' for Active; 'I' for Inactive)
REMARK    1  A    between atoms: C2_2  and  C30_32 
REMARK    2  A    between atoms: C3_3  and  C4_4 
REMARK    3  A    between atoms: C4_4  and  O1_5 
REMARK    4  A    between atoms: C4_4  and  C5_6 
REMARK    5  A    between atoms: C5_6  and  C6_7 
REMARK    6  A    between atoms: C6_7  and  C8_9 
REMARK    7  A    between atoms: C30_32  and  O3_33 
ROOT
HETATM    1  C8  UNL     1      -0.386   6.997  12.789  1.00  0.00    -0.002 C 
HETATM    2  C9  UNL     1      -0.096   8.306  13.592  1.00  0.00     0.007 C 
HETATM    3  C10 UNL     1      -1.420   8.753  14.246  1.00  0.00     0.015 C 
HETATM    4  C11 UNL     1      -2.499   7.910  13.544  1.00  0.00    -0.013 C 
HETATM    5  C12 UNL     1      -2.798   8.633  12.184  1.00  0.00     0.021 C 
HETATM    6  C13 UNL     1      -3.861   7.749  14.226  1.00  0.00    -0.070 C 
HETATM    7  C14 UNL     1      -4.445   8.792  14.829  1.00  0.00    -0.022 C 
HETATM    8  C15 UNL     1      -5.868   8.811  15.255  1.00  0.00     0.034 C 
HETATM    9  C16 UNL     1      -6.776   7.835  14.455  1.00  0.00     0.013 C 
HETATM   10  C17 UNL     1      -8.263   7.933  14.997  1.00  0.00     0.018 C 
HETATM   11  C18 UNL     1      -8.685   9.408  15.228  1.00  0.00     0.023 C 
HETATM   12  C19 UNL     1      -9.311   7.348  14.025  1.00  0.00     0.023 C 
HETATM   13  C20 UNL     1      -8.358   7.180  16.333  1.00  0.00     0.135 C 
HETATM   14  O2  UNL     1      -9.014   7.614  17.282  1.00  0.00    -0.297 OA
HETATM   15  C21 UNL     1      -7.711   5.815  16.426  1.00  0.00     0.080 C 
HETATM   16  C22 UNL     1      -6.289   5.804  15.882  1.00  0.00     0.017 C 
HETATM   17  C23 UNL     1      -6.144   6.386  14.439  1.00  0.00    -0.031 C 
HETATM   18  C24 UNL     1      -6.883   5.435  13.470  1.00  0.00     0.016 C 
HETATM   19  C25 UNL     1      -4.575   6.403  14.073  1.00  0.00     0.024 C 
HETATM   20  C26 UNL     1      -4.153   5.740  12.735  1.00  0.00     0.010 C 
HETATM   21  C27 UNL     1      -2.620   5.615  12.510  1.00  0.00     0.011 C 
HETATM   22  C28 UNL     1      -1.756   6.537  13.395  1.00  0.00    -0.029 C 
HETATM   23  C29 UNL     1      -1.451   5.831  14.757  1.00  0.00     0.016 C 
ENDROOT
BRANCH   1  24
HETATM   24  C6  UNL     1       0.834   6.025  12.780  1.00  0.00    -0.011 C 
HETATM   25  C7  UNL     1       0.528   4.732  12.016  1.00  0.00     0.010 C 
BRANCH  24  26
HETATM   26  C5  UNL     1       2.075   6.734  12.163  1.00  0.00     0.040 C 
BRANCH  26  27
HETATM   27  C4  UNL     1       2.734   6.002  10.984  1.00  0.00     0.141 C 
BRANCH  27  28
HETATM   28  C3  UNL     1       2.467   6.699   9.674  1.00  0.00     0.009 C 
HETATM   29  C2  UNL     1       3.088   7.764   9.117  1.00  0.00    -0.062 C 
HETATM   30  C1  UNL     1       4.198   8.540   9.779  1.00  0.00     0.045 C 
BRANCH  29  31
HETATM   31  C30 UNL     1       2.725   8.311   7.752  1.00  0.00     0.198 C 
BRANCH  31  32
HETATM   32  O3  UNL     1       1.690   7.562   7.132  1.00  0.00    -0.397 OA
HETATM   33  H48 UNL     1       0.895   7.695   7.678  1.00  0.00     0.209 HD
ENDBRANCH  31  32
ENDBRANCH  29  31
ENDBRANCH  27  28
BRANCH  27  34
HETATM   34  O1  UNL     1       4.132   5.863  11.201  1.00  0.00    -0.392 OA
HETATM   35  H6  UNL     1       4.520   5.590  10.352  1.00  0.00     0.210 HD
ENDBRANCH  27  34
ENDBRANCH  26  27
ENDBRANCH  24  26
ENDBRANCH   1  24
TORSDOF 7
ENDMDL
MODEL 8
REMARK minimizedAffinity -8.82287693
REMARK  7 active torsions:
REMARK  status: ('A' for Active; 'I' for Inactive)
REMARK    1  A    between atoms: C2_2  and  C30_32 
REMARK    2  A    between atoms: C3_3  and  C4_4 
REMARK    3  A    between atoms: C4_4  and  O1_5 
REMARK    4  A    between atoms: C4_4  and  C5_6 
REMARK    5  A    between atoms: C5_6  and  C6_7 
REMARK    6  A    between atoms: C6_7  and  C8_9 
REMARK    7  A    between atoms: C30_32  and  O3_33 
ROOT
HETATM    1  C8  UNL     1      -4.859   5.955  14.731  1.00  0.00    -0.002 C 
HETATM    2  C9  UNL     1      -5.039   5.144  13.408  1.00  0.00     0.007 C 
HETATM    3  C10 UNL     1      -6.503   5.314  12.954  1.00  0.00     0.015 C 
HETATM    4  C11 UNL     1      -7.216   5.921  14.175  1.00  0.00    -0.013 C 
HETATM    5  C12 UNL     1      -7.537   4.719  15.132  1.00  0.00     0.021 C 
HETATM    6  C13 UNL     1      -8.553   6.638  13.962  1.00  0.00    -0.070 C 
HETATM    7  C14 UNL     1      -9.470   6.129  13.129  1.00  0.00    -0.022 C 
HETATM    8  C15 UNL     1     -10.883   6.582  13.078  1.00  0.00     0.034 C 
HETATM    9  C16 UNL     1     -11.385   7.225  14.403  1.00  0.00     0.013 C 
HETATM   10  C17 UNL     1     -12.895   7.676  14.232  1.00  0.00     0.018 C 
HETATM   11  C18 UNL     1     -13.731   6.591  13.506  1.00  0.00     0.023 C 
HETATM   12  C19 UNL     1     -13.616   7.928  15.574  1.00  0.00     0.023 C 
HETATM   13  C20 UNL     1     -12.940   8.968  13.401  1.00  0.00     0.135 C 
HETATM   14  O2  UNL     1     -13.799   9.160  12.538  1.00  0.00    -0.297 OA
HETATM   15  C21 UNL     1     -11.958  10.067  13.745  1.00  0.00     0.080 C 
HETATM   16  C22 UNL     1     -10.533   9.552  13.896  1.00  0.00     0.017 C 
HETATM   17  C23 UNL     1     -10.381   8.349  14.881  1.00  0.00    -0.031 C 
HETATM   18  C24 UNL     1     -10.708   8.859  16.303  1.00  0.00     0.016 C 
HETATM   19  C25 UNL     1      -8.845   7.865  14.830  1.00  0.00     0.024 C 
HETATM   20  C26 UNL     1      -8.099   7.733  16.184  1.00  0.00     0.010 C 
HETATM   21  C27 UNL     1      -6.576   7.444  16.078  1.00  0.00     0.011 C 
HETATM   22  C28 UNL     1      -6.111   6.896  14.712  1.00  0.00    -0.029 C 
HETATM   23  C29 UNL     1      -5.790   8.083  13.746  1.00  0.00     0.016 C 
ENDROOT
BRANCH   1  24
HETATM   24  C6  UNL     1      -3.426   6.558  14.865  1.00  0.00    -0.011 C 
HETATM   25  C7  UNL     1      -3.242   7.298  16.195  1.00  0.00     0.010 C 
BRANCH  24  26
HETATM   26  C5  UNL     1      -2.360   5.433  14.723  1.00  0.00     0.040 C 
BRANCH  26  27
HETATM   27  C4  UNL     1      -0.945   5.909  14.359  1.00  0.00     0.141 C 
BRANCH  27  28
HETATM   28  C3  UNL     1      -0.973   7.188  13.560  1.00  0.00     0.009 C 
HETATM   29  C2  UNL     1      -0.766   7.387  12.238  1.00  0.00    -0.062 C 
HETATM   30  C1  UNL     1      -0.383   6.300  11.266  1.00  0.00     0.045 C 
BRANCH  29  31
HETATM   31  C30 UNL     1      -0.887   8.745  11.579  1.00  0.00     0.198 C 
BRANCH  31  32
HETATM   32  O3  UNL     1      -1.282   9.753  12.497  1.00  0.00    -0.397 OA
HETATM   33  H48 UNL     1      -0.550   9.844  13.131  1.00  0.00     0.209 HD
ENDBRANCH  31  32
ENDBRANCH  29  31
ENDBRANCH  27  28
BRANCH  27  34
HETATM   34  O1  UNL     1      -0.155   6.068  15.530  1.00  0.00    -0.392 OA
HETATM   35  H6  UNL     1       0.641   6.560  15.265  1.00  0.00     0.210 HD
ENDBRANCH  27  34
ENDBRANCH  26  27
ENDBRANCH  24  26
ENDBRANCH   1  24
TORSDOF 7
ENDMDL
MODEL 9
REMARK minimizedAffinity -8.73338699
REMARK  7 active torsions:
REMARK  status: ('A' for Active; 'I' for Inactive)
REMARK    1  A    between atoms: C2_2  and  C30_32 
REMARK    2  A    between atoms: C3_3  and  C4_4 
REMARK    3  A    between atoms: C4_4  and  O1_5 
REMARK    4  A    between atoms: C4_4  and  C5_6 
REMARK    5  A    between atoms: C5_6  and  C6_7 
REMARK    6  A    between atoms: C6_7  and  C8_9 
REMARK    7  A    between atoms: C30_32  and  O3_33 
ROOT
HETATM    1  C8  UNL     1      -1.623   5.489  12.181  1.00  0.00    -0.002 C 
HETATM    2  C9  UNL     1      -0.896   4.296  11.482  1.00  0.00     0.007 C 
HETATM    3  C10 UNL     1       0.593   4.675  11.345  1.00  0.00     0.015 C 
HETATM    4  C11 UNL     1       0.634   6.184  11.645  1.00  0.00    -0.013 C 
HETATM    5  C12 UNL     1       0.215   6.903  10.314  1.00  0.00     0.021 C 
HETATM    6  C13 UNL     1       1.972   6.816  12.042  1.00  0.00    -0.070 C 
HETATM    7  C14 UNL     1       3.102   6.464  11.414  1.00  0.00    -0.022 C 
HETATM    8  C15 UNL     1       4.377   7.216  11.524  1.00  0.00     0.034 C 
HETATM    9  C16 UNL     1       4.194   8.714  11.898  1.00  0.00     0.013 C 
HETATM   10  C17 UNL     1       5.613   9.413  11.994  1.00  0.00     0.018 C 
HETATM   11  C18 UNL     1       6.532   8.992  10.817  1.00  0.00     0.023 C 
HETATM   12  C19 UNL     1       5.544  10.955  11.937  1.00  0.00     0.023 C 
HETATM   13  C20 UNL     1       6.285   9.000  13.313  1.00  0.00     0.135 C 
HETATM   14  O2  UNL     1       7.488   8.739  13.380  1.00  0.00    -0.297 OA
HETATM   15  C21 UNL     1       5.449   9.030  14.574  1.00  0.00     0.080 C 
HETATM   16  C22 UNL     1       4.101   8.343  14.398  1.00  0.00     0.017 C 
HETATM   17  C23 UNL     1       3.272   8.850  13.175  1.00  0.00    -0.031 C 
HETATM   18  C24 UNL     1       2.870  10.317  13.454  1.00  0.00     0.016 C 
HETATM   19  C25 UNL     1       1.943   7.945  13.076  1.00  0.00     0.024 C 
HETATM   20  C26 UNL     1       0.583   8.690  12.993  1.00  0.00     0.010 C 
HETATM   21  C27 UNL     1      -0.676   7.785  13.084  1.00  0.00     0.011 C 
HETATM   22  C28 UNL     1      -0.425   6.289  12.796  1.00  0.00    -0.029 C 
HETATM   23  C29 UNL     1      -0.003   5.559  14.113  1.00  0.00     0.016 C 
ENDROOT
BRANCH   1  24
HETATM   24  C6  UNL     1      -2.800   5.016  13.089  1.00  0.00    -0.011 C 
HETATM   25  C7  UNL     1      -4.029   5.922  12.949  1.00  0.00     0.010 C 
BRANCH  24  26
HETATM   26  C5  UNL     1      -3.175   3.544  12.751  1.00  0.00     0.040 C 
BRANCH  26  27
HETATM   27  C4  UNL     1      -4.469   3.362  11.944  1.00  0.00     0.141 C 
BRANCH  27  28
HETATM   28  C3  UNL     1      -5.636   4.062  12.594  1.00  0.00     0.009 C 
HETATM   29  C2  UNL     1      -6.857   3.583  12.927  1.00  0.00    -0.062 C 
HETATM   30  C1  UNL     1      -7.326   2.181  12.634  1.00  0.00     0.045 C 
BRANCH  29  31
HETATM   31  C30 UNL     1      -7.906   4.417  13.632  1.00  0.00     0.198 C 
BRANCH  31  32
HETATM   32  O3  UNL     1      -7.957   4.149  15.025  1.00  0.00    -0.397 OA
HETATM   33  H48 UNL     1      -7.107   4.451  15.390  1.00  0.00     0.209 HD
ENDBRANCH  31  32
ENDBRANCH  29  31
ENDBRANCH  27  28
BRANCH  27  34
HETATM   34  O1  UNL     1      -4.293   3.816  10.608  1.00  0.00    -0.392 OA
HETATM   35  H6  UNL     1      -5.180   3.872  10.214  1.00  0.00     0.210 HD
ENDBRANCH  27  34
ENDBRANCH  26  27
ENDBRANCH  24  26
ENDBRANCH   1  24
TORSDOF 7
ENDMDL
