MODEL 1
REMARK minimizedAffinity -9.22138405
REMARK  8 active torsions:
REMARK  status: ('A' for Active; 'I' for Inactive)
REMARK    1  A    between atoms: C2_2  and  C30_33 
REMARK    2  A    between atoms: C3_3  and  C4_4 
REMARK    3  A    between atoms: C4_4  and  C5_5 
REMARK    4  A    between atoms: C5_5  and  C6_6 
REMARK    5  A    between atoms: C6_6  and  C8_8 
REMARK    6  A    between atoms: C15_15  and  O1_16 
REMARK    7  A    between atoms: C23_24  and  O2_25 
REMARK    8  A    between atoms: C30_33  and  O4_34 
ROOT
HETATM    1  C8  UNL     1       3.091   7.577  11.143  1.00  0.00    -0.002 C 
HETATM    2  C9  UNL     1       2.945   6.202  10.453  1.00  0.00     0.007 C 
HETATM    3  C10 UNL     1       1.525   5.689  10.789  1.00  0.00     0.015 C 
HETATM    4  C11 UNL     1       0.761   6.920  11.326  1.00  0.00    -0.005 C 
HETATM    5  C12 UNL     1       0.259   7.720  10.085  1.00  0.00     0.021 C 
HETATM    6  C13 UNL     1      -0.478   6.774  12.201  1.00  0.00     0.002 C 
HETATM    7  C14 UNL     1      -0.790   7.711  13.140  1.00  0.00    -0.032 C 
HETATM    8  C15 UNL     1       0.118   8.922  13.379  1.00  0.00     0.149 C 
HETATM    9  C16 UNL     1       1.446   8.985  12.588  1.00  0.00     0.047 C 
HETATM   10  C17 UNL     1       1.919   7.594  12.165  1.00  0.00    -0.026 C 
HETATM   11  C18 UNL     1       2.278   6.785  13.445  1.00  0.00     0.016 C 
HETATM   12  C19 UNL     1      -2.006   7.512  14.093  1.00  0.00    -0.013 C 
HETATM   13  C20 UNL     1      -1.448   6.630  15.238  1.00  0.00     0.021 C 
HETATM   14  C21 UNL     1      -2.586   8.813  14.688  1.00  0.00     0.017 C 
HETATM   15  C22 UNL     1      -3.792   8.616  15.609  1.00  0.00     0.033 C 
HETATM   16  C23 UNL     1      -4.705   7.435  15.265  1.00  0.00     0.126 C 
HETATM   17  C24 UNL     1      -4.625   6.948  13.796  1.00  0.00    -0.017 C 
HETATM   18  C25 UNL     1      -5.402   5.618  13.651  1.00  0.00     0.018 C 
HETATM   19  C26 UNL     1      -5.404   7.984  12.933  1.00  0.00     0.018 C 
HETATM   20  C27 UNL     1      -3.142   6.861  13.233  1.00  0.00     0.015 C 
HETATM   21  C28 UNL     1      -2.685   5.490  12.735  1.00  0.00     0.090 C 
HETATM   22  C29 UNL     1      -1.366   5.578  11.997  1.00  0.00     0.157 C 
HETATM   23  O3  UNL     1      -1.032   4.662  11.245  1.00  0.00    -0.293 OA
ENDROOT
BRANCH   1  24
HETATM   24  C6  UNL     1       4.519   8.055  11.527  1.00  0.00    -0.014 C 
HETATM   25  C7  UNL     1       5.092   8.927  10.394  1.00  0.00     0.010 C 
BRANCH  24  26
HETATM   26  C5  UNL     1       5.589   7.075  12.066  1.00  0.00     0.008 C 
BRANCH  26  27
HETATM   27  C4  UNL     1       6.971   7.565  12.514  1.00  0.00     0.028 C 
BRANCH  27  28
HETATM   28  C3  UNL     1       7.106   7.856  13.981  1.00  0.00    -0.022 C 
HETATM   29  C2  UNL     1       8.248   8.040  14.676  1.00  0.00    -0.064 C 
HETATM   30  C1  UNL     1       9.629   7.932  14.089  1.00  0.00     0.045 C 
BRANCH  29  31
HETATM   31  C30 UNL     1       8.211   8.348  16.151  1.00  0.00     0.197 C 
BRANCH  31  32
HETATM   32  O4  UNL     1       8.973   7.374  16.844  1.00  0.00    -0.397 OA
HETATM   33  H48 UNL     1       9.010   7.657  17.772  1.00  0.00     0.209 HD
ENDBRANCH  31  32
ENDBRANCH  29  31
ENDBRANCH  27  28
ENDBRANCH  26  27
ENDBRANCH  24  26
ENDBRANCH   1  24
BRANCH   8  34
HETATM   34  O1  UNL     1      -0.613  10.101  13.061  1.00  0.00    -0.391 OA
HETATM   35  H22 UNL     1      -0.062  10.860  13.319  1.00  0.00     0.210 HD
ENDBRANCH   8  34
BRANCH  16  36
HETATM   36  O2  UNL     1      -4.422   6.371  16.174  1.00  0.00    -0.395 OA
HETATM   37  H36 UNL     1      -5.209   5.803  16.227  1.00  0.00     0.210 HD
ENDBRANCH  16  36
TORSDOF 8
ENDMDL
MODEL 2
REMARK minimizedAffinity -9.1196537
REMARK  8 active torsions:
REMARK  status: ('A' for Active; 'I' for Inactive)
REMARK    1  A    between atoms: C2_2  and  C30_33 
REMARK    2  A    between atoms: C3_3  and  C4_4 
REMARK    3  A    between atoms: C4_4  and  C5_5 
REMARK    4  A    between atoms: C5_5  and  C6_6 
REMARK    5  A    between atoms: C6_6  and  C8_8 
REMARK    6  A    between atoms: C15_15  and  O1_16 
REMARK    7  A    between atoms: C23_24  and  O2_25 
REMARK    8  A    between atoms: C30_33  and  O4_34 
ROOT
HETATM    1  C8  UNL     1       0.500   6.417  12.745  1.00  0.00    -0.002 C 
HETATM    2  C9  UNL     1       0.718   4.914  12.464  1.00  0.00     0.007 C 
HETATM    3  C10 UNL     1      -0.679   4.252  12.498  1.00  0.00     0.015 C 
HETATM    4  C11 UNL     1      -1.687   5.420  12.413  1.00  0.00    -0.005 C 
HETATM    5  C12 UNL     1      -1.820   5.797  10.904  1.00  0.00     0.021 C 
HETATM    6  C13 UNL     1      -3.128   5.270  12.887  1.00  0.00     0.002 C 
HETATM    7  C14 UNL     1      -3.818   6.334  13.386  1.00  0.00    -0.032 C 
HETATM    8  C15 UNL     1      -3.156   7.708  13.527  1.00  0.00     0.149 C 
HETATM    9  C16 UNL     1      -1.653   7.815  13.178  1.00  0.00     0.047 C 
HETATM   10  C17 UNL     1      -0.941   6.470  13.327  1.00  0.00    -0.026 C 
HETATM   11  C18 UNL     1      -0.955   6.069  14.831  1.00  0.00     0.016 C 
HETATM   12  C19 UNL     1      -5.259   6.157  13.952  1.00  0.00    -0.013 C 
HETATM   13  C20 UNL     1      -5.034   5.688  15.413  1.00  0.00     0.021 C 
HETATM   14  C21 UNL     1      -6.119   7.437  13.955  1.00  0.00     0.017 C 
HETATM   15  C22 UNL     1      -7.540   7.255  14.495  1.00  0.00     0.033 C 
HETATM   16  C23 UNL     1      -8.174   5.883  14.248  1.00  0.00     0.126 C 
HETATM   17  C24 UNL     1      -7.567   5.081  13.070  1.00  0.00    -0.017 C 
HETATM   18  C25 UNL     1      -8.127   3.639  13.087  1.00  0.00     0.018 C 
HETATM   19  C26 UNL     1      -8.107   5.724  11.758  1.00  0.00     0.018 C 
HETATM   20  C27 UNL     1      -5.980   5.127  13.018  1.00  0.00     0.015 C 
HETATM   21  C28 UNL     1      -5.260   3.779  13.088  1.00  0.00     0.090 C 
HETATM   22  C29 UNL     1      -3.784   3.921  12.779  1.00  0.00     0.157 C 
HETATM   23  O3  UNL     1      -3.138   2.926  12.451  1.00  0.00    -0.293 OA
ENDROOT
BRANCH   1  24
HETATM   24  C6  UNL     1       1.670   7.220  13.381  1.00  0.00    -0.014 C 
HETATM   25  C7  UNL     1       1.103   8.393  14.202  1.00  0.00     0.010 C 
BRANCH  24  26
HETATM   26  C5  UNL     1       2.897   7.668  12.551  1.00  0.00     0.008 C 
BRANCH  26  27
HETATM   27  C4  UNL     1       3.283   6.962  11.246  1.00  0.00     0.028 C 
BRANCH  27  28
HETATM   28  C3  UNL     1       2.948   7.707   9.986  1.00  0.00    -0.022 C 
HETATM   29  C2  UNL     1       2.771   7.191   8.753  1.00  0.00    -0.064 C 
HETATM   30  C1  UNL     1       2.932   5.734   8.409  1.00  0.00     0.045 C 
BRANCH  29  31
HETATM   31  C30 UNL     1       2.415   8.079   7.589  1.00  0.00     0.197 C 
BRANCH  31  32
HETATM   32  O4  UNL     1       3.278   9.205   7.589  1.00  0.00    -0.397 OA
HETATM   33  H48 UNL     1       3.088   9.701   6.775  1.00  0.00     0.209 HD
ENDBRANCH  31  32
ENDBRANCH  29  31
ENDBRANCH  27  28
ENDBRANCH  26  27
ENDBRANCH  24  26
ENDBRANCH   1  24
BRANCH   8  34
HETATM   34  O1  UNL     1      -3.846   8.628  12.686  1.00  0.00    -0.391 OA
HETATM   35  H22 UNL     1      -3.483   9.511  12.868  1.00  0.00     0.210 HD
ENDBRANCH   8  34
BRANCH  16  36
HETATM   36  O2  UNL     1      -8.112   5.137  15.463  1.00  0.00    -0.395 OA
HETATM   37  H36 UNL     1      -8.817   4.467  15.441  1.00  0.00     0.210 HD
ENDBRANCH  16  36
TORSDOF 8
ENDMDL
MODEL 3
REMARK minimizedAffinity -9.06076622
REMARK  8 active torsions:
REMARK  status: ('A' for Active; 'I' for Inactive)
REMARK    1  A    between atoms: C2_2  and  C30_33 
REMARK    2  A    between atoms: C3_3  and  C4_4 
REMARK    3  A    between atoms: C4_4  and  C5_5 
REMARK    4  A    between atoms: C5_5  and  C6_6 
REMARK    5  A    between atoms: C6_6  and  C8_8 
REMARK    6  A    between atoms: C15_15  and  O1_16 
REMARK    7  A    between atoms: C23_24  and  O2_25 
REMARK    8  A    between atoms: C30_33  and  O4_34 
ROOT
HETATM    1  C8  UNL     1      -2.891   8.206  14.475  1.00  0.00    -0.002 C 
HETATM    2  C9  UNL     1      -2.356   7.995  15.909  1.00  0.00     0.007 C 
HETATM    3  C10 UNL     1      -0.821   7.858  15.791  1.00  0.00     0.015 C 
HETATM    4  C11 UNL     1      -0.471   8.370  14.376  1.00  0.00    -0.005 C 
HETATM    5  C12 UNL     1      -0.402   9.927  14.460  1.00  0.00     0.021 C 
HETATM    6  C13 UNL     1       0.826   7.976  13.680  1.00  0.00     0.002 C 
HETATM    7  C14 UNL     1       0.894   7.880  12.322  1.00  0.00    -0.032 C 
HETATM    8  C15 UNL     1      -0.343   8.121  11.451  1.00  0.00     0.149 C 
HETATM    9  C16 UNL     1      -1.686   8.378  12.173  1.00  0.00     0.047 C 
HETATM   10  C17 UNL     1      -1.697   7.772  13.577  1.00  0.00    -0.026 C 
HETATM   11  C18 UNL     1      -1.626   6.223  13.447  1.00  0.00     0.016 C 
HETATM   12  C19 UNL     1       2.196   7.390  11.621  1.00  0.00    -0.013 C 
HETATM   13  C20 UNL     1       2.092   5.844  11.670  1.00  0.00     0.021 C 
HETATM   14  C21 UNL     1       2.356   7.843  10.155  1.00  0.00     0.017 C 
HETATM   15  C22 UNL     1       3.644   7.376   9.474  1.00  0.00     0.033 C 
HETATM   16  C23 UNL     1       4.865   7.233  10.389  1.00  0.00     0.126 C 
HETATM   17  C24 UNL     1       4.806   8.061  11.698  1.00  0.00    -0.017 C 
HETATM   18  C25 UNL     1       5.970   7.641  12.625  1.00  0.00     0.018 C 
HETATM   19  C26 UNL     1       5.092   9.542  11.310  1.00  0.00     0.018 C 
HETATM   20  C27 UNL     1       3.392   8.011  12.419  1.00  0.00     0.015 C 
HETATM   21  C28 UNL     1       3.381   7.479  13.854  1.00  0.00     0.090 C 
HETATM   22  C29 UNL     1       2.043   7.711  14.523  1.00  0.00     0.157 C 
HETATM   23  O3  UNL     1       1.966   7.670  15.751  1.00  0.00    -0.293 OA
ENDROOT
BRANCH   1  24
HETATM   24  C6  UNL     1      -4.349   7.766  14.165  1.00  0.00    -0.014 C 
HETATM   25  C7  UNL     1      -5.334   8.760  14.809  1.00  0.00     0.010 C 
BRANCH  24  26
HETATM   26  C5  UNL     1      -4.822   6.307  14.372  1.00  0.00     0.008 C 
BRANCH  26  27
HETATM   27  C4  UNL     1      -4.955   5.334  13.195  1.00  0.00     0.028 C 
BRANCH  27  28
HETATM   28  C3  UNL     1      -6.194   4.484  13.197  1.00  0.00    -0.022 C 
HETATM   29  C2  UNL     1      -6.377   3.305  12.569  1.00  0.00    -0.064 C 
HETATM   30  C1  UNL     1      -5.354   2.640  11.688  1.00  0.00     0.045 C 
BRANCH  29  31
HETATM   31  C30 UNL     1      -7.683   2.562  12.690  1.00  0.00     0.197 C 
BRANCH  31  32
HETATM   32  O4  UNL     1      -8.628   3.397  13.340  1.00  0.00    -0.397 OA
HETATM   33  H48 UNL     1      -9.479   2.928  13.313  1.00  0.00     0.209 HD
ENDBRANCH  31  32
ENDBRANCH  29  31
ENDBRANCH  27  28
ENDBRANCH  26  27
ENDBRANCH  24  26
ENDBRANCH   1  24
BRANCH   8  34
HETATM   34  O1  UNL     1      -0.093   9.251  10.621  1.00  0.00    -0.391 OA
HETATM   35  H22 UNL     1      -0.841   9.324  10.003  1.00  0.00     0.210 HD
ENDBRANCH   8  34
BRANCH  16  36
HETATM   36  O2  UNL     1       5.055   5.846  10.668  1.00  0.00    -0.395 OA
HETATM   37  H36 UNL     1       5.990   5.712  10.898  1.00  0.00     0.210 HD
ENDBRANCH  16  36
TORSDOF 8
ENDMDL
MODEL 4
REMARK minimizedAffinity -8.85193348
REMARK  8 active torsions:
REMARK  status: ('A' for Active; 'I' for Inactive)
REMARK    1  A    between atoms: C2_2  and  C30_33 
REMARK    2  A    between atoms: C3_3  and  C4_4 
REMARK    3  A    between atoms: C4_4  and  C5_5 
REMARK    4  A    between atoms: C5_5  and  C6_6 
REMARK    5  A    between atoms: C6_6  and  C8_8 
REMARK    6  A    between atoms: C15_15  and  O1_16 
REMARK    7  A    between atoms: C23_24  and  O2_25 
REMARK    8  A    between atoms: C30_33  and  O4_34 
ROOT
HETATM    1  C8  UNL     1      -2.223   5.940  13.414  1.00  0.00    -0.002 C 
HETATM    2  C9  UNL     1      -2.288   5.325  11.998  1.00  0.00     0.007 C 
HETATM    3  C10 UNL     1      -0.883   5.501  11.376  1.00  0.00     0.015 C 
HETATM    4  C11 UNL     1       0.047   5.854  12.558  1.00  0.00    -0.005 C 
HETATM    5  C12 UNL     1       0.438   4.509  13.246  1.00  0.00     0.021 C 
HETATM    6  C13 UNL     1       1.378   6.564  12.345  1.00  0.00     0.002 C 
HETATM    7  C14 UNL     1       1.893   7.393  13.297  1.00  0.00    -0.032 C 
HETATM    8  C15 UNL     1       1.130   7.674  14.596  1.00  0.00     0.149 C 
HETATM    9  C16 UNL     1      -0.284   7.063  14.739  1.00  0.00     0.047 C 
HETATM   10  C17 UNL     1      -0.924   6.795  13.377  1.00  0.00    -0.026 C 
HETATM   11  C18 UNL     1      -1.170   8.160  12.669  1.00  0.00     0.016 C 
HETATM   12  C19 UNL     1       3.209   8.187  13.038  1.00  0.00    -0.013 C 
HETATM   13  C20 UNL     1       2.742   9.449  12.269  1.00  0.00     0.021 C 
HETATM   14  C21 UNL     1       3.970   8.617  14.309  1.00  0.00     0.017 C 
HETATM   15  C22 UNL     1       5.271   9.380  14.051  1.00  0.00     0.033 C 
HETATM   16  C23 UNL     1       6.027   8.993  12.776  1.00  0.00     0.126 C 
HETATM   17  C24 UNL     1       5.706   7.580  12.224  1.00  0.00    -0.017 C 
HETATM   18  C25 UNL     1       6.342   7.418  10.824  1.00  0.00     0.018 C 
HETATM   19  C26 UNL     1       6.442   6.559  13.140  1.00  0.00     0.018 C 
HETATM   20  C27 UNL     1       4.157   7.226  12.244  1.00  0.00     0.015 C 
HETATM   21  C28 UNL     1       3.524   6.880  10.895  1.00  0.00     0.090 C 
HETATM   22  C29 UNL     1       2.127   6.319  11.065  1.00  0.00     0.157 C 
HETATM   23  O3  UNL     1       1.619   5.677  10.146  1.00  0.00    -0.293 OA
ENDROOT
BRANCH   1  24
HETATM   24  C6  UNL     1      -3.540   6.480  14.038  1.00  0.00    -0.014 C 
HETATM   25  C7  UNL     1      -3.638   6.025  15.506  1.00  0.00     0.010 C 
BRANCH  24  26
HETATM   26  C5  UNL     1      -4.904   6.330  13.321  1.00  0.00     0.008 C 
BRANCH  26  27
HETATM   27  C4  UNL     1      -5.799   5.107  13.548  1.00  0.00     0.028 C 
BRANCH  27  28
HETATM   28  C3  UNL     1      -5.548   3.944  12.630  1.00  0.00    -0.022 C 
HETATM   29  C2  UNL     1      -6.397   2.939  12.333  1.00  0.00    -0.064 C 
HETATM   30  C1  UNL     1      -7.770   2.780  12.928  1.00  0.00     0.045 C 
BRANCH  29  31
HETATM   31  C30 UNL     1      -5.997   1.852  11.369  1.00  0.00     0.197 C 
BRANCH  31  32
HETATM   32  O4  UNL     1      -5.361   2.443  10.248  1.00  0.00    -0.397 OA
HETATM   33  H48 UNL     1      -5.030   1.713   9.698  1.00  0.00     0.209 HD
ENDBRANCH  31  32
ENDBRANCH  29  31
ENDBRANCH  27  28
ENDBRANCH  26  27
ENDBRANCH  24  26
ENDBRANCH   1  24
BRANCH   8  34
HETATM   34  O1  UNL     1       1.906   7.189  15.686  1.00  0.00    -0.391 OA
HETATM   35  H22 UNL     1       1.460   7.469  16.504  1.00  0.00     0.210 HD
ENDBRANCH   8  34
BRANCH  16  36
HETATM   36  O2  UNL     1       5.784   9.996  11.790  1.00  0.00    -0.395 OA
HETATM   37  H36 UNL     1       6.522   9.980  11.156  1.00  0.00     0.210 HD
ENDBRANCH  16  36
TORSDOF 8
ENDMDL
MODEL 5
REMARK minimizedAffinity -8.67003441
REMARK  8 active torsions:
REMARK  status: ('A' for Active; 'I' for Inactive)
REMARK    1  A    between atoms: C2_2  and  C30_33 
REMARK    2  A    between atoms: C3_3  and  C4_4 
REMARK    3  A    between atoms: C4_4  and  C5_5 
REMARK    4  A    between atoms: C5_5  and  C6_6 
REMARK    5  A    between atoms: C6_6  and  C8_8 
REMARK    6  A    between atoms: C15_15  and  O1_16 
REMARK    7  A    between atoms: C23_24  and  O2_25 
REMARK    8  A    between atoms: C30_33  and  O4_34 
ROOT
HETATM    1  C8  UNL     1      -4.878   5.985  13.150  1.00  0.00    -0.002 C 
HETATM    2  C9  UNL     1      -5.814   6.547  14.243  1.00  0.00     0.007 C 
HETATM    3  C10 UNL     1      -4.964   7.517  15.097  1.00  0.00     0.015 C 
HETATM    4  C11 UNL     1      -3.691   7.786  14.264  1.00  0.00    -0.005 C 
HETATM    5  C12 UNL     1      -4.051   8.895  13.227  1.00  0.00     0.021 C 
HETATM    6  C13 UNL     1      -2.402   8.284  14.909  1.00  0.00     0.002 C 
HETATM    7  C14 UNL     1      -1.185   7.960  14.389  1.00  0.00    -0.032 C 
HETATM    8  C15 UNL     1      -1.068   7.048  13.163  1.00  0.00     0.149 C 
HETATM    9  C16 UNL     1      -2.372   6.433  12.603  1.00  0.00     0.047 C 
HETATM   10  C17 UNL     1      -3.457   6.338  13.676  1.00  0.00    -0.026 C 
HETATM   11  C18 UNL     1      -2.991   5.322  14.761  1.00  0.00     0.016 C 
HETATM   12  C19 UNL     1       0.130   8.396  15.102  1.00  0.00    -0.013 C 
HETATM   13  C20 UNL     1       0.357   7.299  16.174  1.00  0.00     0.021 C 
HETATM   14  C21 UNL     1       1.369   8.479  14.188  1.00  0.00     0.017 C 
HETATM   15  C22 UNL     1       2.655   8.925  14.888  1.00  0.00     0.033 C 
HETATM   16  C23 UNL     1       2.473   9.901  16.054  1.00  0.00     0.126 C 
HETATM   17  C24 UNL     1       1.150  10.709  16.034  1.00  0.00    -0.017 C 
HETATM   18  C25 UNL     1       0.988  11.463  17.375  1.00  0.00     0.018 C 
HETATM   19  C26 UNL     1       1.312  11.815  14.950  1.00  0.00     0.018 C 
HETATM   20  C27 UNL     1      -0.123   9.838  15.657  1.00  0.00     0.015 C 
HETATM   21  C28 UNL     1      -1.249   9.800  16.691  1.00  0.00     0.090 C 
HETATM   22  C29 UNL     1      -2.500   9.158  16.128  1.00  0.00     0.157 C 
HETATM   23  O3  UNL     1      -3.581   9.355  16.682  1.00  0.00    -0.293 OA
ENDROOT
BRANCH   1  24
HETATM   24  C6  UNL     1      -5.206   4.588  12.553  1.00  0.00    -0.014 C 
HETATM   25  C7  UNL     1      -6.249   3.882  13.439  1.00  0.00     0.010 C 
BRANCH  24  26
HETATM   26  C5  UNL     1      -4.092   3.605  12.118  1.00  0.00     0.008 C 
BRANCH  26  27
HETATM   27  C4  UNL     1      -3.400   3.731  10.756  1.00  0.00     0.028 C 
BRANCH  27  28
HETATM   28  C3  UNL     1      -2.169   2.889  10.579  1.00  0.00    -0.022 C 
HETATM   29  C2  UNL     1      -1.990   1.609  10.966  1.00  0.00    -0.064 C 
HETATM   30  C1  UNL     1      -3.013   0.795  11.712  1.00  0.00     0.045 C 
BRANCH  29  31
HETATM   31  C30 UNL     1      -0.692   0.895  10.692  1.00  0.00     0.197 C 
BRANCH  31  32
HETATM   32  O4  UNL     1      -0.579   0.666   9.297  1.00  0.00    -0.397 OA
HETATM   33  H48 UNL     1       0.307   0.296   9.147  1.00  0.00     0.209 HD
ENDBRANCH  31  32
ENDBRANCH  29  31
ENDBRANCH  27  28
ENDBRANCH  26  27
ENDBRANCH  24  26
ENDBRANCH   1  24
BRANCH   8  34
HETATM   34  O1  UNL     1      -0.471   7.793  12.105  1.00  0.00    -0.391 OA
HETATM   35  H22 UNL     1      -0.307   7.173  11.374  1.00  0.00     0.210 HD
ENDBRANCH   8  34
BRANCH  16  36
HETATM   36  O2  UNL     1       2.609   9.171  17.273  1.00  0.00    -0.395 OA
HETATM   37  H36 UNL     1       2.878   9.796  17.969  1.00  0.00     0.210 HD
ENDBRANCH  16  36
TORSDOF 8
ENDMDL
MODEL 6
REMARK minimizedAffinity -8.67001438
REMARK  8 active torsions:
REMARK  status: ('A' for Active; 'I' for Inactive)
REMARK    1  A    between atoms: C2_2  and  C30_33 
REMARK    2  A    between atoms: C3_3  and  C4_4 
REMARK    3  A    between atoms: C4_4  and  C5_5 
REMARK    4  A    between atoms: C5_5  and  C6_6 
REMARK    5  A    between atoms: C6_6  and  C8_8 
REMARK    6  A    between atoms: C15_15  and  O1_16 
REMARK    7  A    between atoms: C23_24  and  O2_25 
REMARK    8  A    between atoms: C30_33  and  O4_34 
ROOT
HETATM    1  C8  UNL     1      -4.394   5.062  13.558  1.00  0.00    -0.002 C 
HETATM    2  C9  UNL     1      -3.639   4.657  12.272  1.00  0.00     0.007 C 
HETATM    3  C10 UNL     1      -2.377   5.548  12.203  1.00  0.00     0.015 C 
HETATM    4  C11 UNL     1      -2.231   6.160  13.614  1.00  0.00    -0.005 C 
HETATM    5  C12 UNL     1      -1.520   5.092  14.502  1.00  0.00     0.021 C 
HETATM    6  C13 UNL     1      -1.432   7.436  13.854  1.00  0.00     0.002 C 
HETATM    7  C14 UNL     1      -1.763   8.294  14.860  1.00  0.00    -0.032 C 
HETATM    8  C15 UNL     1      -2.976   8.028  15.757  1.00  0.00     0.149 C 
HETATM    9  C16 UNL     1      -3.864   6.808  15.414  1.00  0.00     0.047 C 
HETATM   10  C17 UNL     1      -3.755   6.427  13.937  1.00  0.00    -0.026 C 
HETATM   11  C18 UNL     1      -4.352   7.585  13.084  1.00  0.00     0.016 C 
HETATM   12  C19 UNL     1      -1.000   9.640  15.045  1.00  0.00    -0.013 C 
HETATM   13  C20 UNL     1      -1.703  10.609  14.061  1.00  0.00     0.021 C 
HETATM   14  C21 UNL     1      -1.057  10.229  16.470  1.00  0.00     0.017 C 
HETATM   15  C22 UNL     1      -0.292  11.542  16.653  1.00  0.00     0.033 C 
HETATM   16  C23 UNL     1       0.958  11.709  15.783  1.00  0.00     0.126 C 
HETATM   17  C24 UNL     1       1.580  10.387  15.265  1.00  0.00    -0.017 C 
HETATM   18  C25 UNL     1       2.672  10.708  14.218  1.00  0.00     0.018 C 
HETATM   19  C26 UNL     1       2.329   9.738  16.466  1.00  0.00     0.018 C 
HETATM   20  C27 UNL     1       0.506   9.342  14.738  1.00  0.00     0.015 C 
HETATM   21  C28 UNL     1       0.654   8.895  13.283  1.00  0.00     0.090 C 
HETATM   22  C29 UNL     1      -0.254   7.724  12.966  1.00  0.00     0.157 C 
HETATM   23  O3  UNL     1      -0.019   7.028  11.978  1.00  0.00    -0.293 OA
ENDROOT
BRANCH   1  24
HETATM   24  C6  UNL     1      -5.932   4.837  13.605  1.00  0.00    -0.014 C 
HETATM   25  C7  UNL     1      -6.278   3.500  12.922  1.00  0.00     0.010 C 
BRANCH  24  26
HETATM   26  C5  UNL     1      -6.931   5.944  13.190  1.00  0.00     0.008 C 
BRANCH  26  27
HETATM   27  C4  UNL     1      -8.445   5.705  13.208  1.00  0.00     0.028 C 
BRANCH  27  28
HETATM   28  C3  UNL     1      -9.254   6.752  13.919  1.00  0.00    -0.022 C 
HETATM   29  C2  UNL     1      -9.178   7.100  15.220  1.00  0.00    -0.064 C 
HETATM   30  C1  UNL     1      -8.271   6.443  16.226  1.00  0.00     0.045 C 
BRANCH  29  31
HETATM   31  C30 UNL     1     -10.053   8.193  15.777  1.00  0.00     0.197 C 
BRANCH  31  32
HETATM   32  O4  UNL     1      -9.887   8.243  17.185  1.00  0.00    -0.397 OA
HETATM   33  H48 UNL     1     -10.385   9.016  17.497  1.00  0.00     0.209 HD
ENDBRANCH  31  32
ENDBRANCH  29  31
ENDBRANCH  27  28
ENDBRANCH  26  27
ENDBRANCH  24  26
ENDBRANCH   1  24
BRANCH   8  34
HETATM   34  O1  UNL     1      -2.516   7.846  17.092  1.00  0.00    -0.391 OA
HETATM   35  H22 UNL     1      -3.303   7.786  17.661  1.00  0.00     0.210 HD
ENDBRANCH   8  34
BRANCH  16  36
HETATM   36  O2  UNL     1       0.638  12.583  14.702  1.00  0.00    -0.395 OA
HETATM   37  H36 UNL     1       1.464  12.991  14.390  1.00  0.00     0.210 HD
ENDBRANCH  16  36
TORSDOF 8
ENDMDL
MODEL 7
REMARK minimizedAffinity -8.60752106
REMARK  8 active torsions:
REMARK  status: ('A' for Active; 'I' for Inactive)
REMARK    1  A    between atoms: C2_2  and  C30_33 
REMARK    2  A    between atoms: C3_3  and  C4_4 
REMARK    3  A    between atoms: C4_4  and  C5_5 
REMARK    4  A    between atoms: C5_5  and  C6_6 
REMARK    5  A    between atoms: C6_6  and  C8_8 
REMARK    6  A    between atoms: C15_15  and  O1_16 
REMARK    7  A    between atoms: C23_24  and  O2_25 
REMARK    8  A    between atoms: C30_33  and  O4_34 
ROOT
HETATM    1  C8  UNL     1      -2.816   7.776  15.143  1.00  0.00    -0.002 C 
HETATM    2  C9  UNL     1      -3.073   6.269  15.364  1.00  0.00     0.007 C 
HETATM    3  C10 UNL     1      -2.066   5.514  14.466  1.00  0.00     0.015 C 
HETATM    4  C11 UNL     1      -1.015   6.568  14.053  1.00  0.00    -0.005 C 
HETATM    5  C12 UNL     1       0.003   6.680  15.230  1.00  0.00     0.021 C 
HETATM    6  C13 UNL     1      -0.139   6.385  12.819  1.00  0.00     0.002 C 
HETATM    7  C14 UNL     1       0.309   7.459  12.110  1.00  0.00    -0.032 C 
HETATM    8  C15 UNL     1      -0.088   8.886  12.502  1.00  0.00     0.149 C 
HETATM    9  C16 UNL     1      -1.093   9.052  13.666  1.00  0.00     0.047 C 
HETATM   10  C17 UNL     1      -1.968   7.810  13.840  1.00  0.00    -0.026 C 
HETATM   11  C18 UNL     1      -2.869   7.662  12.578  1.00  0.00     0.016 C 
HETATM   12  C19 UNL     1       1.129   7.264  10.799  1.00  0.00    -0.013 C 
HETATM   13  C20 UNL     1       0.048   7.062   9.706  1.00  0.00     0.021 C 
HETATM   14  C21 UNL     1       2.029   8.455  10.411  1.00  0.00     0.017 C 
HETATM   15  C22 UNL     1       2.846   8.254   9.133  1.00  0.00     0.033 C 
HETATM   16  C23 UNL     1       3.281   6.814   8.842  1.00  0.00     0.126 C 
HETATM   17  C24 UNL     1       3.325   5.879  10.078  1.00  0.00    -0.017 C 
HETATM   18  C25 UNL     1       3.539   4.420   9.611  1.00  0.00     0.018 C 
HETATM   19  C26 UNL     1       4.605   6.253  10.883  1.00  0.00     0.018 C 
HETATM   20  C27 UNL     1       2.076   6.041  11.045  1.00  0.00     0.015 C 
HETATM   21  C28 UNL     1       1.238   4.785  11.287  1.00  0.00     0.090 C 
HETATM   22  C29 UNL     1       0.239   4.990  12.406  1.00  0.00     0.157 C 
HETATM   23  O3  UNL     1      -0.259   4.008  12.959  1.00  0.00    -0.293 OA
ENDROOT
BRANCH   1  24
HETATM   24  C6  UNL     1      -3.994   8.762  15.379  1.00  0.00    -0.014 C 
HETATM   25  C7  UNL     1      -3.623   9.750  16.501  1.00  0.00     0.010 C 
BRANCH  24  26
HETATM   26  C5  UNL     1      -5.452   8.267  15.538  1.00  0.00     0.008 C 
BRANCH  26  27
HETATM   27  C4  UNL     1      -6.326   7.943  14.321  1.00  0.00     0.028 C 
BRANCH  27  28
HETATM   28  C3  UNL     1      -6.469   6.483  13.999  1.00  0.00    -0.022 C 
HETATM   29  C2  UNL     1      -7.236   5.576  14.638  1.00  0.00    -0.064 C 
HETATM   30  C1  UNL     1      -8.071   5.873  15.854  1.00  0.00     0.045 C 
BRANCH  29  31
HETATM   31  C30 UNL     1      -7.284   4.143  14.173  1.00  0.00     0.197 C 
BRANCH  31  32
HETATM   32  O4  UNL     1      -8.535   3.903  13.551  1.00  0.00    -0.397 OA
HETATM   33  H48 UNL     1      -8.494   3.007  13.179  1.00  0.00     0.209 HD
ENDBRANCH  31  32
ENDBRANCH  29  31
ENDBRANCH  27  28
ENDBRANCH  26  27
ENDBRANCH  24  26
ENDBRANCH   1  24
BRANCH   8  34
HETATM   34  O1  UNL     1       1.091   9.597  12.863  1.00  0.00    -0.391 OA
HETATM   35  H22 UNL     1       0.835  10.524  13.005  1.00  0.00     0.210 HD
ENDBRANCH   8  34
BRANCH  16  36
HETATM   36  O2  UNL     1       2.427   6.284   7.829  1.00  0.00    -0.395 OA
HETATM   37  H36 UNL     1       2.904   5.567   7.378  1.00  0.00     0.210 HD
ENDBRANCH  16  36
TORSDOF 8
ENDMDL
MODEL 8
REMARK minimizedAffinity -8.58345413
REMARK  8 active torsions:
REMARK  status: ('A' for Active; 'I' for Inactive)
REMARK    1  A    between atoms: C2_2  and  C30_33 
REMARK    2  A    between atoms: C3_3  and  C4_4 
REMARK    3  A    between atoms: C4_4  and  C5_5 
REMARK    4  A    between atoms: C5_5  and  C6_6 
REMARK    5  A    between atoms: C6_6  and  C8_8 
REMARK    6  A    between atoms: C15_15  and  O1_16 
REMARK    7  A    between atoms: C23_24  and  O2_25 
REMARK    8  A    between atoms: C30_33  and  O4_34 
ROOT
HETATM    1  C8  UNL     1      -2.680   5.458  12.705  1.00  0.00    -0.002 C 
HETATM    2  C9  UNL     1      -3.464   5.516  14.035  1.00  0.00     0.007 C 
HETATM    3  C10 UNL     1      -2.725   6.531  14.938  1.00  0.00     0.015 C 
HETATM    4  C11 UNL     1      -1.781   7.309  13.993  1.00  0.00    -0.005 C 
HETATM    5  C12 UNL     1      -2.636   8.422  13.311  1.00  0.00     0.021 C 
HETATM    6  C13 UNL     1      -0.556   8.048  14.516  1.00  0.00     0.002 C 
HETATM    7  C14 UNL     1       0.558   8.197  13.744  1.00  0.00    -0.032 C 
HETATM    8  C15 UNL     1       0.632   7.590  12.340  1.00  0.00     0.149 C 
HETATM    9  C16 UNL     1      -0.560   6.720  11.874  1.00  0.00     0.047 C 
HETATM   10  C17 UNL     1      -1.318   6.121  13.059  1.00  0.00    -0.026 C 
HETATM   11  C18 UNL     1      -0.378   5.118  13.790  1.00  0.00     0.016 C 
HETATM   12  C19 UNL     1       1.840   8.874  14.315  1.00  0.00    -0.013 C 
HETATM   13  C20 UNL     1       2.574   7.727  15.055  1.00  0.00     0.021 C 
HETATM   14  C21 UNL     1       2.782   9.481  13.255  1.00  0.00     0.017 C 
HETATM   15  C22 UNL     1       4.031  10.161  13.820  1.00  0.00     0.033 C 
HETATM   16  C23 UNL     1       3.866  10.820  15.192  1.00  0.00     0.126 C 
HETATM   17  C24 UNL     1       2.409  11.188  15.574  1.00  0.00    -0.017 C 
HETATM   18  C25 UNL     1       2.359  11.614  17.060  1.00  0.00     0.018 C 
HETATM   19  C26 UNL     1       2.037  12.462  14.760  1.00  0.00     0.018 C 
HETATM   20  C27 UNL     1       1.353  10.056  15.219  1.00  0.00     0.015 C 
HETATM   21  C28 UNL     1       0.533   9.505  16.386  1.00  0.00     0.090 C 
HETATM   22  C29 UNL     1      -0.603   8.628  15.902  1.00  0.00     0.157 C 
HETATM   23  O3  UNL     1      -1.548   8.394  16.655  1.00  0.00    -0.293 OA
ENDROOT
BRANCH   1  24
HETATM   24  C6  UNL     1      -2.761   4.153  11.864  1.00  0.00    -0.014 C 
HETATM   25  C7  UNL     1      -1.490   4.014  11.004  1.00  0.00     0.010 C 
BRANCH  24  26
HETATM   26  C5  UNL     1      -4.024   3.785  11.048  1.00  0.00     0.008 C 
BRANCH  26  27
HETATM   27  C4  UNL     1      -5.275   3.212  11.723  1.00  0.00     0.028 C 
BRANCH  27  28
HETATM   28  C3  UNL     1      -5.876   4.068  12.801  1.00  0.00    -0.022 C 
HETATM   29  C2  UNL     1      -7.067   3.898  13.410  1.00  0.00    -0.064 C 
HETATM   30  C1  UNL     1      -8.052   2.813  13.069  1.00  0.00     0.045 C 
BRANCH  29  31
HETATM   31  C30 UNL     1      -7.518   4.842  14.496  1.00  0.00     0.197 C 
BRANCH  31  32
HETATM   32  O4  UNL     1      -7.868   4.087  15.645  1.00  0.00    -0.397 OA
HETATM   33  H48 UNL     1      -8.058   4.727  16.351  1.00  0.00     0.209 HD
ENDBRANCH  31  32
ENDBRANCH  29  31
ENDBRANCH  27  28
ENDBRANCH  26  27
ENDBRANCH  24  26
ENDBRANCH   1  24
BRANCH   8  34
HETATM   34  O1  UNL     1       0.767   8.649  11.399  1.00  0.00    -0.391 OA
HETATM   35  H22 UNL     1       0.920   8.243  10.528  1.00  0.00     0.210 HD
ENDBRANCH   8  34
BRANCH  16  36
HETATM   36  O2  UNL     1       4.452   9.964  16.173  1.00  0.00    -0.395 OA
HETATM   37  H36 UNL     1       4.698  10.510  16.940  1.00  0.00     0.210 HD
ENDBRANCH  16  36
TORSDOF 8
ENDMDL
MODEL 9
REMARK minimizedAffinity -8.50382328
REMARK  8 active torsions:
REMARK  status: ('A' for Active; 'I' for Inactive)
REMARK    1  A    between atoms: C2_2  and  C30_33 
REMARK    2  A    between atoms: C3_3  and  C4_4 
REMARK    3  A    between atoms: C4_4  and  C5_5 
REMARK    4  A    between atoms: C5_5  and  C6_6 
REMARK    5  A    between atoms: C6_6  and  C8_8 
REMARK    6  A    between atoms: C15_15  and  O1_16 
REMARK    7  A    between atoms: C23_24  and  O2_25 
REMARK    8  A    between atoms: C30_33  and  O4_34 
ROOT
HETATM    1  C8  UNL     1      -2.305   5.319  13.018  1.00  0.00    -0.002 C 
HETATM    2  C9  UNL     1      -2.275   4.773  11.573  1.00  0.00     0.007 C 
HETATM    3  C10 UNL     1      -0.873   5.101  11.008  1.00  0.00     0.015 C 
HETATM    4  C11 UNL     1      -0.012   5.470  12.236  1.00  0.00    -0.005 C 
HETATM    5  C12 UNL     1       0.473   4.129  12.871  1.00  0.00     0.021 C 
HETATM    6  C13 UNL     1       1.258   6.300  12.103  1.00  0.00     0.002 C 
HETATM    7  C14 UNL     1       1.671   7.120  13.111  1.00  0.00    -0.032 C 
HETATM    8  C15 UNL     1       0.849   7.268  14.395  1.00  0.00     0.149 C 
HETATM    9  C16 UNL     1      -0.511   6.533  14.461  1.00  0.00     0.047 C 
HETATM   10  C17 UNL     1      -1.085   6.281  13.066  1.00  0.00    -0.026 C 
HETATM   11  C18 UNL     1      -1.426   7.655  12.418  1.00  0.00     0.016 C 
HETATM   12  C19 UNL     1       2.920   8.034  12.935  1.00  0.00    -0.013 C 
HETATM   13  C20 UNL     1       2.369   9.291  12.213  1.00  0.00     0.021 C 
HETATM   14  C21 UNL     1       3.604   8.462  14.251  1.00  0.00     0.017 C 
HETATM   15  C22 UNL     1       4.842   9.345  14.074  1.00  0.00     0.033 C 
HETATM   16  C23 UNL     1       5.665   9.090  12.808  1.00  0.00     0.126 C 
HETATM   17  C24 UNL     1       5.483   7.685  12.178  1.00  0.00    -0.017 C 
HETATM   18  C25 UNL     1       6.173   7.649  10.794  1.00  0.00     0.018 C 
HETATM   19  C26 UNL     1       6.278   6.684  13.067  1.00  0.00     0.018 C 
HETATM   20  C27 UNL     1       3.972   7.200  12.128  1.00  0.00     0.015 C 
HETATM   21  C28 UNL     1       3.411   6.871  10.744  1.00  0.00     0.090 C 
HETATM   22  C29 UNL     1       2.063   6.186  10.839  1.00  0.00     0.157 C 
HETATM   23  O3  UNL     1       1.640   5.551   9.873  1.00  0.00    -0.293 OA
ENDROOT
BRANCH   1  24
HETATM   24  C6  UNL     1      -3.682   5.712  13.623  1.00  0.00    -0.014 C 
HETATM   25  C7  UNL     1      -4.768   4.754  13.097  1.00  0.00     0.010 C 
BRANCH  24  26
HETATM   26  C5  UNL     1      -4.187   7.175  13.619  1.00  0.00     0.008 C 
BRANCH  26  27
HETATM   27  C4  UNL     1      -5.676   7.509  13.480  1.00  0.00     0.028 C 
BRANCH  27  28
HETATM   28  C3  UNL     1      -6.454   7.534  14.765  1.00  0.00    -0.022 C 
HETATM   29  C2  UNL     1      -7.675   7.007  14.992  1.00  0.00    -0.064 C 
HETATM   30  C1  UNL     1      -8.515   6.323  13.947  1.00  0.00     0.045 C 
BRANCH  29  31
HETATM   31  C30 UNL     1      -8.313   7.100  16.354  1.00  0.00     0.197 C 
BRANCH  31  32
HETATM   32  O4  UNL     1      -7.305   6.977  17.344  1.00  0.00    -0.397 OA
HETATM   33  H48 UNL     1      -7.734   7.139  18.200  1.00  0.00     0.209 HD
ENDBRANCH  31  32
ENDBRANCH  29  31
ENDBRANCH  27  28
ENDBRANCH  26  27
ENDBRANCH  24  26
ENDBRANCH   1  24
BRANCH   8  34
HETATM   34  O1  UNL     1       1.632   6.795  15.487  1.00  0.00    -0.391 OA
HETATM   35  H22 UNL     1       1.139   6.994  16.301  1.00  0.00     0.210 HD
ENDBRANCH   8  34
BRANCH  16  36
HETATM   36  O2  UNL     1       5.366  10.118  11.864  1.00  0.00    -0.395 OA
HETATM   37  H36 UNL     1       6.120  10.196  11.256  1.00  0.00     0.210 HD
ENDBRANCH  16  36
TORSDOF 8
ENDMDL
