MODEL 1
REMARK minimizedAffinity -8.94514751
REMARK CNNscore 0.698189616
REMARK CNNaffinity 7.08037376
REMARK  13 active torsions:
REMARK  status: ('A' for Active; 'I' for Inactive)
REMARK    1  A    between atoms: C19_21  and  O3_22 
REMARK    2  A    between atoms: C19_21  and  C20_23 
REMARK    3  A    between atoms: C20_23  and  C21_25 
REMARK    4  A    between atoms: C21_25  and  O5_26 
REMARK    5  A    between atoms: O5_26  and  C22_27 
REMARK    6  A    between atoms: C22_27  and  C23_29 
REMARK    7  A    between atoms: C23_29  and  C24_30 
REMARK    8  A    between atoms: C24_30  and  C25_31 
REMARK       I    between atoms: C25_31  and  N1_33 
REMARK    9  A    between atoms: N1_33  and  C26_34 
REMARK   10  A    between atoms: C26_34  and  C27_35 
REMARK   11  A    between atoms: C26_34  and  C34_42 
REMARK   12  A    between atoms: C27_35  and  C28_36 
REMARK   13  A    between atoms: C34_42  and  O9_44 
ROOT
HETATM    1  C20 UNL     1      -3.137  50.126 -27.025  1.00  0.00     0.185 C 
HETATM    2  O4  UNL     1      -2.340  50.730 -27.750  1.00  0.00    -0.292 OA
ENDROOT
BRANCH   1   3
HETATM    3  C19 UNL     1      -3.496  50.635 -25.589  1.00  0.00     0.128 C 
HETATM    4  C14 UNL     1      -2.296  50.649 -24.574  1.00  0.00     0.005 C 
HETATM    5  C13 UNL     1      -2.475  51.748 -23.501  1.00  0.00     0.091 C 
HETATM    6  C15 UNL     1      -0.945  50.894 -25.283  1.00  0.00     0.019 C 
HETATM    7  C16 UNL     1      -2.304  49.233 -23.902  1.00  0.00     0.002 C 
HETATM    8  C12 UNL     1      -1.409  51.630 -22.438  1.00  0.00     0.133 C 
HETATM    9  C11 UNL     1      -1.219  50.267 -21.783  1.00  0.00     0.072 C 
HETATM   10  O2  UNL     1      -0.718  52.600 -22.130  1.00  0.00    -0.297 OA
HETATM   11  C2  UNL     1      -1.279  50.341 -20.208  1.00  0.00    -0.009 C 
HETATM   12  C10 UNL     1      -2.227  49.241 -22.349  1.00  0.00     0.003 C 
HETATM   13  C1  UNL     1       0.113  50.756 -19.673  1.00  0.00     0.021 C 
HETATM   14  C3  UNL     1      -2.357  51.343 -19.708  1.00  0.00     0.022 C 
HETATM   15  C7  UNL     1      -1.616  48.959 -19.636  1.00  0.00    -0.067 C 
HETATM   16  C4  UNL     1      -2.565  51.307 -18.195  1.00  0.00     0.084 C 
HETATM   17  C5  UNL     1      -2.818  49.906 -17.698  1.00  0.00     0.149 C 
HETATM   18  O1  UNL     1      -3.399  49.681 -16.640  1.00  0.00    -0.293 OA
HETATM   19  C6  UNL     1      -2.317  48.767 -18.504  1.00  0.00     0.053 C 
HETATM   20  C8  UNL     1      -1.182  47.792 -20.476  1.00  0.00     0.035 C 
HETATM   21  C9  UNL     1      -1.914  47.816 -21.820  1.00  0.00     0.010 C 
HETATM   22  C17 UNL     1      -3.598  48.539 -24.367  1.00  0.00     0.009 C 
HETATM   23  C18 UNL     1      -4.471  49.641 -24.944  1.00  0.00     0.047 C 
BRANCH   3  24
HETATM   24  O3  UNL     1      -4.178  51.882 -25.612  1.00  0.00    -0.381 OA
HETATM   25  H25 UNL     1      -3.559  52.592 -25.882  1.00  0.00     0.211 HD
ENDBRANCH   3  24
ENDBRANCH   1   3
BRANCH   1  26
HETATM   26  C21 UNL     1      -3.862  48.901 -27.573  1.00  0.00     0.260 C 
BRANCH  26  27
HETATM   27  O5  UNL     1      -4.200  49.006 -28.953  1.00  0.00    -0.314 OA
BRANCH  27  28
HETATM   28  C22 UNL     1      -5.051  48.063 -29.428  1.00  0.00     0.259 C 
HETATM   29  O6  UNL     1      -4.860  47.436 -30.466  1.00  0.00    -0.265 OA
BRANCH  28  30
HETATM   30  C23 UNL     1      -6.285  47.882 -28.575  1.00  0.00     0.120 C 
BRANCH  30  31
HETATM   31  C24 UNL     1      -7.595  48.274 -29.246  1.00  0.00     0.112 C 
BRANCH  31  32
HETATM   32  C25 UNL     1      -8.781  48.129 -28.312  1.00  0.00     0.218 C 
HETATM   33  O7  UNL     1      -9.941  48.046 -28.698  1.00  0.00    -0.274 OA
HETATM   34  N1  UNL     1      -8.416  48.098 -26.983  1.00  0.00    -0.346 N 
HETATM   35  H32 UNL     1      -7.520  48.515 -26.751  1.00  0.00     0.163 HD
BRANCH  34  36
HETATM   36  C26 UNL     1      -9.436  48.148 -25.926  1.00  0.00     0.186 C 
BRANCH  36  37
HETATM   37  C27 UNL     1     -10.057  46.759 -25.732  1.00  0.00     0.074 C 
BRANCH  37  38
HETATM   38  C28 UNL     1     -11.549  46.779 -25.509  1.00  0.00    -0.056 A 
HETATM   39  C29 UNL     1     -12.078  46.657 -24.216  1.00  0.00     0.007 A 
HETATM   40  C30 UNL     1     -13.458  46.680 -24.012  1.00  0.00     0.001 A 
HETATM   41  C31 UNL     1     -14.322  46.826 -25.096  1.00  0.00     0.000 A 
HETATM   42  C32 UNL     1     -13.807  46.949 -26.385  1.00  0.00     0.001 A 
HETATM   43  C33 UNL     1     -12.428  46.926 -26.592  1.00  0.00     0.007 A 
ENDBRANCH  37  38
ENDBRANCH  36  37
BRANCH  36  44
HETATM   44  C34 UNL     1      -8.730  48.588 -24.647  1.00  0.00     0.163 C 
HETATM   45  O8  UNL     1      -8.764  47.998 -23.575  1.00  0.00    -0.648 OA
BRANCH  44  46
HETATM   46  O9  UNL     1      -8.038  49.735 -24.776  1.00  0.00    -0.775 OA
HETATM   47  H41 UNL     1      -7.638  49.893 -23.897  1.00  0.00     0.167 HD
ENDBRANCH  44  46
ENDBRANCH  36  44
ENDBRANCH  34  36
ENDBRANCH  31  32
ENDBRANCH  30  31
ENDBRANCH  28  30
ENDBRANCH  27  28
ENDBRANCH  26  27
ENDBRANCH   1  26
TORSDOF 13
ENDMDL
MODEL 2
REMARK minimizedAffinity -9.26014328
REMARK CNNscore 0.648584723
REMARK CNNaffinity 6.39867544
REMARK  13 active torsions:
REMARK  status: ('A' for Active; 'I' for Inactive)
REMARK    1  A    between atoms: C19_21  and  O3_22 
REMARK    2  A    between atoms: C19_21  and  C20_23 
REMARK    3  A    between atoms: C20_23  and  C21_25 
REMARK    4  A    between atoms: C21_25  and  O5_26 
REMARK    5  A    between atoms: O5_26  and  C22_27 
REMARK    6  A    between atoms: C22_27  and  C23_29 
REMARK    7  A    between atoms: C23_29  and  C24_30 
REMARK    8  A    between atoms: C24_30  and  C25_31 
REMARK       I    between atoms: C25_31  and  N1_33 
REMARK    9  A    between atoms: N1_33  and  C26_34 
REMARK   10  A    between atoms: C26_34  and  C27_35 
REMARK   11  A    between atoms: C26_34  and  C34_42 
REMARK   12  A    between atoms: C27_35  and  C28_36 
REMARK   13  A    between atoms: C34_42  and  O9_44 
ROOT
HETATM    1  C20 UNL     1       3.423  67.402 -36.180  1.00  0.00     0.185 C 
HETATM    2  O4  UNL     1       3.401  68.519 -35.653  1.00  0.00    -0.292 OA
ENDROOT
BRANCH   1   3
HETATM    3  C19 UNL     1       2.344  66.962 -37.226  1.00  0.00     0.128 C 
HETATM    4  C14 UNL     1       2.303  67.828 -38.537  1.00  0.00     0.005 C 
HETATM    5  C13 UNL     1       1.804  67.002 -39.745  1.00  0.00     0.091 C 
HETATM    6  C15 UNL     1       3.695  68.398 -38.894  1.00  0.00     0.019 C 
HETATM    7  C16 UNL     1       1.303  68.995 -38.232  1.00  0.00     0.002 C 
HETATM    8  C12 UNL     1       1.603  67.892 -40.949  1.00  0.00     0.133 C 
HETATM    9  C11 UNL     1       0.749  69.140 -40.764  1.00  0.00     0.072 C 
HETATM   10  O2  UNL     1       2.125  67.616 -42.029  1.00  0.00    -0.297 OA
HETATM   11  C2  UNL     1      -0.412  69.240 -41.828  1.00  0.00    -0.009 C 
HETATM   12  C10 UNL     1       0.214  69.229 -39.318  1.00  0.00     0.003 C 
HETATM   13  C1  UNL     1       0.152  69.858 -43.129  1.00  0.00     0.021 C 
HETATM   14  C3  UNL     1      -1.048  67.855 -42.133  1.00  0.00     0.022 C 
HETATM   15  C7  UNL     1      -1.519  70.162 -41.303  1.00  0.00    -0.067 C 
HETATM   16  C4  UNL     1      -2.290  67.939 -43.019  1.00  0.00     0.084 C 
HETATM   17  C5  UNL     1      -3.298  68.920 -42.478  1.00  0.00     0.149 C 
HETATM   18  O1  UNL     1      -4.491  68.859 -42.766  1.00  0.00    -0.293 OA
HETATM   19  C6  UNL     1      -2.822  70.011 -41.595  1.00  0.00     0.053 C 
HETATM   20  C8  UNL     1      -1.066  71.229 -40.347  1.00  0.00     0.035 C 
HETATM   21  C9  UNL     1      -0.499  70.587 -39.079  1.00  0.00     0.010 C 
HETATM   22  C17 UNL     1       0.645  68.662 -36.880  1.00  0.00     0.009 C 
HETATM   23  C18 UNL     1       0.952  67.196 -36.624  1.00  0.00     0.047 C 
BRANCH   3  24
HETATM   24  O3  UNL     1       2.408  65.573 -37.517  1.00  0.00    -0.381 OA
HETATM   25  H25 UNL     1       3.218  65.380 -38.034  1.00  0.00     0.211 HD
ENDBRANCH   3  24
ENDBRANCH   1   3
BRANCH   1  26
HETATM   26  C21 UNL     1       4.580  66.456 -35.877  1.00  0.00     0.260 C 
BRANCH  26  27
HETATM   27  O5  UNL     1       4.166  65.142 -35.517  1.00  0.00    -0.314 OA
BRANCH  27  28
HETATM   28  C22 UNL     1       4.422  64.768 -34.239  1.00  0.00     0.259 C 
HETATM   29  O6  UNL     1       4.577  65.563 -33.316  1.00  0.00    -0.265 OA
BRANCH  28  30
HETATM   30  C23 UNL     1       4.541  63.272 -34.062  1.00  0.00     0.120 C 
BRANCH  30  31
HETATM   31  C24 UNL     1       5.576  62.598 -34.953  1.00  0.00     0.112 C 
BRANCH  31  32
HETATM   32  C25 UNL     1       6.988  62.795 -34.437  1.00  0.00     0.218 C 
HETATM   33  O7  UNL     1       7.337  63.763 -33.771  1.00  0.00    -0.274 OA
HETATM   34  N1  UNL     1       7.838  61.771 -34.795  1.00  0.00    -0.346 N 
HETATM   35  H32 UNL     1       7.570  61.224 -35.607  1.00  0.00     0.163 HD
BRANCH  34  36
HETATM   36  C26 UNL     1       9.283  61.876 -34.545  1.00  0.00     0.186 C 
BRANCH  36  37
HETATM   37  C27 UNL     1       9.857  63.086 -35.292  1.00  0.00     0.074 C 
BRANCH  37  38
HETATM   38  C28 UNL     1      11.220  62.848 -35.892  1.00  0.00    -0.056 A 
HETATM   39  C29 UNL     1      11.360  62.089 -37.063  1.00  0.00     0.007 A 
HETATM   40  C30 UNL     1      12.622  61.874 -37.619  1.00  0.00     0.001 A 
HETATM   41  C31 UNL     1      13.754  62.414 -37.012  1.00  0.00     0.000 A 
HETATM   42  C32 UNL     1      13.626  63.170 -35.848  1.00  0.00     0.001 A 
HETATM   43  C33 UNL     1      12.366  63.387 -35.291  1.00  0.00     0.007 A 
ENDBRANCH  37  38
ENDBRANCH  36  37
BRANCH  36  44
HETATM   44  C34 UNL     1       9.464  62.057 -33.041  1.00  0.00     0.163 C 
HETATM   45  O8  UNL     1      10.210  62.866 -32.505  1.00  0.00    -0.648 OA
BRANCH  44  46
HETATM   46  O9  UNL     1       8.715  61.219 -32.300  1.00  0.00    -0.775 OA
HETATM   47  H41 UNL     1       8.922  61.446 -31.370  1.00  0.00     0.167 HD
ENDBRANCH  44  46
ENDBRANCH  36  44
ENDBRANCH  34  36
ENDBRANCH  31  32
ENDBRANCH  30  31
ENDBRANCH  28  30
ENDBRANCH  27  28
ENDBRANCH  26  27
ENDBRANCH   1  26
TORSDOF 13
ENDMDL
MODEL 3
REMARK minimizedAffinity -7.87782001
REMARK CNNscore 0.641566277
REMARK CNNaffinity 6.60629892
REMARK  13 active torsions:
REMARK  status: ('A' for Active; 'I' for Inactive)
REMARK    1  A    between atoms: C19_21  and  O3_22 
REMARK    2  A    between atoms: C19_21  and  C20_23 
REMARK    3  A    between atoms: C20_23  and  C21_25 
REMARK    4  A    between atoms: C21_25  and  O5_26 
REMARK    5  A    between atoms: O5_26  and  C22_27 
REMARK    6  A    between atoms: C22_27  and  C23_29 
REMARK    7  A    between atoms: C23_29  and  C24_30 
REMARK    8  A    between atoms: C24_30  and  C25_31 
REMARK       I    between atoms: C25_31  and  N1_33 
REMARK    9  A    between atoms: N1_33  and  C26_34 
REMARK   10  A    between atoms: C26_34  and  C27_35 
REMARK   11  A    between atoms: C26_34  and  C34_42 
REMARK   12  A    between atoms: C27_35  and  C28_36 
REMARK   13  A    between atoms: C34_42  and  O9_44 
ROOT
HETATM    1  C20 UNL     1      -7.876  45.619 -31.334  1.00  0.00     0.185 C 
HETATM    2  O4  UNL     1      -6.946  45.190 -32.025  1.00  0.00    -0.292 OA
ENDROOT
BRANCH   1   3
HETATM    3  C19 UNL     1      -9.128  46.307 -31.973  1.00  0.00     0.128 C 
HETATM    4  C14 UNL     1      -9.599  45.687 -33.338  1.00  0.00     0.005 C 
HETATM    5  C13 UNL     1     -11.120  45.870 -33.549  1.00  0.00     0.091 C 
HETATM    6  C15 UNL     1      -9.286  44.175 -33.422  1.00  0.00     0.019 C 
HETATM    7  C16 UNL     1      -8.805  46.465 -34.443  1.00  0.00     0.002 C 
HETATM    8  C12 UNL     1     -11.520  45.429 -34.936  1.00  0.00     0.133 C 
HETATM    9  C11 UNL     1     -10.743  46.013 -36.110  1.00  0.00     0.072 C 
HETATM   10  O2  UNL     1     -12.431  44.618 -35.101  1.00  0.00    -0.297 OA
HETATM   11  C2  UNL     1     -11.687  46.658 -37.197  1.00  0.00    -0.009 C 
HETATM   12  C10 UNL     1      -9.670  47.009 -35.616  1.00  0.00     0.003 C 
HETATM   13  C1  UNL     1     -12.203  45.544 -38.137  1.00  0.00     0.021 C 
HETATM   14  C3  UNL     1     -12.888  47.411 -36.559  1.00  0.00     0.022 C 
HETATM   15  C7  UNL     1     -10.894  47.664 -38.042  1.00  0.00    -0.067 C 
HETATM   16  C4  UNL     1     -13.719  48.197 -37.572  1.00  0.00     0.084 C 
HETATM   17  C5  UNL     1     -12.861  49.107 -38.413  1.00  0.00     0.149 C 
HETATM   18  O1  UNL     1     -13.317  50.097 -38.980  1.00  0.00    -0.293 OA
HETATM   19  C6  UNL     1     -11.428  48.771 -38.585  1.00  0.00     0.053 C 
HETATM   20  C8  UNL     1      -9.424  47.381 -38.165  1.00  0.00     0.035 C 
HETATM   21  C9  UNL     1      -8.759  47.462 -36.789  1.00  0.00     0.010 C 
HETATM   22  C17 UNL     1      -8.087  47.624 -33.728  1.00  0.00     0.009 C 
HETATM   23  C18 UNL     1      -8.752  47.742 -32.367  1.00  0.00     0.047 C 
BRANCH   3  24
HETATM   24  O3  UNL     1     -10.205  46.430 -31.054  1.00  0.00    -0.381 OA
HETATM   25  H25 UNL     1     -10.587  45.546 -30.871  1.00  0.00     0.211 HD
ENDBRANCH   3  24
ENDBRANCH   1   3
BRANCH   1  26
HETATM   26  C21 UNL     1      -7.851  45.392 -29.826  1.00  0.00     0.260 C 
BRANCH  26  27
HETATM   27  O5  UNL     1      -8.234  46.538 -29.070  1.00  0.00    -0.314 OA
BRANCH  27  28
HETATM   28  C22 UNL     1      -7.261  47.098 -28.309  1.00  0.00     0.259 C 
HETATM   29  O6  UNL     1      -6.074  47.113 -28.625  1.00  0.00    -0.265 OA
BRANCH  28  30
HETATM   30  C23 UNL     1      -7.771  47.670 -27.007  1.00  0.00     0.120 C 
BRANCH  30  31
HETATM   31  C24 UNL     1      -8.013  46.648 -25.904  1.00  0.00     0.112 C 
BRANCH  31  32
HETATM   32  C25 UNL     1      -7.236  46.974 -24.643  1.00  0.00     0.218 C 
HETATM   33  O7  UNL     1      -7.341  46.339 -23.600  1.00  0.00    -0.274 OA
HETATM   34  N1  UNL     1      -6.399  48.058 -24.793  1.00  0.00    -0.346 N 
HETATM   35  H32 UNL     1      -6.633  48.710 -25.536  1.00  0.00     0.163 HD
BRANCH  34  36
HETATM   36  C26 UNL     1      -5.707  48.636 -23.633  1.00  0.00     0.186 C 
BRANCH  36  37
HETATM   37  C27 UNL     1      -4.190  48.478 -23.796  1.00  0.00     0.074 C 
BRANCH  37  38
HETATM   38  C28 UNL     1      -3.464  48.160 -22.513  1.00  0.00    -0.056 A 
HETATM   39  C29 UNL     1      -2.115  48.505 -22.354  1.00  0.00     0.007 A 
HETATM   40  C30 UNL     1      -1.446  48.215 -21.164  1.00  0.00     0.001 A 
HETATM   41  C31 UNL     1      -2.118  47.578 -20.123  1.00  0.00     0.000 A 
HETATM   42  C32 UNL     1      -3.460  47.231 -20.270  1.00  0.00     0.001 A 
HETATM   43  C33 UNL     1      -4.131  47.520 -21.458  1.00  0.00     0.007 A 
ENDBRANCH  37  38
ENDBRANCH  36  37
BRANCH  36  44
HETATM   44  C34 UNL     1      -6.076  50.116 -23.585  1.00  0.00     0.163 C 
HETATM   45  O8  UNL     1      -5.375  51.038 -23.981  1.00  0.00    -0.648 OA
BRANCH  44  46
HETATM   46  O9  UNL     1      -7.284  50.357 -23.043  1.00  0.00    -0.775 OA
HETATM   47  H41 UNL     1      -7.392  51.329 -23.081  1.00  0.00     0.167 HD
ENDBRANCH  44  46
ENDBRANCH  36  44
ENDBRANCH  34  36
ENDBRANCH  31  32
ENDBRANCH  30  31
ENDBRANCH  28  30
ENDBRANCH  27  28
ENDBRANCH  26  27
ENDBRANCH   1  26
TORSDOF 13
ENDMDL
MODEL 4
REMARK minimizedAffinity -8.59334183
REMARK CNNscore 0.589376032
REMARK CNNaffinity 7.04412317
REMARK  13 active torsions:
REMARK  status: ('A' for Active; 'I' for Inactive)
REMARK    1  A    between atoms: C19_21  and  O3_22 
REMARK    2  A    between atoms: C19_21  and  C20_23 
REMARK    3  A    between atoms: C20_23  and  C21_25 
REMARK    4  A    between atoms: C21_25  and  O5_26 
REMARK    5  A    between atoms: O5_26  and  C22_27 
REMARK    6  A    between atoms: C22_27  and  C23_29 
REMARK    7  A    between atoms: C23_29  and  C24_30 
REMARK    8  A    between atoms: C24_30  and  C25_31 
REMARK       I    between atoms: C25_31  and  N1_33 
REMARK    9  A    between atoms: N1_33  and  C26_34 
REMARK   10  A    between atoms: C26_34  and  C27_35 
REMARK   11  A    between atoms: C26_34  and  C34_42 
REMARK   12  A    between atoms: C27_35  and  C28_36 
REMARK   13  A    between atoms: C34_42  and  O9_44 
ROOT
HETATM    1  C20 UNL     1      -1.917  52.602 -11.726  1.00  0.00     0.185 C 
HETATM    2  O4  UNL     1      -3.130  52.830 -11.665  1.00  0.00    -0.292 OA
ENDROOT
BRANCH   1   3
HETATM    3  C19 UNL     1      -1.012  52.604 -10.449  1.00  0.00     0.128 C 
HETATM    4  C14 UNL     1      -0.648  54.031  -9.899  1.00  0.00     0.005 C 
HETATM    5  C13 UNL     1      -0.412  54.005  -8.371  1.00  0.00     0.091 C 
HETATM    6  C15 UNL     1      -1.762  55.062 -10.191  1.00  0.00     0.019 C 
HETATM    7  C16 UNL     1       0.672  54.437 -10.641  1.00  0.00     0.002 C 
HETATM    8  C12 UNL     1       0.108  55.339  -7.893  1.00  0.00     0.133 C 
HETATM    9  C11 UNL     1       1.319  55.920  -8.612  1.00  0.00     0.072 C 
HETATM   10  O2  UNL     1      -0.442  55.933  -6.965  1.00  0.00    -0.297 OA
HETATM   11  C2  UNL     1       2.481  56.312  -7.618  1.00  0.00    -0.009 C 
HETATM   12  C10 UNL     1       1.810  54.962  -9.721  1.00  0.00     0.003 C 
HETATM   13  C1  UNL     1       2.192  57.718  -7.040  1.00  0.00     0.021 C 
HETATM   14  C3  UNL     1       2.634  55.285  -6.461  1.00  0.00     0.022 C 
HETATM   15  C7  UNL     1       3.813  56.373  -8.376  1.00  0.00    -0.067 C 
HETATM   16  C4  UNL     1       3.861  55.536  -5.585  1.00  0.00     0.084 C 
HETATM   17  C5  UNL     1       5.119  55.658  -6.407  1.00  0.00     0.149 C 
HETATM   18  O1  UNL     1       6.233  55.453  -5.932  1.00  0.00    -0.293 OA
HETATM   19  C6  UNL     1       5.002  56.072  -7.825  1.00  0.00     0.053 C 
HETATM   20  C8  UNL     1       3.708  56.718  -9.834  1.00  0.00     0.035 C 
HETATM   21  C9  UNL     1       2.922  55.632 -10.572  1.00  0.00     0.010 C 
HETATM   22  C17 UNL     1       1.141  53.187 -11.409  1.00  0.00     0.009 C 
HETATM   23  C18 UNL     1       0.361  52.025 -10.819  1.00  0.00     0.047 C 
BRANCH   3  24
HETATM   24  O3  UNL     1      -1.521  51.761  -9.424  1.00  0.00    -0.381 OA
HETATM   25  H25 UNL     1      -2.333  52.157  -9.044  1.00  0.00     0.211 HD
ENDBRANCH   3  24
ENDBRANCH   1   3
BRANCH   1  26
HETATM   26  C21 UNL     1      -1.297  52.219 -13.066  1.00  0.00     0.260 C 
BRANCH  26  27
HETATM   27  O5  UNL     1      -2.216  51.608 -13.967  1.00  0.00    -0.314 OA
BRANCH  27  28
HETATM   28  C22 UNL     1      -1.684  50.726 -14.849  1.00  0.00     0.259 C 
HETATM   29  O6  UNL     1      -0.492  50.695 -15.144  1.00  0.00    -0.265 OA
BRANCH  28  30
HETATM   30  C23 UNL     1      -2.707  49.803 -15.469  1.00  0.00     0.120 C 
BRANCH  30  31
HETATM   31  C24 UNL     1      -2.360  49.299 -16.864  1.00  0.00     0.112 C 
BRANCH  31  32
HETATM   32  C25 UNL     1      -2.426  50.402 -17.902  1.00  0.00     0.218 C 
HETATM   33  O7  UNL     1      -2.999  51.470 -17.720  1.00  0.00    -0.274 OA
HETATM   34  N1  UNL     1      -1.771  50.079 -19.071  1.00  0.00    -0.346 N 
HETATM   35  H32 UNL     1      -1.644  49.089 -19.258  1.00  0.00     0.163 HD
BRANCH  34  36
HETATM   36  C26 UNL     1      -1.883  50.943 -20.255  1.00  0.00     0.186 C 
BRANCH  36  37
HETATM   37  C27 UNL     1      -0.644  50.775 -21.143  1.00  0.00     0.074 C 
BRANCH  37  38
HETATM   38  C28 UNL     1       0.087  52.064 -21.428  1.00  0.00    -0.056 A 
HETATM   39  C29 UNL     1       0.360  52.451 -22.747  1.00  0.00     0.007 A 
HETATM   40  C30 UNL     1       1.032  53.646 -23.008  1.00  0.00     0.001 A 
HETATM   41  C31 UNL     1       1.436  54.465 -21.955  1.00  0.00     0.000 A 
HETATM   42  C32 UNL     1       1.169  54.089 -20.640  1.00  0.00     0.001 A 
HETATM   43  C33 UNL     1       0.498  52.895 -20.376  1.00  0.00     0.007 A 
ENDBRANCH  37  38
ENDBRANCH  36  37
BRANCH  36  44
HETATM   44  C34 UNL     1      -3.132  50.502 -21.012  1.00  0.00     0.163 C 
HETATM   45  O8  UNL     1      -4.110  51.202 -21.241  1.00  0.00    -0.648 OA
BRANCH  44  46
HETATM   46  O9  UNL     1      -3.093  49.222 -21.426  1.00  0.00    -0.775 OA
HETATM   47  H41 UNL     1      -3.940  49.078 -21.894  1.00  0.00     0.167 HD
ENDBRANCH  44  46
ENDBRANCH  36  44
ENDBRANCH  34  36
ENDBRANCH  31  32
ENDBRANCH  30  31
ENDBRANCH  28  30
ENDBRANCH  27  28
ENDBRANCH  26  27
ENDBRANCH   1  26
TORSDOF 13
ENDMDL
MODEL 5
REMARK minimizedAffinity -9.21734047
REMARK CNNscore 0.434321016
REMARK CNNaffinity 6.51723433
REMARK  13 active torsions:
REMARK  status: ('A' for Active; 'I' for Inactive)
REMARK    1  A    between atoms: C19_21  and  O3_22 
REMARK    2  A    between atoms: C19_21  and  C20_23 
REMARK    3  A    between atoms: C20_23  and  C21_25 
REMARK    4  A    between atoms: C21_25  and  O5_26 
REMARK    5  A    between atoms: O5_26  and  C22_27 
REMARK    6  A    between atoms: C22_27  and  C23_29 
REMARK    7  A    between atoms: C23_29  and  C24_30 
REMARK    8  A    between atoms: C24_30  and  C25_31 
REMARK       I    between atoms: C25_31  and  N1_33 
REMARK    9  A    between atoms: N1_33  and  C26_34 
REMARK   10  A    between atoms: C26_34  and  C27_35 
REMARK   11  A    between atoms: C26_34  and  C34_42 
REMARK   12  A    between atoms: C27_35  and  C28_36 
REMARK   13  A    between atoms: C34_42  and  O9_44 
ROOT
HETATM    1  C20 UNL     1      -6.014  48.811 -22.140  1.00  0.00     0.185 C 
HETATM    2  O4  UNL     1      -5.488  47.703 -21.991  1.00  0.00    -0.292 OA
ENDROOT
BRANCH   1   3
HETATM    3  C19 UNL     1      -5.573  49.786 -23.282  1.00  0.00     0.128 C 
HETATM    4  C14 UNL     1      -4.100  49.584 -23.792  1.00  0.00     0.005 C 
HETATM    5  C13 UNL     1      -3.951  50.000 -25.274  1.00  0.00     0.091 C 
HETATM    6  C15 UNL     1      -3.643  48.112 -23.665  1.00  0.00     0.019 C 
HETATM    7  C16 UNL     1      -3.216  50.504 -22.882  1.00  0.00     0.002 C 
HETATM    8  C12 UNL     1      -2.500  49.967 -25.691  1.00  0.00     0.133 C 
HETATM    9  C11 UNL     1      -1.502  50.721 -24.820  1.00  0.00     0.072 C 
HETATM   10  O2  UNL     1      -2.147  49.342 -26.690  1.00  0.00    -0.297 OA
HETATM   11  C2  UNL     1      -0.614  51.726 -25.652  1.00  0.00    -0.009 C 
HETATM   12  C10 UNL     1      -2.220  51.423 -23.646  1.00  0.00     0.003 C 
HETATM   13  C1  UNL     1       0.569  50.949 -26.278  1.00  0.00     0.021 C 
HETATM   14  C3  UNL     1      -1.426  52.442 -26.767  1.00  0.00     0.022 C 
HETATM   15  C7  UNL     1      -0.039  52.801 -24.721  1.00  0.00    -0.067 C 
HETATM   16  C4  UNL     1      -0.644  53.550 -27.471  1.00  0.00     0.084 C 
HETATM   17  C5  UNL     1      -0.048  54.524 -26.488  1.00  0.00     0.149 C 
HETATM   18  O1  UNL     1       0.254  55.672 -26.805  1.00  0.00    -0.293 OA
HETATM   19  C6  UNL     1       0.211  54.065 -25.103  1.00  0.00     0.053 C 
HETATM   20  C8  UNL     1       0.160  52.377 -23.295  1.00  0.00     0.035 C 
HETATM   21  C9  UNL     1      -1.189  52.033 -22.659  1.00  0.00     0.010 C 
HETATM   22  C17 UNL     1      -4.190  51.354 -22.046  1.00  0.00     0.009 C 
HETATM   23  C18 UNL     1      -5.543  51.216 -22.725  1.00  0.00     0.047 C 
BRANCH   3  24
HETATM   24  O3  UNL     1      -6.501  49.813 -24.359  1.00  0.00    -0.381 OA
HETATM   25  H25 UNL     1      -6.462  48.965 -24.850  1.00  0.00     0.211 HD
ENDBRANCH   3  24
ENDBRANCH   1   3
BRANCH   1  26
HETATM   26  C21 UNL     1      -7.184  49.208 -21.247  1.00  0.00     0.260 C 
BRANCH  26  27
HETATM   27  O5  UNL     1      -7.918  48.097 -20.739  1.00  0.00    -0.314 OA
BRANCH  27  28
HETATM   28  C22 UNL     1      -8.863  48.386 -19.810  1.00  0.00     0.259 C 
HETATM   29  O6  UNL     1      -8.633  49.010 -18.778  1.00  0.00    -0.265 OA
BRANCH  28  30
HETATM   30  C23 UNL     1     -10.227  47.830 -20.148  1.00  0.00     0.120 C 
BRANCH  30  31
HETATM   31  C24 UNL     1     -11.278  47.996 -19.057  1.00  0.00     0.112 C 
BRANCH  31  32
HETATM   32  C25 UNL     1     -12.687  47.999 -19.618  1.00  0.00     0.218 C 
HETATM   33  O7  UNL     1     -13.409  48.989 -19.633  1.00  0.00    -0.274 OA
HETATM   34  N1  UNL     1     -13.070  46.771 -20.112  1.00  0.00    -0.346 N 
HETATM   35  H32 UNL     1     -12.573  45.963 -19.750  1.00  0.00     0.163 HD
BRANCH  34  36
HETATM   36  C26 UNL     1     -14.460  46.531 -20.527  1.00  0.00     0.186 C 
BRANCH  36  37
HETATM   37  C27 UNL     1     -15.416  47.347 -19.649  1.00  0.00     0.074 C 
BRANCH  37  38
HETATM   38  C28 UNL     1     -16.769  46.708 -19.455  1.00  0.00    -0.056 A 
HETATM   39  C29 UNL     1     -16.875  45.341 -19.164  1.00  0.00     0.007 A 
HETATM   40  C30 UNL     1     -18.127  44.752 -18.979  1.00  0.00     0.001 A 
HETATM   41  C31 UNL     1     -19.284  45.523 -19.085  1.00  0.00     0.000 A 
HETATM   42  C32 UNL     1     -19.189  46.883 -19.374  1.00  0.00     0.001 A 
HETATM   43  C33 UNL     1     -17.939  47.474 -19.558  1.00  0.00     0.007 A 
ENDBRANCH  37  38
ENDBRANCH  36  37
BRANCH  36  44
HETATM   44  C34 UNL     1     -14.575  46.979 -21.981  1.00  0.00     0.163 C 
HETATM   45  O8  UNL     1     -13.729  47.611 -22.600  1.00  0.00    -0.648 OA
BRANCH  44  46
HETATM   46  O9  UNL     1     -15.732  46.624 -22.569  1.00  0.00    -0.775 OA
HETATM   47  H41 UNL     1     -15.669  46.964 -23.484  1.00  0.00     0.167 HD
ENDBRANCH  44  46
ENDBRANCH  36  44
ENDBRANCH  34  36
ENDBRANCH  31  32
ENDBRANCH  30  31
ENDBRANCH  28  30
ENDBRANCH  27  28
ENDBRANCH  26  27
ENDBRANCH   1  26
TORSDOF 13
ENDMDL
MODEL 6
REMARK minimizedAffinity -8.28732777
REMARK CNNscore 0.396496832
REMARK CNNaffinity 5.93375349
REMARK  13 active torsions:
REMARK  status: ('A' for Active; 'I' for Inactive)
REMARK    1  A    between atoms: C19_21  and  O3_22 
REMARK    2  A    between atoms: C19_21  and  C20_23 
REMARK    3  A    between atoms: C20_23  and  C21_25 
REMARK    4  A    between atoms: C21_25  and  O5_26 
REMARK    5  A    between atoms: O5_26  and  C22_27 
REMARK    6  A    between atoms: C22_27  and  C23_29 
REMARK    7  A    between atoms: C23_29  and  C24_30 
REMARK    8  A    between atoms: C24_30  and  C25_31 
REMARK       I    between atoms: C25_31  and  N1_33 
REMARK    9  A    between atoms: N1_33  and  C26_34 
REMARK   10  A    between atoms: C26_34  and  C27_35 
REMARK   11  A    between atoms: C26_34  and  C34_42 
REMARK   12  A    between atoms: C27_35  and  C28_36 
REMARK   13  A    between atoms: C34_42  and  O9_44 
ROOT
HETATM    1  C20 UNL     1       4.414  68.639 -37.152  1.00  0.00     0.185 C 
HETATM    2  O4  UNL     1       5.262  69.224 -37.835  1.00  0.00    -0.292 OA
ENDROOT
BRANCH   1   3
HETATM    3  C19 UNL     1       2.884  68.926 -37.313  1.00  0.00     0.128 C 
HETATM    4  C14 UNL     1       2.273  68.497 -38.697  1.00  0.00     0.005 C 
HETATM    5  C13 UNL     1       0.776  68.132 -38.566  1.00  0.00     0.091 C 
HETATM    6  C15 UNL     1       3.009  67.278 -39.298  1.00  0.00     0.019 C 
HETATM    7  C16 UNL     1       2.444  69.745 -39.631  1.00  0.00     0.002 C 
HETATM    8  C12 UNL     1       0.167  67.896 -39.927  1.00  0.00     0.133 C 
HETATM    9  C11 UNL     1       0.364  68.978 -40.982  1.00  0.00     0.072 C 
HETATM   10  O2  UNL     1      -0.451  66.860 -40.169  1.00  0.00    -0.297 OA
HETATM   11  C2  UNL     1      -0.997  69.444 -41.630  1.00  0.00    -0.009 C 
HETATM   12  C10 UNL     1       1.163  70.168 -40.404  1.00  0.00     0.003 C 
HETATM   13  C1  UNL     1      -1.376  68.459 -42.761  1.00  0.00     0.021 C 
HETATM   14  C3  UNL     1      -2.147  69.522 -40.588  1.00  0.00     0.022 C 
HETATM   15  C7  UNL     1      -0.826  70.837 -42.250  1.00  0.00    -0.067 C 
HETATM   16  C4  UNL     1      -3.429  70.140 -41.143  1.00  0.00     0.084 C 
HETATM   17  C5  UNL     1      -3.169  71.471 -41.801  1.00  0.00     0.149 C 
HETATM   18  O1  UNL     1      -4.051  72.314 -41.944  1.00  0.00    -0.293 OA
HETATM   19  C6  UNL     1      -1.809  71.751 -42.321  1.00  0.00     0.053 C 
HETATM   20  C8  UNL     1       0.563  71.168 -42.714  1.00  0.00     0.035 C 
HETATM   21  C9  UNL     1       1.523  71.183 -41.522  1.00  0.00     0.010 C 
HETATM   22  C17 UNL     1       2.930  70.897 -38.732  1.00  0.00     0.009 C 
HETATM   23  C18 UNL     1       2.665  70.445 -37.305  1.00  0.00     0.047 C 
BRANCH   3  24
HETATM   24  O3  UNL     1       2.122  68.422 -36.225  1.00  0.00    -0.381 OA
HETATM   25  H25 UNL     1       2.104  67.443 -36.259  1.00  0.00     0.211 HD
ENDBRANCH   3  24
ENDBRANCH   1   3
BRANCH   1  26
HETATM   26  C21 UNL     1       4.859  67.543 -36.190  1.00  0.00     0.260 C 
BRANCH  26  27
HETATM   27  O5  UNL     1       4.218  66.290 -36.415  1.00  0.00    -0.314 OA
BRANCH  27  28
HETATM   28  C22 UNL     1       5.038  65.214 -36.509  1.00  0.00     0.259 C 
HETATM   29  O6  UNL     1       5.592  64.870 -37.550  1.00  0.00    -0.265 OA
BRANCH  28  30
HETATM   30  C23 UNL     1       5.177  64.449 -35.214  1.00  0.00     0.120 C 
BRANCH  30  31
HETATM   31  C24 UNL     1       5.940  63.135 -35.320  1.00  0.00     0.112 C 
BRANCH  31  32
HETATM   32  C25 UNL     1       7.281  63.195 -34.614  1.00  0.00     0.218 C 
HETATM   33  O7  UNL     1       7.571  64.047 -33.782  1.00  0.00    -0.274 OA
HETATM   34  N1  UNL     1       8.139  62.190 -35.005  1.00  0.00    -0.346 N 
HETATM   35  H32 UNL     1       7.960  61.771 -35.912  1.00  0.00     0.163 HD
BRANCH  34  36
HETATM   36  C26 UNL     1       9.543  62.193 -34.569  1.00  0.00     0.186 C 
BRANCH  36  37
HETATM   37  C27 UNL     1      10.234  63.478 -35.040  1.00  0.00     0.074 C 
BRANCH  37  38
HETATM   38  C28 UNL     1      11.241  63.265 -36.144  1.00  0.00    -0.056 A 
HETATM   39  C29 UNL     1      11.164  62.135 -36.970  1.00  0.00     0.007 A 
HETATM   40  C30 UNL     1      12.093  61.943 -37.993  1.00  0.00     0.001 A 
HETATM   41  C31 UNL     1      13.107  62.876 -38.200  1.00  0.00     0.000 A 
HETATM   42  C32 UNL     1      13.193  64.004 -37.385  1.00  0.00     0.001 A 
HETATM   43  C33 UNL     1      12.265  64.198 -36.362  1.00  0.00     0.007 A 
ENDBRANCH  37  38
ENDBRANCH  36  37
BRANCH  36  44
HETATM   44  C34 UNL     1       9.537  62.132 -33.044  1.00  0.00     0.163 C 
HETATM   45  O8  UNL     1      10.256  62.788 -32.302  1.00  0.00    -0.648 OA
BRANCH  44  46
HETATM   46  O9  UNL     1       8.648  61.256 -32.540  1.00  0.00    -0.775 OA
HETATM   47  H41 UNL     1       8.745  61.323 -31.569  1.00  0.00     0.167 HD
ENDBRANCH  44  46
ENDBRANCH  36  44
ENDBRANCH  34  36
ENDBRANCH  31  32
ENDBRANCH  30  31
ENDBRANCH  28  30
ENDBRANCH  27  28
ENDBRANCH  26  27
ENDBRANCH   1  26
TORSDOF 13
ENDMDL
MODEL 7
REMARK minimizedAffinity -8.02412701
REMARK CNNscore 0.381745607
REMARK CNNaffinity 6.76219416
REMARK  13 active torsions:
REMARK  status: ('A' for Active; 'I' for Inactive)
REMARK    1  A    between atoms: C19_21  and  O3_22 
REMARK    2  A    between atoms: C19_21  and  C20_23 
REMARK    3  A    between atoms: C20_23  and  C21_25 
REMARK    4  A    between atoms: C21_25  and  O5_26 
REMARK    5  A    between atoms: O5_26  and  C22_27 
REMARK    6  A    between atoms: C22_27  and  C23_29 
REMARK    7  A    between atoms: C23_29  and  C24_30 
REMARK    8  A    between atoms: C24_30  and  C25_31 
REMARK       I    between atoms: C25_31  and  N1_33 
REMARK    9  A    between atoms: N1_33  and  C26_34 
REMARK   10  A    between atoms: C26_34  and  C27_35 
REMARK   11  A    between atoms: C26_34  and  C34_42 
REMARK   12  A    between atoms: C27_35  and  C28_36 
REMARK   13  A    between atoms: C34_42  and  O9_44 
ROOT
HETATM    1  C20 UNL     1      -6.008  48.941 -22.016  1.00  0.00     0.185 C 
HETATM    2  O4  UNL     1      -6.058  47.712 -22.135  1.00  0.00    -0.292 OA
ENDROOT
BRANCH   1   3
HETATM    3  C19 UNL     1      -5.583  49.868 -23.203  1.00  0.00     0.128 C 
HETATM    4  C14 UNL     1      -4.122  49.633 -23.734  1.00  0.00     0.005 C 
HETATM    5  C13 UNL     1      -3.999  49.993 -25.233  1.00  0.00     0.091 C 
HETATM    6  C15 UNL     1      -3.676  48.163 -23.560  1.00  0.00     0.019 C 
HETATM    7  C16 UNL     1      -3.211  50.578 -22.877  1.00  0.00     0.002 C 
HETATM    8  C12 UNL     1      -2.558  49.931 -25.677  1.00  0.00     0.133 C 
HETATM    9  C11 UNL     1      -1.536  50.706 -24.855  1.00  0.00     0.072 C 
HETATM   10  O2  UNL     1      -2.231  49.265 -26.659  1.00  0.00    -0.297 OA
HETATM   11  C2  UNL     1      -0.656  51.671 -25.741  1.00  0.00    -0.009 C 
HETATM   12  C10 UNL     1      -2.223  51.458 -23.694  1.00  0.00     0.003 C 
HETATM   13  C1  UNL     1       0.507  50.861 -26.361  1.00  0.00     0.021 C 
HETATM   14  C3  UNL     1      -1.484  52.353 -26.866  1.00  0.00     0.022 C 
HETATM   15  C7  UNL     1      -0.052  52.774 -24.863  1.00  0.00    -0.067 C 
HETATM   16  C4  UNL     1      -0.707  53.427 -27.626  1.00  0.00     0.084 C 
HETATM   17  C5  UNL     1      -0.082  54.431 -26.693  1.00  0.00     0.149 C 
HETATM   18  O1  UNL     1       0.223  55.564 -27.059  1.00  0.00    -0.293 OA
HETATM   19  C6  UNL     1       0.200  54.022 -25.297  1.00  0.00     0.053 C 
HETATM   20  C8  UNL     1       0.172  52.402 -23.426  1.00  0.00     0.035 C 
HETATM   21  C9  UNL     1      -1.167  52.095 -22.751  1.00  0.00     0.010 C 
HETATM   22  C17 UNL     1      -4.161  51.467 -22.053  1.00  0.00     0.009 C 
HETATM   23  C18 UNL     1      -5.528  51.317 -22.700  1.00  0.00     0.047 C 
BRANCH   3  24
HETATM   24  O3  UNL     1      -6.532  49.863 -24.260  1.00  0.00    -0.381 OA
HETATM   25  H25 UNL     1      -6.511  48.998 -24.720  1.00  0.00     0.211 HD
ENDBRANCH   3  24
ENDBRANCH   1   3
BRANCH   1  26
HETATM   26  C21 UNL     1      -6.459  49.582 -20.708  1.00  0.00     0.260 C 
BRANCH  26  27
HETATM   27  O5  UNL     1      -7.427  48.814 -19.998  1.00  0.00    -0.314 OA
BRANCH  27  28
HETATM   28  C22 UNL     1      -7.148  48.568 -18.694  1.00  0.00     0.259 C 
HETATM   29  O6  UNL     1      -6.019  48.636 -18.216  1.00  0.00    -0.265 OA
BRANCH  28  30
HETATM   30  C23 UNL     1      -8.359  48.162 -17.886  1.00  0.00     0.120 C 
BRANCH  30  31
HETATM   31  C24 UNL     1      -9.700  48.547 -18.498  1.00  0.00     0.112 C 
BRANCH  31  32
HETATM   32  C25 UNL     1     -10.811  47.605 -18.076  1.00  0.00     0.218 C 
HETATM   33  O7  UNL     1     -10.772  46.926 -17.056  1.00  0.00    -0.274 OA
HETATM   34  N1  UNL     1     -11.869  47.594 -18.959  1.00  0.00    -0.346 N 
HETATM   35  H32 UNL     1     -11.669  47.894 -19.908  1.00  0.00     0.163 HD
BRANCH  34  36
HETATM   36  C26 UNL     1     -12.952  46.610 -18.816  1.00  0.00     0.186 C 
BRANCH  36  37
HETATM   37  C27 UNL     1     -12.418  45.336 -18.150  1.00  0.00     0.074 C 
BRANCH  37  38
HETATM   38  C28 UNL     1     -13.484  44.492 -17.498  1.00  0.00    -0.056 A 
HETATM   39  C29 UNL     1     -14.351  43.712 -18.276  1.00  0.00     0.007 A 
HETATM   40  C30 UNL     1     -15.333  42.927 -17.671  1.00  0.00     0.001 A 
HETATM   41  C31 UNL     1     -15.459  42.914 -16.282  1.00  0.00     0.000 A 
HETATM   42  C32 UNL     1     -14.602  43.685 -15.499  1.00  0.00     0.001 A 
HETATM   43  C33 UNL     1     -13.619  44.470 -16.102  1.00  0.00     0.007 A 
ENDBRANCH  37  38
ENDBRANCH  36  37
BRANCH  36  44
HETATM   44  C34 UNL     1     -14.023  47.250 -17.937  1.00  0.00     0.163 C 
HETATM   45  O8  UNL     1     -15.226  47.246 -18.163  1.00  0.00    -0.648 OA
BRANCH  44  46
HETATM   46  O9  UNL     1     -13.532  47.861 -16.843  1.00  0.00    -0.775 OA
HETATM   47  H41 UNL     1     -14.315  48.216 -16.375  1.00  0.00     0.167 HD
ENDBRANCH  44  46
ENDBRANCH  36  44
ENDBRANCH  34  36
ENDBRANCH  31  32
ENDBRANCH  30  31
ENDBRANCH  28  30
ENDBRANCH  27  28
ENDBRANCH  26  27
ENDBRANCH   1  26
TORSDOF 13
ENDMDL
MODEL 8
REMARK minimizedAffinity -8.72036648
REMARK CNNscore 0.352634937
REMARK CNNaffinity 6.7973752
REMARK  13 active torsions:
REMARK  status: ('A' for Active; 'I' for Inactive)
REMARK    1  A    between atoms: C19_21  and  O3_22 
REMARK    2  A    between atoms: C19_21  and  C20_23 
REMARK    3  A    between atoms: C20_23  and  C21_25 
REMARK    4  A    between atoms: C21_25  and  O5_26 
REMARK    5  A    between atoms: O5_26  and  C22_27 
REMARK    6  A    between atoms: C22_27  and  C23_29 
REMARK    7  A    between atoms: C23_29  and  C24_30 
REMARK    8  A    between atoms: C24_30  and  C25_31 
REMARK       I    between atoms: C25_31  and  N1_33 
REMARK    9  A    between atoms: N1_33  and  C26_34 
REMARK   10  A    between atoms: C26_34  and  C27_35 
REMARK   11  A    between atoms: C26_34  and  C34_42 
REMARK   12  A    between atoms: C27_35  and  C28_36 
REMARK   13  A    between atoms: C34_42  and  O9_44 
ROOT
HETATM    1  C20 UNL     1      -3.116  48.625 -19.634  1.00  0.00     0.185 C 
HETATM    2  O4  UNL     1      -4.281  48.949 -19.885  1.00  0.00    -0.292 OA
ENDROOT
BRANCH   1   3
HETATM    3  C19 UNL     1      -1.975  48.756 -20.697  1.00  0.00     0.128 C 
HETATM    4  C14 UNL     1      -1.784  50.201 -21.286  1.00  0.00     0.005 C 
HETATM    5  C13 UNL     1      -0.320  50.445 -21.722  1.00  0.00     0.091 C 
HETATM    6  C15 UNL     1      -2.163  51.295 -20.263  1.00  0.00     0.019 C 
HETATM    7  C16 UNL     1      -2.735  50.272 -22.530  1.00  0.00     0.002 C 
HETATM    8  C12 UNL     1      -0.195  51.765 -22.444  1.00  0.00     0.133 C 
HETATM    9  C11 UNL     1      -1.149  52.024 -23.604  1.00  0.00     0.072 C 
HETATM   10  O2  UNL     1       0.640  52.598 -22.093  1.00  0.00    -0.297 OA
HETATM   11  C2  UNL     1      -0.395  52.444 -24.924  1.00  0.00    -0.009 C 
HETATM   12  C10 UNL     1      -2.077  50.809 -23.832  1.00  0.00     0.003 C 
HETATM   13  C1  UNL     1      -0.099  53.961 -24.872  1.00  0.00     0.021 C 
HETATM   14  C3  UNL     1       0.930  51.653 -25.120  1.00  0.00     0.022 C 
HETATM   15  C7  UNL     1      -1.289  52.174 -26.141  1.00  0.00    -0.067 C 
HETATM   16  C4  UNL     1       1.593  51.904 -26.473  1.00  0.00     0.084 C 
HETATM   17  C5  UNL     1       0.631  51.691 -27.614  1.00  0.00     0.149 C 
HETATM   18  O1  UNL     1       1.014  51.435 -28.754  1.00  0.00    -0.293 OA
HETATM   19  C6  UNL     1      -0.821  51.830 -27.353  1.00  0.00     0.053 C 
HETATM   20  C8  UNL     1      -2.766  52.236 -25.879  1.00  0.00     0.035 C 
HETATM   21  C9  UNL     1      -3.167  51.142 -24.886  1.00  0.00     0.010 C 
HETATM   22  C17 UNL     1      -3.267  48.844 -22.752  1.00  0.00     0.009 C 
HETATM   23  C18 UNL     1      -2.362  47.936 -21.936  1.00  0.00     0.047 C 
BRANCH   3  24
HETATM   24  O3  UNL     1      -0.746  48.208 -20.242  1.00  0.00    -0.381 OA
HETATM   25  H25 UNL     1      -0.371  48.777 -19.537  1.00  0.00     0.211 HD
ENDBRANCH   3  24
ENDBRANCH   1   3
BRANCH   1  26
HETATM   26  C21 UNL     1      -2.757  48.170 -18.223  1.00  0.00     0.260 C 
BRANCH  26  27
HETATM   27  O5  UNL     1      -1.616  48.832 -17.682  1.00  0.00    -0.314 OA
BRANCH  27  28
HETATM   28  C22 UNL     1      -1.874  49.863 -16.840  1.00  0.00     0.259 C 
HETATM   29  O6  UNL     1      -1.307  50.951 -16.904  1.00  0.00    -0.265 OA
BRANCH  28  30
HETATM   30  C23 UNL     1      -2.903  49.534 -15.784  1.00  0.00     0.120 C 
BRANCH  30  31
HETATM   31  C24 UNL     1      -2.707  50.243 -14.450  1.00  0.00     0.112 C 
BRANCH  31  32
HETATM   32  C25 UNL     1      -2.971  49.325 -13.272  1.00  0.00     0.218 C 
HETATM   33  O7  UNL     1      -2.675  48.136 -13.260  1.00  0.00    -0.274 OA
HETATM   34  N1  UNL     1      -3.579  49.969 -12.216  1.00  0.00    -0.346 N 
HETATM   35  H32 UNL     1      -4.089  50.819 -12.437  1.00  0.00     0.163 HD
BRANCH  34  36
HETATM   36  C26 UNL     1      -4.079  49.208 -11.062  1.00  0.00     0.186 C 
BRANCH  36  37
HETATM   37  C27 UNL     1      -4.054  50.085  -9.805  1.00  0.00     0.074 C 
BRANCH  37  38
HETATM   38  C28 UNL     1      -3.558  51.489 -10.046  1.00  0.00    -0.056 A 
HETATM   39  C29 UNL     1      -2.312  51.899  -9.551  1.00  0.00     0.007 A 
HETATM   40  C30 UNL     1      -1.852  53.197  -9.779  1.00  0.00     0.001 A 
HETATM   41  C31 UNL     1      -2.632  54.097 -10.504  1.00  0.00     0.000 A 
HETATM   42  C32 UNL     1      -3.872  53.699 -11.001  1.00  0.00     0.001 A 
HETATM   43  C33 UNL     1      -4.333  52.402 -10.775  1.00  0.00     0.007 A 
ENDBRANCH  37  38
ENDBRANCH  36  37
BRANCH  36  44
HETATM   44  C34 UNL     1      -5.513  48.799 -11.386  1.00  0.00     0.163 C 
HETATM   45  O8  UNL     1      -6.522  49.310 -10.917  1.00  0.00    -0.648 OA
BRANCH  44  46
HETATM   46  O9  UNL     1      -5.603  47.781 -12.261  1.00  0.00    -0.775 OA
HETATM   47  H41 UNL     1      -6.563  47.630 -12.381  1.00  0.00     0.167 HD
ENDBRANCH  44  46
ENDBRANCH  36  44
ENDBRANCH  34  36
ENDBRANCH  31  32
ENDBRANCH  30  31
ENDBRANCH  28  30
ENDBRANCH  27  28
ENDBRANCH  26  27
ENDBRANCH   1  26
TORSDOF 13
ENDMDL
MODEL 9
REMARK minimizedAffinity -9.05494308
REMARK CNNscore 0.342874944
REMARK CNNaffinity 6.7809577
REMARK  13 active torsions:
REMARK  status: ('A' for Active; 'I' for Inactive)
REMARK    1  A    between atoms: C19_21  and  O3_22 
REMARK    2  A    between atoms: C19_21  and  C20_23 
REMARK    3  A    between atoms: C20_23  and  C21_25 
REMARK    4  A    between atoms: C21_25  and  O5_26 
REMARK    5  A    between atoms: O5_26  and  C22_27 
REMARK    6  A    between atoms: C22_27  and  C23_29 
REMARK    7  A    between atoms: C23_29  and  C24_30 
REMARK    8  A    between atoms: C24_30  and  C25_31 
REMARK       I    between atoms: C25_31  and  N1_33 
REMARK    9  A    between atoms: N1_33  and  C26_34 
REMARK   10  A    between atoms: C26_34  and  C27_35 
REMARK   11  A    between atoms: C26_34  and  C34_42 
REMARK   12  A    between atoms: C27_35  and  C28_36 
REMARK   13  A    between atoms: C34_42  and  O9_44 
ROOT
HETATM    1  C20 UNL     1      -5.911  48.884 -22.121  1.00  0.00     0.185 C 
HETATM    2  O4  UNL     1      -5.897  49.244 -20.939  1.00  0.00    -0.292 OA
ENDROOT
BRANCH   1   3
HETATM    3  C19 UNL     1      -5.478  49.842 -23.280  1.00  0.00     0.128 C 
HETATM    4  C14 UNL     1      -3.997  49.653 -23.775  1.00  0.00     0.005 C 
HETATM    5  C13 UNL     1      -3.844  50.042 -25.264  1.00  0.00     0.091 C 
HETATM    6  C15 UNL     1      -3.518  48.193 -23.614  1.00  0.00     0.019 C 
HETATM    7  C16 UNL     1      -3.135  50.607 -22.878  1.00  0.00     0.002 C 
HETATM    8  C12 UNL     1      -2.390  50.025 -25.669  1.00  0.00     0.133 C 
HETATM    9  C11 UNL     1      -1.411  50.812 -24.807  1.00  0.00     0.072 C 
HETATM   10  O2  UNL     1      -2.019  49.384 -26.653  1.00  0.00    -0.297 OA
HETATM   11  C2  UNL     1      -0.533  51.814 -25.653  1.00  0.00    -0.009 C 
HETATM   12  C10 UNL     1      -2.149  51.526 -23.653  1.00  0.00     0.003 C 
HETATM   13  C1  UNL     1       0.667  51.045 -26.254  1.00  0.00     0.021 C 
HETATM   14  C3  UNL     1      -1.348  52.494 -26.788  1.00  0.00     0.022 C 
HETATM   15  C7  UNL     1       0.017  52.918 -24.741  1.00  0.00    -0.067 C 
HETATM   16  C4  UNL     1      -0.580  53.600 -27.510  1.00  0.00     0.084 C 
HETATM   17  C5  UNL     1      -0.007  54.604 -26.543  1.00  0.00     0.149 C 
HETATM   18  O1  UNL     1       0.279  55.750 -26.882  1.00  0.00    -0.293 OA
HETATM   19  C6  UNL     1       0.249  54.178 -25.147  1.00  0.00     0.053 C 
HETATM   20  C8  UNL     1       0.212  52.526 -23.304  1.00  0.00     0.035 C 
HETATM   21  C9  UNL     1      -1.136  52.174 -22.671  1.00  0.00     0.010 C 
HETATM   22  C17 UNL     1      -4.131  51.457 -22.066  1.00  0.00     0.009 C 
HETATM   23  C18 UNL     1      -5.475  51.283 -22.752  1.00  0.00     0.047 C 
BRANCH   3  24
HETATM   24  O3  UNL     1      -6.397  49.831 -24.363  1.00  0.00    -0.381 OA
HETATM   25  H25 UNL     1      -6.341  48.974 -24.837  1.00  0.00     0.211 HD
ENDBRANCH   3  24
ENDBRANCH   1   3
BRANCH   1  26
HETATM   26  C21 UNL     1      -6.271  47.440 -22.457  1.00  0.00     0.260 C 
BRANCH  26  27
HETATM   27  O5  UNL     1      -7.322  47.320 -23.411  1.00  0.00    -0.314 OA
BRANCH  27  28
HETATM   28  C22 UNL     1      -8.549  47.033 -22.910  1.00  0.00     0.259 C 
HETATM   29  O6  UNL     1      -8.732  46.559 -21.792  1.00  0.00    -0.265 OA
BRANCH  28  30
HETATM   30  C23 UNL     1      -9.675  47.317 -23.876  1.00  0.00     0.120 C 
BRANCH  30  31
HETATM   31  C24 UNL     1      -9.275  48.102 -25.119  1.00  0.00     0.112 C 
BRANCH  31  32
HETATM   32  C25 UNL     1      -9.654  47.380 -26.397  1.00  0.00     0.218 C 
HETATM   33  O7  UNL     1      -9.503  46.175 -26.564  1.00  0.00    -0.274 OA
HETATM   34  N1  UNL     1     -10.188  48.219 -27.350  1.00  0.00    -0.346 N 
HETATM   35  H32 UNL     1      -9.953  49.203 -27.268  1.00  0.00     0.163 HD
BRANCH  34  36
HETATM   36  C26 UNL     1     -10.443  47.736 -28.715  1.00  0.00     0.186 C 
BRANCH  36  37
HETATM   37  C27 UNL     1     -11.894  48.031 -29.112  1.00  0.00     0.074 C 
BRANCH  37  38
HETATM   38  C28 UNL     1     -12.902  47.092 -28.498  1.00  0.00    -0.056 A 
HETATM   39  C29 UNL     1     -13.321  45.945 -29.187  1.00  0.00     0.007 A 
HETATM   40  C30 UNL     1     -14.249  45.075 -28.615  1.00  0.00     0.001 A 
HETATM   41  C31 UNL     1     -14.768  45.342 -27.349  1.00  0.00     0.000 A 
HETATM   42  C32 UNL     1     -14.358  46.478 -26.654  1.00  0.00     0.001 A 
HETATM   43  C33 UNL     1     -13.429  47.349 -27.224  1.00  0.00     0.007 A 
ENDBRANCH  37  38
ENDBRANCH  36  37
BRANCH  36  44
HETATM   44  C34 UNL     1      -9.486  48.485 -29.639  1.00  0.00     0.163 C 
HETATM   45  O8  UNL     1      -9.441  48.377 -30.857  1.00  0.00    -0.648 OA
BRANCH  44  46
HETATM   46  O9  UNL     1      -8.642  49.310 -28.992  1.00  0.00    -0.775 OA
HETATM   47  H41 UNL     1      -8.100  49.723 -29.694  1.00  0.00     0.167 HD
ENDBRANCH  44  46
ENDBRANCH  36  44
ENDBRANCH  34  36
ENDBRANCH  31  32
ENDBRANCH  30  31
ENDBRANCH  28  30
ENDBRANCH  27  28
ENDBRANCH  26  27
ENDBRANCH   1  26
TORSDOF 13
ENDMDL
