MODEL 1
REMARK minimizedAffinity -8.57194901
REMARK CNNscore 0.37562719
REMARK CNNaffinity 6.17477465
REMARK  11 active torsions:
REMARK  status: ('A' for Active; 'I' for Inactive)
REMARK    1  A    between atoms: C3_3  and  O1_4 
REMARK    2  A    between atoms: N1_14  and  O2_16 
REMARK    3  A    between atoms: O2_16  and  C13_17 
REMARK    4  A    between atoms: C13_17  and  C14_18 
REMARK       I    between atoms: C14_18  and  N2_20 
REMARK    5  A    between atoms: N2_20  and  C15_21 
REMARK    6  A    between atoms: C15_21  and  C16_22 
REMARK    7  A    between atoms: C15_21  and  C17_25 
REMARK    8  A    between atoms: C16_22  and  O5_24 
REMARK    9  A    between atoms: C17_25  and  O6_26 
REMARK   10  A    between atoms: C17_25  and  C18_27 
REMARK   11  A    between atoms: C22_31  and  N3_32 
ROOT
HETATM    1  C1  UNL     1      -0.245  52.148 -18.480  1.00  0.00     0.015 C 
HETATM    2  C2  UNL     1      -0.391  51.749 -19.605  1.00  0.00    -0.078 C 
HETATM    3  C3  UNL     1      -0.553  51.237 -20.976  1.00  0.00     0.128 C 
HETATM    4  C4  UNL     1      -1.129  52.291 -21.934  1.00  0.00     0.052 C 
HETATM    5  C5  UNL     1      -1.929  51.510 -22.990  1.00  0.00     0.010 C 
HETATM    6  C6  UNL     1      -1.790  50.021 -22.625  1.00  0.00     0.002 C 
HETATM    7  C7  UNL     1      -2.952  49.107 -23.066  1.00  0.00    -0.004 C 
HETATM    8  C8  UNL     1      -3.198  49.224 -24.576  1.00  0.00     0.010 C 
HETATM    9  C9  UNL     1      -4.236  48.212 -25.036  1.00  0.00     0.035 C 
HETATM   10  C10 UNL     1      -5.534  48.338 -24.274  1.00  0.00    -0.069 C 
HETATM   11  C11 UNL     1      -6.695  48.320 -24.957  1.00  0.00     0.030 C 
HETATM   12  C12 UNL     1      -8.009  48.243 -24.272  1.00  0.00     0.032 C 
HETATM   13  N1  UNL     1      -9.055  48.026 -25.020  1.00  0.00    -0.271 N 
ATOM     14  H1  UNL     1      -9.022  47.973 -26.038  1.00  0.00     0.194 HD
HETATM   15  C24 UNL     1      -8.040  48.315 -22.760  1.00  0.00     0.060 C 
HETATM   16  C25 UNL     1      -6.788  48.980 -22.193  1.00  0.00     0.020 C 
HETATM   17  C26 UNL     1      -5.450  48.401 -22.744  1.00  0.00    -0.016 C 
HETATM   18  C27 UNL     1      -5.264  46.958 -22.224  1.00  0.00     0.020 C 
HETATM   19  C28 UNL     1      -4.267  49.349 -22.283  1.00  0.00     0.002 C 
HETATM   20  C29 UNL     1      -3.990  49.305 -20.763  1.00  0.00     0.007 C 
HETATM   21  C30 UNL     1      -2.866  50.255 -20.341  1.00  0.00     0.014 C 
HETATM   22  C31 UNL     1      -1.532  50.030 -21.100  1.00  0.00     0.003 C 
HETATM   23  C32 UNL     1      -0.874  48.714 -20.636  1.00  0.00     0.020 C 
ENDROOT
BRANCH   3  24
HETATM   24  O1  UNL     1       0.737  50.868 -21.475  1.00  0.00    -0.377 OA
HETATM   25  H2  UNL     1       1.353  51.582 -21.229  1.00  0.00     0.211 HD
ENDBRANCH   3  24
BRANCH  13  26
HETATM   26  O2  UNL     1     -10.229  47.875 -24.269  1.00  0.00    -0.271 OA
BRANCH  26  27
HETATM   27  C13 UNL     1     -11.015  46.855 -24.876  1.00  0.00     0.303 C 
BRANCH  27  28
HETATM   28  C14 UNL     1     -12.355  46.679 -24.167  1.00  0.00     0.244 C 
HETATM   29  O3  UNL     1     -12.506  46.905 -22.968  1.00  0.00    -0.271 OA
HETATM   30  N2  UNL     1     -13.365  46.179 -24.970  1.00  0.00    -0.342 N 
HETATM   31  H16 UNL     1     -13.038  45.742 -25.830  1.00  0.00     0.163 HD
BRANCH  30  32
HETATM   32  C15 UNL     1     -14.574  45.585 -24.353  1.00  0.00     0.216 C 
BRANCH  32  33
HETATM   33  C16 UNL     1     -15.003  44.355 -25.156  1.00  0.00     0.166 C 
HETATM   34  O4  UNL     1     -14.367  43.325 -25.309  1.00  0.00    -0.648 OA
BRANCH  33  35
HETATM   35  O5  UNL     1     -16.244  44.454 -25.692  1.00  0.00    -0.775 OA
HETATM   36  H18 UNL     1     -16.334  43.634 -26.228  1.00  0.00     0.167 HD
ENDBRANCH  33  35
ENDBRANCH  32  33
BRANCH  32  37
HETATM   37  C17 UNL     1     -15.719  46.622 -24.342  1.00  0.00     0.184 C 
BRANCH  37  38
HETATM   38  O6  UNL     1     -15.181  47.954 -24.399  1.00  0.00    -0.388 OA
HETATM   39  H20 UNL     1     -14.345  47.890 -24.897  1.00  0.00     0.210 HD
ENDBRANCH  37  38
BRANCH  37  40
HETATM   40  C18 UNL     1     -16.606  46.544 -23.117  1.00  0.00    -0.025 A 
HETATM   41  C19 UNL     1     -17.980  46.277 -23.256  1.00  0.00     0.010 A 
HETATM   42  C20 UNL     1     -18.806  46.153 -22.135  1.00  0.00     0.003 A 
HETATM   43  C21 UNL     1     -18.275  46.307 -20.854  1.00  0.00     0.036 A 
HETATM   44  C22 UNL     1     -16.910  46.590 -20.705  1.00  0.00     0.103 A 
HETATM   45  C23 UNL     1     -16.077  46.709 -21.828  1.00  0.00     0.045 A 
BRANCH  44  46
HETATM   46  N3  UNL     1     -16.345  46.733 -19.354  1.00  0.00    -0.116 N 
HETATM   47  O7  UNL     1     -15.738  45.763 -18.877  1.00  0.00    -0.532 OA
HETATM   48  O8  UNL     1     -16.519  47.808 -18.763  1.00  0.00    -0.532 OA
ENDBRANCH  44  46
ENDBRANCH  37  40
ENDBRANCH  32  37
ENDBRANCH  30  32
ENDBRANCH  27  28
ENDBRANCH  26  27
ENDBRANCH  13  26
TORSDOF 11
ENDMDL
MODEL 2
REMARK minimizedAffinity -8.4153347
REMARK CNNscore 0.362367183
REMARK CNNaffinity 6.50263834
REMARK  11 active torsions:
REMARK  status: ('A' for Active; 'I' for Inactive)
REMARK    1  A    between atoms: C3_3  and  O1_4 
REMARK    2  A    between atoms: N1_14  and  O2_16 
REMARK    3  A    between atoms: O2_16  and  C13_17 
REMARK    4  A    between atoms: C13_17  and  C14_18 
REMARK       I    between atoms: C14_18  and  N2_20 
REMARK    5  A    between atoms: N2_20  and  C15_21 
REMARK    6  A    between atoms: C15_21  and  C16_22 
REMARK    7  A    between atoms: C15_21  and  C17_25 
REMARK    8  A    between atoms: C16_22  and  O5_24 
REMARK    9  A    between atoms: C17_25  and  O6_26 
REMARK   10  A    between atoms: C17_25  and  C18_27 
REMARK   11  A    between atoms: C22_31  and  N3_32 
ROOT
HETATM    1  C1  UNL     1       0.777  52.346 -20.912  1.00  0.00     0.015 C 
HETATM    2  C2  UNL     1       0.103  51.427 -20.530  1.00  0.00    -0.078 C 
HETATM    3  C3  UNL     1      -0.735  50.319 -20.041  1.00  0.00     0.128 C 
HETATM    4  C4  UNL     1      -0.302  48.958 -20.609  1.00  0.00     0.052 C 
HETATM    5  C5  UNL     1      -1.579  48.106 -20.684  1.00  0.00     0.010 C 
HETATM    6  C6  UNL     1      -2.722  48.989 -20.149  1.00  0.00     0.002 C 
HETATM    7  C7  UNL     1      -4.130  48.675 -20.695  1.00  0.00    -0.004 C 
HETATM    8  C8  UNL     1      -4.493  47.203 -20.459  1.00  0.00     0.010 C 
HETATM    9  C9  UNL     1      -5.936  46.930 -20.855  1.00  0.00     0.035 C 
HETATM   10  C10 UNL     1      -6.221  47.325 -22.284  1.00  0.00    -0.069 C 
HETATM   11  C11 UNL     1      -6.910  46.476 -23.071  1.00  0.00     0.030 C 
HETATM   12  C12 UNL     1      -7.396  46.870 -24.417  1.00  0.00     0.032 C 
HETATM   13  N1  UNL     1      -8.221  46.053 -25.010  1.00  0.00    -0.271 N 
ATOM     14  H1  UNL     1      -8.493  45.145 -24.629  1.00  0.00     0.194 HD
HETATM   15  C24 UNL     1      -6.992  48.222 -24.963  1.00  0.00     0.060 C 
HETATM   16  C25 UNL     1      -5.729  48.757 -24.291  1.00  0.00     0.020 C 
HETATM   17  C26 UNL     1      -5.769  48.721 -22.733  1.00  0.00    -0.016 C 
HETATM   18  C27 UNL     1      -6.814  49.739 -22.224  1.00  0.00     0.020 C 
HETATM   19  C28 UNL     1      -4.317  49.046 -22.188  1.00  0.00     0.002 C 
HETATM   20  C29 UNL     1      -3.875  50.508 -22.426  1.00  0.00     0.007 C 
HETATM   21  C30 UNL     1      -2.458  50.785 -21.920  1.00  0.00     0.014 C 
HETATM   22  C31 UNL     1      -2.241  50.434 -20.425  1.00  0.00     0.003 C 
HETATM   23  C32 UNL     1      -2.980  51.449 -19.530  1.00  0.00     0.020 C 
ENDROOT
BRANCH   3  24
HETATM   24  O1  UNL     1      -0.602  50.248 -18.617  1.00  0.00    -0.377 OA
HETATM   25  H2  UNL     1       0.347  50.345 -18.414  1.00  0.00     0.211 HD
ENDBRANCH   3  24
BRANCH  13  26
HETATM   26  O2  UNL     1      -8.694  46.560 -26.228  1.00  0.00    -0.271 OA
BRANCH  26  27
HETATM   27  C13 UNL     1      -8.504  45.563 -27.226  1.00  0.00     0.303 C 
BRANCH  27  28
HETATM   28  C14 UNL     1      -9.795  45.275 -27.989  1.00  0.00     0.244 C 
HETATM   29  O3  UNL     1     -10.226  44.136 -28.157  1.00  0.00    -0.271 OA
HETATM   30  N2  UNL     1     -10.399  46.395 -28.532  1.00  0.00    -0.342 N 
HETATM   31  H16 UNL     1      -9.791  47.210 -28.596  1.00  0.00     0.163 HD
BRANCH  30  32
HETATM   32  C15 UNL     1     -11.404  46.243 -29.611  1.00  0.00     0.216 C 
BRANCH  32  33
HETATM   33  C16 UNL     1     -10.785  46.664 -30.945  1.00  0.00     0.166 C 
HETATM   34  O4  UNL     1      -9.595  46.737 -31.208  1.00  0.00    -0.648 OA
BRANCH  33  35
HETATM   35  O5  UNL     1     -11.696  46.923 -31.915  1.00  0.00    -0.775 OA
HETATM   36  H18 UNL     1     -11.150  47.247 -32.668  1.00  0.00     0.167 HD
ENDBRANCH  33  35
ENDBRANCH  32  33
BRANCH  32  37
HETATM   37  C17 UNL     1     -12.634  47.127 -29.308  1.00  0.00     0.184 C 
BRANCH  37  38
HETATM   38  O6  UNL     1     -12.218  48.364 -28.705  1.00  0.00    -0.388 OA
HETATM   39  H20 UNL     1     -11.331  48.557 -29.061  1.00  0.00     0.210 HD
ENDBRANCH  37  38
BRANCH  37  40
HETATM   40  C18 UNL     1     -13.637  46.483 -28.374  1.00  0.00    -0.025 A 
HETATM   41  C19 UNL     1     -13.767  46.944 -27.051  1.00  0.00     0.010 A 
HETATM   42  C20 UNL     1     -14.721  46.395 -26.188  1.00  0.00     0.003 A 
HETATM   43  C21 UNL     1     -15.553  45.365 -26.628  1.00  0.00     0.036 A 
HETATM   44  C22 UNL     1     -15.420  44.888 -27.939  1.00  0.00     0.103 A 
HETATM   45  C23 UNL     1     -14.469  45.440 -28.810  1.00  0.00     0.045 A 
BRANCH  44  46
HETATM   46  N3  UNL     1     -16.311  43.816 -28.411  1.00  0.00    -0.116 N 
HETATM   47  O7  UNL     1     -17.071  44.071 -29.357  1.00  0.00    -0.532 OA
HETATM   48  O8  UNL     1     -16.264  42.723 -27.829  1.00  0.00    -0.532 OA
ENDBRANCH  44  46
ENDBRANCH  37  40
ENDBRANCH  32  37
ENDBRANCH  30  32
ENDBRANCH  27  28
ENDBRANCH  26  27
ENDBRANCH  13  26
TORSDOF 11
ENDMDL
MODEL 3
REMARK minimizedAffinity -10.2941751
REMARK CNNscore 0.340237856
REMARK CNNaffinity 7.16597366
REMARK  11 active torsions:
REMARK  status: ('A' for Active; 'I' for Inactive)
REMARK    1  A    between atoms: C3_3  and  O1_4 
REMARK    2  A    between atoms: N1_14  and  O2_16 
REMARK    3  A    between atoms: O2_16  and  C13_17 
REMARK    4  A    between atoms: C13_17  and  C14_18 
REMARK       I    between atoms: C14_18  and  N2_20 
REMARK    5  A    between atoms: N2_20  and  C15_21 
REMARK    6  A    between atoms: C15_21  and  C16_22 
REMARK    7  A    between atoms: C15_21  and  C17_25 
REMARK    8  A    between atoms: C16_22  and  O5_24 
REMARK    9  A    between atoms: C17_25  and  O6_26 
REMARK   10  A    between atoms: C17_25  and  C18_27 
REMARK   11  A    between atoms: C22_31  and  N3_32 
ROOT
HETATM    1  C1  UNL     1       1.228  51.780 -28.554  1.00  0.00     0.015 C 
HETATM    2  C2  UNL     1       0.390  52.202 -27.802  1.00  0.00    -0.078 C 
HETATM    3  C3  UNL     1      -0.655  52.720 -26.904  1.00  0.00     0.128 C 
HETATM    4  C4  UNL     1      -0.092  53.182 -25.550  1.00  0.00     0.052 C 
HETATM    5  C5  UNL     1      -1.215  52.955 -24.526  1.00  0.00     0.010 C 
HETATM    6  C6  UNL     1      -2.407  52.374 -25.310  1.00  0.00     0.002 C 
HETATM    7  C7  UNL     1      -3.369  51.475 -24.507  1.00  0.00    -0.004 C 
HETATM    8  C8  UNL     1      -3.903  52.209 -23.271  1.00  0.00     0.010 C 
HETATM    9  C9  UNL     1      -4.968  51.383 -22.566  1.00  0.00     0.035 C 
HETATM   10  C10 UNL     1      -4.468  50.008 -22.193  1.00  0.00    -0.069 C 
HETATM   11  C11 UNL     1      -4.727  49.533 -20.959  1.00  0.00     0.030 C 
HETATM   12  C12 UNL     1      -4.444  48.125 -20.583  1.00  0.00     0.032 C 
HETATM   13  N1  UNL     1      -4.914  47.713 -19.439  1.00  0.00    -0.271 N 
ATOM     14  H1  UNL     1      -5.403  48.315 -18.776  1.00  0.00     0.194 HD
HETATM   15  C24 UNL     1      -3.725  47.242 -21.580  1.00  0.00     0.060 C 
HETATM   16  C25 UNL     1      -2.937  48.057 -22.603  1.00  0.00     0.020 C 
HETATM   17  C26 UNL     1      -3.756  49.196 -23.282  1.00  0.00    -0.016 C 
HETATM   18  C27 UNL     1      -4.840  48.575 -24.191  1.00  0.00     0.020 C 
HETATM   19  C28 UNL     1      -2.755  50.110 -24.103  1.00  0.00     0.002 C 
HETATM   20  C29 UNL     1      -2.152  49.416 -25.345  1.00  0.00     0.007 C 
HETATM   21  C30 UNL     1      -1.164  50.310 -26.099  1.00  0.00     0.014 C 
HETATM   22  C31 UNL     1      -1.753  51.679 -26.527  1.00  0.00     0.003 C 
HETATM   23  C32 UNL     1      -2.768  51.485 -27.672  1.00  0.00     0.020 C 
ENDROOT
BRANCH   3  24
HETATM   24  O1  UNL     1      -1.259  53.859 -27.525  1.00  0.00    -0.377 OA
HETATM   25  H2  UNL     1      -0.537  54.402 -27.891  1.00  0.00     0.211 HD
ENDBRANCH   3  24
BRANCH  13  26
HETATM   26  O2  UNL     1      -4.675  46.348 -19.222  1.00  0.00    -0.271 OA
BRANCH  26  27
HETATM   27  C13 UNL     1      -3.678  46.229 -18.213  1.00  0.00     0.303 C 
BRANCH  27  28
HETATM   28  C14 UNL     1      -2.891  47.525 -18.041  1.00  0.00     0.244 C 
HETATM   29  O3  UNL     1      -2.014  47.877 -18.827  1.00  0.00    -0.271 OA
HETATM   30  N2  UNL     1      -3.199  48.234 -16.894  1.00  0.00    -0.342 N 
HETATM   31  H16 UNL     1      -3.693  47.691 -16.187  1.00  0.00     0.163 HD
BRANCH  30  32
HETATM   32  C15 UNL     1      -2.266  49.269 -16.390  1.00  0.00     0.216 C 
BRANCH  32  33
HETATM   33  C16 UNL     1      -2.827  50.656 -16.707  1.00  0.00     0.166 C 
HETATM   34  O4  UNL     1      -3.186  51.067 -17.799  1.00  0.00    -0.648 OA
BRANCH  33  35
HETATM   35  O5  UNL     1      -2.965  51.455 -15.620  1.00  0.00    -0.775 OA
HETATM   36  H18 UNL     1      -3.257  52.315 -15.997  1.00  0.00     0.167 HD
ENDBRANCH  33  35
ENDBRANCH  32  33
BRANCH  32  37
HETATM   37  C17 UNL     1      -0.886  49.102 -17.063  1.00  0.00     0.184 C 
BRANCH  37  38
HETATM   38  O6  UNL     1      -0.076  48.183 -16.309  1.00  0.00    -0.388 OA
HETATM   39  H20 UNL     1      -0.693  47.555 -15.890  1.00  0.00     0.210 HD
ENDBRANCH  37  38
BRANCH  37  40
HETATM   40  C18 UNL     1      -0.105  50.393 -17.192  1.00  0.00    -0.025 A 
HETATM   41  C19 UNL     1       0.620  50.892 -16.094  1.00  0.00     0.010 A 
HETATM   42  C20 UNL     1       1.385  52.056 -16.207  1.00  0.00     0.003 A 
HETATM   43  C21 UNL     1       1.429  52.751 -17.416  1.00  0.00     0.036 A 
HETATM   44  C22 UNL     1       0.697  52.271 -18.511  1.00  0.00     0.103 A 
HETATM   45  C23 UNL     1      -0.068  51.100 -18.403  1.00  0.00     0.045 A 
BRANCH  44  46
HETATM   46  N3  UNL     1       0.759  52.991 -19.792  1.00  0.00    -0.116 N 
HETATM   47  O7  UNL     1       1.558  53.935 -19.887  1.00  0.00    -0.532 OA
HETATM   48  O8  UNL     1      -0.001  52.626 -20.701  1.00  0.00    -0.532 OA
ENDBRANCH  44  46
ENDBRANCH  37  40
ENDBRANCH  32  37
ENDBRANCH  30  32
ENDBRANCH  27  28
ENDBRANCH  26  27
ENDBRANCH  13  26
TORSDOF 11
ENDMDL
MODEL 4
REMARK minimizedAffinity -8.33644009
REMARK CNNscore 0.31870535
REMARK CNNaffinity 6.48539352
REMARK  11 active torsions:
REMARK  status: ('A' for Active; 'I' for Inactive)
REMARK    1  A    between atoms: C3_3  and  O1_4 
REMARK    2  A    between atoms: N1_14  and  O2_16 
REMARK    3  A    between atoms: O2_16  and  C13_17 
REMARK    4  A    between atoms: C13_17  and  C14_18 
REMARK       I    between atoms: C14_18  and  N2_20 
REMARK    5  A    between atoms: N2_20  and  C15_21 
REMARK    6  A    between atoms: C15_21  and  C16_22 
REMARK    7  A    between atoms: C15_21  and  C17_25 
REMARK    8  A    between atoms: C16_22  and  O5_24 
REMARK    9  A    between atoms: C17_25  and  O6_26 
REMARK   10  A    between atoms: C17_25  and  C18_27 
REMARK   11  A    between atoms: C22_31  and  N3_32 
ROOT
HETATM    1  C1  UNL     1      -9.022  49.477 -25.152  1.00  0.00     0.015 C 
HETATM    2  C2  UNL     1      -8.207  48.758 -24.638  1.00  0.00    -0.078 C 
HETATM    3  C3  UNL     1      -7.198  47.872 -24.034  1.00  0.00     0.128 C 
HETATM    4  C4  UNL     1      -7.535  47.498 -22.582  1.00  0.00     0.052 C 
HETATM    5  C5  UNL     1      -6.185  47.284 -21.877  1.00  0.00     0.010 C 
HETATM    6  C6  UNL     1      -5.097  47.530 -22.939  1.00  0.00     0.002 C 
HETATM    7  C7  UNL     1      -3.735  48.020 -22.408  1.00  0.00    -0.004 C 
HETATM    8  C8  UNL     1      -3.181  47.059 -21.349  1.00  0.00     0.010 C 
HETATM    9  C9  UNL     1      -1.772  47.457 -20.938  1.00  0.00     0.035 C 
HETATM   10  C10 UNL     1      -1.700  48.884 -20.451  1.00  0.00    -0.069 C 
HETATM   11  C11 UNL     1      -1.014  49.155 -19.324  1.00  0.00     0.030 C 
HETATM   12  C12 UNL     1      -0.733  50.546 -18.889  1.00  0.00     0.032 C 
HETATM   13  N1  UNL     1       0.106  50.700 -17.903  1.00  0.00    -0.271 N 
ATOM     14  H1  UNL     1       0.521  49.924 -17.386  1.00  0.00     0.194 HD
HETATM   15  C24 UNL     1      -1.350  51.686 -19.672  1.00  0.00     0.060 C 
HETATM   16  C25 UNL     1      -2.580  51.239 -20.459  1.00  0.00     0.020 C 
HETATM   17  C26 UNL     1      -2.357  49.961 -21.324  1.00  0.00    -0.016 C 
HETATM   18  C27 UNL     1      -1.385  50.289 -22.479  1.00  0.00     0.020 C 
HETATM   19  C28 UNL     1      -3.765  49.470 -21.862  1.00  0.00     0.002 C 
HETATM   20  C29 UNL     1      -4.395  50.415 -22.910  1.00  0.00     0.007 C 
HETATM   21  C30 UNL     1      -5.767  49.934 -23.387  1.00  0.00     0.014 C 
HETATM   22  C31 UNL     1      -5.769  48.489 -23.951  1.00  0.00     0.003 C 
HETATM   23  C32 UNL     1      -5.053  48.452 -25.316  1.00  0.00     0.020 C 
ENDROOT
BRANCH   3  24
HETATM   24  O1  UNL     1      -7.157  46.655 -24.788  1.00  0.00    -0.377 OA
HETATM   25  H2  UNL     1      -8.081  46.394 -24.958  1.00  0.00     0.211 HD
ENDBRANCH   3  24
BRANCH  13  26
HETATM   26  O2  UNL     1       0.374  52.049 -17.633  1.00  0.00    -0.271 OA
BRANCH  26  27
HETATM   27  C13 UNL     1       1.562  52.116 -16.851  1.00  0.00     0.303 C 
BRANCH  27  28
HETATM   28  C14 UNL     1       1.362  51.506 -15.467  1.00  0.00     0.244 C 
HETATM   29  O3  UNL     1       1.128  50.311 -15.297  1.00  0.00    -0.271 OA
HETATM   30  N2  UNL     1       1.397  52.419 -14.429  1.00  0.00    -0.342 N 
HETATM   31  H16 UNL     1       1.278  53.388 -14.719  1.00  0.00     0.163 HD
BRANCH  30  32
HETATM   32  C15 UNL     1       0.831  52.059 -13.107  1.00  0.00     0.216 C 
BRANCH  32  33
HETATM   33  C16 UNL     1       1.547  50.819 -12.569  1.00  0.00     0.166 C 
HETATM   34  O4  UNL     1       1.028  49.775 -12.207  1.00  0.00    -0.648 OA
BRANCH  33  35
HETATM   35  O5  UNL     1       2.899  50.925 -12.559  1.00  0.00    -0.775 OA
HETATM   36  H18 UNL     1       3.196  50.095 -12.123  1.00  0.00     0.167 HD
ENDBRANCH  33  35
ENDBRANCH  32  33
BRANCH  32  37
HETATM   37  C17 UNL     1      -0.679  51.766 -13.246  1.00  0.00     0.184 C 
BRANCH  37  38
HETATM   38  O6  UNL     1      -1.143  52.165 -14.547  1.00  0.00    -0.388 OA
HETATM   39  H20 UNL     1      -0.385  52.058 -15.152  1.00  0.00     0.210 HD
ENDBRANCH  37  38
BRANCH  37  40
HETATM   40  C18 UNL     1      -1.539  52.478 -12.222  1.00  0.00    -0.025 A 
HETATM   41  C19 UNL     1      -2.939  52.349 -12.264  1.00  0.00     0.010 A 
HETATM   42  C20 UNL     1      -3.747  52.959 -11.299  1.00  0.00     0.003 A 
HETATM   43  C21 UNL     1      -3.169  53.720 -10.282  1.00  0.00     0.036 A 
HETATM   44  C22 UNL     1      -1.776  53.867 -10.241  1.00  0.00     0.103 A 
HETATM   45  C23 UNL     1      -0.962  53.252 -11.204  1.00  0.00     0.045 A 
BRANCH  44  46
HETATM   46  N3  UNL     1      -1.164  54.652  -9.157  1.00  0.00    -0.116 N 
HETATM   47  O7  UNL     1      -0.799  54.045  -8.140  1.00  0.00    -0.532 OA
HETATM   48  O8  UNL     1      -1.062  55.877  -9.314  1.00  0.00    -0.532 OA
ENDBRANCH  44  46
ENDBRANCH  37  40
ENDBRANCH  32  37
ENDBRANCH  30  32
ENDBRANCH  27  28
ENDBRANCH  26  27
ENDBRANCH  13  26
TORSDOF 11
ENDMDL
MODEL 5
REMARK minimizedAffinity -8.62333965
REMARK CNNscore 0.296154737
REMARK CNNaffinity 6.31803656
REMARK  11 active torsions:
REMARK  status: ('A' for Active; 'I' for Inactive)
REMARK    1  A    between atoms: C3_3  and  O1_4 
REMARK    2  A    between atoms: N1_14  and  O2_16 
REMARK    3  A    between atoms: O2_16  and  C13_17 
REMARK    4  A    between atoms: C13_17  and  C14_18 
REMARK       I    between atoms: C14_18  and  N2_20 
REMARK    5  A    between atoms: N2_20  and  C15_21 
REMARK    6  A    between atoms: C15_21  and  C16_22 
REMARK    7  A    between atoms: C15_21  and  C17_25 
REMARK    8  A    between atoms: C16_22  and  O5_24 
REMARK    9  A    between atoms: C17_25  and  O6_26 
REMARK   10  A    between atoms: C17_25  and  C18_27 
REMARK   11  A    between atoms: C22_31  and  N3_32 
ROOT
HETATM    1  C1  UNL     1       0.181  53.191 -20.434  1.00  0.00     0.015 C 
HETATM    2  C2  UNL     1      -0.187  52.091 -20.117  1.00  0.00    -0.078 C 
HETATM    3  C3  UNL     1      -0.648  50.756 -19.703  1.00  0.00     0.128 C 
HETATM    4  C4  UNL     1      -0.081  49.636 -20.590  1.00  0.00     0.052 C 
HETATM    5  C5  UNL     1      -1.140  48.521 -20.591  1.00  0.00     0.010 C 
HETATM    6  C6  UNL     1      -2.292  49.016 -19.697  1.00  0.00     0.002 C 
HETATM    7  C7  UNL     1      -3.690  48.453 -20.026  1.00  0.00    -0.004 C 
HETATM    8  C8  UNL     1      -3.680  46.919 -20.013  1.00  0.00     0.010 C 
HETATM    9  C9  UNL     1      -5.087  46.366 -20.182  1.00  0.00     0.035 C 
HETATM   10  C10 UNL     1      -5.757  46.883 -21.432  1.00  0.00    -0.069 C 
HETATM   11  C11 UNL     1      -6.413  46.015 -22.227  1.00  0.00     0.030 C 
HETATM   12  C12 UNL     1      -7.257  46.469 -23.360  1.00  0.00     0.032 C 
HETATM   13  N1  UNL     1      -8.006  45.571 -23.937  1.00  0.00    -0.271 N 
ATOM     14  H1  UNL     1      -7.993  44.581 -23.694  1.00  0.00     0.194 HD
HETATM   15  C24 UNL     1      -7.271  47.944 -23.704  1.00  0.00     0.060 C 
HETATM   16  C25 UNL     1      -6.029  48.664 -23.184  1.00  0.00     0.020 C 
HETATM   17  C26 UNL     1      -5.714  48.395 -21.682  1.00  0.00    -0.016 C 
HETATM   18  C27 UNL     1      -6.806  49.048 -20.805  1.00  0.00     0.020 C 
HETATM   19  C28 UNL     1      -4.276  48.980 -21.360  1.00  0.00     0.002 C 
HETATM   20  C29 UNL     1      -4.210  50.523 -21.391  1.00  0.00     0.007 C 
HETATM   21  C30 UNL     1      -2.803  51.058 -21.111  1.00  0.00     0.014 C 
HETATM   22  C31 UNL     1      -2.193  50.558 -19.775  1.00  0.00     0.003 C 
HETATM   23  C32 UNL     1      -2.908  51.225 -18.583  1.00  0.00     0.020 C 
ENDROOT
BRANCH   3  24
HETATM   24  O1  UNL     1      -0.191  50.514 -18.368  1.00  0.00    -0.377 OA
HETATM   25  H2  UNL     1       0.738  50.807 -18.327  1.00  0.00     0.211 HD
ENDBRANCH   3  24
BRANCH  13  26
HETATM   26  O2  UNL     1      -8.832  46.120 -24.929  1.00  0.00    -0.271 OA
BRANCH  26  27
HETATM   27  C13 UNL     1      -8.753  45.287 -26.081  1.00  0.00     0.303 C 
BRANCH  27  28
HETATM   28  C14 UNL     1      -9.880  45.581 -27.067  1.00  0.00     0.244 C 
HETATM   29  O3  UNL     1     -10.575  44.697 -27.563  1.00  0.00    -0.271 OA
HETATM   30  N2  UNL     1     -10.009  46.916 -27.407  1.00  0.00    -0.342 N 
HETATM   31  H16 UNL     1      -9.193  47.485 -27.185  1.00  0.00     0.163 HD
BRANCH  30  32
HETATM   32  C15 UNL     1     -10.763  47.301 -28.623  1.00  0.00     0.216 C 
BRANCH  32  33
HETATM   33  C16 UNL     1      -9.893  48.208 -29.495  1.00  0.00     0.166 C 
HETATM   34  O4  UNL     1      -9.846  48.222 -30.714  1.00  0.00    -0.648 OA
BRANCH  33  35
HETATM   35  O5  UNL     1      -9.157  49.104 -28.792  1.00  0.00    -0.775 OA
HETATM   36  H18 UNL     1      -8.609  49.547 -29.479  1.00  0.00     0.167 HD
ENDBRANCH  33  35
ENDBRANCH  32  33
BRANCH  32  37
HETATM   37  C17 UNL     1     -12.054  48.049 -28.223  1.00  0.00     0.184 C 
BRANCH  37  38
HETATM   38  O6  UNL     1     -11.813  48.871 -27.068  1.00  0.00    -0.388 OA
HETATM   39  H20 UNL     1     -10.876  49.137 -27.114  1.00  0.00     0.210 HD
ENDBRANCH  37  38
BRANCH  37  40
HETATM   40  C18 UNL     1     -13.216  47.134 -27.892  1.00  0.00    -0.025 A 
HETATM   41  C19 UNL     1     -13.711  46.244 -28.863  1.00  0.00     0.010 A 
HETATM   42  C20 UNL     1     -14.750  45.358 -28.562  1.00  0.00     0.003 A 
HETATM   43  C21 UNL     1     -15.322  45.356 -27.289  1.00  0.00     0.036 A 
HETATM   44  C22 UNL     1     -14.846  46.250 -26.321  1.00  0.00     0.103 A 
HETATM   45  C23 UNL     1     -13.800  47.136 -26.617  1.00  0.00     0.045 A 
BRANCH  44  46
HETATM   46  N3  UNL     1     -15.435  46.235 -24.972  1.00  0.00    -0.116 N 
HETATM   47  O7  UNL     1     -15.072  47.110 -24.174  1.00  0.00    -0.532 OA
HETATM   48  O8  UNL     1     -16.249  45.340 -24.704  1.00  0.00    -0.532 OA
ENDBRANCH  44  46
ENDBRANCH  37  40
ENDBRANCH  32  37
ENDBRANCH  30  32
ENDBRANCH  27  28
ENDBRANCH  26  27
ENDBRANCH  13  26
TORSDOF 11
ENDMDL
MODEL 6
REMARK minimizedAffinity -8.36122608
REMARK CNNscore 0.284913957
REMARK CNNaffinity 6.77522993
REMARK  11 active torsions:
REMARK  status: ('A' for Active; 'I' for Inactive)
REMARK    1  A    between atoms: C3_3  and  O1_4 
REMARK    2  A    between atoms: N1_14  and  O2_16 
REMARK    3  A    between atoms: O2_16  and  C13_17 
REMARK    4  A    between atoms: C13_17  and  C14_18 
REMARK       I    between atoms: C14_18  and  N2_20 
REMARK    5  A    between atoms: N2_20  and  C15_21 
REMARK    6  A    between atoms: C15_21  and  C16_22 
REMARK    7  A    between atoms: C15_21  and  C17_25 
REMARK    8  A    between atoms: C16_22  and  O5_24 
REMARK    9  A    between atoms: C17_25  and  O6_26 
REMARK   10  A    between atoms: C17_25  and  C18_27 
REMARK   11  A    between atoms: C22_31  and  N3_32 
ROOT
HETATM    1  C1  UNL     1       7.858  54.064  -3.921  1.00  0.00     0.015 C 
HETATM    2  C2  UNL     1       7.345  54.797  -4.725  1.00  0.00    -0.078 C 
HETATM    3  C3  UNL     1       6.741  55.693  -5.725  1.00  0.00     0.128 C 
HETATM    4  C4  UNL     1       5.464  56.375  -5.210  1.00  0.00     0.052 C 
HETATM    5  C5  UNL     1       4.581  56.606  -6.447  1.00  0.00     0.010 C 
HETATM    6  C6  UNL     1       5.369  56.060  -7.652  1.00  0.00     0.002 C 
HETATM    7  C7  UNL     1       4.524  55.566  -8.844  1.00  0.00    -0.004 C 
HETATM    8  C8  UNL     1       3.574  56.666  -9.334  1.00  0.00     0.010 C 
HETATM    9  C9  UNL     1       2.854  56.235 -10.603  1.00  0.00     0.035 C 
HETATM   10  C10 UNL     1       2.112  54.932 -10.424  1.00  0.00    -0.069 C 
HETATM   11  C11 UNL     1       0.851  54.831 -10.885  1.00  0.00     0.030 C 
HETATM   12  C12 UNL     1       0.128  53.536 -10.924  1.00  0.00     0.032 C 
HETATM   13  N1  UNL     1      -1.003  53.508 -11.572  1.00  0.00    -0.271 N 
ATOM     14  H1  UNL     1      -1.438  54.331 -11.990  1.00  0.00     0.194 HD
HETATM   15  C24 UNL     1       0.789  52.322 -10.306  1.00  0.00     0.060 C 
HETATM   16  C25 UNL     1       1.851  52.710  -9.279  1.00  0.00     0.020 C 
HETATM   17  C26 UNL     1       2.878  53.766  -9.788  1.00  0.00    -0.016 C 
HETATM   18  C27 UNL     1       3.763  53.131 -10.885  1.00  0.00     0.020 C 
HETATM   19  C28 UNL     1       3.739  54.262  -8.553  1.00  0.00     0.002 C 
HETATM   20  C29 UNL     1       4.695  53.187  -7.988  1.00  0.00     0.007 C 
HETATM   21  C30 UNL     1       5.487  53.683  -6.776  1.00  0.00     0.014 C 
HETATM   22  C31 UNL     1       6.294  54.981  -7.038  1.00  0.00     0.003 C 
HETATM   23  C32 UNL     1       7.494  54.683  -7.960  1.00  0.00     0.020 C 
ENDROOT
BRANCH   3  24
HETATM   24  O1  UNL     1       7.684  56.727  -6.031  1.00  0.00    -0.377 OA
HETATM   25  H2  UNL     1       8.060  57.030  -5.184  1.00  0.00     0.211 HD
ENDBRANCH   3  24
BRANCH  13  26
HETATM   26  O2  UNL     1      -1.556  52.221 -11.629  1.00  0.00    -0.271 OA
BRANCH  26  27
HETATM   27  C13 UNL     1      -2.452  52.173 -12.735  1.00  0.00     0.303 C 
BRANCH  27  28
HETATM   28  C14 UNL     1      -1.821  51.485 -13.942  1.00  0.00     0.244 C 
HETATM   29  O3  UNL     1      -2.467  50.783 -14.718  1.00  0.00    -0.271 OA
HETATM   30  N2  UNL     1      -0.453  51.660 -14.050  1.00  0.00    -0.342 N 
HETATM   31  H16 UNL     1      -0.003  51.980 -13.194  1.00  0.00     0.163 HD
BRANCH  30  32
HETATM   32  C15 UNL     1       0.344  50.751 -14.906  1.00  0.00     0.216 C 
BRANCH  32  33
HETATM   33  C16 UNL     1       1.325  49.962 -14.036  1.00  0.00     0.166 C 
HETATM   34  O4  UNL     1       1.745  48.836 -14.247  1.00  0.00    -0.648 OA
BRANCH  33  35
HETATM   35  O5  UNL     1       1.780  50.650 -12.960  1.00  0.00    -0.775 OA
HETATM   36  H18 UNL     1       2.326  49.990 -12.475  1.00  0.00     0.167 HD
ENDBRANCH  33  35
ENDBRANCH  32  33
BRANCH  32  37
HETATM   37  C17 UNL     1       1.127  51.571 -15.955  1.00  0.00     0.184 C 
BRANCH  37  38
HETATM   38  O6  UNL     1       1.089  52.969 -15.619  1.00  0.00    -0.388 OA
HETATM   39  H20 UNL     1       1.030  53.014 -14.646  1.00  0.00     0.210 HD
ENDBRANCH  37  38
BRANCH  37  40
HETATM   40  C18 UNL     1       0.593  51.431 -17.366  1.00  0.00    -0.025 A 
HETATM   41  C19 UNL     1      -0.213  50.330 -17.710  1.00  0.00     0.010 A 
HETATM   42  C20 UNL     1      -0.754  50.208 -18.993  1.00  0.00     0.003 A 
HETATM   43  C21 UNL     1      -0.489  51.179 -19.960  1.00  0.00     0.036 A 
HETATM   44  C22 UNL     1       0.326  52.271 -19.632  1.00  0.00     0.103 A 
HETATM   45  C23 UNL     1       0.866  52.400 -18.344  1.00  0.00     0.045 A 
BRANCH  44  46
HETATM   46  N3  UNL     1       0.590  53.305 -20.645  1.00  0.00    -0.116 N 
HETATM   47  O7  UNL     1       0.394  53.013 -21.833  1.00  0.00    -0.532 OA
HETATM   48  O8  UNL     1       1.007  54.405 -20.256  1.00  0.00    -0.532 OA
ENDBRANCH  44  46
ENDBRANCH  37  40
ENDBRANCH  32  37
ENDBRANCH  30  32
ENDBRANCH  27  28
ENDBRANCH  26  27
ENDBRANCH  13  26
TORSDOF 11
ENDMDL
MODEL 7
REMARK minimizedAffinity -8.93660927
REMARK CNNscore 0.269062996
REMARK CNNaffinity 6.17897034
REMARK  11 active torsions:
REMARK  status: ('A' for Active; 'I' for Inactive)
REMARK    1  A    between atoms: C3_3  and  O1_4 
REMARK    2  A    between atoms: N1_14  and  O2_16 
REMARK    3  A    between atoms: O2_16  and  C13_17 
REMARK    4  A    between atoms: C13_17  and  C14_18 
REMARK       I    between atoms: C14_18  and  N2_20 
REMARK    5  A    between atoms: N2_20  and  C15_21 
REMARK    6  A    between atoms: C15_21  and  C16_22 
REMARK    7  A    between atoms: C15_21  and  C17_25 
REMARK    8  A    between atoms: C16_22  and  O5_24 
REMARK    9  A    between atoms: C17_25  and  O6_26 
REMARK   10  A    between atoms: C17_25  and  C18_27 
REMARK   11  A    between atoms: C22_31  and  N3_32 
ROOT
HETATM    1  C1  UNL     1      -0.030  53.310 -19.295  1.00  0.00     0.015 C 
HETATM    2  C2  UNL     1      -0.075  52.698 -20.330  1.00  0.00    -0.078 C 
HETATM    3  C3  UNL     1      -0.117  51.928 -21.584  1.00  0.00     0.128 C 
HETATM    4  C4  UNL     1      -0.525  52.788 -22.790  1.00  0.00     0.052 C 
HETATM    5  C5  UNL     1      -1.248  51.839 -23.760  1.00  0.00     0.010 C 
HETATM    6  C6  UNL     1      -1.236  50.449 -23.097  1.00  0.00     0.002 C 
HETATM    7  C7  UNL     1      -2.394  49.507 -23.485  1.00  0.00    -0.004 C 
HETATM    8  C8  UNL     1      -2.468  49.327 -25.006  1.00  0.00     0.010 C 
HETATM    9  C9  UNL     1      -3.506  48.280 -25.379  1.00  0.00     0.035 C 
HETATM   10  C10 UNL     1      -4.869  48.601 -24.815  1.00  0.00    -0.069 C 
HETATM   11  C11 UNL     1      -5.949  48.487 -25.612  1.00  0.00     0.030 C 
HETATM   12  C12 UNL     1      -7.332  48.595 -25.084  1.00  0.00     0.032 C 
HETATM   13  N1  UNL     1      -8.301  48.269 -25.894  1.00  0.00    -0.271 N 
ATOM     14  H1  UNL     1      -8.161  48.012 -26.871  1.00  0.00     0.194 HD
HETATM   15  C24 UNL     1      -7.522  48.970 -23.630  1.00  0.00     0.060 C 
HETATM   16  C25 UNL     1      -6.303  49.691 -23.061  1.00  0.00     0.020 C 
HETATM   17  C26 UNL     1      -4.948  48.967 -23.327  1.00  0.00    -0.016 C 
HETATM   18  C27 UNL     1      -4.903  47.653 -22.516  1.00  0.00     0.020 C 
HETATM   19  C28 UNL     1      -3.770  49.947 -22.924  1.00  0.00     0.002 C 
HETATM   20  C29 UNL     1      -3.662  50.199 -21.403  1.00  0.00     0.007 C 
HETATM   21  C30 UNL     1      -2.538  51.174 -21.046  1.00  0.00     0.014 C 
HETATM   22  C31 UNL     1      -1.144  50.755 -21.583  1.00  0.00     0.003 C 
HETATM   23  C32 UNL     1      -0.617  49.537 -20.798  1.00  0.00     0.020 C 
ENDROOT
BRANCH   3  24
HETATM   24  O1  UNL     1       1.196  51.421 -21.846  1.00  0.00    -0.377 OA
HETATM   25  H2  UNL     1       1.822  52.148 -21.673  1.00  0.00     0.211 HD
ENDBRANCH   3  24
BRANCH  13  26
HETATM   26  O2  UNL     1      -9.556  48.313 -25.271  1.00  0.00    -0.271 OA
BRANCH  26  27
HETATM   27  C13 UNL     1     -10.548  48.031 -26.253  1.00  0.00     0.303 C 
BRANCH  27  28
HETATM   28  C14 UNL     1     -11.137  46.634 -26.073  1.00  0.00     0.244 C 
HETATM   29  O3  UNL     1     -10.555  45.742 -25.459  1.00  0.00    -0.271 OA
HETATM   30  N2  UNL     1     -12.346  46.437 -26.716  1.00  0.00    -0.342 N 
HETATM   31  H16 UNL     1     -12.556  47.129 -27.435  1.00  0.00     0.163 HD
BRANCH  30  32
HETATM   32  C15 UNL     1     -12.833  45.061 -26.971  1.00  0.00     0.216 C 
BRANCH  32  33
HETATM   33  C16 UNL     1     -12.062  44.459 -28.147  1.00  0.00     0.166 C 
HETATM   34  O4  UNL     1     -11.541  45.068 -29.068  1.00  0.00    -0.648 OA
BRANCH  33  35
HETATM   35  O5  UNL     1     -11.932  43.111 -28.086  1.00  0.00    -0.775 OA
HETATM   36  H18 UNL     1     -11.490  42.879 -28.934  1.00  0.00     0.167 HD
ENDBRANCH  33  35
ENDBRANCH  32  33
BRANCH  32  37
HETATM   37  C17 UNL     1     -14.342  45.092 -27.302  1.00  0.00     0.184 C 
BRANCH  37  38
HETATM   38  O6  UNL     1     -14.578  45.912 -28.460  1.00  0.00    -0.388 OA
HETATM   39  H20 UNL     1     -13.776  45.843 -29.011  1.00  0.00     0.210 HD
ENDBRANCH  37  38
BRANCH  37  40
HETATM   40  C18 UNL     1     -15.204  45.634 -26.181  1.00  0.00    -0.025 A 
HETATM   41  C19 UNL     1     -14.607  46.136 -25.010  1.00  0.00     0.010 A 
HETATM   42  C20 UNL     1     -15.384  46.684 -23.985  1.00  0.00     0.003 A 
HETATM   43  C21 UNL     1     -16.773  46.728 -24.106  1.00  0.00     0.036 A 
HETATM   44  C22 UNL     1     -17.378  46.215 -25.261  1.00  0.00     0.103 A 
HETATM   45  C23 UNL     1     -16.602  45.670 -26.295  1.00  0.00     0.045 A 
BRANCH  44  46
HETATM   46  N3  UNL     1     -18.842  46.279 -25.399  1.00  0.00    -0.116 N 
HETATM   47  O7  UNL     1     -19.375  45.549 -26.247  1.00  0.00    -0.532 OA
HETATM   48  O8  UNL     1     -19.460  47.069 -24.671  1.00  0.00    -0.532 OA
ENDBRANCH  44  46
ENDBRANCH  37  40
ENDBRANCH  32  37
ENDBRANCH  30  32
ENDBRANCH  27  28
ENDBRANCH  26  27
ENDBRANCH  13  26
TORSDOF 11
ENDMDL
MODEL 8
REMARK minimizedAffinity -8.63793087
REMARK CNNscore 0.255358607
REMARK CNNaffinity 6.50348711
REMARK  11 active torsions:
REMARK  status: ('A' for Active; 'I' for Inactive)
REMARK    1  A    between atoms: C3_3  and  O1_4 
REMARK    2  A    between atoms: N1_14  and  O2_16 
REMARK    3  A    between atoms: O2_16  and  C13_17 
REMARK    4  A    between atoms: C13_17  and  C14_18 
REMARK       I    between atoms: C14_18  and  N2_20 
REMARK    5  A    between atoms: N2_20  and  C15_21 
REMARK    6  A    between atoms: C15_21  and  C16_22 
REMARK    7  A    between atoms: C15_21  and  C17_25 
REMARK    8  A    between atoms: C16_22  and  O5_24 
REMARK    9  A    between atoms: C17_25  and  O6_26 
REMARK   10  A    between atoms: C17_25  and  C18_27 
REMARK   11  A    between atoms: C22_31  and  N3_32 
ROOT
HETATM    1  C1  UNL     1      -4.297  45.268 -20.823  1.00  0.00     0.015 C 
HETATM    2  C2  UNL     1      -3.717  46.309 -20.980  1.00  0.00    -0.078 C 
HETATM    3  C3  UNL     1      -3.032  47.598 -21.171  1.00  0.00     0.128 C 
HETATM    4  C4  UNL     1      -1.564  47.429 -21.594  1.00  0.00     0.052 C 
HETATM    5  C5  UNL     1      -0.819  48.650 -21.031  1.00  0.00     0.010 C 
HETATM    6  C6  UNL     1      -1.873  49.504 -20.303  1.00  0.00     0.002 C 
HETATM    7  C7  UNL     1      -1.351  50.377 -19.143  1.00  0.00    -0.004 C 
HETATM    8  C8  UNL     1      -0.215  51.293 -19.615  1.00  0.00     0.010 C 
HETATM    9  C9  UNL     1       0.194  52.261 -18.516  1.00  0.00     0.035 C 
HETATM   10  C10 UNL     1       0.581  51.548 -17.242  1.00  0.00    -0.069 C 
HETATM   11  C11 UNL     1       1.699  51.929 -16.596  1.00  0.00     0.030 C 
HETATM   12  C12 UNL     1       2.041  51.415 -15.246  1.00  0.00     0.032 C 
HETATM   13  N1  UNL     1       3.031  51.995 -14.625  1.00  0.00    -0.271 N 
ATOM     14  H1  UNL     1       3.610  52.726 -15.039  1.00  0.00     0.194 HD
HETATM   15  C24 UNL     1       1.168  50.336 -14.641  1.00  0.00     0.060 C 
HETATM   16  C25 UNL     1       0.389  49.567 -15.706  1.00  0.00     0.020 C 
HETATM   17  C26 UNL     1      -0.379  50.473 -16.717  1.00  0.00    -0.016 C 
HETATM   18  C27 UNL     1      -1.534  51.191 -15.984  1.00  0.00     0.020 C 
HETATM   19  C28 UNL     1      -0.909  49.563 -17.901  1.00  0.00     0.002 C 
HETATM   20  C29 UNL     1      -2.034  48.589 -17.482  1.00  0.00     0.007 C 
HETATM   21  C30 UNL     1      -2.503  47.700 -18.636  1.00  0.00     0.014 C 
HETATM   22  C31 UNL     1      -2.964  48.486 -19.892  1.00  0.00     0.003 C 
HETATM   23  C32 UNL     1      -4.308  49.188 -19.613  1.00  0.00     0.020 C 
ENDROOT
BRANCH   3  24
HETATM   24  O1  UNL     1      -3.698  48.311 -22.220  1.00  0.00    -0.377 OA
HETATM   25  H2  UNL     1      -3.867  47.672 -22.936  1.00  0.00     0.211 HD
ENDBRANCH   3  24
BRANCH  13  26
HETATM   26  O2  UNL     1       3.210  51.502 -13.325  1.00  0.00    -0.271 OA
BRANCH  26  27
HETATM   27  C13 UNL     1       2.294  52.173 -12.467  1.00  0.00     0.303 C 
BRANCH  27  28
HETATM   28  C14 UNL     1       2.969  52.647 -11.182  1.00  0.00     0.244 C 
HETATM   29  O3  UNL     1       3.134  51.913 -10.210  1.00  0.00    -0.271 OA
HETATM   30  N2  UNL     1       3.315  53.986 -11.179  1.00  0.00    -0.342 N 
HETATM   31  H16 UNL     1       2.847  54.541 -11.893  1.00  0.00     0.163 HD
BRANCH  30  32
HETATM   32  C15 UNL     1       3.597  54.674  -9.897  1.00  0.00     0.216 C 
BRANCH  32  33
HETATM   33  C16 UNL     1       4.609  53.856  -9.093  1.00  0.00     0.166 C 
HETATM   34  O4  UNL     1       4.449  53.392  -7.975  1.00  0.00    -0.648 OA
BRANCH  33  35
HETATM   35  O5  UNL     1       5.765  53.607  -9.755  1.00  0.00    -0.775 OA
HETATM   36  H18 UNL     1       6.324  53.148  -9.087  1.00  0.00     0.167 HD
ENDBRANCH  33  35
ENDBRANCH  32  33
BRANCH  32  37
HETATM   37  C17 UNL     1       2.292  54.827  -9.086  1.00  0.00     0.184 C 
BRANCH  37  38
HETATM   38  O6  UNL     1       1.193  55.115  -9.968  1.00  0.00    -0.388 OA
HETATM   39  H20 UNL     1       1.403  54.683 -10.817  1.00  0.00     0.210 HD
ENDBRANCH  37  38
BRANCH  37  40
HETATM   40  C18 UNL     1       2.340  55.929  -8.048  1.00  0.00    -0.025 A 
HETATM   41  C19 UNL     1       3.295  56.957  -8.154  1.00  0.00     0.010 A 
HETATM   42  C20 UNL     1       3.324  58.009  -7.233  1.00  0.00     0.003 A 
HETATM   43  C21 UNL     1       2.407  58.045  -6.182  1.00  0.00     0.036 A 
HETATM   44  C22 UNL     1       1.462  57.018  -6.060  1.00  0.00     0.103 A 
HETATM   45  C23 UNL     1       1.426  55.964  -6.984  1.00  0.00     0.045 A 
BRANCH  44  46
HETATM   46  N3  UNL     1       0.481  57.065  -4.964  1.00  0.00    -0.116 N 
HETATM   47  O7  UNL     1       0.884  56.820  -3.817  1.00  0.00    -0.532 OA
HETATM   48  O8  UNL     1      -0.695  57.333  -5.248  1.00  0.00    -0.532 OA
ENDBRANCH  44  46
ENDBRANCH  37  40
ENDBRANCH  32  37
ENDBRANCH  30  32
ENDBRANCH  27  28
ENDBRANCH  26  27
ENDBRANCH  13  26
TORSDOF 11
ENDMDL
MODEL 9
REMARK minimizedAffinity -8.27503014
REMARK CNNscore 0.23744382
REMARK CNNaffinity 5.86704445
REMARK  11 active torsions:
REMARK  status: ('A' for Active; 'I' for Inactive)
REMARK    1  A    between atoms: C3_3  and  O1_4 
REMARK    2  A    between atoms: N1_14  and  O2_16 
REMARK    3  A    between atoms: O2_16  and  C13_17 
REMARK    4  A    between atoms: C13_17  and  C14_18 
REMARK       I    between atoms: C14_18  and  N2_20 
REMARK    5  A    between atoms: N2_20  and  C15_21 
REMARK    6  A    between atoms: C15_21  and  C16_22 
REMARK    7  A    between atoms: C15_21  and  C17_25 
REMARK    8  A    between atoms: C16_22  and  O5_24 
REMARK    9  A    between atoms: C17_25  and  O6_26 
REMARK   10  A    between atoms: C17_25  and  C18_27 
REMARK   11  A    between atoms: C22_31  and  N3_32 
ROOT
HETATM    1  C1  UNL     1       0.558  53.275 -21.186  1.00  0.00     0.015 C 
HETATM    2  C2  UNL     1      -0.140  52.565 -21.860  1.00  0.00    -0.078 C 
HETATM    3  C3  UNL     1      -0.975  51.674 -22.682  1.00  0.00     0.128 C 
HETATM    4  C4  UNL     1      -2.097  52.428 -23.414  1.00  0.00     0.052 C 
HETATM    5  C5  UNL     1      -3.255  51.427 -23.557  1.00  0.00     0.010 C 
HETATM    6  C6  UNL     1      -2.775  50.113 -22.914  1.00  0.00     0.002 C 
HETATM    7  C7  UNL     1      -3.878  49.201 -22.338  1.00  0.00    -0.004 C 
HETATM    8  C8  UNL     1      -4.929  48.871 -23.406  1.00  0.00     0.010 C 
HETATM    9  C9  UNL     1      -5.929  47.850 -22.886  1.00  0.00     0.035 C 
HETATM   10  C10 UNL     1      -6.594  48.302 -21.608  1.00  0.00    -0.069 C 
HETATM   11  C11 UNL     1      -7.928  48.167 -21.484  1.00  0.00     0.030 C 
HETATM   12  C12 UNL     1      -8.627  48.403 -20.196  1.00  0.00     0.032 C 
HETATM   13  N1  UNL     1      -9.880  48.051 -20.130  1.00  0.00    -0.271 N 
ATOM     14  H1  UNL     1     -10.410  47.688 -20.922  1.00  0.00     0.194 HD
HETATM   15  C24 UNL     1      -7.825  48.935 -19.027  1.00  0.00     0.060 C 
HETATM   16  C25 UNL     1      -6.550  49.642 -19.482  1.00  0.00     0.020 C 
HETATM   17  C26 UNL     1      -5.686  48.822 -20.486  1.00  0.00    -0.016 C 
HETATM   18  C27 UNL     1      -5.086  47.596 -19.762  1.00  0.00     0.020 C 
HETATM   19  C28 UNL     1      -4.558  49.771 -21.068  1.00  0.00     0.002 C 
HETATM   20  C29 UNL     1      -3.484  50.170 -20.030  1.00  0.00     0.007 C 
HETATM   21  C30 UNL     1      -2.427  51.113 -20.610  1.00  0.00     0.014 C 
HETATM   22  C31 UNL     1      -1.719  50.566 -21.877  1.00  0.00     0.003 C 
HETATM   23  C32 UNL     1      -0.775  49.407 -21.498  1.00  0.00     0.020 C 
ENDROOT
BRANCH   3  24
HETATM   24  O1  UNL     1      -0.145  51.072 -23.681  1.00  0.00    -0.377 OA
HETATM   25  H2  UNL     1       0.422  51.777 -24.044  1.00  0.00     0.211 HD
ENDBRANCH   3  24
BRANCH  13  26
HETATM   26  O2  UNL     1     -10.419  48.227 -18.847  1.00  0.00    -0.271 OA
BRANCH  26  27
HETATM   27  C13 UNL     1     -10.818  46.952 -18.356  1.00  0.00     0.303 C 
BRANCH  27  28
HETATM   28  C14 UNL     1     -12.250  46.973 -17.830  1.00  0.00     0.244 C 
HETATM   29  O3  UNL     1     -12.537  47.371 -16.702  1.00  0.00    -0.271 OA
HETATM   30  N2  UNL     1     -13.187  46.446 -18.700  1.00  0.00    -0.342 N 
HETATM   31  H16 UNL     1     -12.791  45.873 -19.444  1.00  0.00     0.163 HD
BRANCH  30  32
HETATM   32  C15 UNL     1     -14.517  46.033 -18.194  1.00  0.00     0.216 C 
BRANCH  32  33
HETATM   33  C16 UNL     1     -14.344  44.929 -17.149  1.00  0.00     0.166 C 
HETATM   34  O4  UNL     1     -14.041  43.765 -17.360  1.00  0.00    -0.648 OA
BRANCH  33  35
HETATM   35  O5  UNL     1     -14.506  45.351 -15.871  1.00  0.00    -0.775 OA
HETATM   36  H18 UNL     1     -14.440  44.525 -15.342  1.00  0.00     0.167 HD
ENDBRANCH  33  35
ENDBRANCH  32  33
BRANCH  32  37
HETATM   37  C17 UNL     1     -15.382  45.510 -19.362  1.00  0.00     0.184 C 
BRANCH  37  38
HETATM   38  O6  UNL     1     -14.874  46.003 -20.614  1.00  0.00    -0.388 OA
HETATM   39  H20 UNL     1     -13.912  46.112 -20.494  1.00  0.00     0.210 HD
ENDBRANCH  37  38
BRANCH  37  40
HETATM   40  C18 UNL     1     -16.839  45.914 -19.275  1.00  0.00    -0.025 A 
HETATM   41  C19 UNL     1     -17.198  47.274 -19.305  1.00  0.00     0.010 A 
HETATM   42  C20 UNL     1     -18.540  47.665 -19.275  1.00  0.00     0.003 A 
HETATM   43  C21 UNL     1     -19.548  46.703 -19.200  1.00  0.00     0.036 A 
HETATM   44  C22 UNL     1     -19.200  45.347 -19.153  1.00  0.00     0.103 A 
HETATM   45  C23 UNL     1     -17.855  44.950 -19.189  1.00  0.00     0.045 A 
BRANCH  44  46
HETATM   46  N3  UNL     1     -20.263  44.330 -19.095  1.00  0.00    -0.116 N 
HETATM   47  O7  UNL     1     -21.015  44.337 -18.110  1.00  0.00    -0.532 OA
HETATM   48  O8  UNL     1     -20.339  43.515 -20.025  1.00  0.00    -0.532 OA
ENDBRANCH  44  46
ENDBRANCH  37  40
ENDBRANCH  32  37
ENDBRANCH  30  32
ENDBRANCH  27  28
ENDBRANCH  26  27
ENDBRANCH  13  26
TORSDOF 11
ENDMDL
