MODEL 1
REMARK minimizedAffinity -8.48506451
REMARK CNNscore 0.551545382
REMARK CNNaffinity 6.73475838
REMARK  10 active torsions:
REMARK  status: ('A' for Active; 'I' for Inactive)
REMARK    1  A    between atoms: O1_2  and  C2_3 
REMARK    2  A    between atoms: C4_5  and  O2_6 
REMARK    3  A    between atoms: O2_6  and  C5_7 
REMARK    4  A    between atoms: C8_10  and  C9_11 
REMARK    5  A    between atoms: N1_12  and  C10_14 
REMARK    6  A    between atoms: C10_14  and  C11_15 
REMARK    7  A    between atoms: C21_27  and  C22_28 
REMARK    8  A    between atoms: C28_36  and  O5_37 
REMARK    9  A    between atoms: C32_41  and  O6_42 
REMARK   10  A    between atoms: C36_47  and  O8_48 
ROOT
HETATM    1  C5  UNL     1      -7.318  47.000 -24.721  1.00  0.00     0.127 C 
HETATM    2  C6  UNL     1      -8.105  45.698 -24.839  1.00  0.00     0.033 C 
HETATM    3  C7  UNL     1      -8.404  45.337 -26.293  1.00  0.00     0.021 C 
HETATM    4  C8  UNL     1      -9.163  46.462 -27.064  1.00  0.00     0.026 C 
HETATM    5  C16 UNL     1      -9.329  46.007 -28.565  1.00  0.00     0.009 C 
HETATM    6  C17 UNL     1     -10.515  46.657 -29.339  1.00  0.00     0.007 C 
HETATM    7  C18 UNL     1     -10.661  46.154 -30.800  1.00  0.00     0.013 C 
HETATM    8  C19 UNL     1      -9.352  46.321 -31.592  1.00  0.00    -0.005 C 
HETATM    9  C20 UNL     1      -9.165  47.845 -31.850  1.00  0.00     0.019 C 
HETATM   10  C21 UNL     1      -9.234  45.661 -33.012  1.00  0.00     0.028 C 
HETATM   11  C26 UNL     1      -7.738  45.227 -33.118  1.00  0.00     0.013 C 
HETATM   12  C27 UNL     1      -7.058  45.629 -31.794  1.00  0.00     0.040 C 
HETATM   13  C28 UNL     1      -8.212  45.616 -30.803  1.00  0.00     0.070 C 
HETATM   14  C29 UNL     1      -7.987  46.109 -29.365  1.00  0.00     0.026 C 
HETATM   15  C30 UNL     1      -7.295  47.464 -29.208  1.00  0.00     0.011 C 
HETATM   16  C31 UNL     1      -7.075  47.809 -27.739  1.00  0.00     0.039 C 
HETATM   17  C32 UNL     1      -8.383  47.812 -26.915  1.00  0.00     0.073 C 
HETATM   18  C33 UNL     1      -8.041  48.139 -25.441  1.00  0.00     0.071 C 
ENDROOT
BRANCH   1  19
HETATM   19  O2  UNL     1      -7.200  47.292 -23.324  1.00  0.00    -0.356 OA
BRANCH  19  20
HETATM   20  C4  UNL     1      -5.990  47.981 -22.992  1.00  0.00     0.263 C 
HETATM   21  C3  UNL     1      -5.290  48.340 -24.295  1.00  0.00     0.095 C 
HETATM   22  C2  UNL     1      -4.015  49.118 -23.982  1.00  0.00     0.156 C 
HETATM   23  C36 UNL     1      -3.120  48.284 -23.042  1.00  0.00     0.175 C 
HETATM   24  C34 UNL     1      -3.928  47.822 -21.814  1.00  0.00     0.151 C 
HETATM   25  O7  UNL     1      -5.143  47.164 -22.196  1.00  0.00    -0.354 OA
HETATM   26  C35 UNL     1      -3.126  46.847 -20.957  1.00  0.00     0.042 C 
BRANCH  22  27
HETATM   27  O1  UNL     1      -3.237  49.436 -25.146  1.00  0.00    -0.388 OA
HETATM   28  C1  UNL     1      -3.343  48.481 -26.193  1.00  0.00     0.202 C 
ENDBRANCH  22  27
BRANCH  23  29
HETATM   29  O8  UNL     1      -1.980  49.051 -22.634  1.00  0.00    -0.390 OA
HETATM   30  H50 UNL     1      -1.977  49.862 -23.186  1.00  0.00     0.210 HD
ENDBRANCH  23  29
ENDBRANCH  19  20
ENDBRANCH   1  19
BRANCH  17  31
HETATM   31  O6  UNL     1      -9.166  48.898 -27.434  1.00  0.00    -0.389 OA
HETATM   32  H42 UNL     1     -10.016  48.870 -26.944  1.00  0.00     0.210 HD
ENDBRANCH  17  31
BRANCH   4  33
HETATM   33  C9  UNL     1     -10.569  46.504 -26.439  1.00  0.00     0.069 C 
HETATM   34  N1  UNL     1     -11.432  47.418 -26.742  1.00  0.00    -0.397 N 
ATOM     35  H1  UNL     1     -11.248  48.148 -27.431  1.00  0.00     0.159 HD
BRANCH  34  36
HETATM   36  C10 UNL     1     -12.707  47.312 -26.004  1.00  0.00     0.158 C 
BRANCH  36  37
HETATM   37  C11 UNL     1     -13.774  46.526 -26.722  1.00  0.00    -0.025 A 
HETATM   38  C12 UNL     1     -13.701  46.245 -28.089  1.00  0.00     0.011 A 
HETATM   39  C13 UNL     1     -14.711  45.517 -28.708  1.00  0.00     0.018 A 
HETATM   40  C14 UNL     1     -15.762  45.075 -27.926  1.00  0.00     0.087 A 
HETATM   41  N2  UNL     1     -15.856  45.291 -26.597  1.00  0.00    -0.375 N 
HETATM   42  C15 UNL     1     -14.861  46.005 -26.027  1.00  0.00     0.096 A 
ATOM     43  H2  UNL     1     -16.640  44.934 -26.051  1.00  0.00     0.164 HD
ENDBRANCH  36  37
ENDBRANCH  34  36
ENDBRANCH   4  33
BRANCH  13  44
HETATM   44  O5  UNL     1      -8.561  44.218 -30.638  1.00  0.00    -0.389 OA
HETATM   45  H36 UNL     1      -7.778  43.739 -30.320  1.00  0.00     0.210 HD
ENDBRANCH  13  44
BRANCH  10  46
HETATM   46  C22 UNL     1     -10.201  44.582 -33.409  1.00  0.00    -0.045 A 
HETATM   47  C23 UNL     1     -10.080  43.257 -33.364  1.00  0.00     0.087 A 
HETATM   48  C24 UNL     1     -11.318  42.687 -33.887  1.00  0.00     0.283 A 
HETATM   49  O3  UNL     1     -11.548  41.498 -33.986  1.00  0.00    -0.260 OA
HETATM   50  O4  UNL     1     -12.160  43.695 -34.241  1.00  0.00    -0.314 OA
HETATM   51  C25 UNL     1     -11.523  44.942 -33.979  1.00  0.00     0.213 A 
ENDBRANCH  10  46
TORSDOF 10
ENDMDL
MODEL 2
REMARK minimizedAffinity -8.05444241
REMARK CNNscore 0.312935859
REMARK CNNaffinity 6.70330477
REMARK  10 active torsions:
REMARK  status: ('A' for Active; 'I' for Inactive)
REMARK    1  A    between atoms: O1_2  and  C2_3 
REMARK    2  A    between atoms: C4_5  and  O2_6 
REMARK    3  A    between atoms: O2_6  and  C5_7 
REMARK    4  A    between atoms: C8_10  and  C9_11 
REMARK    5  A    between atoms: N1_12  and  C10_14 
REMARK    6  A    between atoms: C10_14  and  C11_15 
REMARK    7  A    between atoms: C21_27  and  C22_28 
REMARK    8  A    between atoms: C28_36  and  O5_37 
REMARK    9  A    between atoms: C32_41  and  O6_42 
REMARK   10  A    between atoms: C36_47  and  O8_48 
ROOT
HETATM    1  C5  UNL     1      -4.066  48.844 -21.877  1.00  0.00     0.127 C 
HETATM    2  C6  UNL     1      -5.052  49.521 -20.930  1.00  0.00     0.033 C 
HETATM    3  C7  UNL     1      -4.399  49.917 -19.607  1.00  0.00     0.021 C 
HETATM    4  C8  UNL     1      -3.725  48.719 -18.869  1.00  0.00     0.026 C 
HETATM    5  C16 UNL     1      -3.015  49.272 -17.573  1.00  0.00     0.009 C 
HETATM    6  C17 UNL     1      -2.803  48.240 -16.427  1.00  0.00     0.007 C 
HETATM    7  C18 UNL     1      -2.133  48.837 -15.160  1.00  0.00     0.013 C 
HETATM    8  C19 UNL     1      -0.806  49.538 -15.498  1.00  0.00    -0.005 C 
HETATM    9  C20 UNL     1       0.224  48.424 -15.846  1.00  0.00     0.019 C 
HETATM   10  C21 UNL     1      -0.099  50.399 -14.390  1.00  0.00     0.028 C 
HETATM   11  C26 UNL     1       0.564  51.576 -15.174  1.00  0.00     0.013 C 
HETATM   12  C27 UNL     1       0.225  51.371 -16.663  1.00  0.00     0.040 C 
HETATM   13  C28 UNL     1      -1.079  50.590 -16.610  1.00  0.00     0.070 C 
HETATM   14  C29 UNL     1      -1.696  50.047 -17.909  1.00  0.00     0.026 C 
HETATM   15  C30 UNL     1      -0.761  49.269 -18.836  1.00  0.00     0.011 C 
HETATM   16  C31 UNL     1      -1.475  48.840 -20.114  1.00  0.00     0.039 C 
HETATM   17  C32 UNL     1      -2.740  47.993 -19.846  1.00  0.00     0.073 C 
HETATM   18  C33 UNL     1      -3.400  47.643 -21.201  1.00  0.00     0.071 C 
ENDROOT
BRANCH   1  19
HETATM   19  O2  UNL     1      -4.811  48.417 -23.023  1.00  0.00    -0.356 OA
BRANCH  19  20
HETATM   20  C4  UNL     1      -4.657  49.284 -24.151  1.00  0.00     0.263 C 
HETATM   21  C3  UNL     1      -4.212  48.432 -25.331  1.00  0.00     0.095 C 
HETATM   22  C2  UNL     1      -4.081  49.317 -26.568  1.00  0.00     0.156 C 
HETATM   23  C36 UNL     1      -3.102  50.472 -26.273  1.00  0.00     0.175 C 
HETATM   24  C34 UNL     1      -3.519  51.202 -24.981  1.00  0.00     0.151 C 
HETATM   25  O7  UNL     1      -3.689  50.290 -23.889  1.00  0.00    -0.354 OA
HETATM   26  C35 UNL     1      -2.473  52.231 -24.564  1.00  0.00     0.042 C 
BRANCH  22  27
HETATM   27  O1  UNL     1      -3.588  48.620 -27.722  1.00  0.00    -0.388 OA
HETATM   28  C1  UNL     1      -4.604  48.205 -28.625  1.00  0.00     0.202 C 
ENDBRANCH  22  27
BRANCH  23  29
HETATM   29  O8  UNL     1      -3.067  51.385 -27.378  1.00  0.00    -0.390 OA
HETATM   30  H50 UNL     1      -3.558  50.957 -28.110  1.00  0.00     0.210 HD
ENDBRANCH  23  29
ENDBRANCH  19  20
ENDBRANCH   1  19
BRANCH  17  31
HETATM   31  O6  UNL     1      -2.270  46.770 -19.260  1.00  0.00    -0.389 OA
HETATM   32  H42 UNL     1      -3.076  46.251 -19.045  1.00  0.00     0.210 HD
ENDBRANCH  17  31
BRANCH   4  33
HETATM   33  C9  UNL     1      -4.888  47.822 -18.406  1.00  0.00     0.069 C 
HETATM   34  N1  UNL     1      -5.951  48.304 -17.848  1.00  0.00    -0.397 N 
ATOM     35  H1  UNL     1      -6.098  49.303 -17.706  1.00  0.00     0.159 HD
BRANCH  34  36
HETATM   36  C10 UNL     1      -6.932  47.280 -17.436  1.00  0.00     0.158 C 
BRANCH  36  37
HETATM   37  C11 UNL     1      -8.328  47.518 -17.951  1.00  0.00    -0.025 A 
HETATM   38  C12 UNL     1      -9.456  47.390 -17.134  1.00  0.00     0.011 A 
HETATM   39  C13 UNL     1     -10.724  47.618 -17.654  1.00  0.00     0.018 A 
HETATM   40  C14 UNL     1     -10.822  47.989 -18.983  1.00  0.00     0.087 A 
HETATM   41  N2  UNL     1      -9.760  48.160 -19.798  1.00  0.00    -0.375 N 
HETATM   42  C15 UNL     1      -8.542  47.927 -19.264  1.00  0.00     0.096 A 
ATOM     43  H2  UNL     1      -9.873  48.451 -20.769  1.00  0.00     0.164 HD
ENDBRANCH  36  37
ENDBRANCH  34  36
ENDBRANCH   4  33
BRANCH  13  44
HETATM   44  O5  UNL     1      -2.071  51.529 -16.123  1.00  0.00    -0.389 OA
HETATM   45  H36 UNL     1      -2.104  52.287 -16.731  1.00  0.00     0.210 HD
ENDBRANCH  13  44
BRANCH  10  46
HETATM   46  C22 UNL     1      -0.882  50.845 -13.188  1.00  0.00    -0.045 A 
HETATM   47  C23 UNL     1      -1.363  50.143 -12.165  1.00  0.00     0.087 A 
HETATM   48  C24 UNL     1      -2.059  51.075 -11.283  1.00  0.00     0.283 A 
HETATM   49  O3  UNL     1      -2.617  50.769 -10.248  1.00  0.00    -0.260 OA
HETATM   50  O4  UNL     1      -1.981  52.329 -11.806  1.00  0.00    -0.314 OA
HETATM   51  C25 UNL     1      -1.253  52.273 -13.031  1.00  0.00     0.213 A 
ENDBRANCH  10  46
TORSDOF 10
ENDMDL
MODEL 3
REMARK minimizedAffinity -8.05113316
REMARK CNNscore 0.283333093
REMARK CNNaffinity 5.94944
REMARK  10 active torsions:
REMARK  status: ('A' for Active; 'I' for Inactive)
REMARK    1  A    between atoms: O1_2  and  C2_3 
REMARK    2  A    between atoms: C4_5  and  O2_6 
REMARK    3  A    between atoms: O2_6  and  C5_7 
REMARK    4  A    between atoms: C8_10  and  C9_11 
REMARK    5  A    between atoms: N1_12  and  C10_14 
REMARK    6  A    between atoms: C10_14  and  C11_15 
REMARK    7  A    between atoms: C21_27  and  C22_28 
REMARK    8  A    between atoms: C28_36  and  O5_37 
REMARK    9  A    between atoms: C32_41  and  O6_42 
REMARK   10  A    between atoms: C36_47  and  O8_48 
ROOT
HETATM    1  C5  UNL     1      -0.180  56.855  -4.700  1.00  0.00     0.127 C 
HETATM    2  C6  UNL     1       0.089  55.423  -4.250  1.00  0.00     0.033 C 
HETATM    3  C7  UNL     1       1.292  54.812  -4.965  1.00  0.00     0.021 C 
HETATM    4  C8  UNL     1       1.166  54.842  -6.521  1.00  0.00     0.026 C 
HETATM    5  C16 UNL     1       2.501  54.270  -7.137  1.00  0.00     0.009 C 
HETATM    6  C17 UNL     1       2.380  53.674  -8.571  1.00  0.00     0.007 C 
HETATM    7  C18 UNL     1       3.710  53.093  -9.122  1.00  0.00     0.013 C 
HETATM    8  C19 UNL     1       4.846  54.127  -9.070  1.00  0.00    -0.005 C 
HETATM    9  C20 UNL     1       4.546  55.193 -10.163  1.00  0.00     0.019 C 
HETATM   10  C21 UNL     1       6.316  53.658  -9.367  1.00  0.00     0.028 C 
HETATM   11  C26 UNL     1       7.204  54.536  -8.431  1.00  0.00     0.013 C 
HETATM   12  C27 UNL     1       6.253  55.454  -7.639  1.00  0.00     0.040 C 
HETATM   13  C28 UNL     1       4.958  54.656  -7.611  1.00  0.00     0.070 C 
HETATM   14  C29 UNL     1       3.684  55.290  -7.029  1.00  0.00     0.026 C 
HETATM   15  C30 UNL     1       3.323  56.687  -7.536  1.00  0.00     0.011 C 
HETATM   16  C31 UNL     1       2.080  57.228  -6.839  1.00  0.00     0.039 C 
HETATM   17  C32 UNL     1       0.850  56.303  -6.989  1.00  0.00     0.073 C 
HETATM   18  C33 UNL     1      -0.339  56.927  -6.219  1.00  0.00     0.071 C 
ENDROOT
BRANCH   1  19
HETATM   19  O2  UNL     1      -1.387  57.278  -4.054  1.00  0.00    -0.356 OA
BRANCH  19  20
HETATM   20  C4  UNL     1      -1.224  58.465  -3.273  1.00  0.00     0.263 C 
HETATM   21  C3  UNL     1       0.269  58.684  -3.071  1.00  0.00     0.095 C 
HETATM   22  C2  UNL     1       0.485  59.970  -2.278  1.00  0.00     0.156 C 
HETATM   23  C36 UNL     1      -0.285  59.888  -0.944  1.00  0.00     0.175 C 
HETATM   24  C34 UNL     1      -1.757  59.514  -1.204  1.00  0.00     0.151 C 
HETATM   25  O7  UNL     1      -1.869  58.336  -2.013  1.00  0.00    -0.354 OA
HETATM   26  C35 UNL     1      -2.500  59.248   0.102  1.00  0.00     0.042 C 
BRANCH  22  27
HETATM   27  O1  UNL     1       1.863  60.226  -1.966  1.00  0.00    -0.388 OA
HETATM   28  C1  UNL     1       2.550  59.110  -1.419  1.00  0.00     0.202 C 
ENDBRANCH  22  27
BRANCH  23  29
HETATM   29  O8  UNL     1      -0.199  61.138  -0.246  1.00  0.00    -0.390 OA
HETATM   30  H50 UNL     1       0.463  61.680  -0.724  1.00  0.00     0.210 HD
ENDBRANCH  23  29
ENDBRANCH  19  20
ENDBRANCH   1  19
BRANCH  17  31
HETATM   31  O6  UNL     1       0.522  56.317  -8.386  1.00  0.00    -0.389 OA
HETATM   32  H42 UNL     1      -0.228  55.692  -8.489  1.00  0.00     0.210 HD
ENDBRANCH  17  31
BRANCH   4  33
HETATM   33  C9  UNL     1       0.043  53.844  -6.855  1.00  0.00     0.069 C 
HETATM   34  N1  UNL     1      -0.689  53.958  -7.916  1.00  0.00    -0.397 N 
ATOM     35  H1  UNL     1      -0.550  54.694  -8.608  1.00  0.00     0.159 HD
BRANCH  34  36
HETATM   36  C10 UNL     1      -1.740  52.928  -8.036  1.00  0.00     0.158 C 
BRANCH  36  37
HETATM   37  C11 UNL     1      -2.488  52.956  -9.345  1.00  0.00    -0.025 A 
HETATM   38  C12 UNL     1      -3.232  51.865  -9.802  1.00  0.00     0.011 A 
HETATM   39  C13 UNL     1      -3.904  51.938 -11.016  1.00  0.00     0.018 A 
HETATM   40  C14 UNL     1      -3.823  53.119 -11.731  1.00  0.00     0.087 A 
HETATM   41  N2  UNL     1      -3.147  54.209 -11.312  1.00  0.00    -0.375 N 
HETATM   42  C15 UNL     1      -2.502  54.105 -10.130  1.00  0.00     0.096 A 
ATOM     43  H2  UNL     1      -3.125  55.069 -11.861  1.00  0.00     0.164 HD
ENDBRANCH  36  37
ENDBRANCH  34  36
ENDBRANCH   4  33
BRANCH  13  44
HETATM   44  O5  UNL     1       5.217  53.532  -6.731  1.00  0.00    -0.389 OA
HETATM   45  H36 UNL     1       5.474  53.875  -5.859  1.00  0.00     0.210 HD
ENDBRANCH  13  44
BRANCH  10  46
HETATM   46  C22 UNL     1       6.650  52.194  -9.311  1.00  0.00    -0.045 A 
HETATM   47  C23 UNL     1       6.369  51.213 -10.165  1.00  0.00     0.087 A 
HETATM   48  C24 UNL     1       6.920  49.979  -9.612  1.00  0.00     0.283 A 
HETATM   49  O3  UNL     1       6.845  48.887 -10.138  1.00  0.00    -0.260 OA
HETATM   50  O4  UNL     1       7.521  50.252  -8.422  1.00  0.00    -0.314 OA
HETATM   51  C25 UNL     1       7.388  51.644  -8.146  1.00  0.00     0.213 A 
ENDBRANCH  10  46
TORSDOF 10
ENDMDL
MODEL 4
REMARK minimizedAffinity -8.44345379
REMARK CNNscore 0.265289456
REMARK CNNaffinity 6.458395
REMARK  10 active torsions:
REMARK  status: ('A' for Active; 'I' for Inactive)
REMARK    1  A    between atoms: O1_2  and  C2_3 
REMARK    2  A    between atoms: C4_5  and  O2_6 
REMARK    3  A    between atoms: O2_6  and  C5_7 
REMARK    4  A    between atoms: C8_10  and  C9_11 
REMARK    5  A    between atoms: N1_12  and  C10_14 
REMARK    6  A    between atoms: C10_14  and  C11_15 
REMARK    7  A    between atoms: C21_27  and  C22_28 
REMARK    8  A    between atoms: C28_36  and  O5_37 
REMARK    9  A    between atoms: C32_41  and  O6_42 
REMARK   10  A    between atoms: C36_47  and  O8_48 
ROOT
HETATM    1  C5  UNL     1      -7.733  48.403 -23.477  1.00  0.00     0.127 C 
HETATM    2  C6  UNL     1      -7.920  49.400 -22.337  1.00  0.00     0.033 C 
HETATM    3  C7  UNL     1      -6.587  49.840 -21.734  1.00  0.00     0.021 C 
HETATM    4  C8  UNL     1      -5.714  48.647 -21.230  1.00  0.00     0.026 C 
HETATM    5  C16 UNL     1      -4.338  49.223 -20.718  1.00  0.00     0.009 C 
HETATM    6  C17 UNL     1      -3.587  48.345 -19.673  1.00  0.00     0.007 C 
HETATM    7  C18 UNL     1      -2.256  48.967 -19.173  1.00  0.00     0.013 C 
HETATM    8  C19 UNL     1      -1.320  49.322 -20.341  1.00  0.00    -0.005 C 
HETATM    9  C20 UNL     1      -0.787  47.981 -20.924  1.00  0.00     0.019 C 
HETATM   10  C21 UNL     1      -0.029  50.169 -20.051  1.00  0.00     0.028 C 
HETATM   11  C26 UNL     1       0.150  51.056 -21.323  1.00  0.00     0.013 C 
HETATM   12  C27 UNL     1      -1.010  50.713 -22.278  1.00  0.00     0.040 C 
HETATM   13  C28 UNL     1      -2.100  50.235 -21.330  1.00  0.00     0.070 C 
HETATM   14  C29 UNL     1      -3.402  49.650 -21.898  1.00  0.00     0.026 C 
HETATM   15  C30 UNL     1      -3.254  48.570 -22.971  1.00  0.00     0.011 C 
HETATM   16  C31 UNL     1      -4.613  48.118 -23.496  1.00  0.00     0.039 C 
HETATM   17  C32 UNL     1      -5.551  47.599 -22.383  1.00  0.00     0.073 C 
HETATM   18  C33 UNL     1      -6.905  47.202 -23.019  1.00  0.00     0.071 C 
ENDROOT
BRANCH   1  19
HETATM   19  O2  UNL     1      -9.041  47.979 -23.880  1.00  0.00    -0.356 OA
BRANCH  19  20
HETATM   20  C4  UNL     1      -9.315  48.233 -25.261  1.00  0.00     0.263 C 
HETATM   21  C3  UNL     1     -10.579  47.470 -25.630  1.00  0.00     0.095 C 
HETATM   22  C2  UNL     1     -10.930  47.752 -27.088  1.00  0.00     0.156 C 
HETATM   23  C36 UNL     1      -9.733  47.379 -27.987  1.00  0.00     0.175 C 
HETATM   24  C34 UNL     1      -8.451  48.063 -27.473  1.00  0.00     0.151 C 
HETATM   25  O7  UNL     1      -8.235  47.804 -26.080  1.00  0.00    -0.354 OA
HETATM   26  C35 UNL     1      -7.220  47.572 -28.229  1.00  0.00     0.042 C 
BRANCH  22  27
HETATM   27  O1  UNL     1     -12.068  47.014 -27.558  1.00  0.00    -0.388 OA
HETATM   28  C1  UNL     1     -12.123  45.674 -27.089  1.00  0.00     0.202 C 
ENDBRANCH  22  27
BRANCH  23  29
HETATM   29  O8  UNL     1      -9.996  47.760 -29.344  1.00  0.00    -0.390 OA
HETATM   30  H50 UNL     1     -10.941  48.019 -29.383  1.00  0.00     0.210 HD
ENDBRANCH  23  29
ENDBRANCH  19  20
ENDBRANCH   1  19
BRANCH  17  31
HETATM   31  O6  UNL     1      -4.935  46.403 -21.882  1.00  0.00    -0.389 OA
HETATM   32  H42 UNL     1      -5.505  46.099 -21.143  1.00  0.00     0.210 HD
ENDBRANCH  17  31
BRANCH   4  33
HETATM   33  C9  UNL     1      -6.461  48.087 -20.006  1.00  0.00     0.069 C 
HETATM   34  N1  UNL     1      -7.101  48.850 -19.180  1.00  0.00    -0.397 N 
ATOM     35  H1  UNL     1      -7.175  49.860 -19.302  1.00  0.00     0.159 HD
BRANCH  34  36
HETATM   36  C10 UNL     1      -7.714  48.130 -18.046  1.00  0.00     0.158 C 
BRANCH  36  37
HETATM   37  C11 UNL     1      -9.205  47.945 -18.164  1.00  0.00    -0.025 A 
HETATM   38  C12 UNL     1      -9.900  48.218 -19.346  1.00  0.00     0.011 A 
HETATM   39  C13 UNL     1     -11.276  48.034 -19.406  1.00  0.00     0.018 A 
HETATM   40  C14 UNL     1     -11.915  47.560 -18.275  1.00  0.00     0.087 A 
HETATM   41  N2  UNL     1     -11.282  47.249 -17.125  1.00  0.00    -0.375 N 
HETATM   42  C15 UNL     1      -9.945  47.444 -17.097  1.00  0.00     0.096 A 
ATOM     43  H2  UNL     1     -11.787  46.886 -16.316  1.00  0.00     0.164 HD
ENDBRANCH  36  37
ENDBRANCH  34  36
ENDBRANCH   4  33
BRANCH  13  44
HETATM   44  O5  UNL     1      -2.536  51.420 -20.617  1.00  0.00    -0.389 OA
HETATM   45  H36 UNL     1      -2.852  52.072 -21.264  1.00  0.00     0.210 HD
ENDBRANCH  13  44
BRANCH  10  46
HETATM   46  C22 UNL     1       0.078  50.936 -18.764  1.00  0.00    -0.045 A 
HETATM   47  C23 UNL     1       0.114  50.506 -17.505  1.00  0.00     0.087 A 
HETATM   48  C24 UNL     1       0.209  51.681 -16.644  1.00  0.00     0.283 A 
HETATM   49  O3  UNL     1       0.264  51.651 -15.430  1.00  0.00    -0.260 OA
HETATM   50  O4  UNL     1       0.223  52.801 -17.415  1.00  0.00    -0.314 OA
HETATM   51  C25 UNL     1       0.133  52.419 -18.785  1.00  0.00     0.213 A 
ENDBRANCH  10  46
TORSDOF 10
ENDMDL
MODEL 5
REMARK minimizedAffinity -7.90030956
REMARK CNNscore 0.26416257
REMARK CNNaffinity 6.28333044
REMARK  10 active torsions:
REMARK  status: ('A' for Active; 'I' for Inactive)
REMARK    1  A    between atoms: O1_2  and  C2_3 
REMARK    2  A    between atoms: C4_5  and  O2_6 
REMARK    3  A    between atoms: O2_6  and  C5_7 
REMARK    4  A    between atoms: C8_10  and  C9_11 
REMARK    5  A    between atoms: N1_12  and  C10_14 
REMARK    6  A    between atoms: C10_14  and  C11_15 
REMARK    7  A    between atoms: C21_27  and  C22_28 
REMARK    8  A    between atoms: C28_36  and  O5_37 
REMARK    9  A    between atoms: C32_41  and  O6_42 
REMARK   10  A    between atoms: C36_47  and  O8_48 
ROOT
HETATM    1  C5  UNL     1      -1.871  54.028 -10.121  1.00  0.00     0.127 C 
HETATM    2  C6  UNL     1      -2.920  54.162 -11.221  1.00  0.00     0.033 C 
HETATM    3  C7  UNL     1      -3.821  52.932 -11.309  1.00  0.00     0.021 C 
HETATM    4  C8  UNL     1      -3.031  51.602 -11.517  1.00  0.00     0.026 C 
HETATM    5  C16 UNL     1      -4.061  50.407 -11.500  1.00  0.00     0.009 C 
HETATM    6  C17 UNL     1      -3.610  49.117 -12.248  1.00  0.00     0.007 C 
HETATM    7  C18 UNL     1      -4.668  47.982 -12.234  1.00  0.00     0.013 C 
HETATM    8  C19 UNL     1      -5.114  47.639 -10.802  1.00  0.00    -0.005 C 
HETATM    9  C20 UNL     1      -3.925  46.906 -10.116  1.00  0.00     0.019 C 
HETATM   10  C21 UNL     1      -6.342  46.680 -10.598  1.00  0.00     0.028 C 
HETATM   11  C26 UNL     1      -7.049  47.219  -9.314  1.00  0.00     0.013 C 
HETATM   12  C27 UNL     1      -6.240  48.439  -8.833  1.00  0.00     0.040 C 
HETATM   13  C28 UNL     1      -5.599  48.948 -10.116  1.00  0.00     0.070 C 
HETATM   14  C29 UNL     1      -4.575  50.092 -10.055  1.00  0.00     0.026 C 
HETATM   15  C30 UNL     1      -3.445  49.943  -9.034  1.00  0.00     0.011 C 
HETATM   16  C31 UNL     1      -2.535  51.167  -9.028  1.00  0.00     0.039 C 
HETATM   17  C32 UNL     1      -1.926  51.475 -10.415  1.00  0.00     0.073 C 
HETATM   18  C33 UNL     1      -1.053  52.749 -10.303  1.00  0.00     0.071 C 
ENDROOT
BRANCH   1  19
HETATM   19  O2  UNL     1      -1.021  55.177 -10.211  1.00  0.00    -0.356 OA
BRANCH  19  20
HETATM   20  C4  UNL     1       0.271  54.970  -9.633  1.00  0.00     0.263 C 
HETATM   21  C3  UNL     1       0.277  55.633  -8.263  1.00  0.00     0.095 C 
HETATM   22  C2  UNL     1       1.628  55.394  -7.594  1.00  0.00     0.156 C 
HETATM   23  C36 UNL     1       2.755  55.918  -8.508  1.00  0.00     0.175 C 
HETATM   24  C34 UNL     1       2.607  55.328  -9.923  1.00  0.00     0.151 C 
HETATM   25  O7  UNL     1       1.289  55.535 -10.448  1.00  0.00    -0.354 OA
HETATM   26  C35 UNL     1       3.595  55.965 -10.896  1.00  0.00     0.042 C 
BRANCH  22  27
HETATM   27  O1  UNL     1       1.763  56.049  -6.324  1.00  0.00    -0.388 OA
HETATM   28  C1  UNL     1       1.715  57.467  -6.396  1.00  0.00     0.202 C 
ENDBRANCH  22  27
BRANCH  23  29
HETATM   29  O8  UNL     1       4.035  55.584  -7.955  1.00  0.00    -0.390 OA
HETATM   30  H50 UNL     1       3.869  55.243  -7.051  1.00  0.00     0.210 HD
ENDBRANCH  23  29
ENDBRANCH  19  20
ENDBRANCH   1  19
BRANCH  17  31
HETATM   31  O6  UNL     1      -1.055  50.372 -10.710  1.00  0.00    -0.389 OA
HETATM   32  H42 UNL     1      -0.705  50.544 -11.611  1.00  0.00     0.210 HD
ENDBRANCH  17  31
BRANCH   4  33
HETATM   33  C9  UNL     1      -2.457  51.691 -12.943  1.00  0.00     0.069 C 
HETATM   34  N1  UNL     1      -1.224  51.407 -13.209  1.00  0.00    -0.397 N 
ATOM     35  H1  UNL     1      -0.565  51.081 -12.502  1.00  0.00     0.159 HD
BRANCH  34  36
HETATM   36  C10 UNL     1      -0.854  51.596 -14.626  1.00  0.00     0.158 C 
BRANCH  36  37
HETATM   37  C11 UNL     1       0.620  51.811 -14.858  1.00  0.00    -0.025 A 
HETATM   38  C12 UNL     1       1.150  52.029 -16.133  1.00  0.00     0.011 A 
HETATM   39  C13 UNL     1       2.517  52.220 -16.297  1.00  0.00     0.018 A 
HETATM   40  C14 UNL     1       3.313  52.205 -15.167  1.00  0.00     0.087 A 
HETATM   41  N2  UNL     1       2.842  52.034 -13.914  1.00  0.00    -0.375 N 
HETATM   42  C15 UNL     1       1.510  51.846 -13.788  1.00  0.00     0.096 A 
ATOM     43  H2  UNL     1       3.460  52.045 -13.103  1.00  0.00     0.164 HD
ENDBRANCH  36  37
ENDBRANCH  34  36
ENDBRANCH   4  33
BRANCH  13  44
HETATM   44  O5  UNL     1      -6.689  49.502 -10.896  1.00  0.00    -0.389 OA
HETATM   45  H36 UNL     1      -7.115  50.204 -10.377  1.00  0.00     0.210 HD
ENDBRANCH  13  44
BRANCH  10  46
HETATM   46  C22 UNL     1      -7.284  46.431 -11.741  1.00  0.00    -0.045 A 
HETATM   47  C23 UNL     1      -8.364  47.105 -12.130  1.00  0.00     0.087 A 
HETATM   48  C24 UNL     1      -8.914  46.415 -13.294  1.00  0.00     0.283 A 
HETATM   49  O3  UNL     1      -9.904  46.765 -13.906  1.00  0.00    -0.260 OA
HETATM   50  O4  UNL     1      -8.144  45.329 -13.576  1.00  0.00    -0.314 OA
HETATM   51  C25 UNL     1      -7.084  45.256 -12.626  1.00  0.00     0.213 A 
ENDBRANCH  10  46
TORSDOF 10
ENDMDL
MODEL 6
REMARK minimizedAffinity -9.61724854
REMARK CNNscore 0.212569684
REMARK CNNaffinity 6.67063522
REMARK  10 active torsions:
REMARK  status: ('A' for Active; 'I' for Inactive)
REMARK    1  A    between atoms: O1_2  and  C2_3 
REMARK    2  A    between atoms: C4_5  and  O2_6 
REMARK    3  A    between atoms: O2_6  and  C5_7 
REMARK    4  A    between atoms: C8_10  and  C9_11 
REMARK    5  A    between atoms: N1_12  and  C10_14 
REMARK    6  A    between atoms: C10_14  and  C11_15 
REMARK    7  A    between atoms: C21_27  and  C22_28 
REMARK    8  A    between atoms: C28_36  and  O5_37 
REMARK    9  A    between atoms: C32_41  and  O6_42 
REMARK   10  A    between atoms: C36_47  and  O8_48 
ROOT
HETATM    1  C5  UNL     1      -3.882  51.143 -23.293  1.00  0.00     0.127 C 
HETATM    2  C6  UNL     1      -2.569  50.387 -23.112  1.00  0.00     0.033 C 
HETATM    3  C7  UNL     1      -2.774  49.033 -22.436  1.00  0.00     0.021 C 
HETATM    4  C8  UNL     1      -3.498  49.135 -21.056  1.00  0.00     0.026 C 
HETATM    5  C16 UNL     1      -3.728  47.674 -20.508  1.00  0.00     0.009 C 
HETATM    6  C17 UNL     1      -3.878  47.549 -18.963  1.00  0.00     0.007 C 
HETATM    7  C18 UNL     1      -4.069  46.091 -18.467  1.00  0.00     0.013 C 
HETATM    8  C19 UNL     1      -5.247  45.400 -19.174  1.00  0.00    -0.005 C 
HETATM    9  C20 UNL     1      -6.553  46.044 -18.622  1.00  0.00     0.019 C 
HETATM   10  C21 UNL     1      -5.453  43.855 -18.977  1.00  0.00     0.028 C 
HETATM   11  C26 UNL     1      -6.007  43.356 -20.348  1.00  0.00     0.013 C 
HETATM   12  C27 UNL     1      -6.097  44.586 -21.272  1.00  0.00     0.040 C 
HETATM   13  C28 UNL     1      -5.027  45.510 -20.710  1.00  0.00     0.070 C 
HETATM   14  C29 UNL     1      -4.882  46.936 -21.266  1.00  0.00     0.026 C 
HETATM   15  C30 UNL     1      -6.165  47.764 -21.364  1.00  0.00     0.011 C 
HETATM   16  C31 UNL     1      -5.898  49.130 -21.986  1.00  0.00     0.039 C 
HETATM   17  C32 UNL     1      -4.827  49.945 -21.224  1.00  0.00     0.073 C 
HETATM   18  C33 UNL     1      -4.612  51.291 -21.957  1.00  0.00     0.071 C 
ENDROOT
BRANCH   1  19
HETATM   19  O2  UNL     1      -3.553  52.432 -23.825  1.00  0.00    -0.356 OA
BRANCH  19  20
HETATM   20  C4  UNL     1      -3.057  52.380 -25.165  1.00  0.00     0.263 C 
HETATM   21  C3  UNL     1      -3.257  50.960 -25.677  1.00  0.00     0.095 C 
HETATM   22  C2  UNL     1      -2.780  50.876 -27.124  1.00  0.00     0.156 C 
HETATM   23  C36 UNL     1      -1.308  51.332 -27.209  1.00  0.00     0.175 C 
HETATM   24  C34 UNL     1      -1.141  52.709 -26.539  1.00  0.00     0.151 C 
HETATM   25  O7  UNL     1      -1.678  52.720 -25.210  1.00  0.00    -0.354 OA
HETATM   26  C35 UNL     1       0.329  53.105 -26.444  1.00  0.00     0.042 C 
BRANCH  22  27
HETATM   27  O1  UNL     1      -2.854  49.554 -27.677  1.00  0.00    -0.388 OA
HETATM   28  C1  UNL     1      -4.094  48.900 -27.451  1.00  0.00     0.202 C 
ENDBRANCH  22  27
BRANCH  23  29
HETATM   29  O8  UNL     1      -0.884  51.384 -28.578  1.00  0.00    -0.390 OA
HETATM   30  H50 UNL     1      -1.594  50.962 -29.106  1.00  0.00     0.210 HD
ENDBRANCH  23  29
ENDBRANCH  19  20
ENDBRANCH   1  19
BRANCH  17  31
HETATM   31  O6  UNL     1      -5.400  50.232 -19.940  1.00  0.00    -0.389 OA
HETATM   32  H42 UNL     1      -4.702  50.708 -19.438  1.00  0.00     0.210 HD
ENDBRANCH  17  31
BRANCH   4  33
HETATM   33  C9  UNL     1      -2.486  49.821 -20.119  1.00  0.00     0.069 C 
HETATM   34  N1  UNL     1      -2.706  50.986 -19.602  1.00  0.00    -0.397 N 
ATOM     35  H1  UNL     1      -3.568  51.509 -19.756  1.00  0.00     0.159 HD
BRANCH  34  36
HETATM   36  C10 UNL     1      -1.598  51.493 -18.767  1.00  0.00     0.158 C 
BRANCH  36  37
HETATM   37  C11 UNL     1      -0.497  52.170 -19.542  1.00  0.00    -0.025 A 
HETATM   38  C12 UNL     1       0.026  51.629 -20.720  1.00  0.00     0.011 A 
HETATM   39  C13 UNL     1       1.043  52.289 -21.400  1.00  0.00     0.018 A 
HETATM   40  C14 UNL     1       1.494  53.490 -20.883  1.00  0.00     0.087 A 
HETATM   41  N2  UNL     1       0.994  54.067 -19.770  1.00  0.00    -0.375 N 
HETATM   42  C15 UNL     1       0.010  53.398 -19.130  1.00  0.00     0.096 A 
ATOM     43  H2  UNL     1       1.343  54.963 -19.429  1.00  0.00     0.164 HD
ENDBRANCH  36  37
ENDBRANCH  34  36
ENDBRANCH   4  33
BRANCH  13  44
HETATM   44  O5  UNL     1      -3.763  44.881 -21.041  1.00  0.00    -0.389 OA
HETATM   45  H36 UNL     1      -3.711  44.778 -22.006  1.00  0.00     0.210 HD
ENDBRANCH  13  44
BRANCH  10  46
HETATM   46  C22 UNL     1      -4.321  43.020 -18.447  1.00  0.00    -0.045 A 
HETATM   47  C23 UNL     1      -3.394  42.318 -19.094  1.00  0.00     0.087 A 
HETATM   48  C24 UNL     1      -2.546  41.684 -18.088  1.00  0.00     0.283 A 
HETATM   49  O3  UNL     1      -1.595  40.968 -18.332  1.00  0.00    -0.260 OA
HETATM   50  O4  UNL     1      -2.993  42.022 -16.848  1.00  0.00    -0.314 OA
HETATM   51  C25 UNL     1      -4.132  42.867 -16.983  1.00  0.00     0.213 A 
ENDBRANCH  10  46
TORSDOF 10
ENDMDL
MODEL 7
REMARK minimizedAffinity -9.22593498
REMARK CNNscore 0.21232298
REMARK CNNaffinity 6.92557192
REMARK  10 active torsions:
REMARK  status: ('A' for Active; 'I' for Inactive)
REMARK    1  A    between atoms: O1_2  and  C2_3 
REMARK    2  A    between atoms: C4_5  and  O2_6 
REMARK    3  A    between atoms: O2_6  and  C5_7 
REMARK    4  A    between atoms: C8_10  and  C9_11 
REMARK    5  A    between atoms: N1_12  and  C10_14 
REMARK    6  A    between atoms: C10_14  and  C11_15 
REMARK    7  A    between atoms: C21_27  and  C22_28 
REMARK    8  A    between atoms: C28_36  and  O5_37 
REMARK    9  A    between atoms: C32_41  and  O6_42 
REMARK   10  A    between atoms: C36_47  and  O8_48 
ROOT
HETATM    1  C5  UNL     1      -1.199  51.085 -18.260  1.00  0.00     0.127 C 
HETATM    2  C6  UNL     1      -2.224  51.918 -19.022  1.00  0.00     0.033 C 
HETATM    3  C7  UNL     1      -3.392  51.072 -19.527  1.00  0.00     0.021 C 
HETATM    4  C8  UNL     1      -2.944  49.873 -20.420  1.00  0.00     0.026 C 
HETATM    5  C16 UNL     1      -4.224  49.032 -20.798  1.00  0.00     0.009 C 
HETATM    6  C17 UNL     1      -4.115  48.187 -22.102  1.00  0.00     0.007 C 
HETATM    7  C18 UNL     1      -5.409  47.404 -22.452  1.00  0.00     0.013 C 
HETATM    8  C19 UNL     1      -5.872  46.521 -21.282  1.00  0.00    -0.005 C 
HETATM    9  C20 UNL     1      -4.866  45.339 -21.173  1.00  0.00     0.019 C 
HETATM   10  C21 UNL     1      -7.283  45.833 -21.360  1.00  0.00     0.028 C 
HETATM   11  C26 UNL     1      -7.798  45.829 -19.886  1.00  0.00     0.013 C 
HETATM   12  C27 UNL     1      -6.709  46.499 -19.027  1.00  0.00     0.040 C 
HETATM   13  C28 UNL     1      -6.012  47.418 -20.019  1.00  0.00     0.070 C 
HETATM   14  C29 UNL     1      -4.746  48.179 -19.594  1.00  0.00     0.026 C 
HETATM   15  C30 UNL     1      -3.648  47.355 -18.920  1.00  0.00     0.011 C 
HETATM   16  C31 UNL     1      -2.477  48.233 -18.491  1.00  0.00     0.039 C 
HETATM   17  C32 UNL     1      -1.861  49.034 -19.661  1.00  0.00     0.073 C 
HETATM   18  C33 UNL     1      -0.710  49.912 -19.111  1.00  0.00     0.071 C 
ENDROOT
BRANCH   1  19
HETATM   19  O2  UNL     1      -0.106  51.955 -17.941  1.00  0.00    -0.356 OA
BRANCH  19  20
HETATM   20  C4  UNL     1       0.749  51.435 -16.919  1.00  0.00     0.263 C 
HETATM   21  C3  UNL     1      -0.024  51.470 -15.608  1.00  0.00     0.095 C 
HETATM   22  C2  UNL     1       0.842  50.879 -14.499  1.00  0.00     0.156 C 
HETATM   23  C36 UNL     1       2.174  51.653 -14.418  1.00  0.00     0.175 C 
HETATM   24  C34 UNL     1       2.836  51.714 -15.808  1.00  0.00     0.151 C 
HETATM   25  O7  UNL     1       1.933  52.213 -16.803  1.00  0.00    -0.354 OA
HETATM   26  C35 UNL     1       4.060  52.625 -15.799  1.00  0.00     0.042 C 
BRANCH  22  27
HETATM   27  O1  UNL     1       0.230  50.938 -13.201  1.00  0.00    -0.388 OA
HETATM   28  C1  UNL     1      -0.834  51.873 -13.105  1.00  0.00     0.202 C 
ENDBRANCH  22  27
BRANCH  23  29
HETATM   29  O8  UNL     1       3.051  51.030 -13.470  1.00  0.00    -0.390 OA
HETATM   30  H50 UNL     1       2.518  50.358 -12.996  1.00  0.00     0.210 HD
ENDBRANCH  23  29
ENDBRANCH  19  20
ENDBRANCH   1  19
BRANCH  17  31
HETATM   31  O6  UNL     1      -1.284  48.056 -20.540  1.00  0.00    -0.389 OA
HETATM   32  H42 UNL     1      -0.935  48.561 -21.307  1.00  0.00     0.210 HD
ENDBRANCH  17  31
BRANCH   4  33
HETATM   33  C9  UNL     1      -2.415  50.511 -21.718  1.00  0.00     0.069 C 
HETATM   34  N1  UNL     1      -1.192  50.363 -22.111  1.00  0.00    -0.397 N 
ATOM     35  H1  UNL     1      -0.512  49.795 -21.605  1.00  0.00     0.159 HD
BRANCH  34  36
HETATM   36  C10 UNL     1      -0.867  51.087 -23.356  1.00  0.00     0.158 C 
BRANCH  36  37
HETATM   37  C11 UNL     1      -0.047  52.335 -23.150  1.00  0.00    -0.025 A 
HETATM   38  C12 UNL     1       0.410  52.728 -21.889  1.00  0.00     0.011 A 
HETATM   39  C13 UNL     1       1.162  53.888 -21.748  1.00  0.00     0.018 A 
HETATM   40  C14 UNL     1       1.450  54.615 -22.888  1.00  0.00     0.087 A 
HETATM   41  N2  UNL     1       1.060  54.256 -24.130  1.00  0.00    -0.375 N 
HETATM   42  C15 UNL     1       0.328  53.126 -24.232  1.00  0.00     0.096 A 
ATOM     43  H2  UNL     1       1.307  54.811 -24.950  1.00  0.00     0.164 HD
ENDBRANCH  36  37
ENDBRANCH  34  36
ENDBRANCH   4  33
BRANCH  13  44
HETATM   44  O5  UNL     1      -6.968  48.471 -20.304  1.00  0.00    -0.389 OA
HETATM   45  H36 UNL     1      -7.199  48.913 -19.471  1.00  0.00     0.210 HD
ENDBRANCH  13  44
BRANCH  10  46
HETATM   46  C22 UNL     1      -8.297  46.337 -22.348  1.00  0.00    -0.045 A 
HETATM   47  C23 UNL     1      -8.184  47.253 -23.307  1.00  0.00     0.087 A 
HETATM   48  C24 UNL     1      -9.484  47.363 -23.962  1.00  0.00     0.283 A 
HETATM   49  O3  UNL     1      -9.736  48.109 -24.887  1.00  0.00    -0.260 OA
HETATM   50  O4  UNL     1     -10.357  46.502 -23.372  1.00  0.00    -0.314 OA
HETATM   51  C25 UNL     1      -9.685  45.811 -22.322  1.00  0.00     0.213 A 
ENDBRANCH  10  46
TORSDOF 10
ENDMDL
MODEL 8
REMARK minimizedAffinity -8.86179924
REMARK CNNscore 0.195555076
REMARK CNNaffinity 6.97423983
REMARK  10 active torsions:
REMARK  status: ('A' for Active; 'I' for Inactive)
REMARK    1  A    between atoms: O1_2  and  C2_3 
REMARK    2  A    between atoms: C4_5  and  O2_6 
REMARK    3  A    between atoms: O2_6  and  C5_7 
REMARK    4  A    between atoms: C8_10  and  C9_11 
REMARK    5  A    between atoms: N1_12  and  C10_14 
REMARK    6  A    between atoms: C10_14  and  C11_15 
REMARK    7  A    between atoms: C21_27  and  C22_28 
REMARK    8  A    between atoms: C28_36  and  O5_37 
REMARK    9  A    between atoms: C32_41  and  O6_42 
REMARK   10  A    between atoms: C36_47  and  O8_48 
ROOT
HETATM    1  C5  UNL     1      -3.994  48.618 -23.205  1.00  0.00     0.127 C 
HETATM    2  C6  UNL     1      -3.326  47.823 -22.087  1.00  0.00     0.033 C 
HETATM    3  C7  UNL     1      -4.339  47.285 -21.079  1.00  0.00     0.021 C 
HETATM    4  C8  UNL     1      -5.232  48.400 -20.448  1.00  0.00     0.026 C 
HETATM    5  C16 UNL     1      -6.288  47.711 -19.500  1.00  0.00     0.009 C 
HETATM    6  C17 UNL     1      -6.859  48.607 -18.362  1.00  0.00     0.007 C 
HETATM    7  C18 UNL     1      -7.868  47.878 -17.435  1.00  0.00     0.013 C 
HETATM    8  C19 UNL     1      -9.015  47.239 -18.236  1.00  0.00    -0.005 C 
HETATM    9  C20 UNL     1      -9.915  48.399 -18.751  1.00  0.00     0.019 C 
HETATM   10  C21 UNL     1     -10.005  46.265 -17.501  1.00  0.00     0.028 C 
HETATM   11  C26 UNL     1     -10.373  45.196 -18.577  1.00  0.00     0.013 C 
HETATM   12  C27 UNL     1      -9.604  45.566 -19.860  1.00  0.00     0.040 C 
HETATM   13  C28 UNL     1      -8.395  46.318 -19.326  1.00  0.00     0.070 C 
HETATM   14  C29 UNL     1      -7.426  46.998 -20.306  1.00  0.00     0.026 C 
HETATM   15  C30 UNL     1      -8.054  47.891 -21.378  1.00  0.00     0.011 C 
HETATM   16  C31 UNL     1      -6.996  48.454 -22.322  1.00  0.00     0.039 C 
HETATM   17  C32 UNL     1      -5.890  49.247 -21.588  1.00  0.00     0.073 C 
HETATM   18  C33 UNL     1      -4.858  49.742 -22.630  1.00  0.00     0.071 C 
ENDROOT
BRANCH   1  19
HETATM   19  O2  UNL     1      -2.946  49.164 -24.015  1.00  0.00    -0.356 OA
BRANCH  19  20
HETATM   20  C4  UNL     1      -3.413  49.695 -25.259  1.00  0.00     0.263 C 
HETATM   21  C3  UNL     1      -3.472  48.548 -26.258  1.00  0.00     0.095 C 
HETATM   22  C2  UNL     1      -4.010  49.069 -27.588  1.00  0.00     0.156 C 
HETATM   23  C36 UNL     1      -3.128  50.235 -28.080  1.00  0.00     0.175 C 
HETATM   24  C34 UNL     1      -2.981  51.293 -26.969  1.00  0.00     0.151 C 
HETATM   25  O7  UNL     1      -2.539  50.709 -25.737  1.00  0.00    -0.354 OA
HETATM   26  C35 UNL     1      -1.970  52.368 -27.358  1.00  0.00     0.042 C 
BRANCH  22  27
HETATM   27  O1  UNL     1      -4.032  48.077 -28.626  1.00  0.00    -0.388 OA
HETATM   28  C1  UNL     1      -5.336  47.727 -29.065  1.00  0.00     0.202 C 
ENDBRANCH  22  27
BRANCH  23  29
HETATM   29  O8  UNL     1      -3.694  50.820 -29.260  1.00  0.00    -0.390 OA
HETATM   30  H50 UNL     1      -4.419  50.225 -29.546  1.00  0.00     0.210 HD
ENDBRANCH  23  29
ENDBRANCH  19  20
ENDBRANCH   1  19
BRANCH  17  31
HETATM   31  O6  UNL     1      -6.542  50.401 -21.036  1.00  0.00    -0.389 OA
HETATM   32  H42 UNL     1      -5.850  50.880 -20.530  1.00  0.00     0.210 HD
ENDBRANCH  17  31
BRANCH   4  33
HETATM   33  C9  UNL     1      -4.283  49.221 -19.555  1.00  0.00     0.069 C 
HETATM   34  N1  UNL     1      -4.042  50.473 -19.772  1.00  0.00    -0.397 N 
ATOM     35  H1  UNL     1      -4.484  51.000 -20.526  1.00  0.00     0.159 HD
BRANCH  34  36
HETATM   36  C10 UNL     1      -3.072  51.072 -18.834  1.00  0.00     0.158 C 
BRANCH  36  37
HETATM   37  C11 UNL     1      -1.802  51.560 -19.483  1.00  0.00    -0.025 A 
HETATM   38  C12 UNL     1      -1.560  51.412 -20.851  1.00  0.00     0.011 A 
HETATM   39  C13 UNL     1      -0.373  51.876 -21.405  1.00  0.00     0.018 A 
HETATM   40  C14 UNL     1       0.533  52.498 -20.565  1.00  0.00     0.087 A 
HETATM   41  N2  UNL     1       0.326  52.696 -19.246  1.00  0.00    -0.375 N 
HETATM   42  C15 UNL     1      -0.835  52.228 -18.738  1.00  0.00     0.096 A 
ATOM     43  H2  UNL     1       1.012  53.174 -18.662  1.00  0.00     0.164 HD
ENDBRANCH  36  37
ENDBRANCH  34  36
ENDBRANCH   4  33
BRANCH  13  44
HETATM   44  O5  UNL     1      -7.577  45.315 -18.672  1.00  0.00    -0.389 OA
HETATM   45  H36 UNL     1      -7.345  44.632 -19.323  1.00  0.00     0.210 HD
ENDBRANCH  13  44
BRANCH  10  46
HETATM   46  C22 UNL     1      -9.613  45.673 -16.177  1.00  0.00    -0.045 A 
HETATM   47  C23 UNL     1      -9.096  44.482 -15.885  1.00  0.00     0.087 A 
HETATM   48  C24 UNL     1      -8.923  44.423 -14.437  1.00  0.00     0.283 A 
HETATM   49  O3  UNL     1      -8.470  43.473 -13.829  1.00  0.00    -0.260 OA
HETATM   50  O4  UNL     1      -9.350  45.592 -13.887  1.00  0.00    -0.314 OA
HETATM   51  C25 UNL     1      -9.818  46.447 -14.927  1.00  0.00     0.213 A 
ENDBRANCH  10  46
TORSDOF 10
ENDMDL
MODEL 9
REMARK minimizedAffinity -8.16500568
REMARK CNNscore 0.191339523
REMARK CNNaffinity 6.24896383
REMARK  10 active torsions:
REMARK  status: ('A' for Active; 'I' for Inactive)
REMARK    1  A    between atoms: O1_2  and  C2_3 
REMARK    2  A    between atoms: C4_5  and  O2_6 
REMARK    3  A    between atoms: O2_6  and  C5_7 
REMARK    4  A    between atoms: C8_10  and  C9_11 
REMARK    5  A    between atoms: N1_12  and  C10_14 
REMARK    6  A    between atoms: C10_14  and  C11_15 
REMARK    7  A    between atoms: C21_27  and  C22_28 
REMARK    8  A    between atoms: C28_36  and  O5_37 
REMARK    9  A    between atoms: C32_41  and  O6_42 
REMARK   10  A    between atoms: C36_47  and  O8_48 
ROOT
HETATM    1  C5  UNL     1      -5.649  46.986 -29.895  1.00  0.00     0.127 C 
HETATM    2  C6  UNL     1      -6.791  46.256 -29.194  1.00  0.00     0.033 C 
HETATM    3  C7  UNL     1      -7.074  44.893 -29.822  1.00  0.00     0.021 C 
HETATM    4  C8  UNL     1      -7.381  44.970 -31.351  1.00  0.00     0.026 C 
HETATM    5  C16 UNL     1      -7.564  43.500 -31.893  1.00  0.00     0.009 C 
HETATM    6  C17 UNL     1      -8.423  43.360 -33.185  1.00  0.00     0.007 C 
HETATM    7  C18 UNL     1      -8.604  41.894 -33.662  1.00  0.00     0.013 C 
HETATM    8  C19 UNL     1      -7.251  41.185 -33.842  1.00  0.00    -0.005 C 
HETATM    9  C20 UNL     1      -6.578  41.796 -35.105  1.00  0.00     0.019 C 
HETATM   10  C21 UNL     1      -7.234  39.634 -34.095  1.00  0.00     0.028 C 
HETATM   11  C26 UNL     1      -5.946  39.134 -33.370  1.00  0.00     0.013 C 
HETATM   12  C27 UNL     1      -5.280  40.368 -32.733  1.00  0.00     0.040 C 
HETATM   13  C28 UNL     1      -6.454  41.311 -32.513  1.00  0.00     0.070 C 
HETATM   14  C29 UNL     1      -6.199  42.743 -32.017  1.00  0.00     0.026 C 
HETATM   15  C30 UNL     1      -5.132  43.545 -32.765  1.00  0.00     0.011 C 
HETATM   16  C31 UNL     1      -4.931  44.921 -32.140  1.00  0.00     0.039 C 
HETATM   17  C32 UNL     1      -6.233  45.753 -32.073  1.00  0.00     0.073 C 
HETATM   18  C33 UNL     1      -5.922  47.109 -31.395  1.00  0.00     0.071 C 
ENDROOT
BRANCH   1  19
HETATM   19  O2  UNL     1      -5.554  48.285 -29.300  1.00  0.00    -0.356 OA
BRANCH  19  20
HETATM   20  C4  UNL     1      -4.585  48.356 -28.250  1.00  0.00     0.263 C 
HETATM   21  C3  UNL     1      -5.333  48.292 -26.925  1.00  0.00     0.095 C 
HETATM   22  C2  UNL     1      -4.326  48.319 -25.779  1.00  0.00     0.156 C 
HETATM   23  C36 UNL     1      -3.444  49.579 -25.898  1.00  0.00     0.175 C 
HETATM   24  C34 UNL     1      -2.836  49.669 -27.310  1.00  0.00     0.151 C 
HETATM   25  O7  UNL     1      -3.841  49.564 -28.327  1.00  0.00    -0.354 OA
HETATM   26  C35 UNL     1      -2.107  50.993 -27.517  1.00  0.00     0.042 C 
BRANCH  22  27
HETATM   27  O1  UNL     1      -4.936  48.342 -24.480  1.00  0.00    -0.388 OA
HETATM   28  C1  UNL     1      -6.317  48.007 -24.483  1.00  0.00     0.202 C 
ENDBRANCH  22  27
BRANCH  23  29
HETATM   29  O8  UNL     1      -2.409  49.554 -24.905  1.00  0.00    -0.390 OA
HETATM   30  H50 UNL     1      -2.622  48.814 -24.298  1.00  0.00     0.210 HD
ENDBRANCH  23  29
ENDBRANCH  19  20
ENDBRANCH   1  19
BRANCH  17  31
HETATM   31  O6  UNL     1      -6.594  46.018 -33.437  1.00  0.00    -0.389 OA
HETATM   32  H42 UNL     1      -7.446  46.504 -33.396  1.00  0.00     0.210 HD
ENDBRANCH  17  31
BRANCH   4  33
HETATM   33  C9  UNL     1      -8.748  45.670 -31.455  1.00  0.00     0.069 C 
HETATM   34  N1  UNL     1      -9.747  45.349 -30.698  1.00  0.00    -0.397 N 
ATOM     35  H1  UNL     1      -9.685  44.636 -29.971  1.00  0.00     0.159 HD
BRANCH  34  36
HETATM   36  C10 UNL     1     -10.984  46.105 -30.980  1.00  0.00     0.158 C 
BRANCH  36  37
HETATM   37  C11 UNL     1     -11.654  46.675 -29.756  1.00  0.00    -0.025 A 
HETATM   38  C12 UNL     1     -12.792  46.094 -29.191  1.00  0.00     0.011 A 
HETATM   39  C13 UNL     1     -13.376  46.656 -28.062  1.00  0.00     0.018 A 
HETATM   40  C14 UNL     1     -12.785  47.783 -27.521  1.00  0.00     0.087 A 
HETATM   41  N2  UNL     1     -11.666  48.357 -28.011  1.00  0.00    -0.375 N 
HETATM   42  C15 UNL     1     -11.125  47.788 -29.111  1.00  0.00     0.096 A 
ATOM     43  H2  UNL     1     -11.250  49.179 -27.573  1.00  0.00     0.164 HD
ENDBRANCH  36  37
ENDBRANCH  34  36
ENDBRANCH   4  33
BRANCH  13  44
HETATM   44  O5  UNL     1      -7.234  40.711 -31.448  1.00  0.00    -0.389 OA
HETATM   45  H36 UNL     1      -6.667  40.617 -30.664  1.00  0.00     0.210 HD
ENDBRANCH  13  44
BRANCH  10  46
HETATM   46  C22 UNL     1      -8.456  38.819 -33.777  1.00  0.00    -0.045 A 
HETATM   47  C23 UNL     1      -9.680  38.862 -34.300  1.00  0.00     0.087 A 
HETATM   48  C24 UNL     1     -10.485  37.858 -33.610  1.00  0.00     0.283 A 
HETATM   49  O3  UNL     1     -11.655  37.627 -33.841  1.00  0.00    -0.260 OA
HETATM   50  O4  UNL     1      -9.717  37.233 -32.677  1.00  0.00    -0.314 OA
HETATM   51  C25 UNL     1      -8.407  37.792 -32.707  1.00  0.00     0.213 A 
ENDBRANCH  10  46
TORSDOF 10
ENDMDL
