MODEL 1
REMARK minimizedAffinity -8.36563015
REMARK CNNscore 0.530300915
REMARK CNNaffinity 6.43195486
REMARK  12 active torsions:
REMARK  status: ('A' for Active; 'I' for Inactive)
REMARK    1  A    between atoms: O1_2  and  C2_3 
REMARK    2  A    between atoms: C3_5  and  C4_6 
REMARK    3  A    between atoms: C4_6  and  O3_7 
REMARK    4  A    between atoms: C4_6  and  C5_8 
REMARK    5  A    between atoms: C5_8  and  O4_10 
REMARK    6  A    between atoms: C5_8  and  C7_11 
REMARK    7  A    between atoms: C7_11  and  O5_12 
REMARK    8  A    between atoms: C9_14  and  C10_15 
REMARK    9  A    between atoms: C23_28  and  O6_29 
REMARK   10  A    between atoms: O6_29  and  C24_30 
REMARK   11  A    between atoms: C24_30  and  C25_32 
REMARK   12  A    between atoms: C34_41  and  O8_42 
ROOT
HETATM    1  C10 UNL     1       6.279  13.070  21.714  1.00  0.00     0.004 C 
HETATM    2  C11 UNL     1       5.717  12.211  22.871  1.00  0.00     0.007 C 
HETATM    3  C12 UNL     1       4.839  11.127  22.245  1.00  0.00     0.011 C 
HETATM    4  C13 UNL     1       4.410  11.720  20.913  1.00  0.00    -0.021 A 
HETATM    5  C14 UNL     1       5.357  11.405  19.782  1.00  0.00     0.022 A 
HETATM    6  C15 UNL     1       5.431  12.758  20.484  1.00  0.00    -0.027 A 
HETATM    7  C16 UNL     1       5.060  13.933  19.598  1.00  0.00     0.011 C 
HETATM    8  C17 UNL     1       3.555  14.213  19.510  1.00  0.00     0.007 C 
HETATM    9  C18 UNL     1       2.721  12.918  19.387  1.00  0.00     0.005 C 
HETATM   10  C19 UNL     1       1.228  13.125  18.870  1.00  0.00    -0.035 C 
HETATM   11  C20 UNL     1       0.442  14.127  19.745  1.00  0.00     0.016 C 
HETATM   12  C21 UNL     1       1.267  13.705  17.421  1.00  0.00     0.012 C 
HETATM   13  C22 UNL     1      -0.083  13.682  16.699  1.00  0.00     0.034 C 
HETATM   14  C23 UNL     1      -0.710  12.289  16.664  1.00  0.00     0.140 C 
HETATM   15  C29 UNL     1      -0.838  11.630  18.074  1.00  0.00    -0.016 C 
HETATM   16  C30 UNL     1      -1.232  10.144  17.848  1.00  0.00     0.018 C 
HETATM   17  C31 UNL     1      -1.991  12.253  18.888  1.00  0.00     0.018 C 
HETATM   18  C32 UNL     1       0.561  11.699  18.785  1.00  0.00     0.007 C 
HETATM   19  C33 UNL     1       0.637  10.957  20.141  1.00  0.00     0.038 C 
HETATM   20  C34 UNL     1       2.093  10.727  20.574  1.00  0.00     0.128 C 
HETATM   21  C35 UNL     1       2.900  12.050  20.699  1.00  0.00    -0.005 C 
HETATM   22  C36 UNL     1       2.404  12.812  21.966  1.00  0.00     0.019 C 
ENDROOT
BRANCH   1  23
HETATM   23  C9  UNL     1       7.805  13.013  21.587  1.00  0.00     0.048 C 
HETATM   24  C2  UNL     1       8.609  12.221  22.622  1.00  0.00     0.264 C 
HETATM   25  O2  UNL     1       9.749  11.682  21.920  1.00  0.00    -0.353 OA
HETATM   26  C3  UNL     1       9.817  12.333  20.647  1.00  0.00     0.157 C 
HETATM   27  C8  UNL     1       8.351  12.485  20.269  1.00  0.00     0.044 C 
BRANCH  24  28
HETATM   28  O1  UNL     1       9.029  13.102  23.656  1.00  0.00    -0.366 OA
HETATM   29  C1  UNL     1       8.591  14.436  23.429  1.00  0.00     0.204 C 
ENDBRANCH  24  28
BRANCH  26  30
HETATM   30  C4  UNL     1      10.691  11.546  19.659  1.00  0.00     0.183 C 
BRANCH  30  31
HETATM   31  O3  UNL     1      11.750  10.817  20.303  1.00  0.00    -0.390 OA
HETATM   32  H7  UNL     1      11.677  10.954  21.271  1.00  0.00     0.210 HD
ENDBRANCH  30  31
BRANCH  30  33
HETATM   33  C5  UNL     1      11.341  12.395  18.528  1.00  0.00     0.103 C 
HETATM   34  C6  UNL     1      10.929  13.868  18.593  1.00  0.00     0.051 C 
BRANCH  33  35
HETATM   35  O4  UNL     1      10.822  11.885  17.271  1.00  0.00    -0.385 OA
HETATM   36  H11 UNL     1      10.860  10.908  17.374  1.00  0.00     0.210 HD
ENDBRANCH  33  35
BRANCH  33  37
HETATM   37  C7  UNL     1      12.880  12.249  18.441  1.00  0.00     0.204 C 
BRANCH  37  38
HETATM   38  O5  UNL     1      13.226  10.987  17.857  1.00  0.00    -0.398 OA
HETATM   39  H14 UNL     1      12.513  10.368  18.130  1.00  0.00     0.209 HD
ENDBRANCH  37  38
ENDBRANCH  33  37
ENDBRANCH  30  33
ENDBRANCH  26  30
ENDBRANCH   1  23
BRANCH  20  40
HETATM   40  O8  UNL     1       2.702   9.856  19.612  1.00  0.00    -0.395 OA
HETATM   41  H55 UNL     1       2.233   9.000  19.644  1.00  0.00     0.210 HD
ENDBRANCH  20  40
BRANCH  14  42
HETATM   42  O6  UNL     1      -2.025  12.396  16.084  1.00  0.00    -0.312 OA
BRANCH  42  43
HETATM   43  C24 UNL     1      -2.112  12.316  14.738  1.00  0.00     0.283 C 
HETATM   44  O7  UNL     1      -2.300  13.235  13.959  1.00  0.00    -0.260 OA
BRANCH  43  45
HETATM   45  C25 UNL     1      -1.846  10.931  14.294  1.00  0.00     0.084 C 
HETATM   46  C26 UNL     1      -2.655   9.860  14.406  1.00  0.00    -0.082 C 
HETATM   47  C27 UNL     1      -4.059   9.874  14.950  1.00  0.00     0.043 C 
HETATM   48  C28 UNL     1      -2.184   8.511  13.940  1.00  0.00     0.043 C 
ENDBRANCH  43  45
ENDBRANCH  42  43
ENDBRANCH  14  42
TORSDOF 12
ENDMDL
MODEL 2
REMARK minimizedAffinity -8.0656929
REMARK CNNscore 0.424441904
REMARK CNNaffinity 6.49165154
REMARK  12 active torsions:
REMARK  status: ('A' for Active; 'I' for Inactive)
REMARK    1  A    between atoms: O1_2  and  C2_3 
REMARK    2  A    between atoms: C3_5  and  C4_6 
REMARK    3  A    between atoms: C4_6  and  O3_7 
REMARK    4  A    between atoms: C4_6  and  C5_8 
REMARK    5  A    between atoms: C5_8  and  O4_10 
REMARK    6  A    between atoms: C5_8  and  C7_11 
REMARK    7  A    between atoms: C7_11  and  O5_12 
REMARK    8  A    between atoms: C9_14  and  C10_15 
REMARK    9  A    between atoms: C23_28  and  O6_29 
REMARK   10  A    between atoms: O6_29  and  C24_30 
REMARK   11  A    between atoms: C24_30  and  C25_32 
REMARK   12  A    between atoms: C34_41  and  O8_42 
ROOT
HETATM    1  C10 UNL     1      -9.876  -7.731  -4.142  1.00  0.00     0.004 C 
HETATM    2  C11 UNL     1     -11.183  -8.313  -3.555  1.00  0.00     0.007 C 
HETATM    3  C12 UNL     1     -11.027  -8.334  -2.034  1.00  0.00     0.011 C 
HETATM    4  C13 UNL     1      -9.524  -8.384  -1.816  1.00  0.00    -0.021 A 
HETATM    5  C14 UNL     1      -8.885  -7.021  -1.719  1.00  0.00     0.022 A 
HETATM    6  C15 UNL     1      -8.830  -7.796  -3.031  1.00  0.00    -0.027 A 
HETATM    7  C16 UNL     1      -7.430  -8.218  -3.440  1.00  0.00     0.011 C 
HETATM    8  C17 UNL     1      -6.948  -9.526  -2.803  1.00  0.00     0.007 C 
HETATM    9  C18 UNL     1      -7.331  -9.631  -1.310  1.00  0.00     0.005 C 
HETATM   10  C19 UNL     1      -6.522 -10.726  -0.482  1.00  0.00    -0.035 C 
HETATM   11  C20 UNL     1      -6.633 -12.132  -1.112  1.00  0.00     0.016 C 
HETATM   12  C21 UNL     1      -5.010 -10.339  -0.471  1.00  0.00     0.012 C 
HETATM   13  C22 UNL     1      -4.165 -11.140   0.523  1.00  0.00     0.034 C 
HETATM   14  C23 UNL     1      -4.708 -11.071   1.950  1.00  0.00     0.140 C 
HETATM   15  C29 UNL     1      -6.211 -11.482   2.061  1.00  0.00    -0.016 C 
HETATM   16  C30 UNL     1      -6.681 -11.107   3.495  1.00  0.00     0.018 C 
HETATM   17  C31 UNL     1      -6.390 -13.010   1.944  1.00  0.00     0.018 C 
HETATM   18  C32 UNL     1      -7.032 -10.656   1.008  1.00  0.00     0.007 C 
HETATM   19  C33 UNL     1      -8.567 -10.843   1.090  1.00  0.00     0.038 C 
HETATM   20  C34 UNL     1      -9.310  -9.736   0.327  1.00  0.00     0.128 C 
HETATM   21  C35 UNL     1      -8.908  -9.666  -1.174  1.00  0.00    -0.005 C 
HETATM   22  C36 UNL     1      -9.524 -10.898  -1.906  1.00  0.00     0.019 C 
ENDROOT
BRANCH   1  23
HETATM   23  C9  UNL     1     -10.069  -6.409  -4.891  1.00  0.00     0.048 C 
HETATM   24  C2  UNL     1     -11.489  -5.892  -5.134  1.00  0.00     0.264 C 
HETATM   25  O2  UNL     1     -11.406  -4.451  -5.095  1.00  0.00    -0.353 OA
HETATM   26  C3  UNL     1     -10.019  -4.100  -5.136  1.00  0.00     0.157 C 
HETATM   27  C8  UNL     1      -9.371  -5.193  -4.301  1.00  0.00     0.044 C 
BRANCH  24  28
HETATM   28  O1  UNL     1     -11.931  -6.332  -6.412  1.00  0.00    -0.366 OA
HETATM   29  C1  UNL     1     -12.437  -5.260  -7.198  1.00  0.00     0.204 C 
ENDBRANCH  24  28
BRANCH  26  30
HETATM   30  C4  UNL     1      -9.790  -2.658  -4.657  1.00  0.00     0.183 C 
BRANCH  30  31
HETATM   31  O3  UNL     1     -11.001  -2.009  -4.231  1.00  0.00    -0.390 OA
HETATM   32  H7  UNL     1     -11.740  -2.648  -4.309  1.00  0.00     0.210 HD
ENDBRANCH  30  31
BRANCH  30  33
HETATM   33  C5  UNL     1      -9.107  -1.718  -5.693  1.00  0.00     0.103 C 
HETATM   34  C6  UNL     1      -9.845  -0.385  -5.847  1.00  0.00     0.051 C 
BRANCH  33  35
HETATM   35  O4  UNL     1      -9.197  -2.380  -6.983  1.00  0.00    -0.385 OA
HETATM   36  H11 UNL     1      -8.964  -3.315  -6.788  1.00  0.00     0.210 HD
ENDBRANCH  33  35
BRANCH  33  37
HETATM   37  C7  UNL     1      -7.597  -1.494  -5.435  1.00  0.00     0.204 C 
BRANCH  37  38
HETATM   38  O5  UNL     1      -7.116  -2.433  -4.465  1.00  0.00    -0.398 OA
HETATM   39  H14 UNL     1      -7.875  -2.602  -3.864  1.00  0.00     0.209 HD
ENDBRANCH  37  38
ENDBRANCH  33  37
ENDBRANCH  30  33
ENDBRANCH  26  30
ENDBRANCH   1  23
BRANCH  20  40
HETATM   40  O8  UNL     1      -9.028  -8.492   0.981  1.00  0.00    -0.395 OA
HETATM   41  H55 UNL     1      -9.394  -8.541   1.886  1.00  0.00     0.210 HD
ENDBRANCH  20  40
BRANCH  14  42
HETATM   42  O6  UNL     1      -3.926 -11.954   2.779  1.00  0.00    -0.312 OA
BRANCH  42  43
HETATM   43  C24 UNL     1      -3.106 -11.380   3.685  1.00  0.00     0.283 C 
HETATM   44  O7  UNL     1      -2.962 -10.187   3.894  1.00  0.00    -0.260 OA
BRANCH  43  45
HETATM   45  C25 UNL     1      -2.440 -12.421   4.498  1.00  0.00     0.084 C 
HETATM   46  C26 UNL     1      -2.589 -12.656   5.816  1.00  0.00    -0.082 C 
HETATM   47  C27 UNL     1      -3.543 -11.940   6.734  1.00  0.00     0.043 C 
HETATM   48  C28 UNL     1      -1.780 -13.734   6.482  1.00  0.00     0.043 C 
ENDBRANCH  43  45
ENDBRANCH  42  43
ENDBRANCH  14  42
TORSDOF 12
ENDMDL
MODEL 3
REMARK minimizedAffinity -7.44567919
REMARK CNNscore 0.36807844
REMARK CNNaffinity 6.30054522
REMARK  12 active torsions:
REMARK  status: ('A' for Active; 'I' for Inactive)
REMARK    1  A    between atoms: O1_2  and  C2_3 
REMARK    2  A    between atoms: C3_5  and  C4_6 
REMARK    3  A    between atoms: C4_6  and  O3_7 
REMARK    4  A    between atoms: C4_6  and  C5_8 
REMARK    5  A    between atoms: C5_8  and  O4_10 
REMARK    6  A    between atoms: C5_8  and  C7_11 
REMARK    7  A    between atoms: C7_11  and  O5_12 
REMARK    8  A    between atoms: C9_14  and  C10_15 
REMARK    9  A    between atoms: C23_28  and  O6_29 
REMARK   10  A    between atoms: O6_29  and  C24_30 
REMARK   11  A    between atoms: C24_30  and  C25_32 
REMARK   12  A    between atoms: C34_41  and  O8_42 
ROOT
HETATM    1  C10 UNL     1      -1.301  11.962  18.108  1.00  0.00     0.004 C 
HETATM    2  C11 UNL     1      -1.421  13.466  17.771  1.00  0.00     0.007 C 
HETATM    3  C12 UNL     1      -0.007  13.984  17.502  1.00  0.00     0.011 C 
HETATM    4  C13 UNL     1       0.891  13.023  18.264  1.00  0.00    -0.021 A 
HETATM    5  C14 UNL     1       1.326  11.832  17.449  1.00  0.00     0.022 A 
HETATM    6  C15 UNL     1       0.168  11.700  18.432  1.00  0.00    -0.027 A 
HETATM    7  C16 UNL     1       0.451  10.771  19.598  1.00  0.00     0.011 C 
HETATM    8  C17 UNL     1       1.193  11.427  20.769  1.00  0.00     0.007 C 
HETATM    9  C18 UNL     1       2.325  12.366  20.296  1.00  0.00     0.005 C 
HETATM   10  C19 UNL     1       3.397  12.744  21.414  1.00  0.00    -0.035 C 
HETATM   11  C20 UNL     1       2.739  13.367  22.665  1.00  0.00     0.016 C 
HETATM   12  C21 UNL     1       4.132  11.446  21.872  1.00  0.00     0.012 C 
HETATM   13  C22 UNL     1       5.378  11.699  22.725  1.00  0.00     0.034 C 
HETATM   14  C23 UNL     1       6.382  12.628  22.044  1.00  0.00     0.140 C 
HETATM   15  C29 UNL     1       5.758  13.982  21.581  1.00  0.00    -0.016 C 
HETATM   16  C30 UNL     1       6.813  14.688  20.685  1.00  0.00     0.018 C 
HETATM   17  C31 UNL     1       5.516  14.931  22.773  1.00  0.00     0.018 C 
HETATM   18  C32 UNL     1       4.472  13.675  20.733  1.00  0.00     0.007 C 
HETATM   19  C33 UNL     1       3.816  14.914  20.077  1.00  0.00     0.038 C 
HETATM   20  C34 UNL     1       2.833  14.508  18.968  1.00  0.00     0.128 C 
HETATM   21  C35 UNL     1       1.701  13.571  19.480  1.00  0.00    -0.005 C 
HETATM   22  C36 UNL     1       0.722  14.414  20.353  1.00  0.00     0.019 C 
ENDROOT
BRANCH   1  23
HETATM   23  C9  UNL     1      -2.005  11.045  17.102  1.00  0.00     0.048 C 
HETATM   24  C2  UNL     1      -1.508  11.008  15.655  1.00  0.00     0.264 C 
HETATM   25  O2  UNL     1      -1.727   9.660  15.188  1.00  0.00    -0.353 OA
HETATM   26  C3  UNL     1      -2.565   9.004  16.145  1.00  0.00     0.157 C 
HETATM   27  C8  UNL     1      -2.071   9.570  17.467  1.00  0.00     0.044 C 
BRANCH  24  28
HETATM   28  O1  UNL     1      -2.262  11.933  14.881  1.00  0.00    -0.366 OA
HETATM   29  C1  UNL     1      -3.583  12.093  15.384  1.00  0.00     0.204 C 
ENDBRANCH  24  28
BRANCH  26  30
HETATM   30  C4  UNL     1      -2.501   7.477  15.997  1.00  0.00     0.183 C 
BRANCH  30  31
HETATM   31  O3  UNL     1      -1.154   6.971  15.977  1.00  0.00    -0.390 OA
HETATM   32  H7  UNL     1      -0.538   7.724  16.094  1.00  0.00     0.210 HD
ENDBRANCH  30  31
BRANCH  30  33
HETATM   33  C5  UNL     1      -3.224   6.902  14.744  1.00  0.00     0.103 C 
HETATM   34  C6  UNL     1      -2.930   5.415  14.531  1.00  0.00     0.051 C 
BRANCH  33  35
HETATM   35  O4  UNL     1      -2.673   7.592  13.590  1.00  0.00    -0.385 OA
HETATM   36  H11 UNL     1      -2.632   8.533  13.870  1.00  0.00     0.210 HD
ENDBRANCH  33  35
BRANCH  33  37
HETATM   37  C7  UNL     1      -4.746   7.180  14.716  1.00  0.00     0.204 C 
BRANCH  37  38
HETATM   38  O5  UNL     1      -5.476   5.947  14.774  1.00  0.00    -0.398 OA
HETATM   39  H14 UNL     1      -4.911   5.287  14.313  1.00  0.00     0.209 HD
ENDBRANCH  37  38
ENDBRANCH  33  37
ENDBRANCH  30  33
ENDBRANCH  26  30
ENDBRANCH   1  23
BRANCH  20  40
HETATM   40  O8  UNL     1       3.586  13.865  17.932  1.00  0.00    -0.395 OA
HETATM   41  H55 UNL     1       4.210  14.521  17.565  1.00  0.00     0.210 HD
ENDBRANCH  20  40
BRANCH  14  42
HETATM   42  O6  UNL     1       7.449  12.905  22.973  1.00  0.00    -0.312 OA
BRANCH  42  43
HETATM   43  C24 UNL     1       8.556  12.136  22.885  1.00  0.00     0.283 C 
HETATM   44  O7  UNL     1       8.733  11.043  23.396  1.00  0.00    -0.260 OA
BRANCH  43  45
HETATM   45  C25 UNL     1       9.538  12.763  21.974  1.00  0.00     0.084 C 
HETATM   46  C26 UNL     1       9.776  12.460  20.684  1.00  0.00    -0.082 C 
HETATM   47  C27 UNL     1       9.016  11.449  19.866  1.00  0.00     0.043 C 
HETATM   48  C28 UNL     1      10.861  13.177  19.931  1.00  0.00     0.043 C 
ENDBRANCH  43  45
ENDBRANCH  42  43
ENDBRANCH  14  42
TORSDOF 12
ENDMDL
MODEL 4
REMARK minimizedAffinity -7.38045359
REMARK CNNscore 0.308184803
REMARK CNNaffinity 5.55775976
REMARK  12 active torsions:
REMARK  status: ('A' for Active; 'I' for Inactive)
REMARK    1  A    between atoms: O1_2  and  C2_3 
REMARK    2  A    between atoms: C3_5  and  C4_6 
REMARK    3  A    between atoms: C4_6  and  O3_7 
REMARK    4  A    between atoms: C4_6  and  C5_8 
REMARK    5  A    between atoms: C5_8  and  O4_10 
REMARK    6  A    between atoms: C5_8  and  C7_11 
REMARK    7  A    between atoms: C7_11  and  O5_12 
REMARK    8  A    between atoms: C9_14  and  C10_15 
REMARK    9  A    between atoms: C23_28  and  O6_29 
REMARK   10  A    between atoms: O6_29  and  C24_30 
REMARK   11  A    between atoms: C24_30  and  C25_32 
REMARK   12  A    between atoms: C34_41  and  O8_42 
ROOT
HETATM    1  C10 UNL     1     -16.709  -1.517  14.771  1.00  0.00     0.004 C 
HETATM    2  C11 UNL     1     -18.245  -1.454  14.607  1.00  0.00     0.007 C 
HETATM    3  C12 UNL     1     -18.547  -0.353  13.589  1.00  0.00     0.011 C 
HETATM    4  C13 UNL     1     -17.340   0.568  13.670  1.00  0.00    -0.021 A 
HETATM    5  C14 UNL     1     -16.232   0.191  12.720  1.00  0.00     0.022 A 
HETATM    6  C15 UNL     1     -16.151  -0.222  14.185  1.00  0.00    -0.027 A 
HETATM    7  C16 UNL     1     -15.019   0.438  14.951  1.00  0.00     0.011 C 
HETATM    8  C17 UNL     1     -15.349   1.830  15.501  1.00  0.00     0.007 C 
HETATM    9  C18 UNL     1     -16.141   2.690  14.491  1.00  0.00     0.005 C 
HETATM   10  C19 UNL     1     -16.152   4.253  14.800  1.00  0.00    -0.035 C 
HETATM   11  C20 UNL     1     -16.678   4.563  16.220  1.00  0.00     0.016 C 
HETATM   12  C21 UNL     1     -14.691   4.798  14.717  1.00  0.00     0.012 C 
HETATM   13  C22 UNL     1     -14.591   6.326  14.706  1.00  0.00     0.034 C 
HETATM   14  C23 UNL     1     -15.427   6.965  13.599  1.00  0.00     0.140 C 
HETATM   15  C29 UNL     1     -16.924   6.520  13.617  1.00  0.00    -0.016 C 
HETATM   16  C30 UNL     1     -17.567   7.030  12.297  1.00  0.00     0.018 C 
HETATM   17  C31 UNL     1     -17.705   7.204  14.757  1.00  0.00     0.018 C 
HETATM   18  C32 UNL     1     -16.977   4.951  13.652  1.00  0.00     0.007 C 
HETATM   19  C33 UNL     1     -18.396   4.346  13.527  1.00  0.00     0.038 C 
HETATM   20  C34 UNL     1     -18.341   2.852  13.173  1.00  0.00     0.128 C 
HETATM   21  C35 UNL     1     -17.546   2.015  14.215  1.00  0.00    -0.005 C 
HETATM   22  C36 UNL     1     -18.401   1.909  15.516  1.00  0.00     0.019 C 
ENDROOT
BRANCH   1  23
HETATM   23  C9  UNL     1     -16.093  -2.847  14.327  1.00  0.00     0.048 C 
HETATM   24  C2  UNL     1     -14.841  -2.831  13.446  1.00  0.00     0.264 C 
HETATM   25  O2  UNL     1     -14.073  -3.996  13.814  1.00  0.00    -0.353 OA
HETATM   26  C3  UNL     1     -14.914  -4.826  14.623  1.00  0.00     0.157 C 
HETATM   27  C8  UNL     1     -15.704  -3.813  15.436  1.00  0.00     0.044 C 
BRANCH  24  28
HETATM   28  O1  UNL     1     -15.234  -2.903  12.081  1.00  0.00    -0.366 OA
HETATM   29  C1  UNL     1     -16.532  -3.464  11.930  1.00  0.00     0.204 C 
ENDBRANCH  24  28
BRANCH  26  30
HETATM   30  C4  UNL     1     -14.092  -5.845  15.427  1.00  0.00     0.183 C 
BRANCH  30  31
HETATM   31  O3  UNL     1     -14.475  -5.908  16.812  1.00  0.00    -0.390 OA
HETATM   32  H7  UNL     1     -15.222  -5.291  16.956  1.00  0.00     0.210 HD
ENDBRANCH  30  31
BRANCH  30  33
HETATM   33  C5  UNL     1     -12.550  -5.630  15.388  1.00  0.00     0.103 C 
HETATM   34  C6  UNL     1     -11.810  -6.531  16.380  1.00  0.00     0.051 C 
BRANCH  33  35
HETATM   35  O4  UNL     1     -12.307  -4.265  15.824  1.00  0.00    -0.385 OA
HETATM   36  H11 UNL     1     -12.991  -3.738  15.352  1.00  0.00     0.210 HD
ENDBRANCH  33  35
BRANCH  33  37
HETATM   37  C7  UNL     1     -11.938  -5.738  13.971  1.00  0.00     0.204 C 
BRANCH  37  38
HETATM   38  O5  UNL     1     -11.188  -6.953  13.847  1.00  0.00    -0.398 OA
HETATM   39  H14 UNL     1     -10.826  -7.130  14.744  1.00  0.00     0.209 HD
ENDBRANCH  37  38
ENDBRANCH  33  37
ENDBRANCH  30  33
ENDBRANCH  26  30
ENDBRANCH   1  23
BRANCH  20  40
HETATM   40  O8  UNL     1     -17.746   2.734  11.874  1.00  0.00    -0.395 OA
HETATM   41  H55 UNL     1     -18.334   3.181  11.235  1.00  0.00     0.210 HD
ENDBRANCH  20  40
BRANCH  14  42
HETATM   42  O6  UNL     1     -15.370   8.397  13.753  1.00  0.00    -0.312 OA
BRANCH  42  43
HETATM   43  C24 UNL     1     -14.589   9.079  12.888  1.00  0.00     0.283 C 
HETATM   44  O7  UNL     1     -14.852   9.365  11.731  1.00  0.00    -0.260 OA
BRANCH  43  45
HETATM   45  C25 UNL     1     -13.360   9.541  13.567  1.00  0.00     0.084 C 
HETATM   46  C26 UNL     1     -12.137   8.980  13.528  1.00  0.00    -0.082 C 
HETATM   47  C27 UNL     1     -11.746   7.783  12.701  1.00  0.00     0.043 C 
HETATM   48  C28 UNL     1     -11.014   9.568  14.335  1.00  0.00     0.043 C 
ENDBRANCH  43  45
ENDBRANCH  42  43
ENDBRANCH  14  42
TORSDOF 12
ENDMDL
MODEL 5
REMARK minimizedAffinity -9.9200964
REMARK CNNscore 0.288241953
REMARK CNNaffinity 7.23363161
REMARK  12 active torsions:
REMARK  status: ('A' for Active; 'I' for Inactive)
REMARK    1  A    between atoms: O1_2  and  C2_3 
REMARK    2  A    between atoms: C3_5  and  C4_6 
REMARK    3  A    between atoms: C4_6  and  O3_7 
REMARK    4  A    between atoms: C4_6  and  C5_8 
REMARK    5  A    between atoms: C5_8  and  O4_10 
REMARK    6  A    between atoms: C5_8  and  C7_11 
REMARK    7  A    between atoms: C7_11  and  O5_12 
REMARK    8  A    between atoms: C9_14  and  C10_15 
REMARK    9  A    between atoms: C23_28  and  O6_29 
REMARK   10  A    between atoms: O6_29  and  C24_30 
REMARK   11  A    between atoms: C24_30  and  C25_32 
REMARK   12  A    between atoms: C34_41  and  O8_42 
ROOT
HETATM    1  C10 UNL     1       0.607   7.261  12.933  1.00  0.00     0.004 C 
HETATM    2  C11 UNL     1       0.964   5.826  13.386  1.00  0.00     0.007 C 
HETATM    3  C12 UNL     1      -0.099   4.890  12.809  1.00  0.00     0.011 C 
HETATM    4  C13 UNL     1      -1.310   5.786  12.606  1.00  0.00    -0.021 A 
HETATM    5  C14 UNL     1      -1.354   6.440  11.248  1.00  0.00     0.022 A 
HETATM    6  C15 UNL     1      -0.842   7.222  12.454  1.00  0.00    -0.027 A 
HETATM    7  C16 UNL     1      -1.719   8.398  12.843  1.00  0.00     0.011 C 
HETATM    8  C17 UNL     1      -2.902   8.039  13.748  1.00  0.00     0.007 C 
HETATM    9  C18 UNL     1      -3.596   6.727  13.317  1.00  0.00     0.005 C 
HETATM   10  C19 UNL     1      -5.056   6.508  13.917  1.00  0.00    -0.035 C 
HETATM   11  C20 UNL     1      -5.068   6.580  15.461  1.00  0.00     0.016 C 
HETATM   12  C21 UNL     1      -5.996   7.639  13.392  1.00  0.00     0.012 C 
HETATM   13  C22 UNL     1      -7.484   7.391  13.655  1.00  0.00     0.034 C 
HETATM   14  C23 UNL     1      -7.964   6.047  13.107  1.00  0.00     0.140 C 
HETATM   15  C29 UNL     1      -7.115   4.835  13.607  1.00  0.00    -0.016 C 
HETATM   16  C30 UNL     1      -7.547   3.600  12.769  1.00  0.00     0.018 C 
HETATM   17  C31 UNL     1      -7.439   4.483  15.074  1.00  0.00     0.018 C 
HETATM   18  C32 UNL     1      -5.599   5.145  13.341  1.00  0.00     0.007 C 
HETATM   19  C33 UNL     1      -4.634   3.975  13.650  1.00  0.00     0.038 C 
HETATM   20  C34 UNL     1      -3.256   4.198  13.006  1.00  0.00     0.128 C 
HETATM   21  C35 UNL     1      -2.582   5.521  13.470  1.00  0.00    -0.005 C 
HETATM   22  C36 UNL     1      -2.116   5.344  14.948  1.00  0.00     0.019 C 
ENDROOT
BRANCH   1  23
HETATM   23  C9  UNL     1       1.662   7.903  12.026  1.00  0.00     0.048 C 
HETATM   24  C2  UNL     1       3.142   7.606  12.279  1.00  0.00     0.264 C 
HETATM   25  O2  UNL     1       3.784   7.621  10.987  1.00  0.00    -0.353 OA
HETATM   26  C3  UNL     1       2.855   8.183  10.053  1.00  0.00     0.157 C 
HETATM   27  C8  UNL     1       1.521   7.634  10.535  1.00  0.00     0.044 C 
BRANCH  24  28
HETATM   28  O1  UNL     1       3.682   8.620  13.118  1.00  0.00    -0.366 OA
HETATM   29  C1  UNL     1       4.234   8.082  14.313  1.00  0.00     0.204 C 
ENDBRANCH  24  28
BRANCH  26  30
HETATM   30  C4  UNL     1       3.241   7.845   8.605  1.00  0.00     0.183 C 
BRANCH  30  31
HETATM   31  O3  UNL     1       3.102   8.964   7.711  1.00  0.00    -0.390 OA
HETATM   32  H7  UNL     1       2.808   9.741   8.231  1.00  0.00     0.210 HD
ENDBRANCH  30  31
BRANCH  30  33
HETATM   33  C5  UNL     1       2.463   6.655   7.972  1.00  0.00     0.103 C 
HETATM   34  C6  UNL     1       2.086   6.914   6.511  1.00  0.00     0.051 C 
BRANCH  33  35
HETATM   35  O4  UNL     1       1.209   6.543   8.698  1.00  0.00    -0.385 OA
HETATM   36  H11 UNL     1       1.468   6.647   9.641  1.00  0.00     0.210 HD
ENDBRANCH  33  35
BRANCH  33  37
HETATM   37  C7  UNL     1       3.169   5.287   8.133  1.00  0.00     0.204 C 
BRANCH  37  38
HETATM   38  O5  UNL     1       3.152   4.572   6.891  1.00  0.00    -0.398 OA
HETATM   39  H14 UNL     1       2.319   4.842   6.445  1.00  0.00     0.209 HD
ENDBRANCH  37  38
ENDBRANCH  33  37
ENDBRANCH  30  33
ENDBRANCH  26  30
ENDBRANCH   1  23
BRANCH  20  40
HETATM   40  O8  UNL     1      -3.435   4.197  11.584  1.00  0.00    -0.395 OA
HETATM   41  H55 UNL     1      -3.757   3.312  11.324  1.00  0.00     0.210 HD
ENDBRANCH  20  40
BRANCH  14  42
HETATM   42  O6  UNL     1      -9.333   5.852  13.516  1.00  0.00    -0.312 OA
BRANCH  42  43
HETATM   43  C24 UNL     1      -9.948   6.891  14.121  1.00  0.00     0.283 C 
HETATM   44  O7  UNL     1      -9.418   7.802  14.734  1.00  0.00    -0.260 OA
BRANCH  43  45
HETATM   45  C25 UNL     1     -11.402   6.841  13.858  1.00  0.00     0.084 C 
HETATM   46  C26 UNL     1     -12.132   7.686  13.106  1.00  0.00    -0.082 C 
HETATM   47  C27 UNL     1     -11.589   8.835  12.297  1.00  0.00     0.043 C 
HETATM   48  C28 UNL     1     -13.621   7.504  13.000  1.00  0.00     0.043 C 
ENDBRANCH  43  45
ENDBRANCH  42  43
ENDBRANCH  14  42
TORSDOF 12
ENDMDL
MODEL 6
REMARK minimizedAffinity -7.78560591
REMARK CNNscore 0.246627539
REMARK CNNaffinity 6.81304502
REMARK  12 active torsions:
REMARK  status: ('A' for Active; 'I' for Inactive)
REMARK    1  A    between atoms: O1_2  and  C2_3 
REMARK    2  A    between atoms: C3_5  and  C4_6 
REMARK    3  A    between atoms: C4_6  and  O3_7 
REMARK    4  A    between atoms: C4_6  and  C5_8 
REMARK    5  A    between atoms: C5_8  and  O4_10 
REMARK    6  A    between atoms: C5_8  and  C7_11 
REMARK    7  A    between atoms: C7_11  and  O5_12 
REMARK    8  A    between atoms: C9_14  and  C10_15 
REMARK    9  A    between atoms: C23_28  and  O6_29 
REMARK   10  A    between atoms: O6_29  and  C24_30 
REMARK   11  A    between atoms: C24_30  and  C25_32 
REMARK   12  A    between atoms: C34_41  and  O8_42 
ROOT
HETATM    1  C10 UNL     1      -6.959   6.995  13.861  1.00  0.00     0.004 C 
HETATM    2  C11 UNL     1      -6.427   8.310  14.477  1.00  0.00     0.007 C 
HETATM    3  C12 UNL     1      -7.217   8.560  15.763  1.00  0.00     0.011 C 
HETATM    4  C13 UNL     1      -8.524   7.814  15.546  1.00  0.00    -0.021 A 
HETATM    5  C14 UNL     1      -8.483   6.383  16.019  1.00  0.00     0.022 A 
HETATM    6  C15 UNL     1      -8.295   6.701  14.539  1.00  0.00    -0.027 A 
HETATM    7  C16 UNL     1      -9.409   6.181  13.649  1.00  0.00     0.011 C 
HETATM    8  C17 UNL     1     -10.630   7.102  13.553  1.00  0.00     0.007 C 
HETATM    9  C18 UNL     1     -11.016   7.712  14.920  1.00  0.00     0.005 C 
HETATM   10  C19 UNL     1     -12.488   8.320  14.994  1.00  0.00    -0.035 C 
HETATM   11  C20 UNL     1     -12.734   9.383  13.900  1.00  0.00     0.016 C 
HETATM   12  C21 UNL     1     -13.523   7.174  14.770  1.00  0.00     0.012 C 
HETATM   13  C22 UNL     1     -14.968   7.560  15.100  1.00  0.00     0.034 C 
HETATM   14  C23 UNL     1     -15.124   8.105  16.519  1.00  0.00     0.140 C 
HETATM   15  C29 UNL     1     -14.159   9.291  16.838  1.00  0.00    -0.016 C 
HETATM   16  C30 UNL     1     -14.244   9.550  18.368  1.00  0.00     0.018 C 
HETATM   17  C31 UNL     1     -14.625  10.597  16.163  1.00  0.00     0.018 C 
HETATM   18  C32 UNL     1     -12.697   8.859  16.460  1.00  0.00     0.007 C 
HETATM   19  C33 UNL     1     -11.598   9.876  16.852  1.00  0.00     0.038 C 
HETATM   20  C34 UNL     1     -10.202   9.235  16.823  1.00  0.00     0.128 C 
HETATM   21  C35 UNL     1      -9.841   8.641  15.432  1.00  0.00    -0.005 C 
HETATM   22  C36 UNL     1      -9.569   9.821  14.448  1.00  0.00     0.019 C 
ENDROOT
BRANCH   1  23
HETATM   23  C9  UNL     1      -5.912   5.879  13.790  1.00  0.00     0.048 C 
HETATM   24  C2  UNL     1      -6.178   4.664  12.896  1.00  0.00     0.264 C 
HETATM   25  O2  UNL     1      -4.891   4.238  12.401  1.00  0.00    -0.353 OA
HETATM   26  C3  UNL     1      -3.890   4.924  13.160  1.00  0.00     0.157 C 
HETATM   27  C8  UNL     1      -4.510   6.296  13.370  1.00  0.00     0.044 C 
BRANCH  24  28
HETATM   28  O1  UNL     1      -6.780   3.638  13.675  1.00  0.00    -0.366 OA
HETATM   29  C1  UNL     1      -7.746   2.904  12.932  1.00  0.00     0.204 C 
ENDBRANCH  24  28
BRANCH  26  30
HETATM   30  C4  UNL     1      -2.529   4.899  12.448  1.00  0.00     0.183 C 
BRANCH  30  31
HETATM   31  O3  UNL     1      -2.151   3.584  12.005  1.00  0.00    -0.390 OA
HETATM   32  H7  UNL     1      -2.873   2.961  12.231  1.00  0.00     0.210 HD
ENDBRANCH  30  31
BRANCH  30  33
HETATM   33  C5  UNL     1      -1.338   5.463  13.276  1.00  0.00     0.103 C 
HETATM   34  C6  UNL     1      -0.917   6.861  12.816  1.00  0.00     0.051 C 
BRANCH  33  35
HETATM   35  O4  UNL     1      -0.202   4.594  13.020  1.00  0.00    -0.385 OA
HETATM   36  H11 UNL     1      -0.579   3.688  13.067  1.00  0.00     0.210 HD
ENDBRANCH  33  35
BRANCH  33  37
HETATM   37  C7  UNL     1      -1.565   5.424  14.807  1.00  0.00     0.204 C 
BRANCH  37  38
HETATM   38  O5  UNL     1      -0.483   6.076  15.485  1.00  0.00    -0.398 OA
HETATM   39  H14 UNL     1       0.310   5.919  14.925  1.00  0.00     0.209 HD
ENDBRANCH  37  38
ENDBRANCH  33  37
ENDBRANCH  30  33
ENDBRANCH  26  30
ENDBRANCH   1  23
BRANCH  20  40
HETATM   40  O8  UNL     1     -10.171   8.214  17.828  1.00  0.00    -0.395 OA
HETATM   41  H55 UNL     1     -10.294   8.645  18.696  1.00  0.00     0.210 HD
ENDBRANCH  20  40
BRANCH  14  42
HETATM   42  O6  UNL     1     -16.482   8.557  16.687  1.00  0.00    -0.312 OA
BRANCH  42  43
HETATM   43  C24 UNL     1     -17.214   7.962  17.653  1.00  0.00     0.283 C 
HETATM   44  O7  UNL     1     -17.653   8.480  18.666  1.00  0.00    -0.260 OA
BRANCH  43  45
HETATM   45  C25 UNL     1     -17.515   6.565  17.273  1.00  0.00     0.084 C 
HETATM   46  C26 UNL     1     -17.342   5.454  18.015  1.00  0.00    -0.082 C 
HETATM   47  C27 UNL     1     -16.869   5.418  19.444  1.00  0.00     0.043 C 
HETATM   48  C28 UNL     1     -17.658   4.105  17.432  1.00  0.00     0.043 C 
ENDBRANCH  43  45
ENDBRANCH  42  43
ENDBRANCH  14  42
TORSDOF 12
ENDMDL
MODEL 7
REMARK minimizedAffinity -10.4901428
REMARK CNNscore 0.242875129
REMARK CNNaffinity 7.03515053
REMARK  12 active torsions:
REMARK  status: ('A' for Active; 'I' for Inactive)
REMARK    1  A    between atoms: O1_2  and  C2_3 
REMARK    2  A    between atoms: C3_5  and  C4_6 
REMARK    3  A    between atoms: C4_6  and  O3_7 
REMARK    4  A    between atoms: C4_6  and  C5_8 
REMARK    5  A    between atoms: C5_8  and  O4_10 
REMARK    6  A    between atoms: C5_8  and  C7_11 
REMARK    7  A    between atoms: C7_11  and  O5_12 
REMARK    8  A    between atoms: C9_14  and  C10_15 
REMARK    9  A    between atoms: C23_28  and  O6_29 
REMARK   10  A    between atoms: O6_29  and  C24_30 
REMARK   11  A    between atoms: C24_30  and  C25_32 
REMARK   12  A    between atoms: C34_41  and  O8_42 
ROOT
HETATM    1  C10 UNL     1      -5.808   7.189  14.879  1.00  0.00     0.004 C 
HETATM    2  C11 UNL     1      -5.364   8.260  15.903  1.00  0.00     0.007 C 
HETATM    3  C12 UNL     1      -4.358   9.170  15.198  1.00  0.00     0.011 C 
HETATM    4  C13 UNL     1      -3.784   8.302  14.090  1.00  0.00    -0.021 A 
HETATM    5  C14 UNL     1      -4.554   8.392  12.797  1.00  0.00     0.022 A 
HETATM    6  C15 UNL     1      -4.789   7.218  13.743  1.00  0.00    -0.027 A 
HETATM    7  C16 UNL     1      -4.361   5.876  13.179  1.00  0.00     0.011 C 
HETATM    8  C17 UNL     1      -2.874   5.553  13.363  1.00  0.00     0.007 C 
HETATM    9  C18 UNL     1      -1.968   6.776  13.096  1.00  0.00     0.005 C 
HETATM   10  C19 UNL     1      -0.431   6.434  12.849  1.00  0.00    -0.035 C 
HETATM   11  C20 UNL     1       0.180   5.622  14.013  1.00  0.00     0.016 C 
HETATM   12  C21 UNL     1      -0.305   5.564  11.559  1.00  0.00     0.012 C 
HETATM   13  C22 UNL     1       1.129   5.407  11.045  1.00  0.00     0.034 C 
HETATM   14  C23 UNL     1       1.823   6.749  10.813  1.00  0.00     0.140 C 
HETATM   15  C29 UNL     1       1.794   7.686  12.062  1.00  0.00    -0.016 C 
HETATM   16  C30 UNL     1       2.287   9.084  11.594  1.00  0.00     0.018 C 
HETATM   17  C31 UNL     1       2.795   7.225  13.141  1.00  0.00     0.018 C 
HETATM   18  C32 UNL     1       0.311   7.796  12.567  1.00  0.00     0.007 C 
HETATM   19  C33 UNL     1       0.091   8.809  13.717  1.00  0.00     0.038 C 
HETATM   20  C34 UNL     1      -1.397   9.154  13.885  1.00  0.00     0.128 C 
HETATM   21  C35 UNL     1      -2.278   7.903  14.163  1.00  0.00    -0.005 C 
HETATM   22  C36 UNL     1      -1.993   7.415  15.617  1.00  0.00     0.019 C 
ENDROOT
BRANCH   1  23
HETATM   23  C9  UNL     1      -7.298   7.249  14.529  1.00  0.00     0.048 C 
HETATM   24  C2  UNL     1      -8.188   6.045  14.852  1.00  0.00     0.264 C 
HETATM   25  O2  UNL     1      -9.489   6.580  15.174  1.00  0.00    -0.353 OA
HETATM   26  C3  UNL     1      -9.496   7.958  14.785  1.00  0.00     0.157 C 
HETATM   27  C8  UNL     1      -8.083   8.409  15.124  1.00  0.00     0.044 C 
BRANCH  24  28
HETATM   28  O1  UNL     1      -8.262   5.203  13.709  1.00  0.00    -0.366 OA
HETATM   29  C1  UNL     1      -7.533   3.996  13.890  1.00  0.00     0.204 C 
ENDBRANCH  24  28
BRANCH  26  30
HETATM   30  C4  UNL     1     -10.634   8.730  15.469  1.00  0.00     0.183 C 
BRANCH  30  31
HETATM   31  O3  UNL     1     -10.751   8.434  16.871  1.00  0.00    -0.390 OA
HETATM   32  H7  UNL     1     -10.042   7.803  17.115  1.00  0.00     0.210 HD
ENDBRANCH  30  31
BRANCH  30  33
HETATM   33  C5  UNL     1     -12.043   8.528  14.839  1.00  0.00     0.103 C 
HETATM   34  C6  UNL     1     -13.103   9.429  15.478  1.00  0.00     0.051 C 
BRANCH  33  35
HETATM   35  O4  UNL     1     -12.441   7.162  15.136  1.00  0.00    -0.385 OA
HETATM   36  H11 UNL     1     -11.632   6.633  14.959  1.00  0.00     0.210 HD
ENDBRANCH  33  35
BRANCH  33  37
HETATM   37  C7  UNL     1     -12.064   8.649  13.296  1.00  0.00     0.204 C 
BRANCH  37  38
HETATM   38  O5  UNL     1     -11.757   9.993  12.901  1.00  0.00    -0.398 OA
HETATM   39  H14 UNL     1     -12.112  10.564  13.618  1.00  0.00     0.209 HD
ENDBRANCH  37  38
ENDBRANCH  33  37
ENDBRANCH  30  33
ENDBRANCH  26  30
ENDBRANCH   1  23
BRANCH  20  40
HETATM   40  O8  UNL     1      -1.828   9.815  12.689  1.00  0.00    -0.395 OA
HETATM   41  H55 UNL     1      -1.325  10.649  12.610  1.00  0.00     0.210 HD
ENDBRANCH  20  40
BRANCH  14  42
HETATM   42  O6  UNL     1       3.197   6.495  10.459  1.00  0.00    -0.312 OA
BRANCH  42  43
HETATM   43  C24 UNL     1       3.421   5.671   9.413  1.00  0.00     0.283 C 
HETATM   44  O7  UNL     1       4.140   4.685   9.396  1.00  0.00    -0.260 OA
BRANCH  43  45
HETATM   45  C25 UNL     1       2.578   6.067   8.265  1.00  0.00     0.084 C 
HETATM   46  C26 UNL     1       2.458   7.290   7.715  1.00  0.00    -0.082 C 
HETATM   47  C27 UNL     1       3.237   8.514   8.117  1.00  0.00     0.043 C 
HETATM   48  C28 UNL     1       1.501   7.511   6.577  1.00  0.00     0.043 C 
ENDBRANCH  43  45
ENDBRANCH  42  43
ENDBRANCH  14  42
TORSDOF 12
ENDMDL
MODEL 8
REMARK minimizedAffinity -7.62865496
REMARK CNNscore 0.23307541
REMARK CNNaffinity 6.08141088
REMARK  12 active torsions:
REMARK  status: ('A' for Active; 'I' for Inactive)
REMARK    1  A    between atoms: O1_2  and  C2_3 
REMARK    2  A    between atoms: C3_5  and  C4_6 
REMARK    3  A    between atoms: C4_6  and  O3_7 
REMARK    4  A    between atoms: C4_6  and  C5_8 
REMARK    5  A    between atoms: C5_8  and  O4_10 
REMARK    6  A    between atoms: C5_8  and  C7_11 
REMARK    7  A    between atoms: C7_11  and  O5_12 
REMARK    8  A    between atoms: C9_14  and  C10_15 
REMARK    9  A    between atoms: C23_28  and  O6_29 
REMARK   10  A    between atoms: O6_29  and  C24_30 
REMARK   11  A    between atoms: C24_30  and  C25_32 
REMARK   12  A    between atoms: C34_41  and  O8_42 
ROOT
HETATM    1  C10 UNL     1      -7.778 -10.925   5.113  1.00  0.00     0.004 C 
HETATM    2  C11 UNL     1      -7.242 -12.295   4.635  1.00  0.00     0.007 C 
HETATM    3  C12 UNL     1      -6.441 -12.047   3.355  1.00  0.00     0.011 C 
HETATM    4  C13 UNL     1      -7.025 -10.759   2.797  1.00  0.00    -0.021 A 
HETATM    5  C14 UNL     1      -6.333  -9.518   3.300  1.00  0.00     0.022 A 
HETATM    6  C15 UNL     1      -7.646  -9.966   3.932  1.00  0.00    -0.027 A 
HETATM    7  C16 UNL     1      -8.800  -9.006   3.705  1.00  0.00     0.011 C 
HETATM    8  C17 UNL     1      -9.532  -9.196   2.372  1.00  0.00     0.007 C 
HETATM    9  C18 UNL     1      -8.562  -9.456   1.198  1.00  0.00     0.005 C 
HETATM   10  C19 UNL     1      -9.186  -9.241  -0.252  1.00  0.00    -0.035 C 
HETATM   11  C20 UNL     1     -10.455 -10.094  -0.473  1.00  0.00     0.016 C 
HETATM   12  C21 UNL     1      -9.599  -7.744  -0.411  1.00  0.00     0.012 C 
HETATM   13  C22 UNL     1      -9.942  -7.336  -1.846  1.00  0.00     0.034 C 
HETATM   14  C23 UNL     1      -8.821  -7.653  -2.835  1.00  0.00     0.140 C 
HETATM   15  C29 UNL     1      -8.359  -9.144  -2.790  1.00  0.00    -0.016 C 
HETATM   16  C30 UNL     1      -7.059  -9.243  -3.638  1.00  0.00     0.018 C 
HETATM   17  C31 UNL     1      -9.380 -10.075  -3.475  1.00  0.00     0.018 C 
HETATM   18  C32 UNL     1      -8.042  -9.523  -1.300  1.00  0.00     0.007 C 
HETATM   19  C33 UNL     1      -7.431 -10.932  -1.104  1.00  0.00     0.038 C 
HETATM   20  C34 UNL     1      -6.790 -11.079   0.285  1.00  0.00     0.128 C 
HETATM   21  C35 UNL     1      -7.796 -10.820   1.442  1.00  0.00    -0.005 C 
HETATM   22  C36 UNL     1      -8.780 -12.028   1.517  1.00  0.00     0.019 C 
ENDROOT
BRANCH   1  23
HETATM   23  C9  UNL     1      -7.231 -10.489   6.476  1.00  0.00     0.048 C 
HETATM   24  C2  UNL     1      -6.120  -9.437   6.531  1.00  0.00     0.264 C 
HETATM   25  O2  UNL     1      -6.340  -8.681   7.741  1.00  0.00    -0.353 OA
HETATM   26  C3  UNL     1      -7.304  -9.394   8.523  1.00  0.00     0.157 C 
HETATM   27  C8  UNL     1      -8.249  -9.947   7.468  1.00  0.00     0.044 C 
BRANCH  24  28
HETATM   28  O1  UNL     1      -4.860 -10.094   6.573  1.00  0.00    -0.366 OA
HETATM   29  C1  UNL     1      -3.827  -9.232   7.037  1.00  0.00     0.204 C 
ENDBRANCH  24  28
BRANCH  26  30
HETATM   30  C4  UNL     1      -7.939  -8.491   9.592  1.00  0.00     0.183 C 
BRANCH  30  31
HETATM   31  O3  UNL     1      -7.555  -7.111   9.462  1.00  0.00    -0.390 OA
HETATM   32  H7  UNL     1      -6.973  -7.024   8.679  1.00  0.00     0.210 HD
ENDBRANCH  30  31
BRANCH  30  33
HETATM   33  C5  UNL     1      -7.655  -8.909  11.064  1.00  0.00     0.103 C 
HETATM   34  C6  UNL     1      -7.851 -10.410  11.294  1.00  0.00     0.051 C 
BRANCH  33  35
HETATM   35  O4  UNL     1      -8.650  -8.241  11.887  1.00  0.00    -0.385 OA
HETATM   36  H11 UNL     1      -8.684  -7.328  11.527  1.00  0.00     0.210 HD
ENDBRANCH  33  35
BRANCH  33  37
HETATM   37  C7  UNL     1      -6.280  -8.437  11.596  1.00  0.00     0.204 C 
BRANCH  37  38
HETATM   38  O5  UNL     1      -6.387  -7.115  12.140  1.00  0.00    -0.398 OA
HETATM   39  H14 UNL     1      -7.084  -6.669  11.610  1.00  0.00     0.209 HD
ENDBRANCH  37  38
ENDBRANCH  33  37
ENDBRANCH  30  33
ENDBRANCH  26  30
ENDBRANCH   1  23
BRANCH  20  40
HETATM   40  O8  UNL     1      -5.694 -10.158   0.358  1.00  0.00    -0.395 OA
HETATM   41  H55 UNL     1      -5.036 -10.423  -0.314  1.00  0.00     0.210 HD
ENDBRANCH  20  40
BRANCH  14  42
HETATM   42  O6  UNL     1      -9.289  -7.355  -4.165  1.00  0.00    -0.312 OA
BRANCH  42  43
HETATM   43  C24 UNL     1     -10.240  -6.403  -4.284  1.00  0.00     0.283 C 
HETATM   44  O7  UNL     1     -11.448  -6.572  -4.306  1.00  0.00    -0.260 OA
BRANCH  43  45
HETATM   45  C25 UNL     1      -9.619  -5.062  -4.288  1.00  0.00     0.084 C 
HETATM   46  C26 UNL     1      -9.546  -4.191  -5.312  1.00  0.00    -0.082 C 
HETATM   47  C27 UNL     1     -10.166  -4.381  -6.672  1.00  0.00     0.043 C 
HETATM   48  C28 UNL     1      -8.820  -2.886  -5.139  1.00  0.00     0.043 C 
ENDBRANCH  43  45
ENDBRANCH  42  43
ENDBRANCH  14  42
TORSDOF 12
ENDMDL
MODEL 9
REMARK minimizedAffinity -8.35900688
REMARK CNNscore 0.227800936
REMARK CNNaffinity 6.15251589
REMARK  12 active torsions:
REMARK  status: ('A' for Active; 'I' for Inactive)
REMARK    1  A    between atoms: O1_2  and  C2_3 
REMARK    2  A    between atoms: C3_5  and  C4_6 
REMARK    3  A    between atoms: C4_6  and  O3_7 
REMARK    4  A    between atoms: C4_6  and  C5_8 
REMARK    5  A    between atoms: C5_8  and  O4_10 
REMARK    6  A    between atoms: C5_8  and  C7_11 
REMARK    7  A    between atoms: C7_11  and  O5_12 
REMARK    8  A    between atoms: C9_14  and  C10_15 
REMARK    9  A    between atoms: C23_28  and  O6_29 
REMARK   10  A    between atoms: O6_29  and  C24_30 
REMARK   11  A    between atoms: C24_30  and  C25_32 
REMARK   12  A    between atoms: C34_41  and  O8_42 
ROOT
HETATM    1  C10 UNL     1      -1.005   6.518  13.419  1.00  0.00     0.004 C 
HETATM    2  C11 UNL     1      -2.353   6.880  12.753  1.00  0.00     0.007 C 
HETATM    3  C12 UNL     1      -2.436   8.406  12.698  1.00  0.00     0.011 C 
HETATM    4  C13 UNL     1      -1.526   8.867  13.826  1.00  0.00    -0.021 A 
HETATM    5  C14 UNL     1      -0.096   9.073  13.397  1.00  0.00     0.022 A 
HETATM    6  C15 UNL     1      -0.501   7.785  14.106  1.00  0.00    -0.027 A 
HETATM    7  C16 UNL     1       0.130   7.610  15.476  1.00  0.00     0.011 C 
HETATM    8  C17 UNL     1      -0.618   8.313  16.615  1.00  0.00     0.007 C 
HETATM    9  C18 UNL     1      -1.109   9.722  16.215  1.00  0.00     0.005 C 
HETATM   10  C19 UNL     1      -1.505  10.668  17.435  1.00  0.00    -0.035 C 
HETATM   11  C20 UNL     1      -2.570  10.024  18.350  1.00  0.00     0.016 C 
HETATM   12  C21 UNL     1      -0.237  10.928  18.308  1.00  0.00     0.012 C 
HETATM   13  C22 UNL     1      -0.406  12.046  19.342  1.00  0.00     0.034 C 
HETATM   14  C23 UNL     1      -0.862  13.364  18.717  1.00  0.00     0.140 C 
HETATM   15  C29 UNL     1      -2.155  13.225  17.852  1.00  0.00    -0.016 C 
HETATM   16  C30 UNL     1      -2.333  14.563  17.082  1.00  0.00     0.018 C 
HETATM   17  C31 UNL     1      -3.413  13.076  18.733  1.00  0.00     0.018 C 
HETATM   18  C32 UNL     1      -1.945  12.054  16.827  1.00  0.00     0.007 C 
HETATM   19  C33 UNL     1      -3.087  11.883  15.796  1.00  0.00     0.038 C 
HETATM   20  C34 UNL     1      -2.646  11.012  14.609  1.00  0.00     0.128 C 
HETATM   21  C35 UNL     1      -2.169   9.598  15.045  1.00  0.00    -0.005 C 
HETATM   22  C36 UNL     1      -3.416   8.770  15.483  1.00  0.00     0.019 C 
ENDROOT
BRANCH   1  23
HETATM   23  C9  UNL     1      -0.048   5.752  12.500  1.00  0.00     0.048 C 
HETATM   24  C2  UNL     1      -0.444   5.519  11.040  1.00  0.00     0.264 C 
HETATM   25  O2  UNL     1       0.783   5.536  10.281  1.00  0.00    -0.353 OA
HETATM   26  C3  UNL     1       1.867   5.471  11.215  1.00  0.00     0.157 C 
HETATM   27  C8  UNL     1       1.360   6.314  12.375  1.00  0.00     0.044 C 
BRANCH  24  28
HETATM   28  O1  UNL     1      -1.084   4.254  10.928  1.00  0.00    -0.366 OA
HETATM   29  C1  UNL     1      -0.492   3.282  11.781  1.00  0.00     0.204 C 
ENDBRANCH  24  28
BRANCH  26  30
HETATM   30  C4  UNL     1       3.188   5.925  10.576  1.00  0.00     0.183 C 
BRANCH  30  31
HETATM   31  O3  UNL     1       4.218   6.190  11.544  1.00  0.00    -0.390 OA
HETATM   32  H7  UNL     1       3.864   5.994  12.436  1.00  0.00     0.210 HD
ENDBRANCH  30  31
BRANCH  30  33
HETATM   33  C5  UNL     1       3.084   7.181   9.663  1.00  0.00     0.103 C 
HETATM   34  C6  UNL     1       4.319   8.081   9.764  1.00  0.00     0.051 C 
BRANCH  33  35
HETATM   35  O4  UNL     1       1.969   7.969  10.160  1.00  0.00    -0.385 OA
HETATM   36  H11 UNL     1       1.266   7.305  10.335  1.00  0.00     0.210 HD
ENDBRANCH  33  35
BRANCH  33  37
HETATM   37  C7  UNL     1       2.750   6.857   8.186  1.00  0.00     0.204 C 
BRANCH  37  38
HETATM   38  O5  UNL     1       2.864   5.448   7.951  1.00  0.00    -0.398 OA
HETATM   39  H14 UNL     1       3.574   5.138   8.556  1.00  0.00     0.209 HD
ENDBRANCH  37  38
ENDBRANCH  33  37
ENDBRANCH  30  33
ENDBRANCH  26  30
ENDBRANCH   1  23
BRANCH  20  40
HETATM   40  O8  UNL     1      -1.597  11.708  13.925  1.00  0.00    -0.395 OA
HETATM   41  H55 UNL     1      -1.969  12.540  13.574  1.00  0.00     0.210 HD
ENDBRANCH  20  40
BRANCH  14  42
HETATM   42  O6  UNL     1      -1.116  14.307  19.778  1.00  0.00    -0.312 OA
BRANCH  42  43
HETATM   43  C24 UNL     1      -0.094  15.111  20.143  1.00  0.00     0.283 C 
HETATM   44  O7  UNL     1       0.270  15.365  21.279  1.00  0.00    -0.260 OA
BRANCH  43  45
HETATM   45  C25 UNL     1       0.625  15.594  18.945  1.00  0.00     0.084 C 
HETATM   46  C26 UNL     1       1.868  15.265  18.542  1.00  0.00    -0.082 C 
HETATM   47  C27 UNL     1       2.767  14.255  19.204  1.00  0.00     0.043 C 
HETATM   48  C28 UNL     1       2.454  15.905  17.315  1.00  0.00     0.043 C 
ENDBRANCH  43  45
ENDBRANCH  42  43
ENDBRANCH  14  42
TORSDOF 12
ENDMDL
