MODEL 1
REMARK minimizedAffinity -8.28874302
REMARK CNNscore 0.442454875
REMARK CNNaffinity 7.398983
REMARK  12 active torsions:
REMARK  status: ('A' for Active; 'I' for Inactive)
REMARK    1  A    between atoms: O1_2  and  C2_3 
REMARK    2  A    between atoms: C3_5  and  C4_6 
REMARK    3  A    between atoms: C4_6  and  O3_7 
REMARK    4  A    between atoms: C4_6  and  C5_8 
REMARK    5  A    between atoms: C5_8  and  O4_10 
REMARK    6  A    between atoms: C5_8  and  C7_11 
REMARK    7  A    between atoms: C7_11  and  O5_12 
REMARK    8  A    between atoms: C9_14  and  C10_15 
REMARK    9  A    between atoms: C23_28  and  O6_29 
REMARK   10  A    between atoms: O6_29  and  C24_30 
REMARK   11  A    between atoms: C24_30  and  C25_32 
REMARK   12  A    between atoms: C34_41  and  O8_42 
ROOT
HETATM    1  C10 UNL     1      -3.530   5.128  14.111  1.00  0.00     0.004 C 
HETATM    2  C11 UNL     1      -4.001   4.010  13.154  1.00  0.00     0.007 C 
HETATM    3  C12 UNL     1      -5.536   4.102  13.156  1.00  0.00     0.011 C 
HETATM    4  C13 UNL     1      -5.856   5.564  13.449  1.00  0.00    -0.021 A 
HETATM    5  C14 UNL     1      -5.116   6.579  12.595  1.00  0.00     0.022 A 
HETATM    6  C15 UNL     1      -4.601   6.213  13.976  1.00  0.00    -0.027 A 
HETATM    7  C16 UNL     1      -4.651   7.297  15.026  1.00  0.00     0.011 C 
HETATM    8  C17 UNL     1      -6.020   7.500  15.685  1.00  0.00     0.007 C 
HETATM    9  C18 UNL     1      -7.188   7.387  14.680  1.00  0.00     0.005 C 
HETATM   10  C19 UNL     1      -8.578   8.000  15.164  1.00  0.00    -0.035 C 
HETATM   11  C20 UNL     1      -9.055   7.380  16.498  1.00  0.00     0.016 C 
HETATM   12  C21 UNL     1      -8.397   9.533  15.401  1.00  0.00     0.012 C 
HETATM   13  C22 UNL     1      -9.708  10.297  15.588  1.00  0.00     0.034 C 
HETATM   14  C23 UNL     1     -10.686  10.083  14.434  1.00  0.00     0.140 C 
HETATM   15  C29 UNL     1     -10.977   8.577  14.139  1.00  0.00    -0.016 C 
HETATM   16  C30 UNL     1     -11.767   8.522  12.801  1.00  0.00     0.018 C 
HETATM   17  C31 UNL     1     -11.906   7.958  15.203  1.00  0.00     0.018 C 
HETATM   18  C32 UNL     1      -9.604   7.828  13.978  1.00  0.00     0.007 C 
HETATM   19  C33 UNL     1      -9.714   6.348  13.533  1.00  0.00     0.038 C 
HETATM   20  C34 UNL     1      -8.366   5.810  13.028  1.00  0.00     0.128 C 
HETATM   21  C35 UNL     1      -7.238   5.917  14.093  1.00  0.00    -0.005 C 
HETATM   22  C36 UNL     1      -7.526   4.862  15.202  1.00  0.00     0.019 C 
ENDROOT
BRANCH   1  23
HETATM   23  C9  UNL     1      -2.105   5.669  13.918  1.00  0.00     0.048 C 
HETATM   24  C2  UNL     1      -1.891   6.672  12.784  1.00  0.00     0.264 C 
HETATM   25  O2  UNL     1      -0.603   7.264  13.034  1.00  0.00    -0.353 OA
HETATM   26  C3  UNL     1      -0.244   7.025  14.407  1.00  0.00     0.157 C 
HETATM   27  C8  UNL     1      -1.472   6.413  15.079  1.00  0.00     0.044 C 
BRANCH  24  28
HETATM   28  O1  UNL     1      -2.892   7.679  12.783  1.00  0.00    -0.366 OA
HETATM   29  C1  UNL     1      -2.415   8.907  12.251  1.00  0.00     0.204 C 
ENDBRANCH  24  28
BRANCH  26  30
HETATM   30  C4  UNL     1       0.292   8.288  15.107  1.00  0.00     0.183 C 
BRANCH  30  31
HETATM   31  O3  UNL     1       0.264   9.414  14.212  1.00  0.00    -0.390 OA
HETATM   32  H7  UNL     1       0.768  10.126  14.664  1.00  0.00     0.210 HD
ENDBRANCH  30  31
BRANCH  30  33
HETATM   33  C5  UNL     1       1.718   8.178  15.721  1.00  0.00     0.103 C 
HETATM   34  C6  UNL     1       2.762   7.739  14.689  1.00  0.00     0.051 C 
BRANCH  33  35
HETATM   35  O4  UNL     1       1.635   7.133  16.725  1.00  0.00    -0.385 OA
HETATM   36  H11 UNL     1       1.506   6.282  16.270  1.00  0.00     0.210 HD
ENDBRANCH  33  35
BRANCH  33  37
HETATM   37  C7  UNL     1       2.214   9.455  16.447  1.00  0.00     0.204 C 
BRANCH  37  38
HETATM   38  O5  UNL     1       2.250   9.325  17.868  1.00  0.00    -0.398 OA
HETATM   39  H14 UNL     1       1.373   8.976  18.137  1.00  0.00     0.209 HD
ENDBRANCH  37  38
ENDBRANCH  33  37
ENDBRANCH  30  33
ENDBRANCH  26  30
ENDBRANCH   1  23
BRANCH  20  40
HETATM   40  O8  UNL     1      -8.028   6.553  11.851  1.00  0.00    -0.395 OA
HETATM   41  H55 UNL     1      -8.615   6.246  11.139  1.00  0.00     0.210 HD
ENDBRANCH  20  40
BRANCH  14  42
HETATM   42  O6  UNL     1     -11.929  10.748  14.746  1.00  0.00    -0.312 OA
BRANCH  42  43
HETATM   43  C24 UNL     1     -11.842  11.935  15.386  1.00  0.00     0.283 C 
HETATM   44  O7  UNL     1     -11.737  12.109  16.590  1.00  0.00    -0.260 OA
BRANCH  43  45
HETATM   45  C25 UNL     1     -11.802  13.053  14.419  1.00  0.00     0.084 C 
HETATM   46  C26 UNL     1     -10.759  13.853  14.120  1.00  0.00    -0.082 C 
HETATM   47  C27 UNL     1      -9.368  13.723  14.680  1.00  0.00     0.043 C 
HETATM   48  C28 UNL     1     -10.923  14.971  13.126  1.00  0.00     0.043 C 
ENDBRANCH  43  45
ENDBRANCH  42  43
ENDBRANCH  14  42
TORSDOF 12
ENDMDL
MODEL 2
REMARK minimizedAffinity -7.53898001
REMARK CNNscore 0.314043969
REMARK CNNaffinity 6.18251228
REMARK  12 active torsions:
REMARK  status: ('A' for Active; 'I' for Inactive)
REMARK    1  A    between atoms: O1_2  and  C2_3 
REMARK    2  A    between atoms: C3_5  and  C4_6 
REMARK    3  A    between atoms: C4_6  and  O3_7 
REMARK    4  A    between atoms: C4_6  and  C5_8 
REMARK    5  A    between atoms: C5_8  and  O4_10 
REMARK    6  A    between atoms: C5_8  and  C7_11 
REMARK    7  A    between atoms: C7_11  and  O5_12 
REMARK    8  A    between atoms: C9_14  and  C10_15 
REMARK    9  A    between atoms: C23_28  and  O6_29 
REMARK   10  A    between atoms: O6_29  and  C24_30 
REMARK   11  A    between atoms: C24_30  and  C25_32 
REMARK   12  A    between atoms: C34_41  and  O8_42 
ROOT
HETATM    1  C10 UNL     1      -1.116  12.337  18.147  1.00  0.00     0.004 C 
HETATM    2  C11 UNL     1      -1.048  13.595  17.252  1.00  0.00     0.007 C 
HETATM    3  C12 UNL     1       0.066  14.462  17.863  1.00  0.00     0.011 C 
HETATM    4  C13 UNL     1       1.025  13.482  18.530  1.00  0.00    -0.021 A 
HETATM    5  C14 UNL     1       1.470  12.314  17.669  1.00  0.00     0.022 A 
HETATM    6  C15 UNL     1       0.320  12.154  18.646  1.00  0.00    -0.027 A 
HETATM    7  C16 UNL     1       0.551  11.235  19.821  1.00  0.00     0.011 C 
HETATM    8  C17 UNL     1       1.339  11.851  20.983  1.00  0.00     0.007 C 
HETATM    9  C18 UNL     1       2.501  12.750  20.505  1.00  0.00     0.005 C 
HETATM   10  C19 UNL     1       3.619  13.073  21.595  1.00  0.00    -0.035 C 
HETATM   11  C20 UNL     1       3.022  13.725  22.864  1.00  0.00     0.016 C 
HETATM   12  C21 UNL     1       4.298  11.737  22.033  1.00  0.00     0.012 C 
HETATM   13  C22 UNL     1       5.574  11.922  22.853  1.00  0.00     0.034 C 
HETATM   14  C23 UNL     1       6.608  12.798  22.148  1.00  0.00     0.140 C 
HETATM   15  C29 UNL     1       6.045  14.186  21.706  1.00  0.00    -0.016 C 
HETATM   16  C30 UNL     1       7.120  14.840  20.791  1.00  0.00     0.018 C 
HETATM   17  C31 UNL     1       5.875  15.140  22.906  1.00  0.00     0.018 C 
HETATM   18  C32 UNL     1       4.723  13.949  20.887  1.00  0.00     0.007 C 
HETATM   19  C33 UNL     1       4.114  15.220  20.245  1.00  0.00     0.038 C 
HETATM   20  C34 UNL     1       3.080  14.866  19.165  1.00  0.00     0.128 C 
HETATM   21  C35 UNL     1       1.916  13.990  19.713  1.00  0.00    -0.005 C 
HETATM   22  C36 UNL     1       1.028  14.889  20.622  1.00  0.00     0.019 C 
ENDROOT
BRANCH   1  23
HETATM   23  C9  UNL     1      -1.700  11.059  17.527  1.00  0.00     0.048 C 
HETATM   24  C2  UNL     1      -3.125  10.680  17.929  1.00  0.00     0.264 C 
HETATM   25  O2  UNL     1      -3.539   9.683  16.978  1.00  0.00    -0.353 OA
HETATM   26  C3  UNL     1      -2.677   9.756  15.828  1.00  0.00     0.157 C 
HETATM   27  C8  UNL     1      -1.805  10.996  16.014  1.00  0.00     0.044 C 
BRANCH  24  28
HETATM   28  O1  UNL     1      -3.998  11.798  17.868  1.00  0.00    -0.366 OA
HETATM   29  C1  UNL     1      -4.300  12.312  19.158  1.00  0.00     0.204 C 
ENDBRANCH  24  28
BRANCH  26  30
HETATM   30  C4  UNL     1      -3.457   9.730  14.500  1.00  0.00     0.183 C 
BRANCH  30  31
HETATM   31  O3  UNL     1      -4.874   9.792  14.743  1.00  0.00    -0.390 OA
HETATM   32  H7  UNL     1      -5.301   9.603  13.879  1.00  0.00     0.210 HD
ENDBRANCH  30  31
BRANCH  30  33
HETATM   33  C5  UNL     1      -3.168   8.524  13.559  1.00  0.00     0.103 C 
HETATM   34  C6  UNL     1      -4.447   7.782  13.158  1.00  0.00     0.051 C 
BRANCH  33  35
HETATM   35  O4  UNL     1      -2.358   7.604  14.336  1.00  0.00    -0.385 OA
HETATM   36  H11 UNL     1      -2.914   7.228  15.041  1.00  0.00     0.210 HD
ENDBRANCH  33  35
BRANCH  33  37
HETATM   37  C7  UNL     1      -2.351   8.872  12.287  1.00  0.00     0.204 C 
BRANCH  37  38
HETATM   38  O5  UNL     1      -1.255   9.751  12.537  1.00  0.00    -0.398 OA
HETATM   39  H14 UNL     1      -1.615  10.505  13.051  1.00  0.00     0.209 HD
ENDBRANCH  37  38
ENDBRANCH  33  37
ENDBRANCH  30  33
ENDBRANCH  26  30
ENDBRANCH   1  23
BRANCH  20  40
HETATM   40  O8  UNL     1       3.778  14.187  18.116  1.00  0.00    -0.395 OA
HETATM   41  H55 UNL     1       4.301  14.855  17.640  1.00  0.00     0.210 HD
ENDBRANCH  20  40
BRANCH  14  42
HETATM   42  O6  UNL     1       7.726  13.007  23.036  1.00  0.00    -0.312 OA
BRANCH  42  43
HETATM   43  C24 UNL     1       8.776  12.166  22.904  1.00  0.00     0.283 C 
HETATM   44  O7  UNL     1       8.904  11.071  23.431  1.00  0.00    -0.260 OA
BRANCH  43  45
HETATM   45  C25 UNL     1       9.763  12.702  21.944  1.00  0.00     0.084 C 
HETATM   46  C26 UNL     1       9.912  12.383  20.643  1.00  0.00    -0.082 C 
HETATM   47  C27 UNL     1       9.033  11.437  19.868  1.00  0.00     0.043 C 
HETATM   48  C28 UNL     1      11.009  13.015  19.827  1.00  0.00     0.043 C 
ENDBRANCH  43  45
ENDBRANCH  42  43
ENDBRANCH  14  42
TORSDOF 12
ENDMDL
MODEL 3
REMARK minimizedAffinity -8.2132988
REMARK CNNscore 0.265474379
REMARK CNNaffinity 6.29449987
REMARK  12 active torsions:
REMARK  status: ('A' for Active; 'I' for Inactive)
REMARK    1  A    between atoms: O1_2  and  C2_3 
REMARK    2  A    between atoms: C3_5  and  C4_6 
REMARK    3  A    between atoms: C4_6  and  O3_7 
REMARK    4  A    between atoms: C4_6  and  C5_8 
REMARK    5  A    between atoms: C5_8  and  O4_10 
REMARK    6  A    between atoms: C5_8  and  C7_11 
REMARK    7  A    between atoms: C7_11  and  O5_12 
REMARK    8  A    between atoms: C9_14  and  C10_15 
REMARK    9  A    between atoms: C23_28  and  O6_29 
REMARK   10  A    between atoms: O6_29  and  C24_30 
REMARK   11  A    between atoms: C24_30  and  C25_32 
REMARK   12  A    between atoms: C34_41  and  O8_42 
ROOT
HETATM    1  C10 UNL     1      -2.819   8.958  13.355  1.00  0.00     0.004 C 
HETATM    2  C11 UNL     1      -1.696   8.115  12.710  1.00  0.00     0.007 C 
HETATM    3  C12 UNL     1      -0.392   8.642  13.333  1.00  0.00     0.011 C 
HETATM    4  C13 UNL     1      -0.781   9.161  14.713  1.00  0.00    -0.021 A 
HETATM    5  C14 UNL     1      -1.602   8.207  15.563  1.00  0.00     0.022 A 
HETATM    6  C15 UNL     1      -2.282   9.294  14.750  1.00  0.00    -0.027 A 
HETATM    7  C16 UNL     1      -2.961  10.396  15.525  1.00  0.00     0.011 C 
HETATM    8  C17 UNL     1      -2.027  11.493  16.048  1.00  0.00     0.007 C 
HETATM    9  C18 UNL     1      -0.686  10.934  16.574  1.00  0.00     0.005 C 
HETATM   10  C19 UNL     1       0.150  11.913  17.515  1.00  0.00    -0.035 C 
HETATM   11  C20 UNL     1       0.450  13.265  16.828  1.00  0.00     0.016 C 
HETATM   12  C21 UNL     1      -0.690  12.218  18.796  1.00  0.00     0.012 C 
HETATM   13  C22 UNL     1       0.098  12.906  19.911  1.00  0.00     0.034 C 
HETATM   14  C23 UNL     1       1.354  12.133  20.311  1.00  0.00     0.140 C 
HETATM   15  C29 UNL     1       2.294  11.814  19.106  1.00  0.00    -0.016 C 
HETATM   16  C30 UNL     1       3.372  10.820  19.624  1.00  0.00     0.018 C 
HETATM   17  C31 UNL     1       3.064  13.065  18.637  1.00  0.00     0.018 C 
HETATM   18  C32 UNL     1       1.439  11.131  17.976  1.00  0.00     0.007 C 
HETATM   19  C33 UNL     1       2.252  10.612  16.764  1.00  0.00     0.038 C 
HETATM   20  C34 UNL     1       1.429   9.634  15.910  1.00  0.00     0.128 C 
HETATM   21  C35 UNL     1       0.109  10.263  15.380  1.00  0.00    -0.005 C 
HETATM   22  C36 UNL     1       0.482  11.300  14.280  1.00  0.00     0.019 C 
ENDROOT
BRANCH   1  23
HETATM   23  C9  UNL     1      -4.228   8.348  13.390  1.00  0.00     0.048 C 
HETATM   24  C2  UNL     1      -4.335   6.834  13.208  1.00  0.00     0.264 C 
HETATM   25  O2  UNL     1      -5.672   6.492  13.618  1.00  0.00    -0.353 OA
HETATM   26  C3  UNL     1      -6.201   7.570  14.412  1.00  0.00     0.157 C 
HETATM   27  C8  UNL     1      -5.048   8.542  14.653  1.00  0.00     0.044 C 
BRANCH  24  28
HETATM   28  O1  UNL     1      -3.392   6.145  14.016  1.00  0.00    -0.366 OA
HETATM   29  C1  UNL     1      -3.209   4.800  13.595  1.00  0.00     0.204 C 
ENDBRANCH  24  28
BRANCH  26  30
HETATM   30  C4  UNL     1      -6.886   7.076  15.700  1.00  0.00     0.183 C 
BRANCH  30  31
HETATM   31  O3  UNL     1      -6.194   5.934  16.237  1.00  0.00    -0.390 OA
HETATM   32  H7  UNL     1      -6.774   5.579  16.945  1.00  0.00     0.210 HD
ENDBRANCH  30  31
BRANCH  30  33
HETATM   33  C5  UNL     1      -8.398   6.727  15.581  1.00  0.00     0.103 C 
HETATM   34  C6  UNL     1      -9.278   7.663  16.416  1.00  0.00     0.051 C 
BRANCH  33  35
HETATM   35  O4  UNL     1      -8.539   5.392  16.133  1.00  0.00    -0.385 OA
HETATM   36  H11 UNL     1      -8.382   5.440  17.092  1.00  0.00     0.210 HD
ENDBRANCH  33  35
BRANCH  33  37
HETATM   37  C7  UNL     1      -8.940   6.668  14.129  1.00  0.00     0.204 C 
BRANCH  37  38
HETATM   38  O5  UNL     1     -10.327   6.339  14.051  1.00  0.00    -0.398 OA
HETATM   39  H14 UNL     1     -10.453   5.537  14.603  1.00  0.00     0.209 HD
ENDBRANCH  37  38
ENDBRANCH  33  37
ENDBRANCH  30  33
ENDBRANCH  26  30
ENDBRANCH   1  23
BRANCH  20  40
HETATM   40  O8  UNL     1       1.157   8.488  16.725  1.00  0.00    -0.395 OA
HETATM   41  H55 UNL     1       1.988   7.989  16.805  1.00  0.00     0.210 HD
ENDBRANCH  20  40
BRANCH  14  42
HETATM   42  O6  UNL     1       2.087  12.906  21.285  1.00  0.00    -0.312 OA
BRANCH  42  43
HETATM   43  C24 UNL     1       2.796  12.215  22.205  1.00  0.00     0.283 C 
HETATM   44  O7  UNL     1       2.452  11.188  22.770  1.00  0.00    -0.260 OA
BRANCH  43  45
HETATM   45  C25 UNL     1       4.130  12.818  22.404  1.00  0.00     0.084 C 
HETATM   46  C26 UNL     1       5.257  12.216  22.833  1.00  0.00    -0.082 C 
HETATM   47  C27 UNL     1       5.401  10.750  23.143  1.00  0.00     0.043 C 
HETATM   48  C28 UNL     1       6.523  13.012  23.009  1.00  0.00     0.043 C 
ENDBRANCH  43  45
ENDBRANCH  42  43
ENDBRANCH  14  42
TORSDOF 12
ENDMDL
MODEL 4
REMARK minimizedAffinity -8.40872002
REMARK CNNscore 0.260714531
REMARK CNNaffinity 7.44295168
REMARK  12 active torsions:
REMARK  status: ('A' for Active; 'I' for Inactive)
REMARK    1  A    between atoms: O1_2  and  C2_3 
REMARK    2  A    between atoms: C3_5  and  C4_6 
REMARK    3  A    between atoms: C4_6  and  O3_7 
REMARK    4  A    between atoms: C4_6  and  C5_8 
REMARK    5  A    between atoms: C5_8  and  O4_10 
REMARK    6  A    between atoms: C5_8  and  C7_11 
REMARK    7  A    between atoms: C7_11  and  O5_12 
REMARK    8  A    between atoms: C9_14  and  C10_15 
REMARK    9  A    between atoms: C23_28  and  O6_29 
REMARK   10  A    between atoms: O6_29  and  C24_30 
REMARK   11  A    between atoms: C24_30  and  C25_32 
REMARK   12  A    between atoms: C34_41  and  O8_42 
ROOT
HETATM    1  C10 UNL     1      -3.635   5.620  14.309  1.00  0.00     0.004 C 
HETATM    2  C11 UNL     1      -4.060   4.392  13.473  1.00  0.00     0.007 C 
HETATM    3  C12 UNL     1      -5.598   4.394  13.511  1.00  0.00     0.011 C 
HETATM    4  C13 UNL     1      -5.999   5.856  13.678  1.00  0.00    -0.021 A 
HETATM    5  C14 UNL     1      -5.342   6.828  12.714  1.00  0.00     0.022 A 
HETATM    6  C15 UNL     1      -4.773   6.623  14.107  1.00  0.00    -0.027 A 
HETATM    7  C16 UNL     1      -4.864   7.795  15.055  1.00  0.00     0.011 C 
HETATM    8  C17 UNL     1      -6.227   7.978  15.732  1.00  0.00     0.007 C 
HETATM    9  C18 UNL     1      -7.410   7.704  14.777  1.00  0.00     0.005 C 
HETATM   10  C19 UNL     1      -8.823   8.277  15.243  1.00  0.00    -0.035 C 
HETATM   11  C20 UNL     1      -9.228   7.757  16.642  1.00  0.00     0.016 C 
HETATM   12  C21 UNL     1      -8.730   9.834  15.333  1.00  0.00     0.012 C 
HETATM   13  C22 UNL     1     -10.080  10.534  15.488  1.00  0.00     0.034 C 
HETATM   14  C23 UNL     1     -11.070  10.157  14.387  1.00  0.00     0.140 C 
HETATM   15  C29 UNL     1     -11.276   8.616  14.240  1.00  0.00    -0.016 C 
HETATM   16  C30 UNL     1     -12.092   8.390  12.936  1.00  0.00     0.018 C 
HETATM   17  C31 UNL     1     -12.140   8.045  15.383  1.00  0.00     0.018 C 
HETATM   18  C32 UNL     1      -9.864   7.936  14.108  1.00  0.00     0.007 C 
HETATM   19  C33 UNL     1      -9.894   6.417  13.804  1.00  0.00     0.038 C 
HETATM   20  C34 UNL     1      -8.529   5.914  13.310  1.00  0.00     0.128 C 
HETATM   21  C35 UNL     1      -7.384   6.185  14.328  1.00  0.00    -0.005 C 
HETATM   22  C36 UNL     1      -7.581   5.223  15.536  1.00  0.00     0.019 C 
ENDROOT
BRANCH   1  23
HETATM   23  C9  UNL     1      -2.251   6.223  14.025  1.00  0.00     0.048 C 
HETATM   24  C2  UNL     1      -1.297   5.397  13.162  1.00  0.00     0.264 C 
HETATM   25  O2  UNL     1      -0.251   6.305  12.772  1.00  0.00    -0.353 OA
HETATM   26  C3  UNL     1      -0.716   7.653  12.959  1.00  0.00     0.157 C 
HETATM   27  C8  UNL     1      -2.200   7.559  13.308  1.00  0.00     0.044 C 
BRANCH  24  28
HETATM   28  O1  UNL     1      -1.949   4.887  12.007  1.00  0.00    -0.366 OA
HETATM   29  C1  UNL     1      -1.359   3.678  11.551  1.00  0.00     0.204 C 
ENDBRANCH  24  28
BRANCH  26  30
HETATM   30  C4  UNL     1      -0.410   8.559  11.751  1.00  0.00     0.183 C 
BRANCH  30  31
HETATM   31  O3  UNL     1      -1.622   9.127  11.223  1.00  0.00    -0.390 OA
HETATM   32  H7  UNL     1      -1.371   9.545  10.372  1.00  0.00     0.210 HD
ENDBRANCH  30  31
BRANCH  30  33
HETATM   33  C5  UNL     1       0.378   7.899  10.583  1.00  0.00     0.103 C 
HETATM   34  C6  UNL     1       0.074   8.558   9.233  1.00  0.00     0.051 C 
BRANCH  33  35
HETATM   35  O4  UNL     1      -0.096   6.529  10.513  1.00  0.00    -0.385 OA
HETATM   36  H11 UNL     1      -1.018   6.540  10.201  1.00  0.00     0.210 HD
ENDBRANCH  33  35
BRANCH  33  37
HETATM   37  C7  UNL     1       1.913   7.829  10.790  1.00  0.00     0.204 C 
BRANCH  37  38
HETATM   38  O5  UNL     1       2.293   7.266  12.045  1.00  0.00    -0.398 OA
HETATM   39  H14 UNL     1       1.776   7.741  12.731  1.00  0.00     0.209 HD
ENDBRANCH  37  38
ENDBRANCH  33  37
ENDBRANCH  30  33
ENDBRANCH  26  30
ENDBRANCH   1  23
BRANCH  20  40
HETATM   40  O8  UNL     1      -8.265   6.564  12.061  1.00  0.00    -0.395 OA
HETATM   41  H55 UNL     1      -8.848   6.158  11.398  1.00  0.00     0.210 HD
ENDBRANCH  20  40
BRANCH  14  42
HETATM   42  O6  UNL     1     -12.343  10.774  14.674  1.00  0.00    -0.312 OA
BRANCH  42  43
HETATM   43  C24 UNL     1     -12.313  11.975  15.294  1.00  0.00     0.283 C 
HETATM   44  O7  UNL     1     -12.213  12.174  16.494  1.00  0.00    -0.260 OA
BRANCH  43  45
HETATM   45  C25 UNL     1     -12.334  13.076  14.308  1.00  0.00     0.084 C 
HETATM   46  C26 UNL     1     -11.339  13.931  13.999  1.00  0.00    -0.082 C 
HETATM   47  C27 UNL     1      -9.944  13.891  14.565  1.00  0.00     0.043 C 
HETATM   48  C28 UNL     1     -11.563  15.021  12.985  1.00  0.00     0.043 C 
ENDBRANCH  43  45
ENDBRANCH  42  43
ENDBRANCH  14  42
TORSDOF 12
ENDMDL
MODEL 5
REMARK minimizedAffinity -8.21092796
REMARK CNNscore 0.259575337
REMARK CNNaffinity 6.92302942
REMARK  12 active torsions:
REMARK  status: ('A' for Active; 'I' for Inactive)
REMARK    1  A    between atoms: O1_2  and  C2_3 
REMARK    2  A    between atoms: C3_5  and  C4_6 
REMARK    3  A    between atoms: C4_6  and  O3_7 
REMARK    4  A    between atoms: C4_6  and  C5_8 
REMARK    5  A    between atoms: C5_8  and  O4_10 
REMARK    6  A    between atoms: C5_8  and  C7_11 
REMARK    7  A    between atoms: C7_11  and  O5_12 
REMARK    8  A    between atoms: C9_14  and  C10_15 
REMARK    9  A    between atoms: C23_28  and  O6_29 
REMARK   10  A    between atoms: O6_29  and  C24_30 
REMARK   11  A    between atoms: C24_30  and  C25_32 
REMARK   12  A    between atoms: C34_41  and  O8_42 
ROOT
HETATM    1  C10 UNL     1      -3.324   6.443  14.702  1.00  0.00     0.004 C 
HETATM    2  C11 UNL     1      -3.479   5.095  13.963  1.00  0.00     0.007 C 
HETATM    3  C12 UNL     1      -4.993   4.828  13.929  1.00  0.00     0.011 C 
HETATM    4  C13 UNL     1      -5.650   6.205  13.944  1.00  0.00    -0.021 A 
HETATM    5  C14 UNL     1      -5.112   7.196  12.927  1.00  0.00     0.022 A 
HETATM    6  C15 UNL     1      -4.604   7.209  14.357  1.00  0.00    -0.027 A 
HETATM    7  C16 UNL     1      -4.953   8.419  15.189  1.00  0.00     0.011 C 
HETATM    8  C17 UNL     1      -6.366   8.413  15.783  1.00  0.00     0.007 C 
HETATM    9  C18 UNL     1      -7.423   7.858  14.802  1.00  0.00     0.005 C 
HETATM   10  C19 UNL     1      -8.940   8.208  15.148  1.00  0.00    -0.035 C 
HETATM   11  C20 UNL     1      -9.335   7.740  16.568  1.00  0.00     0.016 C 
HETATM   12  C21 UNL     1      -9.122   9.758  15.101  1.00  0.00     0.012 C 
HETATM   13  C22 UNL     1     -10.579  10.219  15.128  1.00  0.00     0.034 C 
HETATM   14  C23 UNL     1     -11.420   9.584  14.021  1.00  0.00     0.140 C 
HETATM   15  C29 UNL     1     -11.348   8.024  14.006  1.00  0.00    -0.016 C 
HETATM   16  C30 UNL     1     -12.031   7.552  12.692  1.00  0.00     0.018 C 
HETATM   17  C31 UNL     1     -12.170   7.404  15.155  1.00  0.00     0.018 C 
HETATM   18  C32 UNL     1      -9.834   7.596  14.002  1.00  0.00     0.007 C 
HETATM   19  C33 UNL     1      -9.584   6.077  13.837  1.00  0.00     0.038 C 
HETATM   20  C34 UNL     1      -8.124   5.785  13.454  1.00  0.00     0.128 C 
HETATM   21  C35 UNL     1      -7.109   6.336  14.496  1.00  0.00    -0.005 C 
HETATM   22  C36 UNL     1      -7.211   5.456  15.776  1.00  0.00     0.019 C 
ENDROOT
BRANCH   1  23
HETATM   23  C9  UNL     1      -2.050   7.256  14.430  1.00  0.00     0.048 C 
HETATM   24  C2  UNL     1      -1.832   8.511  15.276  1.00  0.00     0.264 C 
HETATM   25  O2  UNL     1      -0.455   8.874  15.074  1.00  0.00    -0.353 OA
HETATM   26  C3  UNL     1       0.251   7.735  14.550  1.00  0.00     0.157 C 
HETATM   27  C8  UNL     1      -0.716   6.555  14.612  1.00  0.00     0.044 C 
BRANCH  24  28
HETATM   28  O1  UNL     1      -2.069   8.258  16.653  1.00  0.00    -0.366 OA
HETATM   29  C1  UNL     1      -2.204   9.458  17.401  1.00  0.00     0.204 C 
ENDBRANCH  24  28
BRANCH  26  30
HETATM   30  C4  UNL     1       1.592   7.488  15.267  1.00  0.00     0.183 C 
BRANCH  30  31
HETATM   31  O3  UNL     1       1.371   6.996  16.601  1.00  0.00    -0.390 OA
HETATM   32  H7  UNL     1       2.246   7.024  17.044  1.00  0.00     0.210 HD
ENDBRANCH  30  31
BRANCH  30  33
HETATM   33  C5  UNL     1       2.563   8.702  15.341  1.00  0.00     0.103 C 
HETATM   34  C6  UNL     1       2.333   9.553  16.594  1.00  0.00     0.051 C 
BRANCH  33  35
HETATM   35  O4  UNL     1       2.249   9.529  14.191  1.00  0.00    -0.385 OA
HETATM   36  H11 UNL     1       1.368   9.921  14.328  1.00  0.00     0.210 HD
ENDBRANCH  33  35
BRANCH  33  37
HETATM   37  C7  UNL     1       4.067   8.340  15.231  1.00  0.00     0.204 C 
BRANCH  37  38
HETATM   38  O5  UNL     1       4.354   6.985  15.577  1.00  0.00    -0.398 OA
HETATM   39  H14 UNL     1       3.922   6.822  16.444  1.00  0.00     0.209 HD
ENDBRANCH  37  38
ENDBRANCH  33  37
ENDBRANCH  30  33
ENDBRANCH  26  30
ENDBRANCH   1  23
BRANCH  20  40
HETATM   40  O8  UNL     1      -7.900   6.366  12.165  1.00  0.00    -0.395 OA
HETATM   41  H55 UNL     1      -8.363   5.810  11.515  1.00  0.00     0.210 HD
ENDBRANCH  20  40
BRANCH  14  42
HETATM   42  O6  UNL     1     -12.795   9.987  14.191  1.00  0.00    -0.312 OA
BRANCH  42  43
HETATM   43  C24 UNL     1     -13.288  10.871  13.294  1.00  0.00     0.283 C 
HETATM   44  O7  UNL     1     -13.434  10.689  12.095  1.00  0.00    -0.260 OA
BRANCH  43  45
HETATM   45  C25 UNL     1     -13.728  12.112  13.965  1.00  0.00     0.084 C 
HETATM   46  C26 UNL     1     -13.779  13.358  13.453  1.00  0.00    -0.082 C 
HETATM   47  C27 UNL     1     -13.451  13.734  12.033  1.00  0.00     0.043 C 
HETATM   48  C28 UNL     1     -14.225  14.513  14.311  1.00  0.00     0.043 C 
ENDBRANCH  43  45
ENDBRANCH  42  43
ENDBRANCH  14  42
TORSDOF 12
ENDMDL
MODEL 6
REMARK minimizedAffinity -7.25633955
REMARK CNNscore 0.237429678
REMARK CNNaffinity 5.61710978
REMARK  12 active torsions:
REMARK  status: ('A' for Active; 'I' for Inactive)
REMARK    1  A    between atoms: O1_2  and  C2_3 
REMARK    2  A    between atoms: C3_5  and  C4_6 
REMARK    3  A    between atoms: C4_6  and  O3_7 
REMARK    4  A    between atoms: C4_6  and  C5_8 
REMARK    5  A    between atoms: C5_8  and  O4_10 
REMARK    6  A    between atoms: C5_8  and  C7_11 
REMARK    7  A    between atoms: C7_11  and  O5_12 
REMARK    8  A    between atoms: C9_14  and  C10_15 
REMARK    9  A    between atoms: C23_28  and  O6_29 
REMARK   10  A    between atoms: O6_29  and  C24_30 
REMARK   11  A    between atoms: C24_30  and  C25_32 
REMARK   12  A    between atoms: C34_41  and  O8_42 
ROOT
HETATM    1  C10 UNL     1     -14.276  -5.567  13.586  1.00  0.00     0.004 C 
HETATM    2  C11 UNL     1     -15.026  -5.906  12.278  1.00  0.00     0.007 C 
HETATM    3  C12 UNL     1     -16.069  -4.787  12.113  1.00  0.00     0.011 C 
HETATM    4  C13 UNL     1     -15.468  -3.566  12.800  1.00  0.00    -0.021 A 
HETATM    5  C14 UNL     1     -14.041  -3.229  12.404  1.00  0.00     0.022 A 
HETATM    6  C15 UNL     1     -14.321  -4.038  13.657  1.00  0.00    -0.027 A 
HETATM    7  C16 UNL     1     -13.994  -3.379  14.976  1.00  0.00     0.011 C 
HETATM    8  C17 UNL     1     -15.047  -2.388  15.485  1.00  0.00     0.007 C 
HETATM    9  C18 UNL     1     -15.650  -1.525  14.354  1.00  0.00     0.005 C 
HETATM   10  C19 UNL     1     -16.407  -0.202  14.822  1.00  0.00    -0.035 C 
HETATM   11  C20 UNL     1     -17.542  -0.506  15.828  1.00  0.00     0.016 C 
HETATM   12  C21 UNL     1     -15.386   0.734  15.543  1.00  0.00     0.012 C 
HETATM   13  C22 UNL     1     -15.902   2.152  15.788  1.00  0.00     0.034 C 
HETATM   14  C23 UNL     1     -16.387   2.834  14.509  1.00  0.00     0.140 C 
HETATM   15  C29 UNL     1     -17.452   2.000  13.729  1.00  0.00    -0.016 C 
HETATM   16  C30 UNL     1     -17.647   2.692  12.350  1.00  0.00     0.018 C 
HETATM   17  C31 UNL     1     -18.830   2.045  14.422  1.00  0.00     0.018 C 
HETATM   18  C32 UNL     1     -16.890   0.546  13.521  1.00  0.00     0.007 C 
HETATM   19  C33 UNL     1     -17.764  -0.372  12.630  1.00  0.00     0.038 C 
HETATM   20  C34 UNL     1     -16.984  -1.609  12.159  1.00  0.00     0.128 C 
HETATM   21  C35 UNL     1     -16.432  -2.457  13.340  1.00  0.00    -0.005 C 
HETATM   22  C36 UNL     1     -17.637  -3.169  14.022  1.00  0.00     0.019 C 
ENDROOT
BRANCH   1  23
HETATM   23  C9  UNL     1     -12.857  -6.130  13.753  1.00  0.00     0.048 C 
HETATM   24  C2  UNL     1     -12.428  -6.526  15.166  1.00  0.00     0.264 C 
HETATM   25  O2  UNL     1     -11.239  -7.319  14.998  1.00  0.00    -0.353 OA
HETATM   26  C3  UNL     1     -11.179  -7.777  13.635  1.00  0.00     0.157 C 
HETATM   27  C8  UNL     1     -12.507  -7.393  12.986  1.00  0.00     0.044 C 
BRANCH  24  28
HETATM   28  O1  UNL     1     -13.431  -7.290  15.820  1.00  0.00    -0.366 OA
HETATM   29  C1  UNL     1     -12.932  -7.948  16.976  1.00  0.00     0.204 C 
ENDBRANCH  24  28
BRANCH  26  30
HETATM   30  C4  UNL     1     -10.837  -9.275  13.528  1.00  0.00     0.183 C 
BRANCH  30  31
HETATM   31  O3  UNL     1     -10.802  -9.881  14.833  1.00  0.00    -0.390 OA
HETATM   32  H7  UNL     1     -10.420 -10.776  14.701  1.00  0.00     0.210 HD
ENDBRANCH  30  31
BRANCH  30  33
HETATM   33  C5  UNL     1      -9.516  -9.625  12.784  1.00  0.00     0.103 C 
HETATM   34  C6  UNL     1      -8.594 -10.514  13.625  1.00  0.00     0.051 C 
BRANCH  33  35
HETATM   35  O4  UNL     1      -8.832  -8.361  12.581  1.00  0.00    -0.385 OA
HETATM   36  H11 UNL     1      -8.536  -8.031  13.448  1.00  0.00     0.210 HD
ENDBRANCH  33  35
BRANCH  33  37
HETATM   37  C7  UNL     1      -9.707 -10.258  11.382  1.00  0.00     0.204 C 
BRANCH  37  38
HETATM   38  O5  UNL     1      -8.848 -11.372  11.138  1.00  0.00    -0.398 OA
HETATM   39  H14 UNL     1      -7.941 -11.079  11.371  1.00  0.00     0.209 HD
ENDBRANCH  37  38
ENDBRANCH  33  37
ENDBRANCH  30  33
ENDBRANCH  26  30
ENDBRANCH   1  23
BRANCH  20  40
HETATM   40  O8  UNL     1     -15.918  -1.144  11.323  1.00  0.00    -0.395 OA
HETATM   41  H55 UNL     1     -16.315  -0.860  10.482  1.00  0.00     0.210 HD
ENDBRANCH  20  40
BRANCH  14  42
HETATM   42  O6  UNL     1     -16.954   4.116  14.851  1.00  0.00    -0.312 OA
BRANCH  42  43
HETATM   43  C24 UNL     1     -16.465   5.194  14.196  1.00  0.00     0.283 C 
HETATM   44  O7  UNL     1     -17.083   5.937  13.450  1.00  0.00    -0.260 OA
BRANCH  43  45
HETATM   45  C25 UNL     1     -15.053   5.436  14.563  1.00  0.00     0.084 C 
HETATM   46  C26 UNL     1     -14.149   6.200  13.919  1.00  0.00    -0.082 C 
HETATM   47  C27 UNL     1     -14.422   7.036  12.697  1.00  0.00     0.043 C 
HETATM   48  C28 UNL     1     -12.736   6.296  14.430  1.00  0.00     0.043 C 
ENDBRANCH  43  45
ENDBRANCH  42  43
ENDBRANCH  14  42
TORSDOF 12
ENDMDL
MODEL 7
REMARK minimizedAffinity -7.59740305
REMARK CNNscore 0.234063432
REMARK CNNaffinity 7.23674345
REMARK  12 active torsions:
REMARK  status: ('A' for Active; 'I' for Inactive)
REMARK    1  A    between atoms: O1_2  and  C2_3 
REMARK    2  A    between atoms: C3_5  and  C4_6 
REMARK    3  A    between atoms: C4_6  and  O3_7 
REMARK    4  A    between atoms: C4_6  and  C5_8 
REMARK    5  A    between atoms: C5_8  and  O4_10 
REMARK    6  A    between atoms: C5_8  and  C7_11 
REMARK    7  A    between atoms: C7_11  and  O5_12 
REMARK    8  A    between atoms: C9_14  and  C10_15 
REMARK    9  A    between atoms: C23_28  and  O6_29 
REMARK   10  A    between atoms: O6_29  and  C24_30 
REMARK   11  A    between atoms: C24_30  and  C25_32 
REMARK   12  A    between atoms: C34_41  and  O8_42 
ROOT
HETATM    1  C10 UNL     1      -3.139   5.235  14.411  1.00  0.00     0.004 C 
HETATM    2  C11 UNL     1      -3.330   4.231  13.252  1.00  0.00     0.007 C 
HETATM    3  C12 UNL     1      -4.850   4.160  13.030  1.00  0.00     0.011 C 
HETATM    4  C13 UNL     1      -5.389   5.519  13.465  1.00  0.00    -0.021 A 
HETATM    5  C14 UNL     1      -4.674   6.723  12.879  1.00  0.00     0.022 A 
HETATM    6  C15 UNL     1      -4.311   6.209  14.261  1.00  0.00    -0.027 A 
HETATM    7  C16 UNL     1      -4.640   7.109  15.427  1.00  0.00     0.011 C 
HETATM    8  C17 UNL     1      -6.101   7.064  15.889  1.00  0.00     0.007 C 
HETATM    9  C18 UNL     1      -7.097   6.982  14.711  1.00  0.00     0.005 C 
HETATM   10  C19 UNL     1      -8.607   7.365  15.054  1.00  0.00    -0.035 C 
HETATM   11  C20 UNL     1      -9.179   6.503  16.204  1.00  0.00     0.016 C 
HETATM   12  C21 UNL     1      -8.655   8.855  15.520  1.00  0.00     0.012 C 
HETATM   13  C22 UNL     1     -10.066   9.439  15.605  1.00  0.00     0.034 C 
HETATM   14  C23 UNL     1     -10.842   9.301  14.296  1.00  0.00     0.140 C 
HETATM   15  C29 UNL     1     -10.897   7.835  13.761  1.00  0.00    -0.016 C 
HETATM   16  C30 UNL     1     -11.483   7.900  12.322  1.00  0.00     0.018 C 
HETATM   17  C31 UNL     1     -11.877   6.967  14.576  1.00  0.00     0.018 C 
HETATM   18  C32 UNL     1      -9.430   7.268  13.713  1.00  0.00     0.007 C 
HETATM   19  C33 UNL     1      -9.291   5.869  13.061  1.00  0.00     0.038 C 
HETATM   20  C34 UNL     1      -7.830   5.559  12.700  1.00  0.00     0.128 C 
HETATM   21  C35 UNL     1      -6.880   5.622  13.931  1.00  0.00    -0.005 C 
HETATM   22  C36 UNL     1      -7.181   4.386  14.830  1.00  0.00     0.019 C 
ENDROOT
BRANCH   1  23
HETATM   23  C9  UNL     1      -1.782   5.946  14.513  1.00  0.00     0.048 C 
HETATM   24  C2  UNL     1      -0.811   5.761  13.347  1.00  0.00     0.264 C 
HETATM   25  O2  UNL     1       0.197   6.773  13.524  1.00  0.00    -0.353 OA
HETATM   26  C3  UNL     1      -0.313   7.783  14.412  1.00  0.00     0.157 C 
HETATM   27  C8  UNL     1      -1.788   7.459  14.641  1.00  0.00     0.044 C 
BRANCH  24  28
HETATM   28  O1  UNL     1      -1.459   5.939  12.096  1.00  0.00    -0.366 OA
HETATM   29  C1  UNL     1      -0.540   5.940  11.013  1.00  0.00     0.204 C 
ENDBRANCH  24  28
BRANCH  26  30
HETATM   30  C4  UNL     1      -0.056   9.211  13.896  1.00  0.00     0.183 C 
BRANCH  30  31
HETATM   31  O3  UNL     1       0.286   9.191  12.498  1.00  0.00    -0.390 OA
HETATM   32  H7  UNL     1       0.595  10.098  12.287  1.00  0.00     0.210 HD
ENDBRANCH  30  31
BRANCH  30  33
HETATM   33  C5  UNL     1       1.024  10.032  14.659  1.00  0.00     0.103 C 
HETATM   34  C6  UNL     1       1.005   9.756  16.166  1.00  0.00     0.051 C 
BRANCH  33  35
HETATM   35  O4  UNL     1       0.667  11.426  14.468  1.00  0.00    -0.385 OA
HETATM   36  H11 UNL     1      -0.155  11.601  14.959  1.00  0.00     0.210 HD
ENDBRANCH  33  35
BRANCH  33  37
HETATM   37  C7  UNL     1       2.469   9.864  14.120  1.00  0.00     0.204 C 
BRANCH  37  38
HETATM   38  O5  UNL     1       2.744  10.662  12.969  1.00  0.00    -0.398 OA
HETATM   39  H14 UNL     1       2.014  10.495  12.335  1.00  0.00     0.209 HD
ENDBRANCH  37  38
ENDBRANCH  33  37
ENDBRANCH  30  33
ENDBRANCH  26  30
ENDBRANCH   1  23
BRANCH  20  40
HETATM   40  O8  UNL     1      -7.431   6.504  11.701  1.00  0.00    -0.395 OA
HETATM   41  H55 UNL     1      -7.871   6.248  10.872  1.00  0.00     0.210 HD
ENDBRANCH  20  40
BRANCH  14  42
HETATM   42  O6  UNL     1     -12.189   9.775  14.501  1.00  0.00    -0.312 OA
BRANCH  42  43
HETATM   43  C24 UNL     1     -12.451  11.049  14.131  1.00  0.00     0.283 C 
HETATM   44  O7  UNL     1     -11.689  12.001  14.206  1.00  0.00    -0.260 OA
BRANCH  43  45
HETATM   45  C25 UNL     1     -13.793  11.155  13.521  1.00  0.00     0.084 C 
HETATM   46  C26 UNL     1     -14.327  12.209  12.872  1.00  0.00    -0.082 C 
HETATM   47  C27 UNL     1     -13.619  13.503  12.573  1.00  0.00     0.043 C 
HETATM   48  C28 UNL     1     -15.736  12.140  12.346  1.00  0.00     0.043 C 
ENDBRANCH  43  45
ENDBRANCH  42  43
ENDBRANCH  14  42
TORSDOF 12
ENDMDL
MODEL 8
REMARK minimizedAffinity -8.68365479
REMARK CNNscore 0.226902694
REMARK CNNaffinity 6.77381372
REMARK  12 active torsions:
REMARK  status: ('A' for Active; 'I' for Inactive)
REMARK    1  A    between atoms: O1_2  and  C2_3 
REMARK    2  A    between atoms: C3_5  and  C4_6 
REMARK    3  A    between atoms: C4_6  and  O3_7 
REMARK    4  A    between atoms: C4_6  and  C5_8 
REMARK    5  A    between atoms: C5_8  and  O4_10 
REMARK    6  A    between atoms: C5_8  and  C7_11 
REMARK    7  A    between atoms: C7_11  and  O5_12 
REMARK    8  A    between atoms: C9_14  and  C10_15 
REMARK    9  A    between atoms: C23_28  and  O6_29 
REMARK   10  A    between atoms: O6_29  and  C24_30 
REMARK   11  A    between atoms: C24_30  and  C25_32 
REMARK   12  A    between atoms: C34_41  and  O8_42 
ROOT
HETATM    1  C10 UNL     1       3.463  11.050  15.607  1.00  0.00     0.004 C 
HETATM    2  C11 UNL     1       2.841  11.210  17.012  1.00  0.00     0.007 C 
HETATM    3  C12 UNL     1       1.448  10.568  16.909  1.00  0.00     0.011 C 
HETATM    4  C13 UNL     1       1.572   9.496  15.831  1.00  0.00    -0.021 A 
HETATM    5  C14 UNL     1       2.747   8.547  15.985  1.00  0.00     0.022 A 
HETATM    6  C15 UNL     1       2.848   9.754  15.070  1.00  0.00    -0.027 A 
HETATM    7  C16 UNL     1       2.958   9.475  13.591  1.00  0.00     0.011 C 
HETATM    8  C17 UNL     1       1.632   9.162  12.888  1.00  0.00     0.007 C 
HETATM    9  C18 UNL     1       0.700   8.275  13.743  1.00  0.00     0.005 C 
HETATM   10  C19 UNL     1      -0.480   7.549  12.952  1.00  0.00    -0.035 C 
HETATM   11  C20 UNL     1      -1.371   8.555  12.187  1.00  0.00     0.016 C 
HETATM   12  C21 UNL     1       0.142   6.581  11.896  1.00  0.00     0.012 C 
HETATM   13  C22 UNL     1      -0.860   5.613  11.268  1.00  0.00     0.034 C 
HETATM   14  C23 UNL     1      -1.621   4.793  12.309  1.00  0.00     0.140 C 
HETATM   15  C29 UNL     1      -2.325   5.669  13.393  1.00  0.00    -0.016 C 
HETATM   16  C30 UNL     1      -2.826   4.700  14.502  1.00  0.00     0.018 C 
HETATM   17  C31 UNL     1      -3.586   6.360  12.836  1.00  0.00     0.018 C 
HETATM   18  C32 UNL     1      -1.265   6.664  13.994  1.00  0.00     0.007 C 
HETATM   19  C33 UNL     1      -1.766   7.507  15.193  1.00  0.00     0.038 C 
HETATM   20  C34 UNL     1      -0.597   8.148  15.958  1.00  0.00     0.128 C 
HETATM   21  C35 UNL     1       0.285   9.057  15.055  1.00  0.00    -0.005 C 
HETATM   22  C36 UNL     1      -0.532  10.342  14.728  1.00  0.00     0.019 C 
ENDROOT
BRANCH   1  23
HETATM   23  C9  UNL     1       4.996  11.068  15.507  1.00  0.00     0.048 C 
HETATM   24  C2  UNL     1       5.762  11.684  16.679  1.00  0.00     0.264 C 
HETATM   25  O2  UNL     1       7.129  11.272  16.501  1.00  0.00    -0.353 OA
HETATM   26  C3  UNL     1       7.160  10.146  15.605  1.00  0.00     0.157 C 
HETATM   27  C8  UNL     1       5.708   9.734  15.372  1.00  0.00     0.044 C 
BRANCH  24  28
HETATM   28  O1  UNL     1       5.273  11.212  17.926  1.00  0.00    -0.366 OA
HETATM   29  C1  UNL     1       6.189  11.454  18.985  1.00  0.00     0.204 C 
ENDBRANCH  24  28
BRANCH  26  30
HETATM   30  C4  UNL     1       8.063   9.008  16.115  1.00  0.00     0.183 C 
BRANCH  30  31
HETATM   31  O3  UNL     1       8.543   9.297  17.441  1.00  0.00    -0.390 OA
HETATM   32  H7  UNL     1       9.233   8.623  17.627  1.00  0.00     0.210 HD
ENDBRANCH  30  31
BRANCH  30  33
HETATM   33  C5  UNL     1       9.280   8.643  15.216  1.00  0.00     0.103 C 
HETATM   34  C6  UNL     1       8.855   7.946  13.920  1.00  0.00     0.051 C 
BRANCH  33  35
HETATM   35  O4  UNL     1      10.065   7.692  15.982  1.00  0.00    -0.385 OA
HETATM   36  H11 UNL     1       9.560   6.862  16.048  1.00  0.00     0.210 HD
ENDBRANCH  33  35
BRANCH  33  37
HETATM   37  C7  UNL     1      10.220   9.829  14.880  1.00  0.00     0.204 C 
BRANCH  37  38
HETATM   38  O5  UNL     1      11.549   9.427  14.548  1.00  0.00    -0.398 OA
HETATM   39  H14 UNL     1      11.841   8.819  15.261  1.00  0.00     0.209 HD
ENDBRANCH  37  38
ENDBRANCH  33  37
ENDBRANCH  30  33
ENDBRANCH  26  30
ENDBRANCH   1  23
BRANCH  20  40
HETATM   40  O8  UNL     1       0.177   7.081  16.518  1.00  0.00    -0.395 OA
HETATM   41  H55 UNL     1      -0.334   6.715  17.260  1.00  0.00     0.210 HD
ENDBRANCH  20  40
BRANCH  14  42
HETATM   42  O6  UNL     1      -2.615   3.992  11.636  1.00  0.00    -0.312 OA
BRANCH  42  43
HETATM   43  C24 UNL     1      -2.316   2.688  11.436  1.00  0.00     0.283 C 
HETATM   44  O7  UNL     1      -1.201   2.190  11.417  1.00  0.00    -0.260 OA
BRANCH  43  45
HETATM   45  C25 UNL     1      -3.547   1.878  11.318  1.00  0.00     0.084 C 
HETATM   46  C26 UNL     1      -4.819   2.270  11.527  1.00  0.00    -0.082 C 
HETATM   47  C27 UNL     1      -5.260   3.668  11.868  1.00  0.00     0.043 C 
HETATM   48  C28 UNL     1      -5.948   1.282  11.393  1.00  0.00     0.043 C 
ENDBRANCH  43  45
ENDBRANCH  42  43
ENDBRANCH  14  42
TORSDOF 12
ENDMDL
MODEL 9
REMARK minimizedAffinity -7.50822306
REMARK CNNscore 0.219605029
REMARK CNNaffinity 6.09957123
REMARK  12 active torsions:
REMARK  status: ('A' for Active; 'I' for Inactive)
REMARK    1  A    between atoms: O1_2  and  C2_3 
REMARK    2  A    between atoms: C3_5  and  C4_6 
REMARK    3  A    between atoms: C4_6  and  O3_7 
REMARK    4  A    between atoms: C4_6  and  C5_8 
REMARK    5  A    between atoms: C5_8  and  O4_10 
REMARK    6  A    between atoms: C5_8  and  C7_11 
REMARK    7  A    between atoms: C7_11  and  O5_12 
REMARK    8  A    between atoms: C9_14  and  C10_15 
REMARK    9  A    between atoms: C23_28  and  O6_29 
REMARK   10  A    between atoms: O6_29  and  C24_30 
REMARK   11  A    between atoms: C24_30  and  C25_32 
REMARK   12  A    between atoms: C34_41  and  O8_42 
ROOT
HETATM    1  C10 UNL     1      -1.368   7.020  13.433  1.00  0.00     0.004 C 
HETATM    2  C11 UNL     1      -1.988   7.791  12.247  1.00  0.00     0.007 C 
HETATM    3  C12 UNL     1      -2.498   9.111  12.850  1.00  0.00     0.011 C 
HETATM    4  C13 UNL     1      -1.591   9.390  14.044  1.00  0.00    -0.021 A 
HETATM    5  C14 UNL     1      -0.101   9.300  13.768  1.00  0.00     0.022 A 
HETATM    6  C15 UNL     1      -0.845   8.118  14.363  1.00  0.00    -0.027 A 
HETATM    7  C16 UNL     1      -0.494   7.741  15.781  1.00  0.00     0.011 C 
HETATM    8  C17 UNL     1      -1.161   8.596  16.865  1.00  0.00     0.007 C 
HETATM    9  C18 UNL     1      -1.222  10.093  16.490  1.00  0.00     0.005 C 
HETATM   10  C19 UNL     1      -1.488  11.099  17.699  1.00  0.00    -0.035 C 
HETATM   11  C20 UNL     1      -2.789  10.760  18.462  1.00  0.00     0.016 C 
HETATM   12  C21 UNL     1      -0.308  10.986  18.716  1.00  0.00     0.012 C 
HETATM   13  C22 UNL     1      -0.285  12.091  19.772  1.00  0.00     0.034 C 
HETATM   14  C23 UNL     1      -0.283  13.491  19.162  1.00  0.00     0.140 C 
HETATM   15  C29 UNL     1      -1.456  13.730  18.158  1.00  0.00    -0.016 C 
HETATM   16  C30 UNL     1      -1.171  15.081  17.442  1.00  0.00     0.018 C 
HETATM   17  C31 UNL     1      -2.802  13.916  18.888  1.00  0.00     0.018 C 
HETATM   18  C32 UNL     1      -1.457  12.560  17.107  1.00  0.00     0.007 C 
HETATM   19  C33 UNL     1      -2.469  12.724  15.946  1.00  0.00     0.038 C 
HETATM   20  C34 UNL     1      -2.149  11.774  14.781  1.00  0.00     0.128 C 
HETATM   21  C35 UNL     1      -2.137  10.279  15.211  1.00  0.00    -0.005 C 
HETATM   22  C36 UNL     1      -3.608   9.848  15.486  1.00  0.00     0.019 C 
ENDROOT
BRANCH   1  23
HETATM   23  C9  UNL     1      -0.305   5.959  13.108  1.00  0.00     0.048 C 
HETATM   24  C2  UNL     1      -0.805   4.616  12.573  1.00  0.00     0.264 C 
HETATM   25  O2  UNL     1       0.359   3.961  12.038  1.00  0.00    -0.353 OA
HETATM   26  C3  UNL     1       1.385   4.946  11.821  1.00  0.00     0.157 C 
HETATM   27  C8  UNL     1       0.741   6.308  12.066  1.00  0.00     0.044 C 
BRANCH  24  28
HETATM   28  O1  UNL     1      -1.774   4.792  11.550  1.00  0.00    -0.366 OA
HETATM   29  C1  UNL     1      -2.943   4.019  11.783  1.00  0.00     0.204 C 
ENDBRANCH  24  28
BRANCH  26  30
HETATM   30  C4  UNL     1       2.059   4.806  10.443  1.00  0.00     0.183 C 
BRANCH  30  31
HETATM   31  O3  UNL     1       2.582   3.477  10.267  1.00  0.00    -0.390 OA
HETATM   32  H7  UNL     1       3.133   3.514   9.455  1.00  0.00     0.210 HD
ENDBRANCH  30  31
BRANCH  30  33
HETATM   33  C5  UNL     1       3.188   5.829  10.126  1.00  0.00     0.103 C 
HETATM   34  C6  UNL     1       3.011   6.482   8.751  1.00  0.00     0.051 C 
BRANCH  33  35
HETATM   35  O4  UNL     1       4.418   5.058  10.085  1.00  0.00    -0.385 OA
HETATM   36  H11 UNL     1       4.391   4.483   9.300  1.00  0.00     0.210 HD
ENDBRANCH  33  35
BRANCH  33  37
HETATM   37  C7  UNL     1       3.389   6.931  11.199  1.00  0.00     0.204 C 
BRANCH  37  38
HETATM   38  O5  UNL     1       4.556   6.741  11.999  1.00  0.00    -0.398 OA
HETATM   39  H14 UNL     1       4.526   5.813  12.318  1.00  0.00     0.209 HD
ENDBRANCH  37  38
ENDBRANCH  33  37
ENDBRANCH  30  33
ENDBRANCH  26  30
ENDBRANCH   1  23
BRANCH  20  40
HETATM   40  O8  UNL     1      -0.876  12.163  14.255  1.00  0.00    -0.395 OA
HETATM   41  H55 UNL     1      -1.009  12.995  13.768  1.00  0.00     0.210 HD
ENDBRANCH  20  40
BRANCH  14  42
HETATM   42  O6  UNL     1      -0.372  14.464  20.225  1.00  0.00    -0.312 OA
BRANCH  42  43
HETATM   43  C24 UNL     1       0.717  15.236  20.437  1.00  0.00     0.283 C 
HETATM   44  O7  UNL     1       1.851  14.849  20.677  1.00  0.00    -0.260 OA
BRANCH  43  45
HETATM   45  C25 UNL     1       0.391  16.667  20.259  1.00  0.00     0.084 C 
HETATM   46  C26 UNL     1      -0.022  17.545  21.195  1.00  0.00    -0.082 C 
HETATM   47  C27 UNL     1      -0.173  17.253  22.664  1.00  0.00     0.043 C 
HETATM   48  C28 UNL     1      -0.344  18.965  20.812  1.00  0.00     0.043 C 
ENDBRANCH  43  45
ENDBRANCH  42  43
ENDBRANCH  14  42
TORSDOF 12
ENDMDL
