MODEL 1
REMARK minimizedAffinity -7.69985199
REMARK CNNscore 0.74227351
REMARK CNNaffinity 6.88020468
REMARK  7 active torsions:
REMARK  status: ('A' for Active; 'I' for Inactive)
REMARK    1  A    between atoms: C2_2  and  C30_33 
REMARK    2  A    between atoms: C3_3  and  C4_4 
REMARK    3  A    between atoms: C4_4  and  C5_5 
REMARK    4  A    between atoms: C5_5  and  C6_6 
REMARK    5  A    between atoms: C6_6  and  C8_8 
REMARK    6  A    between atoms: C15_15  and  O1_16 
REMARK    7  A    between atoms: C30_33  and  O5_35 
ROOT
HETATM    1  C8  UNL     1       4.022  56.245  -8.250  1.00  0.00    -0.002 C 
HETATM    2  C9  UNL     1       5.071  55.456  -9.067  1.00  0.00     0.007 C 
HETATM    3  C10 UNL     1       4.284  54.432  -9.921  1.00  0.00     0.015 C 
HETATM    4  C11 UNL     1       2.812  54.896  -9.862  1.00  0.00    -0.005 C 
HETATM    5  C12 UNL     1       2.645  56.020 -10.931  1.00  0.00     0.021 C 
HETATM    6  C13 UNL     1       1.660  53.938 -10.145  1.00  0.00     0.002 C 
HETATM    7  C14 UNL     1       0.451  54.085  -9.528  1.00  0.00    -0.032 C 
HETATM    8  C15 UNL     1       0.216  55.211  -8.520  1.00  0.00     0.149 C 
HETATM    9  C16 UNL     1       1.425  56.097  -8.136  1.00  0.00     0.047 C 
HETATM   10  C17 UNL     1       2.748  55.362  -8.351  1.00  0.00    -0.026 C 
HETATM   11  C18 UNL     1       2.815  54.165  -7.357  1.00  0.00     0.016 C 
HETATM   12  C19 UNL     1      -0.679  53.038  -9.741  1.00  0.00    -0.012 C 
HETATM   13  C20 UNL     1      -0.312  51.856  -8.802  1.00  0.00     0.021 C 
HETATM   14  C21 UNL     1      -2.129  53.461  -9.355  1.00  0.00     0.021 C 
HETATM   15  C22 UNL     1      -2.918  54.043 -10.517  1.00  0.00     0.080 C 
HETATM   16  C23 UNL     1      -3.113  52.966 -11.565  1.00  0.00     0.135 C 
HETATM   17  O2  UNL     1      -4.192  52.851 -12.148  1.00  0.00    -0.297 OA
HETATM   18  C24 UNL     1      -1.915  52.046 -11.875  1.00  0.00     0.018 C 
HETATM   19  C25 UNL     1      -2.234  50.648 -11.334  1.00  0.00     0.023 C 
HETATM   20  C26 UNL     1      -1.798  51.954 -13.412  1.00  0.00     0.023 C 
HETATM   21  C27 UNL     1      -0.631  52.700 -11.273  1.00  0.00     0.020 C 
HETATM   22  C28 UNL     1       0.690  52.010 -11.615  1.00  0.00     0.090 C 
HETATM   23  C29 UNL     1       1.874  52.834 -11.145  1.00  0.00     0.157 C 
HETATM   24  O3  UNL     1       2.995  52.589 -11.587  1.00  0.00    -0.293 OA
ENDROOT
BRANCH   1  25
HETATM   25  C6  UNL     1       4.472  56.885  -6.908  1.00  0.00    -0.014 C 
HETATM   26  C7  UNL     1       3.442  57.944  -6.470  1.00  0.00     0.010 C 
BRANCH  25  27
HETATM   27  C5  UNL     1       5.916  57.398  -6.691  1.00  0.00     0.008 C 
BRANCH  27  28
HETATM   28  C4  UNL     1       6.472  57.656  -5.287  1.00  0.00     0.028 C 
BRANCH  28  29
HETATM   29  C3  UNL     1       7.880  58.168  -5.234  1.00  0.00    -0.013 C 
HETATM   30  C2  UNL     1       8.980  57.485  -4.857  1.00  0.00     0.008 C 
HETATM   31  C1  UNL     1       9.004  56.071  -4.363  1.00  0.00     0.055 C 
BRANCH  30  32
HETATM   32  C30 UNL     1      10.271  58.220  -4.920  1.00  0.00     0.171 C 
HETATM   33  O4  UNL     1      10.435  59.380  -5.254  1.00  0.00    -0.646 OA
BRANCH  32  34
HETATM   34  O5  UNL     1      11.312  57.451  -4.562  1.00  0.00    -0.773 OA
HETATM   35  H44 UNL     1      12.080  58.053  -4.653  1.00  0.00     0.167 HD
ENDBRANCH  32  34
ENDBRANCH  30  32
ENDBRANCH  28  29
ENDBRANCH  27  28
ENDBRANCH  25  27
ENDBRANCH   1  25
BRANCH   8  36
HETATM   36  O1  UNL     1      -0.797  56.069  -9.037  1.00  0.00    -0.391 OA
HETATM   37  H22 UNL     1      -0.444  56.485  -9.841  1.00  0.00     0.210 HD
ENDBRANCH   8  36
TORSDOF 7
ENDMDL
MODEL 2
REMARK minimizedAffinity -7.82882881
REMARK CNNscore 0.557539463
REMARK CNNaffinity 6.33396101
REMARK  7 active torsions:
REMARK  status: ('A' for Active; 'I' for Inactive)
REMARK    1  A    between atoms: C2_2  and  C30_33 
REMARK    2  A    between atoms: C3_3  and  C4_4 
REMARK    3  A    between atoms: C4_4  and  C5_5 
REMARK    4  A    between atoms: C5_5  and  C6_6 
REMARK    5  A    between atoms: C6_6  and  C8_8 
REMARK    6  A    between atoms: C15_15  and  O1_16 
REMARK    7  A    between atoms: C30_33  and  O5_35 
ROOT
HETATM    1  C8  UNL     1     -12.761  45.944 -26.365  1.00  0.00    -0.002 C 
HETATM    2  C9  UNL     1     -13.607  45.164 -27.396  1.00  0.00     0.007 C 
HETATM    3  C10 UNL     1     -12.771  45.103 -28.697  1.00  0.00     0.015 C 
HETATM    4  C11 UNL     1     -11.340  45.512 -28.283  1.00  0.00    -0.005 C 
HETATM    5  C12 UNL     1     -10.654  44.238 -27.699  1.00  0.00     0.021 C 
HETATM    6  C13 UNL     1     -10.335  46.046 -29.297  1.00  0.00     0.002 C 
HETATM    7  C14 UNL     1      -9.383  46.955 -28.938  1.00  0.00    -0.032 C 
HETATM    8  C15 UNL     1      -9.300  47.478 -27.502  1.00  0.00     0.149 C 
HETATM    9  C16 UNL     1     -10.402  47.037 -26.511  1.00  0.00     0.047 C 
HETATM   10  C17 UNL     1     -11.689  46.651 -27.240  1.00  0.00    -0.026 C 
HETATM   11  C18 UNL     1     -12.271  47.923 -27.923  1.00  0.00     0.016 C 
HETATM   12  C19 UNL     1      -8.437  47.574 -30.005  1.00  0.00    -0.012 C 
HETATM   13  C20 UNL     1      -9.277  48.686 -30.690  1.00  0.00     0.021 C 
HETATM   14  C21 UNL     1      -7.138  48.269 -29.493  1.00  0.00     0.021 C 
HETATM   15  C22 UNL     1      -5.931  47.345 -29.456  1.00  0.00     0.080 C 
HETATM   16  C23 UNL     1      -5.593  46.924 -30.872  1.00  0.00     0.135 C 
HETATM   17  O2  UNL     1      -4.419  46.860 -31.239  1.00  0.00    -0.297 OA
HETATM   18  C24 UNL     1      -6.763  46.572 -31.811  1.00  0.00     0.018 C 
HETATM   19  C25 UNL     1      -6.874  47.672 -32.872  1.00  0.00     0.023 C 
HETATM   20  C26 UNL     1      -6.394  45.251 -32.523  1.00  0.00     0.023 C 
HETATM   21  C27 UNL     1      -8.045  46.376 -30.939  1.00  0.00     0.020 C 
HETATM   22  C28 UNL     1      -9.281  45.865 -31.680  1.00  0.00     0.090 C 
HETATM   23  C29 UNL     1     -10.398  45.529 -30.710  1.00  0.00     0.157 C 
HETATM   24  O3  UNL     1     -11.342  44.838 -31.090  1.00  0.00    -0.293 OA
ENDROOT
BRANCH   1  25
HETATM   25  C6  UNL     1     -13.504  46.688 -25.221  1.00  0.00    -0.014 C 
HETATM   26  C7  UNL     1     -13.181  46.017 -23.873  1.00  0.00     0.010 C 
BRANCH  25  27
HETATM   27  C5  UNL     1     -15.010  47.035 -25.317  1.00  0.00     0.008 C 
BRANCH  27  28
HETATM   28  C4  UNL     1     -15.957  46.825 -24.131  1.00  0.00     0.028 C 
BRANCH  28  29
HETATM   29  C3  UNL     1     -17.371  46.477 -24.489  1.00  0.00    -0.013 C 
HETATM   30  C2  UNL     1     -18.396  46.263 -23.638  1.00  0.00     0.008 C 
HETATM   31  C1  UNL     1     -18.309  46.285 -22.143  1.00  0.00     0.055 C 
BRANCH  30  32
HETATM   32  C30 UNL     1     -19.714  45.956 -24.252  1.00  0.00     0.171 C 
HETATM   33  O4  UNL     1     -20.227  46.522 -25.201  1.00  0.00    -0.646 OA
BRANCH  32  34
HETATM   34  O5  UNL     1     -20.341  44.942 -23.633  1.00  0.00    -0.773 OA
HETATM   35  H44 UNL     1     -21.179  44.856 -24.132  1.00  0.00     0.167 HD
ENDBRANCH  32  34
ENDBRANCH  30  32
ENDBRANCH  28  29
ENDBRANCH  27  28
ENDBRANCH  25  27
ENDBRANCH   1  25
BRANCH   8  36
HETATM   36  O1  UNL     1      -8.046  47.082 -26.955  1.00  0.00    -0.391 OA
HETATM   37  H22 UNL     1      -8.046  46.111 -26.897  1.00  0.00     0.210 HD
ENDBRANCH   8  36
TORSDOF 7
ENDMDL
MODEL 3
REMARK minimizedAffinity -9.1812315
REMARK CNNscore 0.530713439
REMARK CNNaffinity 7.04540777
REMARK  7 active torsions:
REMARK  status: ('A' for Active; 'I' for Inactive)
REMARK    1  A    between atoms: C2_2  and  C30_33 
REMARK    2  A    between atoms: C3_3  and  C4_4 
REMARK    3  A    between atoms: C4_4  and  C5_5 
REMARK    4  A    between atoms: C5_5  and  C6_6 
REMARK    5  A    between atoms: C6_6  and  C8_8 
REMARK    6  A    between atoms: C15_15  and  O1_16 
REMARK    7  A    between atoms: C30_33  and  O5_35 
ROOT
HETATM    1  C8  UNL     1      -5.091  49.223 -24.726  1.00  0.00    -0.002 C 
HETATM    2  C9  UNL     1      -6.152  49.226 -23.602  1.00  0.00     0.007 C 
HETATM    3  C10 UNL     1      -5.482  49.873 -22.365  1.00  0.00     0.015 C 
HETATM    4  C11 UNL     1      -4.203  50.554 -22.903  1.00  0.00    -0.005 C 
HETATM    5  C12 UNL     1      -4.634  51.938 -23.481  1.00  0.00     0.021 C 
HETATM    6  C13 UNL     1      -3.027  50.881 -21.990  1.00  0.00     0.002 C 
HETATM    7  C14 UNL     1      -1.745  50.872 -22.459  1.00  0.00    -0.032 C 
HETATM    8  C15 UNL     1      -1.445  50.520 -23.917  1.00  0.00     0.149 C 
HETATM    9  C16 UNL     1      -2.626  50.060 -24.803  1.00  0.00     0.047 C 
HETATM   10  C17 UNL     1      -3.759  49.468 -23.964  1.00  0.00    -0.026 C 
HETATM   11  C18 UNL     1      -3.245  48.159 -23.295  1.00  0.00     0.016 C 
HETATM   12  C19 UNL     1      -0.548  51.097 -21.493  1.00  0.00    -0.012 C 
HETATM   13  C20 UNL     1      -0.331  49.727 -20.795  1.00  0.00     0.021 C 
HETATM   14  C21 UNL     1       0.824  51.478 -22.130  1.00  0.00     0.021 C 
HETATM   15  C22 UNL     1       1.054  52.979 -22.218  1.00  0.00     0.080 C 
HETATM   16  C23 UNL     1       1.128  53.546 -20.815  1.00  0.00     0.135 C 
HETATM   17  O2  UNL     1       1.960  54.409 -20.534  1.00  0.00    -0.297 OA
HETATM   18  C24 UNL     1       0.120  53.014 -19.776  1.00  0.00     0.018 C 
HETATM   19  C25 UNL     1       0.886  52.163 -18.758  1.00  0.00     0.023 C 
HETATM   20  C26 UNL     1      -0.463  54.240 -19.039  1.00  0.00     0.023 C 
HETATM   21  C27 UNL     1      -1.012  52.255 -20.540  1.00  0.00     0.020 C 
HETATM   22  C28 UNL     1      -2.193  51.789 -19.688  1.00  0.00     0.090 C 
HETATM   23  C29 UNL     1      -3.310  51.242 -20.556  1.00  0.00     0.157 C 
HETATM   24  O3  UNL     1      -4.434  51.100 -20.078  1.00  0.00    -0.293 OA
ENDROOT
BRANCH   1  25
HETATM   25  C6  UNL     1      -5.211  48.148 -25.841  1.00  0.00    -0.014 C 
HETATM   26  C7  UNL     1      -4.183  48.438 -26.950  1.00  0.00     0.010 C 
BRANCH  25  27
HETATM   27  C5  UNL     1      -6.578  47.749 -26.447  1.00  0.00     0.008 C 
BRANCH  27  28
HETATM   28  C4  UNL     1      -7.496  46.736 -25.754  1.00  0.00     0.028 C 
BRANCH  28  29
HETATM   29  C3  UNL     1      -8.938  47.136 -25.653  1.00  0.00    -0.013 C 
HETATM   30  C2  UNL     1      -9.708  47.655 -26.632  1.00  0.00     0.008 C 
HETATM   31  C1  UNL     1      -9.252  47.984 -28.020  1.00  0.00     0.055 C 
BRANCH  30  32
HETATM   32  C30 UNL     1     -11.123  47.942 -26.280  1.00  0.00     0.171 C 
HETATM   33  O4  UNL     1     -11.889  47.209 -25.680  1.00  0.00    -0.646 OA
BRANCH  32  34
HETATM   34  O5  UNL     1     -11.519  49.152 -26.708  1.00  0.00    -0.773 OA
HETATM   35  H44 UNL     1     -12.452  49.202 -26.415  1.00  0.00     0.167 HD
ENDBRANCH  32  34
ENDBRANCH  30  32
ENDBRANCH  28  29
ENDBRANCH  27  28
ENDBRANCH  25  27
ENDBRANCH   1  25
BRANCH   8  36
HETATM   36  O1  UNL     1      -0.860  51.660 -24.540  1.00  0.00    -0.391 OA
HETATM   37  H22 UNL     1      -1.533  52.361 -24.556  1.00  0.00     0.210 HD
ENDBRANCH   8  36
TORSDOF 7
ENDMDL
MODEL 4
REMARK minimizedAffinity -9.87139893
REMARK CNNscore 0.454555601
REMARK CNNaffinity 6.86197424
REMARK  7 active torsions:
REMARK  status: ('A' for Active; 'I' for Inactive)
REMARK    1  A    between atoms: C2_2  and  C30_33 
REMARK    2  A    between atoms: C3_3  and  C4_4 
REMARK    3  A    between atoms: C4_4  and  C5_5 
REMARK    4  A    between atoms: C5_5  and  C6_6 
REMARK    5  A    between atoms: C6_6  and  C8_8 
REMARK    6  A    between atoms: C15_15  and  O1_16 
REMARK    7  A    between atoms: C30_33  and  O5_35 
ROOT
HETATM    1  C8  UNL     1      -4.983  49.228 -24.824  1.00  0.00    -0.002 C 
HETATM    2  C9  UNL     1      -6.071  49.221 -23.726  1.00  0.00     0.007 C 
HETATM    3  C10 UNL     1      -5.432  49.859 -22.469  1.00  0.00     0.015 C 
HETATM    4  C11 UNL     1      -4.142  50.546 -22.969  1.00  0.00    -0.005 C 
HETATM    5  C12 UNL     1      -4.560  51.934 -23.547  1.00  0.00     0.021 C 
HETATM    6  C13 UNL     1      -2.989  50.866 -22.026  1.00  0.00     0.002 C 
HETATM    7  C14 UNL     1      -1.695  50.862 -22.463  1.00  0.00    -0.032 C 
HETATM    8  C15 UNL     1      -1.360  50.522 -23.916  1.00  0.00     0.149 C 
HETATM    9  C16 UNL     1      -2.518  50.069 -24.835  1.00  0.00     0.047 C 
HETATM   10  C17 UNL     1      -3.670  49.468 -24.028  1.00  0.00    -0.026 C 
HETATM   11  C18 UNL     1      -3.171  48.155 -23.357  1.00  0.00     0.016 C 
HETATM   12  C19 UNL     1      -0.522  51.081 -21.467  1.00  0.00    -0.012 C 
HETATM   13  C20 UNL     1      -0.321  49.706 -20.775  1.00  0.00     0.021 C 
HETATM   14  C21 UNL     1       0.864  51.469 -22.067  1.00  0.00     0.021 C 
HETATM   15  C22 UNL     1       1.094  52.970 -22.137  1.00  0.00     0.080 C 
HETATM   16  C23 UNL     1       1.132  53.526 -20.728  1.00  0.00     0.135 C 
HETATM   17  O2  UNL     1       1.957  54.388 -20.419  1.00  0.00    -0.297 OA
HETATM   18  C24 UNL     1       0.100  52.985 -19.718  1.00  0.00     0.018 C 
HETATM   19  C25 UNL     1       0.843  52.126 -18.689  1.00  0.00     0.023 C 
HETATM   20  C26 UNL     1      -0.502  54.204 -18.985  1.00  0.00     0.023 C 
HETATM   21  C27 UNL     1      -1.011  52.230 -20.516  1.00  0.00     0.020 C 
HETATM   22  C28 UNL     1      -2.212  51.756 -19.696  1.00  0.00     0.090 C 
HETATM   23  C29 UNL     1      -3.307  51.215 -20.596  1.00  0.00     0.157 C 
HETATM   24  O3  UNL     1      -4.442  51.068 -20.146  1.00  0.00    -0.293 OA
ENDROOT
BRANCH   1  25
HETATM   25  C6  UNL     1      -5.074  48.162 -25.951  1.00  0.00    -0.014 C 
HETATM   26  C7  UNL     1      -3.987  48.432 -27.007  1.00  0.00     0.010 C 
BRANCH  25  27
HETATM   27  C5  UNL     1      -6.420  47.800 -26.625  1.00  0.00     0.008 C 
BRANCH  27  28
HETATM   28  C4  UNL     1      -6.471  47.131 -28.002  1.00  0.00     0.028 C 
BRANCH  28  29
HETATM   29  C3  UNL     1      -5.690  47.819 -29.083  1.00  0.00    -0.013 C 
HETATM   30  C2  UNL     1      -5.939  47.791 -30.408  1.00  0.00     0.008 C 
HETATM   31  C1  UNL     1      -7.034  47.016 -31.076  1.00  0.00     0.055 C 
BRANCH  30  32
HETATM   32  C30 UNL     1      -5.026  48.585 -31.271  1.00  0.00     0.171 C 
HETATM   33  O4  UNL     1      -4.599  48.268 -32.367  1.00  0.00    -0.646 OA
BRANCH  32  34
HETATM   34  O5  UNL     1      -4.681  49.755 -30.708  1.00  0.00    -0.773 OA
HETATM   35  H44 UNL     1      -4.088  50.160 -31.374  1.00  0.00     0.167 HD
ENDBRANCH  32  34
ENDBRANCH  30  32
ENDBRANCH  28  29
ENDBRANCH  27  28
ENDBRANCH  25  27
ENDBRANCH   1  25
BRANCH   8  36
HETATM   36  O1  UNL     1      -0.761  51.668 -24.515  1.00  0.00    -0.391 OA
HETATM   37  H22 UNL     1      -1.434  52.369 -24.542  1.00  0.00     0.210 HD
ENDBRANCH   8  36
TORSDOF 7
ENDMDL
MODEL 5
REMARK minimizedAffinity -8.2104454
REMARK CNNscore 0.436380655
REMARK CNNaffinity 6.59095192
REMARK  7 active torsions:
REMARK  status: ('A' for Active; 'I' for Inactive)
REMARK    1  A    between atoms: C2_2  and  C30_33 
REMARK    2  A    between atoms: C3_3  and  C4_4 
REMARK    3  A    between atoms: C4_4  and  C5_5 
REMARK    4  A    between atoms: C5_5  and  C6_6 
REMARK    5  A    between atoms: C6_6  and  C8_8 
REMARK    6  A    between atoms: C15_15  and  O1_16 
REMARK    7  A    between atoms: C30_33  and  O5_35 
ROOT
HETATM    1  C8  UNL     1      -3.898  48.918 -22.667  1.00  0.00    -0.002 C 
HETATM    2  C9  UNL     1      -4.543  48.608 -24.037  1.00  0.00     0.007 C 
HETATM    3  C10 UNL     1      -5.976  48.101 -23.745  1.00  0.00     0.015 C 
HETATM    4  C11 UNL     1      -6.251  48.478 -22.272  1.00  0.00    -0.005 C 
HETATM    5  C12 UNL     1      -6.702  49.971 -22.260  1.00  0.00     0.021 C 
HETATM    6  C13 UNL     1      -7.314  47.761 -21.448  1.00  0.00     0.002 C 
HETATM    7  C14 UNL     1      -7.172  47.596 -20.100  1.00  0.00    -0.032 C 
HETATM    8  C15 UNL     1      -5.932  48.117 -19.372  1.00  0.00     0.149 C 
HETATM    9  C16 UNL     1      -4.797  48.724 -20.230  1.00  0.00     0.047 C 
HETATM   10  C17 UNL     1      -4.822  48.180 -21.659  1.00  0.00    -0.026 C 
HETATM   11  C18 UNL     1      -4.501  46.657 -21.613  1.00  0.00     0.016 C 
HETATM   12  C19 UNL     1      -8.209  46.767 -19.290  1.00  0.00    -0.012 C 
HETATM   13  C20 UNL     1      -7.820  45.285 -19.539  1.00  0.00     0.021 C 
HETATM   14  C21 UNL     1      -8.223  46.955 -17.742  1.00  0.00     0.021 C 
HETATM   15  C22 UNL     1      -9.211  48.011 -17.270  1.00  0.00     0.080 C 
HETATM   16  C23 UNL     1     -10.616  47.551 -17.601  1.00  0.00     0.135 C 
HETATM   17  O2  UNL     1     -11.533  47.719 -16.796  1.00  0.00    -0.297 OA
HETATM   18  C24 UNL     1     -10.846  46.888 -18.974  1.00  0.00     0.018 C 
HETATM   19  C25 UNL     1     -11.125  45.398 -18.745  1.00  0.00     0.023 C 
HETATM   20  C26 UNL     1     -12.114  47.528 -19.582  1.00  0.00     0.023 C 
HETATM   21  C27 UNL     1      -9.604  47.188 -19.873  1.00  0.00     0.020 C 
HETATM   22  C28 UNL     1      -9.717  46.744 -21.332  1.00  0.00     0.090 C 
HETATM   23  C29 UNL     1      -8.546  47.255 -22.150  1.00  0.00     0.157 C 
HETATM   24  O3  UNL     1      -8.618  47.250 -23.378  1.00  0.00    -0.293 OA
ENDROOT
BRANCH   1  25
HETATM   25  C6  UNL     1      -2.350  48.855 -22.556  1.00  0.00    -0.014 C 
HETATM   26  C7  UNL     1      -1.939  47.596 -21.771  1.00  0.00     0.010 C 
BRANCH  25  27
HETATM   27  C5  UNL     1      -1.513  50.079 -22.112  1.00  0.00     0.008 C 
BRANCH  27  28
HETATM   28  C4  UNL     1      -0.584  50.015 -20.894  1.00  0.00     0.028 C 
BRANCH  28  29
HETATM   29  C3  UNL     1      -0.094  51.338 -20.386  1.00  0.00    -0.013 C 
HETATM   30  C2  UNL     1       0.435  52.342 -21.114  1.00  0.00     0.008 C 
HETATM   31  C1  UNL     1       0.686  52.314 -22.591  1.00  0.00     0.055 C 
BRANCH  30  32
HETATM   32  C30 UNL     1       0.821  53.570 -20.369  1.00  0.00     0.171 C 
HETATM   33  O4  UNL     1       1.541  54.468 -20.767  1.00  0.00    -0.646 OA
BRANCH  32  34
HETATM   34  O5  UNL     1       0.282  53.610 -19.140  1.00  0.00    -0.773 OA
HETATM   35  H44 UNL     1       0.618  54.454 -18.773  1.00  0.00     0.167 HD
ENDBRANCH  32  34
ENDBRANCH  30  32
ENDBRANCH  28  29
ENDBRANCH  27  28
ENDBRANCH  25  27
ENDBRANCH   1  25
BRANCH   8  36
HETATM   36  O1  UNL     1      -6.346  49.114 -18.442  1.00  0.00    -0.391 OA
HETATM   37  H22 UNL     1      -6.702  49.860 -18.953  1.00  0.00     0.210 HD
ENDBRANCH   8  36
TORSDOF 7
ENDMDL
MODEL 6
REMARK minimizedAffinity -7.61527872
REMARK CNNscore 0.41388154
REMARK CNNaffinity 6.73963213
REMARK  7 active torsions:
REMARK  status: ('A' for Active; 'I' for Inactive)
REMARK    1  A    between atoms: C2_2  and  C30_33 
REMARK    2  A    between atoms: C3_3  and  C4_4 
REMARK    3  A    between atoms: C4_4  and  C5_5 
REMARK    4  A    between atoms: C5_5  and  C6_6 
REMARK    5  A    between atoms: C6_6  and  C8_8 
REMARK    6  A    between atoms: C15_15  and  O1_16 
REMARK    7  A    between atoms: C30_33  and  O5_35 
ROOT
HETATM    1  C8  UNL     1      -3.994  48.778 -20.732  1.00  0.00    -0.002 C 
HETATM    2  C9  UNL     1      -2.839  49.107 -19.758  1.00  0.00     0.007 C 
HETATM    3  C10 UNL     1      -1.813  49.946 -20.558  1.00  0.00     0.015 C 
HETATM    4  C11 UNL     1      -2.558  50.391 -21.836  1.00  0.00    -0.005 C 
HETATM    5  C12 UNL     1      -3.398  51.651 -21.459  1.00  0.00     0.021 C 
HETATM    6  C13 UNL     1      -1.806  50.808 -23.095  1.00  0.00     0.002 C 
HETATM    7  C14 UNL     1      -2.333  50.595 -24.337  1.00  0.00    -0.032 C 
HETATM    8  C15 UNL     1      -3.694  49.918 -24.505  1.00  0.00     0.149 C 
HETATM    9  C16 UNL     1      -4.391  49.377 -23.234  1.00  0.00     0.047 C 
HETATM   10  C17 UNL     1      -3.380  49.071 -22.129  1.00  0.00    -0.026 C 
HETATM   11  C18 UNL     1      -2.472  47.898 -22.601  1.00  0.00     0.016 C 
HETATM   12  C19 UNL     1      -1.509  50.923 -25.613  1.00  0.00    -0.012 C 
HETATM   13  C20 UNL     1      -0.543  49.720 -25.788  1.00  0.00     0.021 C 
HETATM   14  C21 UNL     1      -2.290  51.047 -26.957  1.00  0.00     0.021 C 
HETATM   15  C22 UNL     1      -2.715  52.471 -27.281  1.00  0.00     0.080 C 
HETATM   16  C23 UNL     1      -1.476  53.316 -27.494  1.00  0.00     0.135 C 
HETATM   17  O2  UNL     1      -1.437  54.149 -28.400  1.00  0.00    -0.297 OA
HETATM   18  C24 UNL     1      -0.291  53.101 -26.531  1.00  0.00     0.018 C 
HETATM   19  C25 UNL     1       0.843  52.427 -27.311  1.00  0.00     0.023 C 
HETATM   20  C26 UNL     1       0.194  54.499 -26.086  1.00  0.00     0.023 C 
HETATM   21  C27 UNL     1      -0.806  52.291 -25.298  1.00  0.00     0.020 C 
HETATM   22  C28 UNL     1       0.193  52.114 -24.154  1.00  0.00     0.090 C 
HETATM   23  C29 UNL     1      -0.471  51.488 -22.942  1.00  0.00     0.157 C 
HETATM   24  O3  UNL     1       0.090  51.543 -21.849  1.00  0.00    -0.293 OA
ENDROOT
BRANCH   1  25
HETATM   25  C6  UNL     1      -4.840  47.504 -20.459  1.00  0.00    -0.014 C 
HETATM   26  C7  UNL     1      -6.049  47.474 -21.411  1.00  0.00     0.010 C 
BRANCH  25  27
HETATM   27  C5  UNL     1      -5.255  47.092 -19.026  1.00  0.00     0.008 C 
BRANCH  27  28
HETATM   28  C4  UNL     1      -6.059  48.034 -18.123  1.00  0.00     0.028 C 
BRANCH  28  29
HETATM   29  C3  UNL     1      -7.320  47.458 -17.550  1.00  0.00    -0.013 C 
HETATM   30  C2  UNL     1      -8.542  48.027 -17.541  1.00  0.00     0.008 C 
HETATM   31  C1  UNL     1      -8.876  49.390 -18.066  1.00  0.00     0.055 C 
BRANCH  30  32
HETATM   32  C30 UNL     1      -9.640  47.232 -16.931  1.00  0.00     0.171 C 
HETATM   33  O4  UNL     1      -9.546  46.454 -15.998  1.00  0.00    -0.646 OA
BRANCH  32  34
HETATM   34  O5  UNL     1     -10.821  47.448 -17.532  1.00  0.00    -0.773 OA
HETATM   35  H44 UNL     1     -11.436  46.868 -17.038  1.00  0.00     0.167 HD
ENDBRANCH  32  34
ENDBRANCH  30  32
ENDBRANCH  28  29
ENDBRANCH  27  28
ENDBRANCH  25  27
ENDBRANCH   1  25
BRANCH   8  36
HETATM   36  O1  UNL     1      -4.582  50.848 -25.118  1.00  0.00    -0.391 OA
HETATM   37  H22 UNL     1      -4.713  51.582 -24.495  1.00  0.00     0.210 HD
ENDBRANCH   8  36
TORSDOF 7
ENDMDL
MODEL 7
REMARK minimizedAffinity -7.60068464
REMARK CNNscore 0.410661668
REMARK CNNaffinity 5.89685678
REMARK  7 active torsions:
REMARK  status: ('A' for Active; 'I' for Inactive)
REMARK    1  A    between atoms: C2_2  and  C30_33 
REMARK    2  A    between atoms: C3_3  and  C4_4 
REMARK    3  A    between atoms: C4_4  and  C5_5 
REMARK    4  A    between atoms: C5_5  and  C6_6 
REMARK    5  A    between atoms: C6_6  and  C8_8 
REMARK    6  A    between atoms: C15_15  and  O1_16 
REMARK    7  A    between atoms: C30_33  and  O5_35 
ROOT
HETATM    1  C8  UNL     1     -10.442  44.929 -27.890  1.00  0.00    -0.002 C 
HETATM    2  C9  UNL     1     -10.713  43.691 -28.775  1.00  0.00     0.007 C 
HETATM    3  C10 UNL     1     -12.196  43.309 -28.556  1.00  0.00     0.015 C 
HETATM    4  C11 UNL     1     -12.834  44.530 -27.856  1.00  0.00    -0.005 C 
HETATM    5  C12 UNL     1     -13.192  45.559 -28.973  1.00  0.00     0.021 C 
HETATM    6  C13 UNL     1     -14.116  44.404 -27.040  1.00  0.00     0.002 C 
HETATM    7  C14 UNL     1     -14.348  45.208 -25.961  1.00  0.00    -0.032 C 
HETATM    8  C15 UNL     1     -13.321  46.256 -25.528  1.00  0.00     0.149 C 
HETATM    9  C16 UNL     1     -11.968  46.289 -26.276  1.00  0.00     0.047 C 
HETATM   10  C17 UNL     1     -11.640  44.932 -26.900  1.00  0.00    -0.026 C 
HETATM   11  C18 UNL     1     -11.423  43.901 -25.753  1.00  0.00     0.016 C 
HETATM   12  C19 UNL     1     -15.606  44.996 -25.072  1.00  0.00    -0.012 C 
HETATM   13  C20 UNL     1     -15.243  43.807 -24.141  1.00  0.00     0.021 C 
HETATM   14  C21 UNL     1     -16.023  46.167 -24.132  1.00  0.00     0.021 C 
HETATM   15  C22 UNL     1     -17.043  47.108 -24.754  1.00  0.00     0.080 C 
HETATM   16  C23 UNL     1     -18.332  46.347 -24.991  1.00  0.00     0.135 C 
HETATM   17  O2  UNL     1     -19.420  46.874 -24.759  1.00  0.00    -0.297 OA
HETATM   18  C24 UNL     1     -18.221  44.911 -25.541  1.00  0.00     0.018 C 
HETATM   19  C25 UNL     1     -18.629  43.939 -24.429  1.00  0.00     0.023 C 
HETATM   20  C26 UNL     1     -19.244  44.784 -26.692  1.00  0.00     0.023 C 
HETATM   21  C27 UNL     1     -16.770  44.708 -26.084  1.00  0.00     0.020 C 
HETATM   22  C28 UNL     1     -16.512  43.391 -26.817  1.00  0.00     0.090 C 
HETATM   23  C29 UNL     1     -15.140  43.386 -27.464  1.00  0.00     0.157 C 
HETATM   24  O3  UNL     1     -14.881  42.549 -28.328  1.00  0.00    -0.293 OA
ENDROOT
BRANCH   1  25
HETATM   25  C6  UNL     1      -8.985  45.183 -27.414  1.00  0.00    -0.014 C 
HETATM   26  C7  UNL     1      -8.408  43.892 -26.805  1.00  0.00     0.010 C 
BRANCH  25  27
HETATM   27  C5  UNL     1      -8.611  46.415 -26.554  1.00  0.00     0.008 C 
BRANCH  27  28
HETATM   28  C4  UNL     1      -7.238  47.084 -26.669  1.00  0.00     0.028 C 
BRANCH  28  29
HETATM   29  C3  UNL     1      -6.780  47.382 -28.067  1.00  0.00    -0.013 C 
HETATM   30  C2  UNL     1      -5.589  47.890 -28.441  1.00  0.00     0.008 C 
HETATM   31  C1  UNL     1      -4.487  48.308 -27.515  1.00  0.00     0.055 C 
BRANCH  30  32
HETATM   32  C30 UNL     1      -5.372  48.067 -29.901  1.00  0.00     0.171 C 
HETATM   33  O4  UNL     1      -4.715  47.349 -30.633  1.00  0.00    -0.646 OA
BRANCH  32  34
HETATM   34  O5  UNL     1      -5.995  49.156 -30.380  1.00  0.00    -0.773 OA
HETATM   35  H44 UNL     1      -5.765  49.147 -31.332  1.00  0.00     0.167 HD
ENDBRANCH  32  34
ENDBRANCH  30  32
ENDBRANCH  28  29
ENDBRANCH  27  28
ENDBRANCH  25  27
ENDBRANCH   1  25
BRANCH   8  36
HETATM   36  O1  UNL     1     -13.915  47.544 -25.660  1.00  0.00    -0.391 OA
HETATM   37  H22 UNL     1     -14.082  47.693 -26.606  1.00  0.00     0.210 HD
ENDBRANCH   8  36
TORSDOF 7
ENDMDL
MODEL 8
REMARK minimizedAffinity -8.72717381
REMARK CNNscore 0.40840441
REMARK CNNaffinity 6.58362055
REMARK  7 active torsions:
REMARK  status: ('A' for Active; 'I' for Inactive)
REMARK    1  A    between atoms: C2_2  and  C30_33 
REMARK    2  A    between atoms: C3_3  and  C4_4 
REMARK    3  A    between atoms: C4_4  and  C5_5 
REMARK    4  A    between atoms: C5_5  and  C6_6 
REMARK    5  A    between atoms: C6_6  and  C8_8 
REMARK    6  A    between atoms: C15_15  and  O1_16 
REMARK    7  A    between atoms: C30_33  and  O5_35 
ROOT
HETATM    1  C8  UNL     1      -2.395  50.331 -23.078  1.00  0.00    -0.002 C 
HETATM    2  C9  UNL     1      -1.912  51.762 -23.408  1.00  0.00     0.007 C 
HETATM    3  C10 UNL     1      -1.218  52.297 -22.132  1.00  0.00     0.015 C 
HETATM    4  C11 UNL     1      -0.987  51.056 -21.241  1.00  0.00    -0.005 C 
HETATM    5  C12 UNL     1       0.318  50.368 -21.747  1.00  0.00     0.021 C 
HETATM    6  C13 UNL     1      -0.784  51.180 -19.735  1.00  0.00     0.002 C 
HETATM    7  C14 UNL     1      -1.197  50.197 -18.883  1.00  0.00    -0.032 C 
HETATM    8  C15 UNL     1      -1.891  48.941 -19.412  1.00  0.00     0.149 C 
HETATM    9  C16 UNL     1      -2.215  48.880 -20.923  1.00  0.00     0.047 C 
HETATM   10  C17 UNL     1      -2.336  50.280 -21.526  1.00  0.00    -0.026 C 
HETATM   11  C18 UNL     1      -3.573  50.984 -20.894  1.00  0.00     0.016 C 
HETATM   12  C19 UNL     1      -1.084  50.385 -17.343  1.00  0.00    -0.012 C 
HETATM   13  C20 UNL     1      -2.302  51.269 -16.957  1.00  0.00     0.021 C 
HETATM   14  C21 UNL     1      -1.182  49.106 -16.457  1.00  0.00     0.021 C 
HETATM   15  C22 UNL     1       0.170  48.488 -16.136  1.00  0.00     0.080 C 
HETATM   16  C23 UNL     1       0.967  49.462 -15.293  1.00  0.00     0.135 C 
HETATM   17  O2  UNL     1       1.639  49.060 -14.343  1.00  0.00    -0.297 OA
HETATM   18  C24 UNL     1       0.911  50.953 -15.682  1.00  0.00     0.018 C 
HETATM   19  C25 UNL     1       0.116  51.699 -14.604  1.00  0.00     0.023 C 
HETATM   20  C26 UNL     1       2.363  51.483 -15.664  1.00  0.00     0.023 C 
HETATM   21  C27 UNL     1       0.315  51.059 -17.122  1.00  0.00     0.020 C 
HETATM   22  C28 UNL     1       0.328  52.455 -17.745  1.00  0.00     0.090 C 
HETATM   23  C29 UNL     1      -0.090  52.406 -19.203  1.00  0.00     0.157 C 
HETATM   24  O3  UNL     1       0.143  53.369 -19.932  1.00  0.00    -0.293 OA
ENDROOT
BRANCH   1  25
HETATM   25  C6  UNL     1      -3.606  49.767 -23.871  1.00  0.00    -0.014 C 
HETATM   26  C7  UNL     1      -3.984  48.380 -23.319  1.00  0.00     0.010 C 
BRANCH  25  27
HETATM   27  C5  UNL     1      -3.642  49.773 -25.419  1.00  0.00     0.008 C 
BRANCH  27  28
HETATM   28  C4  UNL     1      -3.287  48.523 -26.232  1.00  0.00     0.028 C 
BRANCH  28  29
HETATM   29  C3  UNL     1      -3.929  48.431 -27.585  1.00  0.00    -0.013 C 
HETATM   30  C2  UNL     1      -5.189  48.037 -27.861  1.00  0.00     0.008 C 
HETATM   31  C1  UNL     1      -6.196  47.563 -26.859  1.00  0.00     0.055 C 
BRANCH  30  32
HETATM   32  C30 UNL     1      -5.592  48.060 -29.292  1.00  0.00     0.171 C 
HETATM   33  O4  UNL     1      -6.691  48.338 -29.736  1.00  0.00    -0.646 OA
BRANCH  32  34
HETATM   34  O5  UNL     1      -4.582  47.722 -30.111  1.00  0.00    -0.773 OA
HETATM   35  H44 UNL     1      -4.986  47.776 -31.001  1.00  0.00     0.167 HD
ENDBRANCH  32  34
ENDBRANCH  30  32
ENDBRANCH  28  29
ENDBRANCH  27  28
ENDBRANCH  25  27
ENDBRANCH   1  25
BRANCH   8  36
HETATM   36  O1  UNL     1      -1.073  47.816 -19.103  1.00  0.00    -0.391 OA
HETATM   37  H22 UNL     1      -0.246  47.909 -19.606  1.00  0.00     0.210 HD
ENDBRANCH   8  36
TORSDOF 7
ENDMDL
MODEL 9
REMARK minimizedAffinity -7.95863247
REMARK CNNscore 0.345910847
REMARK CNNaffinity 6.48358345
REMARK  7 active torsions:
REMARK  status: ('A' for Active; 'I' for Inactive)
REMARK    1  A    between atoms: C2_2  and  C30_33 
REMARK    2  A    between atoms: C3_3  and  C4_4 
REMARK    3  A    between atoms: C4_4  and  C5_5 
REMARK    4  A    between atoms: C5_5  and  C6_6 
REMARK    5  A    between atoms: C6_6  and  C8_8 
REMARK    6  A    between atoms: C15_15  and  O1_16 
REMARK    7  A    between atoms: C30_33  and  O5_35 
ROOT
HETATM    1  C8  UNL     1      -3.067  49.208 -21.716  1.00  0.00    -0.002 C 
HETATM    2  C9  UNL     1      -3.652  49.336 -23.141  1.00  0.00     0.007 C 
HETATM    3  C10 UNL     1      -5.146  48.947 -23.041  1.00  0.00     0.015 C 
HETATM    4  C11 UNL     1      -5.473  48.966 -21.531  1.00  0.00    -0.005 C 
HETATM    5  C12 UNL     1      -5.762  50.451 -21.147  1.00  0.00     0.021 C 
HETATM    6  C13 UNL     1      -6.658  48.195 -20.959  1.00  0.00     0.002 C 
HETATM    7  C14 UNL     1      -6.621  47.678 -19.696  1.00  0.00    -0.032 C 
HETATM    8  C15 UNL     1      -5.381  47.845 -18.816  1.00  0.00     0.149 C 
HETATM    9  C16 UNL     1      -4.135  48.509 -19.446  1.00  0.00     0.047 C 
HETATM   10  C17 UNL     1      -4.127  48.354 -20.967  1.00  0.00    -0.026 C 
HETATM   11  C18 UNL     1      -3.973  46.843 -21.309  1.00  0.00     0.016 C 
HETATM   12  C19 UNL     1      -7.790  46.800 -19.166  1.00  0.00    -0.012 C 
HETATM   13  C20 UNL     1      -7.546  45.394 -19.779  1.00  0.00     0.021 C 
HETATM   14  C21 UNL     1      -7.884  46.588 -17.624  1.00  0.00     0.021 C 
HETATM   15  C22 UNL     1      -8.781  47.600 -16.928  1.00  0.00     0.080 C 
HETATM   16  C23 UNL     1     -10.203  47.410 -17.415  1.00  0.00     0.135 C 
HETATM   17  O2  UNL     1     -11.147  47.476 -16.626  1.00  0.00    -0.297 OA
HETATM   18  C24 UNL     1     -10.414  47.150 -18.921  1.00  0.00     0.018 C 
HETATM   19  C25 UNL     1     -10.864  45.696 -19.097  1.00  0.00     0.023 C 
HETATM   20  C26 UNL     1     -11.564  48.071 -19.385  1.00  0.00     0.023 C 
HETATM   21  C27 UNL     1      -9.092  47.519 -19.668  1.00  0.00     0.020 C 
HETATM   22  C28 UNL     1      -9.158  47.477 -21.195  1.00  0.00     0.090 C 
HETATM   23  C29 UNL     1      -7.889  48.036 -21.811  1.00  0.00     0.157 C 
HETATM   24  O3  UNL     1      -7.882  48.352 -22.999  1.00  0.00    -0.293 OA
ENDROOT
BRANCH   1  25
HETATM   25  C6  UNL     1      -1.544  48.935 -21.572  1.00  0.00    -0.014 C 
HETATM   26  C7  UNL     1      -1.309  47.895 -20.461  1.00  0.00     0.010 C 
BRANCH  25  27
HETATM   27  C5  UNL     1      -0.514  50.086 -21.477  1.00  0.00     0.008 C 
BRANCH  27  28
HETATM   28  C4  UNL     1      -0.895  51.531 -21.817  1.00  0.00     0.028 C 
BRANCH  28  29
HETATM   29  C3  UNL     1      -0.035  52.200 -22.848  1.00  0.00    -0.013 C 
HETATM   30  C2  UNL     1      -0.097  52.040 -24.186  1.00  0.00     0.008 C 
HETATM   31  C1  UNL     1      -1.021  51.112 -24.913  1.00  0.00     0.055 C 
BRANCH  30  32
HETATM   32  C30 UNL     1       0.857  52.843 -24.995  1.00  0.00     0.171 C 
HETATM   33  O4  UNL     1       1.681  52.419 -25.785  1.00  0.00    -0.646 OA
BRANCH  32  34
HETATM   34  O5  UNL     1       0.733  54.161 -24.768  1.00  0.00    -0.773 OA
HETATM   35  H44 UNL     1       1.411  54.556 -25.354  1.00  0.00     0.167 HD
ENDBRANCH  32  34
ENDBRANCH  30  32
ENDBRANCH  28  29
ENDBRANCH  27  28
ENDBRANCH  25  27
ENDBRANCH   1  25
BRANCH   8  36
HETATM   36  O1  UNL     1      -5.746  48.614 -17.673  1.00  0.00    -0.391 OA
HETATM   37  H22 UNL     1      -5.987  49.503 -17.984  1.00  0.00     0.210 HD
ENDBRANCH   8  36
TORSDOF 7
ENDMDL
