MODEL 1
REMARK minimizedAffinity -5.93253469
REMARK CNNscore 0.227857172
REMARK CNNaffinity 5.85475016
REMARK  10 active torsions:
REMARK  status: ('A' for Active; 'I' for Inactive)
REMARK    1  A    between atoms: C16_18  and  C17_19 
REMARK    2  A    between atoms: C26_30  and  C27_31 
REMARK    3  A    between atoms: C27_31  and  O1_33 
REMARK    4  A    between atoms: C30_35  and  C31_36 
REMARK    5  A    between atoms: C31_36  and  O3_38 
REMARK    6  A    between atoms: C37_44  and  O4_45 
REMARK    7  A    between atoms: C41_49  and  C42_50 
REMARK    8  A    between atoms: C41_49  and  C43_52 
REMARK    9  A    between atoms: C42_50  and  O5_51 
REMARK   10  A    between atoms: C43_52  and  O7_54 
ROOT
HETATM    1  C17 UNL     1       2.223  54.866  -8.127  1.00  0.00     0.013 A 
HETATM    2  C18 UNL     1       1.961  55.395  -6.840  1.00  0.00     0.053 A 
HETATM    3  N3  UNL     1       1.307  54.819  -5.775  1.00  0.00    -0.357 N 
HETATM    4  C19 UNL     1       1.267  55.672  -4.697  1.00  0.00     0.038 A 
HETATM    5  C20 UNL     1       1.911  56.838  -5.074  1.00  0.00    -0.020 A 
HETATM    6  C21 UNL     1       2.130  58.031  -4.202  1.00  0.00     0.072 C 
HETATM    7  C22 UNL     1       0.849  58.565  -3.543  1.00  0.00     0.277 C 
HETATM    8  N4  UNL     1       0.012  57.646  -2.759  1.00  0.00     0.096 N 
HETATM    9  C23 UNL     1      -1.298  57.387  -3.377  1.00  0.00     0.277 C 
HETATM   10  C24 UNL     1      -1.804  55.994  -2.961  1.00  0.00     0.016 C 
HETATM   11  C25 UNL     1      -1.679  55.859  -1.434  1.00  0.00     0.015 C 
HETATM   12  C26 UNL     1      -0.185  55.918  -1.044  1.00  0.00     0.049 C 
HETATM   13  C29 UNL     1       0.649  56.391  -2.287  1.00  0.00     0.253 C 
HETATM   14  C30 UNL     1       0.597  55.257  -3.388  1.00  0.00     0.122 C 
HETATM   15  C33 UNL     1      -0.913  54.930  -3.632  1.00  0.00     0.035 C 
HETATM   16  C34 UNL     1       2.346  56.667  -6.429  1.00  0.00    -0.000 A 
HETATM   17  C35 UNL     1       3.040  57.479  -7.344  1.00  0.00     0.017 A 
HETATM   18  C36 UNL     1       3.325  56.995  -8.626  1.00  0.00     0.038 A 
HETATM   19  C37 UNL     1       2.934  55.711  -9.016  1.00  0.00     0.077 A 
HETATM   20  H19 UNL     1       0.898  53.893  -5.795  1.00  0.00     0.166 HD
ENDROOT
BRANCH   1  21
HETATM   21  C16 UNL     1       1.797  53.433  -8.542  1.00  0.00     0.075 C 
HETATM   22  C9  UNL     1       3.068  52.618  -8.954  1.00  0.00     0.025 A 
HETATM   23  C8  UNL     1       3.533  51.744  -9.961  1.00  0.00    -0.020 A 
HETATM   24  N2  UNL     1       4.113  52.696  -8.035  1.00  0.00    -0.358 N 
HETATM   25  C7  UNL     1       2.872  51.156 -11.208  1.00  0.00     0.079 C 
HETATM   26  C15 UNL     1       4.893  51.390  -9.634  1.00  0.00    -0.001 A 
HETATM   27  C6  UNL     1       1.433  51.615 -11.345  1.00  0.00     0.248 C 
HETATM   28  N1  UNL     1       0.685  51.678 -12.622  1.00  0.00     0.094 N 
HETATM   29  C41 UNL     1       0.434  51.114 -10.246  1.00  0.00     0.107 C 
HETATM   30  C4  UNL     1      -0.302  52.795 -12.523  1.00  0.00     0.306 C 
HETATM   31  C5  UNL     1       1.525  51.854 -13.803  1.00  0.00     0.310 C 
HETATM   32  C3  UNL     1      -1.102  52.830 -11.205  1.00  0.00    -0.051 C 
HETATM   33  C2  UNL     1      -2.408  53.162 -11.226  1.00  0.00    -0.026 C 
HETATM   34  C40 UNL     1      -0.333  52.418  -9.921  1.00  0.00     0.039 C 
HETATM   35  C1  UNL     1      -3.349  53.263 -10.068  1.00  0.00     0.036 C 
HETATM   36  C39 UNL     1       0.565  53.626  -9.473  1.00  0.00     0.026 C 
HETATM   37  C10 UNL     1       5.219  52.003  -8.436  1.00  0.00     0.043 A 
HETATM   38  C14 UNL     1       5.871  50.585 -10.258  1.00  0.00     0.014 A 
HETATM   39  C11 UNL     1       6.470  51.869  -7.822  1.00  0.00     0.030 A 
HETATM   40  C12 UNL     1       7.423  51.073  -8.461  1.00  0.00     0.002 A 
HETATM   41  C13 UNL     1       7.130  50.436  -9.663  1.00  0.00     0.001 A 
HETATM   42  H13 UNL     1       4.068  53.241  -7.184  1.00  0.00     0.166 HD
BRANCH  29  43
HETATM   43  C42 UNL     1      -0.528  49.973 -10.746  1.00  0.00     0.186 C 
BRANCH  43  44
HETATM   44  O5  UNL     1      -1.405  50.394 -11.803  1.00  0.00    -0.399 OA
HETATM   45  H51 UNL     1      -1.896  51.184 -11.518  1.00  0.00     0.209 HD
ENDBRANCH  43  44
ENDBRANCH  29  43
BRANCH  29  46
HETATM   46  C43 UNL     1       0.976  50.461  -8.966  1.00  0.00     0.272 C 
HETATM   47  O6  UNL     1       1.911  49.667  -8.945  1.00  0.00    -0.264 OA
BRANCH  46  48
HETATM   48  O7  UNL     1       0.432  50.996  -7.838  1.00  0.00    -0.326 OA
HETATM   49  C44 UNL     1       0.859  50.384  -6.619  1.00  0.00     0.213 C 
ENDBRANCH  46  48
ENDBRANCH  29  46
ENDBRANCH   1  21
BRANCH  19  50
HETATM   50  O4  UNL     1       3.186  55.185 -10.259  1.00  0.00    -0.355 OA
HETATM   51  C38 UNL     1       4.408  55.540 -10.892  1.00  0.00     0.210 C 
ENDBRANCH  19  50
BRANCH  14  52
HETATM   52  C31 UNL     1       1.346  53.985  -2.927  1.00  0.00     0.275 C 
HETATM   53  O2  UNL     1       2.380  54.004  -2.265  1.00  0.00    -0.264 OA
BRANCH  52  54
HETATM   54  O3  UNL     1       0.677  52.846  -3.262  1.00  0.00    -0.326 OA
HETATM   55  C32 UNL     1       0.690  51.835  -2.253  1.00  0.00     0.213 C 
ENDBRANCH  52  54
ENDBRANCH  14  52
BRANCH  12  56
HETATM   56  C27 UNL     1       0.057  56.684   0.274  1.00  0.00     0.120 C 
HETATM   57  C28 UNL     1       0.319  55.857   1.526  1.00  0.00     0.040 C 
BRANCH  56  58
HETATM   58  O1  UNL     1      -1.059  57.544   0.523  1.00  0.00    -0.396 OA
HETATM   59  H34 UNL     1      -1.776  57.000   0.891  1.00  0.00     0.210 HD
ENDBRANCH  56  58
ENDBRANCH  12  56
TORSDOF 10
ENDMDL
MODEL 2
REMARK minimizedAffinity -6.61767149
REMARK CNNscore 0.204182461
REMARK CNNaffinity 6.12711334
REMARK  10 active torsions:
REMARK  status: ('A' for Active; 'I' for Inactive)
REMARK    1  A    between atoms: C16_18  and  C17_19 
REMARK    2  A    between atoms: C26_30  and  C27_31 
REMARK    3  A    between atoms: C27_31  and  O1_33 
REMARK    4  A    between atoms: C30_35  and  C31_36 
REMARK    5  A    between atoms: C31_36  and  O3_38 
REMARK    6  A    between atoms: C37_44  and  O4_45 
REMARK    7  A    between atoms: C41_49  and  C42_50 
REMARK    8  A    between atoms: C41_49  and  C43_52 
REMARK    9  A    between atoms: C42_50  and  O5_51 
REMARK   10  A    between atoms: C43_52  and  O7_54 
ROOT
HETATM    1  C17 UNL     1       1.662  51.022  -6.867  1.00  0.00     0.013 A 
HETATM    2  C18 UNL     1       1.648  52.081  -5.928  1.00  0.00     0.053 A 
HETATM    3  N3  UNL     1       1.432  53.425  -6.129  1.00  0.00    -0.357 N 
HETATM    4  C19 UNL     1       1.500  54.122  -4.945  1.00  0.00     0.038 A 
HETATM    5  C20 UNL     1       1.773  53.204  -3.946  1.00  0.00    -0.020 A 
HETATM    6  C21 UNL     1       1.905  53.516  -2.491  1.00  0.00     0.072 C 
HETATM    7  C22 UNL     1       2.906  54.641  -2.182  1.00  0.00     0.277 C 
HETATM    8  N4  UNL     1       2.755  55.937  -2.857  1.00  0.00     0.096 N 
HETATM    9  C23 UNL     1       3.847  56.231  -3.799  1.00  0.00     0.277 C 
HETATM   10  C24 UNL     1       3.334  57.153  -4.920  1.00  0.00     0.016 C 
HETATM   11  C25 UNL     1       2.585  58.335  -4.282  1.00  0.00     0.015 C 
HETATM   12  C26 UNL     1       1.335  57.801  -3.548  1.00  0.00     0.049 C 
HETATM   13  C29 UNL     1       1.428  56.237  -3.452  1.00  0.00     0.253 C 
HETATM   14  C30 UNL     1       1.289  55.635  -4.907  1.00  0.00     0.122 C 
HETATM   15  C33 UNL     1       2.353  56.354  -5.800  1.00  0.00     0.035 C 
HETATM   16  C34 UNL     1       1.872  51.915  -4.564  1.00  0.00    -0.000 A 
HETATM   17  C35 UNL     1       2.125  50.617  -4.087  1.00  0.00     0.017 A 
HETATM   18  C36 UNL     1       2.143  49.539  -4.979  1.00  0.00     0.038 A 
HETATM   19  C37 UNL     1       1.909  49.728  -6.344  1.00  0.00     0.077 A 
HETATM   20  H19 UNL     1       1.259  53.842  -7.035  1.00  0.00     0.166 HD
ENDROOT
BRANCH   1  21
HETATM   21  C16 UNL     1       1.385  51.244  -8.378  1.00  0.00     0.075 C 
HETATM   22  C9  UNL     1       2.338  52.362  -8.916  1.00  0.00     0.025 A 
HETATM   23  C8  UNL     1       2.324  53.524  -9.718  1.00  0.00    -0.020 A 
HETATM   24  N2  UNL     1       3.675  52.184  -8.567  1.00  0.00    -0.358 N 
HETATM   25  C7  UNL     1       1.213  54.231 -10.498  1.00  0.00     0.079 C 
HETATM   26  C15 UNL     1       3.668  54.046  -9.750  1.00  0.00    -0.001 A 
HETATM   27  C6  UNL     1      -0.110  53.500 -10.370  1.00  0.00     0.248 C 
HETATM   28  N1  UNL     1      -1.441  54.128 -10.536  1.00  0.00     0.094 N 
HETATM   29  C41 UNL     1      -0.184  52.075 -11.020  1.00  0.00     0.107 C 
HETATM   30  C4  UNL     1      -2.405  53.402  -9.656  1.00  0.00     0.306 C 
HETATM   31  C5  UNL     1      -1.471  55.557 -10.241  1.00  0.00     0.310 C 
HETATM   32  C3  UNL     1      -2.309  51.864  -9.730  1.00  0.00    -0.051 C 
HETATM   33  C2  UNL     1      -3.434  51.122  -9.691  1.00  0.00    -0.026 C 
HETATM   34  C40 UNL     1      -0.885  51.271  -9.900  1.00  0.00     0.039 C 
HETATM   35  C1  UNL     1      -3.553  49.632  -9.739  1.00  0.00     0.036 C 
HETATM   36  C39 UNL     1      -0.164  51.305  -8.504  1.00  0.00     0.026 C 
HETATM   37  C10 UNL     1       4.477  53.191  -9.022  1.00  0.00     0.043 A 
HETATM   38  C14 UNL     1       4.265  55.175 -10.354  1.00  0.00     0.014 A 
HETATM   39  C11 UNL     1       5.851  53.396  -8.849  1.00  0.00     0.030 A 
HETATM   40  C12 UNL     1       6.417  54.522  -9.450  1.00  0.00     0.002 A 
HETATM   41  C13 UNL     1       5.637  55.402 -10.195  1.00  0.00     0.001 A 
HETATM   42  H13 UNL     1       4.006  51.412  -8.002  1.00  0.00     0.166 HD
BRANCH  29  43
HETATM   43  C42 UNL     1      -0.999  52.042 -12.366  1.00  0.00     0.186 C 
BRANCH  43  44
HETATM   44  O5  UNL     1      -0.366  52.772 -13.429  1.00  0.00    -0.399 OA
HETATM   45  H51 UNL     1      -0.188  53.682 -13.134  1.00  0.00     0.209 HD
ENDBRANCH  43  44
ENDBRANCH  29  43
BRANCH  29  46
HETATM   46  C43 UNL     1       1.106  51.377 -11.474  1.00  0.00     0.272 C 
HETATM   47  O6  UNL     1       2.028  51.949 -12.048  1.00  0.00    -0.264 OA
BRANCH  46  48
HETATM   48  O7  UNL     1       1.199  50.101 -11.010  1.00  0.00    -0.326 OA
HETATM   49  C44 UNL     1       2.094  49.261 -11.742  1.00  0.00     0.213 C 
ENDBRANCH  46  48
ENDBRANCH  29  46
ENDBRANCH   1  21
BRANCH  19  50
HETATM   50  O4  UNL     1       1.916  48.709  -7.264  1.00  0.00    -0.355 OA
HETATM   51  C38 UNL     1       0.907  47.714  -7.155  1.00  0.00     0.210 C 
ENDBRANCH  19  50
BRANCH  14  52
HETATM   52  C31 UNL     1      -0.128  55.867  -5.483  1.00  0.00     0.275 C 
HETATM   53  O2  UNL     1      -1.068  55.095  -5.316  1.00  0.00    -0.264 OA
BRANCH  52  54
HETATM   54  O3  UNL     1      -0.234  57.068  -6.117  1.00  0.00    -0.326 OA
HETATM   55  C32 UNL     1      -0.164  56.993  -7.542  1.00  0.00     0.213 C 
ENDBRANCH  52  54
ENDBRANCH  14  52
BRANCH  12  56
HETATM   56  C27 UNL     1       1.052  58.552  -2.229  1.00  0.00     0.120 C 
HETATM   57  C28 UNL     1       0.037  59.686  -2.273  1.00  0.00     0.040 C 
BRANCH  56  58
HETATM   58  O1  UNL     1       2.285  59.064  -1.713  1.00  0.00    -0.396 OA
HETATM   59  H34 UNL     1       2.498  59.874  -2.208  1.00  0.00     0.210 HD
ENDBRANCH  56  58
ENDBRANCH  12  56
TORSDOF 10
ENDMDL
MODEL 3
REMARK minimizedAffinity -6.23924398
REMARK CNNscore 0.195876166
REMARK CNNaffinity 6.66813421
REMARK  10 active torsions:
REMARK  status: ('A' for Active; 'I' for Inactive)
REMARK    1  A    between atoms: C16_18  and  C17_19 
REMARK    2  A    between atoms: C26_30  and  C27_31 
REMARK    3  A    between atoms: C27_31  and  O1_33 
REMARK    4  A    between atoms: C30_35  and  C31_36 
REMARK    5  A    between atoms: C31_36  and  O3_38 
REMARK    6  A    between atoms: C37_44  and  O4_45 
REMARK    7  A    between atoms: C41_49  and  C42_50 
REMARK    8  A    between atoms: C41_49  and  C43_52 
REMARK    9  A    between atoms: C42_50  and  O5_51 
REMARK   10  A    between atoms: C43_52  and  O7_54 
ROOT
HETATM    1  C17 UNL     1       6.071  58.851  -4.174  1.00  0.00     0.013 A 
HETATM    2  C18 UNL     1       5.313  57.960  -4.973  1.00  0.00     0.053 A 
HETATM    3  N3  UNL     1       5.740  56.929  -5.778  1.00  0.00    -0.357 N 
HETATM    4  C19 UNL     1       4.677  56.301  -6.385  1.00  0.00     0.038 A 
HETATM    5  C20 UNL     1       3.527  56.946  -5.964  1.00  0.00    -0.020 A 
HETATM    6  C21 UNL     1       2.132  56.576  -6.352  1.00  0.00     0.072 C 
HETATM    7  C22 UNL     1       1.913  56.476  -7.870  1.00  0.00     0.277 C 
HETATM    8  N4  UNL     1       2.792  55.606  -8.663  1.00  0.00     0.096 N 
HETATM    9  C23 UNL     1       3.665  56.350  -9.585  1.00  0.00     0.277 C 
HETATM   10  C24 UNL     1       4.957  55.552  -9.837  1.00  0.00     0.016 C 
HETATM   11  C25 UNL     1       4.582  54.106 -10.197  1.00  0.00     0.015 C 
HETATM   12  C26 UNL     1       3.889  53.447  -8.983  1.00  0.00     0.049 C 
HETATM   13  C29 UNL     1       3.544  54.558  -7.928  1.00  0.00     0.253 C 
HETATM   14  C30 UNL     1       4.894  55.118  -7.327  1.00  0.00     0.122 C 
HETATM   15  C33 UNL     1       5.788  55.545  -8.538  1.00  0.00     0.035 C 
HETATM   16  C34 UNL     1       3.925  57.997  -5.076  1.00  0.00    -0.000 A 
HETATM   17  C35 UNL     1       3.231  58.976  -4.343  1.00  0.00     0.017 A 
HETATM   18  C36 UNL     1       3.940  59.873  -3.537  1.00  0.00     0.038 A 
HETATM   19  C37 UNL     1       5.333  59.814  -3.442  1.00  0.00     0.077 A 
HETATM   20  H19 UNL     1       6.712  56.680  -5.912  1.00  0.00     0.166 HD
ENDROOT
BRANCH   1  21
HETATM   21  C16 UNL     1       7.616  58.764  -4.066  1.00  0.00     0.075 C 
HETATM   22  C9  UNL     1       7.999  58.053  -2.726  1.00  0.00     0.025 A 
HETATM   23  C8  UNL     1       8.883  58.176  -1.631  1.00  0.00    -0.020 A 
HETATM   24  N2  UNL     1       7.310  56.864  -2.499  1.00  0.00    -0.358 N 
HETATM   25  C7  UNL     1       9.978  59.190  -1.294  1.00  0.00     0.079 C 
HETATM   26  C15 UNL     1       8.624  57.073  -0.738  1.00  0.00    -0.001 A 
HETATM   27  C6  UNL     1      10.120  60.240  -2.378  1.00  0.00     0.248 C 
HETATM   28  N1  UNL     1      10.672  61.598  -2.172  1.00  0.00     0.094 N 
HETATM   29  C41 UNL     1      10.634  59.737  -3.772  1.00  0.00     0.107 C 
HETATM   30  C4  UNL     1      10.000  62.520  -3.136  1.00  0.00     0.306 C 
HETATM   31  C5  UNL     1      10.528  62.104  -0.810  1.00  0.00     0.310 C 
HETATM   32  C3  UNL     1       9.905  61.982  -4.578  1.00  0.00    -0.051 C 
HETATM   33  C2  UNL     1      10.082  62.823  -5.617  1.00  0.00    -0.026 C 
HETATM   34  C40 UNL     1       9.656  60.458  -4.730  1.00  0.00     0.039 C 
HETATM   35  C1  UNL     1      10.021  62.504  -7.077  1.00  0.00     0.036 C 
HETATM   36  C39 UNL     1       8.134  60.176  -4.465  1.00  0.00     0.026 C 
HETATM   37  C10 UNL     1       7.640  56.284  -1.308  1.00  0.00     0.043 A 
HETATM   38  C14 UNL     1       9.160  56.676   0.507  1.00  0.00     0.014 A 
HETATM   39  C11 UNL     1       7.147  55.120  -0.705  1.00  0.00     0.030 A 
HETATM   40  C12 UNL     1       7.688  54.751   0.529  1.00  0.00     0.002 A 
HETATM   41  C13 UNL     1       8.683  55.517   1.129  1.00  0.00     0.001 A 
HETATM   42  H13 UNL     1       6.611  56.494  -3.130  1.00  0.00     0.166 HD
BRANCH  29  43
HETATM   43  C42 UNL     1      12.132  60.119  -4.063  1.00  0.00     0.186 C 
BRANCH  43  44
HETATM   44  O5  UNL     1      12.923  59.007  -4.512  1.00  0.00    -0.399 OA
HETATM   45  H51 UNL     1      12.852  58.281  -3.870  1.00  0.00     0.209 HD
ENDBRANCH  43  44
ENDBRANCH  29  43
BRANCH  29  46
HETATM   46  C43 UNL     1      10.682  58.231  -4.067  1.00  0.00     0.272 C 
HETATM   47  O6  UNL     1      11.005  57.381  -3.242  1.00  0.00    -0.264 OA
BRANCH  46  48
HETATM   48  O7  UNL     1      10.153  57.920  -5.283  1.00  0.00    -0.326 OA
HETATM   49  C44 UNL     1       9.980  56.522  -5.520  1.00  0.00     0.213 C 
ENDBRANCH  46  48
ENDBRANCH  29  46
ENDBRANCH   1  21
BRANCH  19  50
HETATM   50  O4  UNL     1       6.079  60.669  -2.669  1.00  0.00    -0.355 OA
HETATM   51  C38 UNL     1       5.505  61.924  -2.330  1.00  0.00     0.210 C 
ENDBRANCH  19  50
BRANCH  14  52
HETATM   52  C31 UNL     1       5.625  54.048  -6.482  1.00  0.00     0.275 C 
HETATM   53  O2  UNL     1       5.204  53.618  -5.412  1.00  0.00    -0.264 OA
BRANCH  52  54
HETATM   54  O3  UNL     1       6.739  53.574  -7.107  1.00  0.00    -0.326 OA
HETATM   55  C32 UNL     1       6.850  52.151  -7.119  1.00  0.00     0.213 C 
ENDBRANCH  52  54
ENDBRANCH  14  52
BRANCH  12  56
HETATM   56  C27 UNL     1       2.734  52.508  -9.391  1.00  0.00     0.120 C 
HETATM   57  C28 UNL     1       2.544  52.239 -10.878  1.00  0.00     0.040 C 
BRANCH  56  58
HETATM   58  O1  UNL     1       1.508  53.023  -8.862  1.00  0.00    -0.396 OA
HETATM   59  H34 UNL     1       1.216  53.746  -9.443  1.00  0.00     0.210 HD
ENDBRANCH  56  58
ENDBRANCH  12  56
TORSDOF 10
ENDMDL
MODEL 4
REMARK minimizedAffinity -5.84269333
REMARK CNNscore 0.164282352
REMARK CNNaffinity 5.86726952
REMARK  10 active torsions:
REMARK  status: ('A' for Active; 'I' for Inactive)
REMARK    1  A    between atoms: C16_18  and  C17_19 
REMARK    2  A    between atoms: C26_30  and  C27_31 
REMARK    3  A    between atoms: C27_31  and  O1_33 
REMARK    4  A    between atoms: C30_35  and  C31_36 
REMARK    5  A    between atoms: C31_36  and  O3_38 
REMARK    6  A    between atoms: C37_44  and  O4_45 
REMARK    7  A    between atoms: C41_49  and  C42_50 
REMARK    8  A    between atoms: C41_49  and  C43_52 
REMARK    9  A    between atoms: C42_50  and  O5_51 
REMARK   10  A    between atoms: C43_52  and  O7_54 
ROOT
HETATM    1  C17 UNL     1       3.062  55.282  -8.260  1.00  0.00     0.013 A 
HETATM    2  C18 UNL     1       2.554  55.538  -6.964  1.00  0.00     0.053 A 
HETATM    3  N3  UNL     1       1.904  54.691  -6.096  1.00  0.00    -0.357 N 
HETATM    4  C19 UNL     1       1.575  55.334  -4.926  1.00  0.00     0.038 A 
HETATM    5  C20 UNL     1       2.023  56.639  -5.038  1.00  0.00    -0.020 A 
HETATM    6  C21 UNL     1       1.905  57.692  -3.985  1.00  0.00     0.072 C 
HETATM    7  C22 UNL     1       0.476  57.882  -3.450  1.00  0.00     0.277 C 
HETATM    8  N4  UNL     1      -0.254  56.716  -2.933  1.00  0.00     0.096 N 
HETATM    9  C23 UNL     1      -1.409  56.342  -3.765  1.00  0.00     0.277 C 
HETATM   10  C24 UNL     1      -1.682  54.833  -3.626  1.00  0.00     0.016 C 
HETATM   11  C25 UNL     1      -1.713  54.472  -2.132  1.00  0.00     0.015 C 
HETATM   12  C26 UNL     1      -0.314  54.721  -1.525  1.00  0.00     0.049 C 
HETATM   13  C29 UNL     1       0.553  55.529  -2.555  1.00  0.00     0.253 C 
HETATM   14  C30 UNL     1       0.849  54.600  -3.800  1.00  0.00     0.122 C 
HETATM   15  C33 UNL     1      -0.531  54.063  -4.304  1.00  0.00     0.035 C 
HETATM   16  C34 UNL     1       2.637  56.773  -6.326  1.00  0.00    -0.000 A 
HETATM   17  C35 UNL     1       3.264  57.831  -7.007  1.00  0.00     0.017 A 
HETATM   18  C36 UNL     1       3.784  57.621  -8.289  1.00  0.00     0.038 A 
HETATM   19  C37 UNL     1       3.697  56.372  -8.908  1.00  0.00     0.077 A 
HETATM   20  H19 UNL     1       1.686  53.724  -6.305  1.00  0.00     0.166 HD
ENDROOT
BRANCH   1  21
HETATM   21  C16 UNL     1       2.971  53.885  -8.930  1.00  0.00     0.075 C 
HETATM   22  C9  UNL     1       1.466  53.505  -9.123  1.00  0.00     0.025 A 
HETATM   23  C8  UNL     1       0.575  52.423  -8.946  1.00  0.00    -0.020 A 
HETATM   24  N2  UNL     1       0.699  54.508  -9.713  1.00  0.00    -0.358 N 
HETATM   25  C7  UNL     1       0.771  50.992  -8.441  1.00  0.00     0.079 C 
HETATM   26  C15 UNL     1      -0.731  52.862  -9.374  1.00  0.00    -0.001 A 
HETATM   27  C6  UNL     1       2.220  50.720  -8.086  1.00  0.00     0.248 C 
HETATM   28  N1  UNL     1       2.675  49.688  -7.126  1.00  0.00     0.094 N 
HETATM   29  C41 UNL     1       3.243  50.732  -9.274  1.00  0.00     0.107 C 
HETATM   30  C4  UNL     1       3.934  50.176  -6.487  1.00  0.00     0.306 C 
HETATM   31  C5  UNL     1       1.692  49.346  -6.101  1.00  0.00     0.310 C 
HETATM   32  C3  UNL     1       4.966  50.763  -7.471  1.00  0.00    -0.051 C 
HETATM   33  C2  UNL     1       6.280  50.524  -7.282  1.00  0.00    -0.026 C 
HETATM   34  C40 UNL     1       4.396  51.567  -8.669  1.00  0.00     0.039 C 
HETATM   35  C1  UNL     1       7.429  51.006  -8.108  1.00  0.00     0.036 C 
HETATM   36  C39 UNL     1       3.987  52.995  -8.158  1.00  0.00     0.026 C 
HETATM   37  C10 UNL     1      -0.615  54.161  -9.838  1.00  0.00     0.043 A 
HETATM   38  C14 UNL     1      -2.003  52.250  -9.415  1.00  0.00     0.014 A 
HETATM   39  C11 UNL     1      -1.698  54.896 -10.336  1.00  0.00     0.030 A 
HETATM   40  C12 UNL     1      -2.947  54.272 -10.360  1.00  0.00     0.002 A 
HETATM   41  C13 UNL     1      -3.101  52.965  -9.907  1.00  0.00     0.001 A 
HETATM   42  H13 UNL     1       1.070  55.411  -9.979  1.00  0.00     0.166 HD
BRANCH  29  43
HETATM   43  C42 UNL     1       3.720  49.295  -9.705  1.00  0.00     0.186 C 
BRANCH  43  44
HETATM   44  O5  UNL     1       4.452  49.288 -10.940  1.00  0.00    -0.399 OA
HETATM   45  H51 UNL     1       3.919  49.717 -11.632  1.00  0.00     0.209 HD
ENDBRANCH  43  44
ENDBRANCH  29  43
BRANCH  29  46
HETATM   46  C43 UNL     1       2.816  51.290 -10.640  1.00  0.00     0.272 C 
HETATM   47  O6  UNL     1       3.430  52.164 -11.244  1.00  0.00    -0.264 OA
BRANCH  46  48
HETATM   48  O7  UNL     1       1.792  50.584 -11.194  1.00  0.00    -0.326 OA
HETATM   49  C44 UNL     1       1.236  51.165 -12.375  1.00  0.00     0.213 C 
ENDBRANCH  46  48
ENDBRANCH  29  46
ENDBRANCH   1  21
BRANCH  19  50
HETATM   50  O4  UNL     1       4.188  56.109 -10.163  1.00  0.00    -0.355 OA
HETATM   51  C38 UNL     1       3.407  56.521 -11.278  1.00  0.00     0.210 C 
ENDBRANCH  19  50
BRANCH  14  52
HETATM   52  C31 UNL     1       1.769  53.417  -3.418  1.00  0.00     0.275 C 
HETATM   53  O2  UNL     1       2.934  53.549  -3.052  1.00  0.00    -0.264 OA
BRANCH  52  54
HETATM   54  O3  UNL     1       1.111  52.225  -3.449  1.00  0.00    -0.326 OA
HETATM   55  C32 UNL     1       1.316  51.407  -2.296  1.00  0.00     0.213 C 
ENDBRANCH  52  54
ENDBRANCH  14  52
BRANCH  12  56
HETATM   56  C27 UNL     1      -0.379  55.289  -0.091  1.00  0.00     0.120 C 
HETATM   57  C28 UNL     1       0.898  55.887   0.484  1.00  0.00     0.040 C 
BRANCH  56  58
HETATM   58  O1  UNL     1      -0.838  54.262   0.794  1.00  0.00    -0.396 OA
HETATM   59  H34 UNL     1      -0.085  53.678   0.986  1.00  0.00     0.210 HD
ENDBRANCH  56  58
ENDBRANCH  12  56
TORSDOF 10
ENDMDL
MODEL 5
REMARK minimizedAffinity -6.96315861
REMARK CNNscore 0.139085799
REMARK CNNaffinity 5.96763182
REMARK  10 active torsions:
REMARK  status: ('A' for Active; 'I' for Inactive)
REMARK    1  A    between atoms: C16_18  and  C17_19 
REMARK    2  A    between atoms: C26_30  and  C27_31 
REMARK    3  A    between atoms: C27_31  and  O1_33 
REMARK    4  A    between atoms: C30_35  and  C31_36 
REMARK    5  A    between atoms: C31_36  and  O3_38 
REMARK    6  A    between atoms: C37_44  and  O4_45 
REMARK    7  A    between atoms: C41_49  and  C42_50 
REMARK    8  A    between atoms: C41_49  and  C43_52 
REMARK    9  A    between atoms: C42_50  and  O5_51 
REMARK   10  A    between atoms: C43_52  and  O7_54 
ROOT
HETATM    1  C17 UNL     1       7.094  67.002 -37.948  1.00  0.00     0.013 A 
HETATM    2  C18 UNL     1       5.699  67.146 -38.146  1.00  0.00     0.053 A 
HETATM    3  N3  UNL     1       5.010  68.118 -38.834  1.00  0.00    -0.357 N 
HETATM    4  C19 UNL     1       3.654  67.892 -38.789  1.00  0.00     0.038 A 
HETATM    5  C20 UNL     1       3.457  66.741 -38.046  1.00  0.00    -0.020 A 
HETATM    6  C21 UNL     1       2.135  66.104 -37.764  1.00  0.00     0.072 C 
HETATM    7  C22 UNL     1       1.097  67.063 -37.160  1.00  0.00     0.277 C 
HETATM    8  N4  UNL     1       0.794  68.320 -37.859  1.00  0.00     0.096 N 
HETATM    9  C23 UNL     1       1.235  69.514 -37.119  1.00  0.00     0.277 C 
HETATM   10  C24 UNL     1       1.543  70.654 -38.108  1.00  0.00     0.016 C 
HETATM   11  C25 UNL     1       0.361  70.796 -39.081  1.00  0.00     0.015 C 
HETATM   12  C26 UNL     1       0.245  69.505 -39.923  1.00  0.00     0.049 C 
HETATM   13  C29 UNL     1       1.166  68.400 -39.294  1.00  0.00     0.253 C 
HETATM   14  C30 UNL     1       2.674  68.834 -39.485  1.00  0.00     0.122 C 
HETATM   15  C33 UNL     1       2.808  70.281 -38.906  1.00  0.00     0.035 C 
HETATM   16  C34 UNL     1       4.746  66.270 -37.634  1.00  0.00    -0.000 A 
HETATM   17  C35 UNL     1       5.192  65.172 -36.877  1.00  0.00     0.017 A 
HETATM   18  C36 UNL     1       6.562  64.988 -36.661  1.00  0.00     0.038 A 
HETATM   19  C37 UNL     1       7.503  65.876 -37.189  1.00  0.00     0.077 A 
HETATM   20  H19 UNL     1       5.450  68.903 -39.298  1.00  0.00     0.166 HD
ENDROOT
BRANCH   1  21
HETATM   21  C16 UNL     1       8.128  67.987 -38.554  1.00  0.00     0.075 C 
HETATM   22  C9  UNL     1       8.203  69.268 -37.658  1.00  0.00     0.025 A 
HETATM   23  C8  UNL     1       8.228  70.676 -37.756  1.00  0.00    -0.020 A 
HETATM   24  N2  UNL     1       8.348  69.001 -36.298  1.00  0.00    -0.358 N 
HETATM   25  C7  UNL     1       8.205  71.631 -38.952  1.00  0.00     0.079 C 
HETATM   26  C15 UNL     1       8.309  71.204 -36.416  1.00  0.00    -0.001 A 
HETATM   27  C6  UNL     1       8.163  70.878 -40.267  1.00  0.00     0.248 C 
HETATM   28  N1  UNL     1       7.632  71.424 -41.536  1.00  0.00     0.094 N 
HETATM   29  C41 UNL     1       9.431  70.026 -40.623  1.00  0.00     0.107 C 
HETATM   30  C4  UNL     1       7.069  70.289 -42.327  1.00  0.00     0.306 C 
HETATM   31  C5  UNL     1       6.623  72.466 -41.367  1.00  0.00     0.310 C 
HETATM   32  C3  UNL     1       7.973  69.041 -42.391  1.00  0.00    -0.051 C 
HETATM   33  C2  UNL     1       8.059  68.336 -43.537  1.00  0.00    -0.026 C 
HETATM   34  C40 UNL     1       8.781  68.709 -41.108  1.00  0.00     0.039 C 
HETATM   35  C1  UNL     1       8.863  67.103 -43.799  1.00  0.00     0.036 C 
HETATM   36  C39 UNL     1       7.813  68.024 -40.077  1.00  0.00     0.026 C 
HETATM   37  C10 UNL     1       8.377  70.135 -35.539  1.00  0.00     0.043 A 
HETATM   38  C14 UNL     1       8.343  72.509 -35.879  1.00  0.00     0.014 A 
HETATM   39  C11 UNL     1       8.469  70.287 -34.150  1.00  0.00     0.030 A 
HETATM   40  C12 UNL     1       8.495  71.589 -33.643  1.00  0.00     0.002 A 
HETATM   41  C13 UNL     1       8.434  72.688 -34.494  1.00  0.00     0.001 A 
HETATM   42  H13 UNL     1       8.385  68.065 -35.914  1.00  0.00     0.166 HD
BRANCH  29  43
HETATM   43  C42 UNL     1      10.335  70.680 -41.732  1.00  0.00     0.186 C 
BRANCH  43  44
HETATM   44  O5  UNL     1      10.679  72.046 -41.450  1.00  0.00    -0.399 OA
HETATM   45  H51 UNL     1       9.867  72.557 -41.296  1.00  0.00     0.209 HD
ENDBRANCH  43  44
ENDBRANCH  29  43
BRANCH  29  46
HETATM   46  C43 UNL     1      10.491  69.752 -39.545  1.00  0.00     0.272 C 
HETATM   47  O6  UNL     1      10.948  68.640 -39.302  1.00  0.00    -0.264 OA
BRANCH  46  48
HETATM   48  O7  UNL     1      11.004  70.898 -39.016  1.00  0.00    -0.326 OA
HETATM   49  C44 UNL     1      12.370  70.808 -38.607  1.00  0.00     0.213 C 
ENDBRANCH  46  48
ENDBRANCH  29  46
ENDBRANCH   1  21
BRANCH  19  50
HETATM   50  O4  UNL     1       8.857  65.745 -37.008  1.00  0.00    -0.355 OA
HETATM   51  C38 UNL     1       9.322  64.602 -36.302  1.00  0.00     0.210 C 
ENDBRANCH  19  50
BRANCH  14  52
HETATM   52  C31 UNL     1       3.081  68.822 -40.977  1.00  0.00     0.275 C 
HETATM   53  O2  UNL     1       2.763  67.935 -41.765  1.00  0.00    -0.264 OA
BRANCH  52  54
HETATM   54  O3  UNL     1       3.754  69.952 -41.335  1.00  0.00    -0.326 OA
HETATM   55  C32 UNL     1       3.409  70.463 -42.623  1.00  0.00     0.213 C 
ENDBRANCH  52  54
ENDBRANCH  14  52
BRANCH  12  56
HETATM   56  C27 UNL     1      -1.220  69.101 -40.196  1.00  0.00     0.120 C 
HETATM   57  C28 UNL     1      -1.775  69.380 -41.586  1.00  0.00     0.040 C 
BRANCH  56  58
HETATM   58  O1  UNL     1      -2.065  69.740 -39.233  1.00  0.00    -0.396 OA
HETATM   59  H34 UNL     1      -2.194  70.660 -39.517  1.00  0.00     0.210 HD
ENDBRANCH  56  58
ENDBRANCH  12  56
TORSDOF 10
ENDMDL
MODEL 6
REMARK minimizedAffinity -7.23579741
REMARK CNNscore 0.11443565
REMARK CNNaffinity 7.02497673
REMARK  10 active torsions:
REMARK  status: ('A' for Active; 'I' for Inactive)
REMARK    1  A    between atoms: C16_18  and  C17_19 
REMARK    2  A    between atoms: C26_30  and  C27_31 
REMARK    3  A    between atoms: C27_31  and  O1_33 
REMARK    4  A    between atoms: C30_35  and  C31_36 
REMARK    5  A    between atoms: C31_36  and  O3_38 
REMARK    6  A    between atoms: C37_44  and  O4_45 
REMARK    7  A    between atoms: C41_49  and  C42_50 
REMARK    8  A    between atoms: C41_49  and  C43_52 
REMARK    9  A    between atoms: C42_50  and  O5_51 
REMARK   10  A    between atoms: C43_52  and  O7_54 
ROOT
HETATM    1  C17 UNL     1      -1.601  52.240 -11.475  1.00  0.00     0.013 A 
HETATM    2  C18 UNL     1      -0.884  53.141 -10.651  1.00  0.00     0.053 A 
HETATM    3  N3  UNL     1       0.416  53.071 -10.204  1.00  0.00    -0.357 N 
HETATM    4  C19 UNL     1       0.730  54.157  -9.422  1.00  0.00     0.038 A 
HETATM    5  C20 UNL     1      -0.399  54.954  -9.355  1.00  0.00    -0.020 A 
HETATM    6  C21 UNL     1      -0.502  56.258  -8.632  1.00  0.00     0.072 C 
HETATM    7  C22 UNL     1      -0.064  56.191  -7.160  1.00  0.00     0.277 C 
HETATM    8  N4  UNL     1       1.267  55.657  -6.835  1.00  0.00     0.096 N 
HETATM    9  C23 UNL     1       1.215  54.379  -6.107  1.00  0.00     0.277 C 
HETATM   10  C24 UNL     1       2.486  53.561  -6.402  1.00  0.00     0.016 C 
HETATM   11  C25 UNL     1       3.713  54.465  -6.200  1.00  0.00     0.015 C 
HETATM   12  C26 UNL     1       3.674  55.606  -7.242  1.00  0.00     0.049 C 
HETATM   13  C29 UNL     1       2.265  55.619  -7.933  1.00  0.00     0.253 C 
HETATM   14  C30 UNL     1       2.122  54.311  -8.809  1.00  0.00     0.122 C 
HETATM   15  C33 UNL     1       2.440  53.099  -7.873  1.00  0.00     0.035 C 
HETATM   16  C34 UNL     1      -1.422  54.313 -10.127  1.00  0.00    -0.000 A 
HETATM   17  C35 UNL     1      -2.759  54.625 -10.433  1.00  0.00     0.017 A 
HETATM   18  C36 UNL     1      -3.503  53.765 -11.249  1.00  0.00     0.038 A 
HETATM   19  C37 UNL     1      -2.941  52.597 -11.770  1.00  0.00     0.077 A 
HETATM   20  H19 UNL     1       1.047  52.309 -10.417  1.00  0.00     0.166 HD
ENDROOT
BRANCH   1  21
HETATM   21  C16 UNL     1      -0.960  50.955 -12.060  1.00  0.00     0.075 C 
HETATM   22  C9  UNL     1      -0.626  49.969 -10.892  1.00  0.00     0.025 A 
HETATM   23  C8  UNL     1       0.409  49.128 -10.427  1.00  0.00    -0.020 A 
HETATM   24  N2  UNL     1      -1.679  49.767 -10.002  1.00  0.00    -0.358 N 
HETATM   25  C7  UNL     1       1.797  48.794 -10.976  1.00  0.00     0.079 C 
HETATM   26  C15 UNL     1      -0.052  48.506  -9.209  1.00  0.00    -0.001 A 
HETATM   27  C6  UNL     1       2.069  49.515 -12.281  1.00  0.00     0.248 C 
HETATM   28  N1  UNL     1       3.417  49.836 -12.804  1.00  0.00     0.094 N 
HETATM   29  C41 UNL     1       1.184  49.097 -13.506  1.00  0.00     0.107 C 
HETATM   30  C4  UNL     1       3.315  51.098 -13.598  1.00  0.00     0.306 C 
HETATM   31  C5  UNL     1       4.443  49.973 -11.775  1.00  0.00     0.310 C 
HETATM   32  C3  UNL     1       2.122  51.146 -14.575  1.00  0.00    -0.051 C 
HETATM   33  C2  UNL     1       2.277  51.708 -15.791  1.00  0.00    -0.026 C 
HETATM   34  C40 UNL     1       0.807  50.479 -14.091  1.00  0.00     0.039 C 
HETATM   35  C1  UNL     1       1.252  51.862 -16.868  1.00  0.00     0.036 C 
HETATM   36  C39 UNL     1       0.097  51.456 -13.086  1.00  0.00     0.026 C 
HETATM   37  C10 UNL     1      -1.349  48.930  -8.976  1.00  0.00     0.043 A 
HETATM   38  C14 UNL     1       0.529  47.603  -8.292  1.00  0.00     0.014 A 
HETATM   39  C11 UNL     1      -2.104  48.514  -7.873  1.00  0.00     0.030 A 
HETATM   40  C12 UNL     1      -1.506  47.626  -6.976  1.00  0.00     0.002 A 
HETATM   41  C13 UNL     1      -0.206  47.173  -7.182  1.00  0.00     0.001 A 
HETATM   42  H13 UNL     1      -2.577  50.226 -10.087  1.00  0.00     0.166 HD
BRANCH  29  43
HETATM   43  C42 UNL     1       1.945  48.202 -14.554  1.00  0.00     0.186 C 
BRANCH  43  44
HETATM   44  O5  UNL     1       1.064  47.443 -15.396  1.00  0.00    -0.399 OA
HETATM   45  H51 UNL     1       0.460  46.919 -14.841  1.00  0.00     0.209 HD
ENDBRANCH  43  44
ENDBRANCH  29  43
BRANCH  29  46
HETATM   46  C43 UNL     1      -0.068  48.235 -13.282  1.00  0.00     0.272 C 
HETATM   47  O6  UNL     1      -0.099  47.252 -12.548  1.00  0.00    -0.264 OA
BRANCH  46  48
HETATM   48  O7  UNL     1      -1.184  48.783 -13.836  1.00  0.00    -0.326 OA
HETATM   49  C44 UNL     1      -2.238  47.855 -14.100  1.00  0.00     0.213 C 
ENDBRANCH  46  48
ENDBRANCH  29  46
ENDBRANCH   1  21
BRANCH  19  50
HETATM   50  O4  UNL     1      -3.624  51.718 -12.573  1.00  0.00    -0.355 OA
HETATM   51  C38 UNL     1      -3.462  51.845 -13.980  1.00  0.00     0.210 C 
ENDBRANCH  19  50
BRANCH  14  52
HETATM   52  C31 UNL     1       3.100  54.323 -10.008  1.00  0.00     0.275 C 
HETATM   53  O2  UNL     1       3.982  53.485 -10.178  1.00  0.00    -0.264 OA
BRANCH  52  54
HETATM   54  O3  UNL     1       2.810  55.314 -10.897  1.00  0.00    -0.326 OA
HETATM   55  C32 UNL     1       3.930  56.118 -11.271  1.00  0.00     0.213 C 
ENDBRANCH  52  54
ENDBRANCH  14  52
BRANCH  12  56
HETATM   56  C27 UNL     1       4.169  56.952  -6.671  1.00  0.00     0.120 C 
HETATM   57  C28 UNL     1       3.443  58.213  -7.121  1.00  0.00     0.040 C 
BRANCH  56  58
HETATM   58  O1  UNL     1       5.562  57.098  -6.970  1.00  0.00    -0.396 OA
HETATM   59  H34 UNL     1       5.637  57.385  -7.895  1.00  0.00     0.210 HD
ENDBRANCH  56  58
ENDBRANCH  12  56
TORSDOF 10
ENDMDL
MODEL 7
REMARK minimizedAffinity -7.16278744
REMARK CNNscore 0.106523991
REMARK CNNaffinity 5.44997072
REMARK  10 active torsions:
REMARK  status: ('A' for Active; 'I' for Inactive)
REMARK    1  A    between atoms: C16_18  and  C17_19 
REMARK    2  A    between atoms: C26_30  and  C27_31 
REMARK    3  A    between atoms: C27_31  and  O1_33 
REMARK    4  A    between atoms: C30_35  and  C31_36 
REMARK    5  A    between atoms: C31_36  and  O3_38 
REMARK    6  A    between atoms: C37_44  and  O4_45 
REMARK    7  A    between atoms: C41_49  and  C42_50 
REMARK    8  A    between atoms: C41_49  and  C43_52 
REMARK    9  A    between atoms: C42_50  and  O5_51 
REMARK   10  A    between atoms: C43_52  and  O7_54 
ROOT
HETATM    1  C17 UNL     1     -14.256  43.135 -24.807  1.00  0.00     0.013 A 
HETATM    2  C18 UNL     1     -13.165  43.648 -25.549  1.00  0.00     0.053 A 
HETATM    3  N3  UNL     1     -12.981  44.904 -26.080  1.00  0.00    -0.357 N 
HETATM    4  C19 UNL     1     -11.774  44.996 -26.732  1.00  0.00     0.038 A 
HETATM    5  C20 UNL     1     -11.157  43.761 -26.627  1.00  0.00    -0.020 A 
HETATM    6  C21 UNL     1      -9.808  43.415 -27.167  1.00  0.00     0.072 C 
HETATM    7  C22 UNL     1      -9.631  43.740 -28.659  1.00  0.00     0.277 C 
HETATM    8  N4  UNL     1      -9.912  45.103 -29.131  1.00  0.00     0.096 N 
HETATM    9  C23 UNL     1     -11.087  45.179 -30.013  1.00  0.00     0.277 C 
HETATM   10  C24 UNL     1     -11.731  46.573 -29.905  1.00  0.00     0.016 C 
HETATM   11  C25 UNL     1     -10.632  47.637 -30.062  1.00  0.00     0.015 C 
HETATM   12  C26 UNL     1      -9.643  47.518 -28.881  1.00  0.00     0.049 C 
HETATM   13  C29 UNL     1      -9.928  46.180 -28.109  1.00  0.00     0.253 C 
HETATM   14  C30 UNL     1     -11.337  46.298 -27.403  1.00  0.00     0.122 C 
HETATM   15  C33 UNL     1     -12.366  46.711 -28.507  1.00  0.00     0.035 C 
HETATM   16  C34 UNL     1     -12.035  42.906 -25.884  1.00  0.00    -0.000 A 
HETATM   17  C35 UNL     1     -11.970  41.567 -25.458  1.00  0.00     0.017 A 
HETATM   18  C36 UNL     1     -13.024  41.022 -24.718  1.00  0.00     0.038 A 
HETATM   19  C37 UNL     1     -14.146  41.786 -24.387  1.00  0.00     0.077 A 
HETATM   20  H19 UNL     1     -13.657  45.654 -26.007  1.00  0.00     0.166 HD
ENDROOT
BRANCH   1  21
HETATM   21  C16 UNL     1     -15.489  44.000 -24.434  1.00  0.00     0.075 C 
HETATM   22  C9  UNL     1     -15.555  44.155 -22.878  1.00  0.00     0.025 A 
HETATM   23  C8  UNL     1     -16.472  44.089 -21.806  1.00  0.00    -0.020 A 
HETATM   24  N2  UNL     1     -14.349  44.540 -22.296  1.00  0.00    -0.358 N 
HETATM   25  C7  UNL     1     -17.976  43.816 -21.745  1.00  0.00     0.079 C 
HETATM   26  C15 UNL     1     -15.742  44.365 -20.593  1.00  0.00    -0.001 A 
HETATM   27  C6  UNL     1     -18.559  43.594 -23.127  1.00  0.00     0.248 C 
HETATM   28  N1  UNL     1     -19.795  42.830 -23.410  1.00  0.00     0.094 N 
HETATM   29  C41 UNL     1     -18.545  44.827 -24.095  1.00  0.00     0.107 C 
HETATM   30  C4  UNL     1     -19.651  42.203 -24.758  1.00  0.00     0.306 C 
HETATM   31  C5  UNL     1     -20.111  41.809 -22.414  1.00  0.00     0.310 C 
HETATM   32  C3  UNL     1     -19.112  43.148 -25.851  1.00  0.00    -0.051 C 
HETATM   33  C2  UNL     1     -19.612  43.078 -27.101  1.00  0.00    -0.026 C 
HETATM   34  C40 UNL     1     -18.038  44.176 -25.404  1.00  0.00     0.039 C 
HETATM   35  C1  UNL     1     -19.221  43.891 -28.293  1.00  0.00     0.036 C 
HETATM   36  C39 UNL     1     -16.659  43.432 -25.288  1.00  0.00     0.026 C 
HETATM   37  C10 UNL     1     -14.428  44.636 -20.936  1.00  0.00     0.043 A 
HETATM   38  C14 UNL     1     -16.098  44.420 -19.227  1.00  0.00     0.014 A 
HETATM   39  C11 UNL     1     -13.440  44.951 -19.996  1.00  0.00     0.030 A 
HETATM   40  C12 UNL     1     -13.815  44.993 -18.651  1.00  0.00     0.002 A 
HETATM   41  C13 UNL     1     -15.128  44.732 -18.269  1.00  0.00     0.001 A 
HETATM   42  H13 UNL     1     -13.498  44.691 -22.822  1.00  0.00     0.166 HD
BRANCH  29  43
HETATM   43  C42 UNL     1     -19.958  45.497 -24.279  1.00  0.00     0.186 C 
BRANCH  43  44
HETATM   44  O5  UNL     1     -19.934  46.640 -25.148  1.00  0.00    -0.399 OA
HETATM   45  H51 UNL     1     -19.270  47.275 -24.826  1.00  0.00     0.209 HD
ENDBRANCH  43  44
ENDBRANCH  29  43
BRANCH  29  46
HETATM   46  C43 UNL     1     -17.710  46.066 -23.738  1.00  0.00     0.272 C 
HETATM   47  O6  UNL     1     -17.609  46.519 -22.602  1.00  0.00    -0.264 OA
BRANCH  46  48
HETATM   48  O7  UNL     1     -16.946  46.498 -24.780  1.00  0.00    -0.326 OA
HETATM   49  C44 UNL     1     -15.946  47.457 -24.431  1.00  0.00     0.213 C 
ENDBRANCH  46  48
ENDBRANCH  29  46
ENDBRANCH   1  21
BRANCH  19  50
HETATM   50  O4  UNL     1     -15.209  41.302 -23.665  1.00  0.00    -0.355 OA
HETATM   51  C38 UNL     1     -15.736  40.035 -24.034  1.00  0.00     0.210 C 
ENDBRANCH  19  50
BRANCH  14  52
HETATM   52  C31 UNL     1     -11.319  47.356 -26.275  1.00  0.00     0.275 C 
HETATM   53  O2  UNL     1     -12.296  48.027 -25.953  1.00  0.00    -0.264 OA
BRANCH  52  54
HETATM   54  O3  UNL     1     -10.124  47.390 -25.623  1.00  0.00    -0.326 OA
HETATM   55  C32 UNL     1     -10.190  47.014 -24.247  1.00  0.00     0.213 C 
ENDBRANCH  52  54
ENDBRANCH  14  52
BRANCH  12  56
HETATM   56  C27 UNL     1      -8.179  47.767 -29.301  1.00  0.00     0.120 C 
HETATM   57  C28 UNL     1      -7.095  47.468 -28.274  1.00  0.00     0.040 C 
BRANCH  56  58
HETATM   58  O1  UNL     1      -8.043  49.128 -29.723  1.00  0.00    -0.396 OA
HETATM   59  H34 UNL     1      -7.979  49.679 -28.925  1.00  0.00     0.210 HD
ENDBRANCH  56  58
ENDBRANCH  12  56
TORSDOF 10
ENDMDL
MODEL 8
REMARK minimizedAffinity -5.91973925
REMARK CNNscore 0.103784382
REMARK CNNaffinity 5.75567865
REMARK  10 active torsions:
REMARK  status: ('A' for Active; 'I' for Inactive)
REMARK    1  A    between atoms: C16_18  and  C17_19 
REMARK    2  A    between atoms: C26_30  and  C27_31 
REMARK    3  A    between atoms: C27_31  and  O1_33 
REMARK    4  A    between atoms: C30_35  and  C31_36 
REMARK    5  A    between atoms: C31_36  and  O3_38 
REMARK    6  A    between atoms: C37_44  and  O4_45 
REMARK    7  A    between atoms: C41_49  and  C42_50 
REMARK    8  A    between atoms: C41_49  and  C43_52 
REMARK    9  A    between atoms: C42_50  and  O5_51 
REMARK   10  A    between atoms: C43_52  and  O7_54 
ROOT
HETATM    1  C17 UNL     1      -6.464  43.883 -20.542  1.00  0.00     0.013 A 
HETATM    2  C18 UNL     1      -7.115  43.274 -21.642  1.00  0.00     0.053 A 
HETATM    3  N3  UNL     1      -7.883  43.847 -22.630  1.00  0.00    -0.357 N 
HETATM    4  C19 UNL     1      -8.332  42.901 -23.521  1.00  0.00     0.038 A 
HETATM    5  C20 UNL     1      -7.845  41.676 -23.097  1.00  0.00    -0.020 A 
HETATM    6  C21 UNL     1      -8.062  40.368 -23.786  1.00  0.00     0.072 C 
HETATM    7  C22 UNL     1      -9.539  40.051 -24.071  1.00  0.00     0.277 C 
HETATM    8  N4  UNL     1     -10.351  41.030 -24.806  1.00  0.00     0.096 N 
HETATM    9  C23 UNL     1     -11.408  41.639 -23.984  1.00  0.00     0.277 C 
HETATM   10  C24 UNL     1     -11.731  43.050 -24.511  1.00  0.00     0.016 C 
HETATM   11  C25 UNL     1     -11.945  42.970 -26.031  1.00  0.00     0.015 C 
HETATM   12  C26 UNL     1     -10.622  42.542 -26.705  1.00  0.00     0.049 C 
HETATM   13  C29 UNL     1      -9.622  42.051 -25.600  1.00  0.00     0.253 C 
HETATM   14  C30 UNL     1      -9.203  43.292 -24.714  1.00  0.00     0.122 C 
HETATM   15  C33 UNL     1     -10.525  43.967 -24.223  1.00  0.00     0.035 C 
HETATM   16  C34 UNL     1      -7.080  41.908 -21.908  1.00  0.00    -0.000 A 
HETATM   17  C35 UNL     1      -6.353  41.080 -21.034  1.00  0.00     0.017 A 
HETATM   18  C36 UNL     1      -5.691  41.640 -19.937  1.00  0.00     0.038 A 
HETATM   19  C37 UNL     1      -5.733  43.015 -19.691  1.00  0.00     0.077 A 
HETATM   20  H19 UNL     1      -8.096  44.835 -22.680  1.00  0.00     0.166 HD
ENDROOT
BRANCH   1  21
HETATM   21  C16 UNL     1      -6.507  45.413 -20.291  1.00  0.00     0.075 C 
HETATM   22  C9  UNL     1      -7.999  45.881 -20.224  1.00  0.00     0.025 A 
HETATM   23  C8  UNL     1      -8.853  46.899 -20.704  1.00  0.00    -0.020 A 
HETATM   24  N2  UNL     1      -8.798  45.109 -19.383  1.00  0.00    -0.358 N 
HETATM   25  C7  UNL     1      -8.610  48.123 -21.588  1.00  0.00     0.079 C 
HETATM   26  C15 UNL     1     -10.172  46.640 -20.181  1.00  0.00    -0.001 A 
HETATM   27  C6  UNL     1      -7.153  48.237 -21.994  1.00  0.00     0.248 C 
HETATM   28  N1  UNL     1      -6.666  48.944 -23.200  1.00  0.00     0.094 N 
HETATM   29  C41 UNL     1      -6.130  48.526 -20.842  1.00  0.00     0.107 C 
HETATM   30  C4  UNL     1      -5.424  48.257 -23.667  1.00  0.00     0.306 C 
HETATM   31  C5  UNL     1      -7.637  49.017 -24.287  1.00  0.00     0.310 C 
HETATM   32  C3  UNL     1      -4.411  47.935 -22.549  1.00  0.00    -0.051 C 
HETATM   33  C2  UNL     1      -3.090  48.069 -22.787  1.00  0.00    -0.026 C 
HETATM   34  C40 UNL     1      -5.006  47.517 -21.179  1.00  0.00     0.039 C 
HETATM   35  C1  UNL     1      -1.957  47.800 -21.850  1.00  0.00     0.036 C 
HETATM   36  C39 UNL     1      -5.463  46.018 -21.273  1.00  0.00     0.026 C 
HETATM   37  C10 UNL     1     -10.100  45.520 -19.370  1.00  0.00     0.043 A 
HETATM   38  C14 UNL     1     -11.423  47.280 -20.323  1.00  0.00     0.014 A 
HETATM   39  C11 UNL     1     -11.206  44.989 -18.696  1.00  0.00     0.030 A 
HETATM   40  C12 UNL     1     -12.433  45.635 -18.857  1.00  0.00     0.002 A 
HETATM   41  C13 UNL     1     -12.544  46.767 -19.659  1.00  0.00     0.001 A 
HETATM   42  H13 UNL     1      -8.457  44.305 -18.872  1.00  0.00     0.166 HD
BRANCH  29  43
HETATM   43  C42 UNL     1      -5.604  50.010 -20.826  1.00  0.00     0.186 C 
BRANCH  43  44
HETATM   44  O5  UNL     1      -4.715  50.284 -19.733  1.00  0.00    -0.399 OA
HETATM   45  H51 UNL     1      -5.149  50.044 -18.896  1.00  0.00     0.209 HD
ENDBRANCH  43  44
ENDBRANCH  29  43
BRANCH  29  46
HETATM   46  C43 UNL     1      -6.573  48.387 -19.377  1.00  0.00     0.272 C 
HETATM   47  O6  UNL     1      -5.979  47.710 -18.544  1.00  0.00    -0.264 OA
BRANCH  46  48
HETATM   48  O7  UNL     1      -7.585  49.240 -19.056  1.00  0.00    -0.326 OA
HETATM   49  C44 UNL     1      -8.313  48.887 -17.878  1.00  0.00     0.213 C 
ENDBRANCH  46  48
ENDBRANCH  29  46
ENDBRANCH   1  21
BRANCH  19  50
HETATM   50  O4  UNL     1      -5.104  43.618 -18.631  1.00  0.00    -0.355 OA
HETATM   51  C38 UNL     1      -5.571  43.312 -17.324  1.00  0.00     0.210 C 
ENDBRANCH  19  50
BRANCH  14  52
HETATM   52  C31 UNL     1      -8.361  44.306 -25.523  1.00  0.00     0.275 C 
HETATM   53  O2  UNL     1      -7.571  43.987 -26.408  1.00  0.00    -0.264 OA
BRANCH  52  54
HETATM   54  O3  UNL     1      -8.665  45.595 -25.204  1.00  0.00    -0.326 OA
HETATM   55  C32 UNL     1      -8.942  46.432 -26.327  1.00  0.00     0.213 C 
ENDBRANCH  52  54
ENDBRANCH  14  52
BRANCH  12  56
HETATM   56  C27 UNL     1     -10.843  41.590 -27.901  1.00  0.00     0.120 C 
HETATM   57  C28 UNL     1     -10.759  42.190 -29.298  1.00  0.00     0.040 C 
BRANCH  56  58
HETATM   58  O1  UNL     1     -12.115  40.951 -27.756  1.00  0.00    -0.396 OA
HETATM   59  H34 UNL     1     -12.797  41.581 -28.044  1.00  0.00     0.210 HD
ENDBRANCH  56  58
ENDBRANCH  12  56
TORSDOF 10
ENDMDL
MODEL 9
REMARK minimizedAffinity -6.12712765
REMARK CNNscore 0.0952320769
REMARK CNNaffinity 6.17997313
REMARK  10 active torsions:
REMARK  status: ('A' for Active; 'I' for Inactive)
REMARK    1  A    between atoms: C16_18  and  C17_19 
REMARK    2  A    between atoms: C26_30  and  C27_31 
REMARK    3  A    between atoms: C27_31  and  O1_33 
REMARK    4  A    between atoms: C30_35  and  C31_36 
REMARK    5  A    between atoms: C31_36  and  O3_38 
REMARK    6  A    between atoms: C37_44  and  O4_45 
REMARK    7  A    between atoms: C41_49  and  C42_50 
REMARK    8  A    between atoms: C41_49  and  C43_52 
REMARK    9  A    between atoms: C42_50  and  O5_51 
REMARK   10  A    between atoms: C43_52  and  O7_54 
ROOT
HETATM    1  C17 UNL     1       0.969  54.306  -8.523  1.00  0.00     0.013 A 
HETATM    2  C18 UNL     1       0.866  53.432  -9.631  1.00  0.00     0.053 A 
HETATM    3  N3  UNL     1       1.580  52.290  -9.913  1.00  0.00    -0.357 N 
HETATM    4  C19 UNL     1       1.167  51.726 -11.098  1.00  0.00     0.038 A 
HETATM    5  C20 UNL     1       0.158  52.528 -11.603  1.00  0.00    -0.020 A 
HETATM    6  C21 UNL     1      -0.603  52.276 -12.863  1.00  0.00     0.072 C 
HETATM    7  C22 UNL     1       0.287  52.058 -14.097  1.00  0.00     0.277 C 
HETATM    8  N4  UNL     1       1.333  51.027 -14.049  1.00  0.00     0.096 N 
HETATM    9  C23 UNL     1       2.695  51.583 -14.083  1.00  0.00     0.277 C 
HETATM   10  C24 UNL     1       3.664  50.630 -13.360  1.00  0.00     0.016 C 
HETATM   11  C25 UNL     1       3.446  49.205 -13.894  1.00  0.00     0.015 C 
HETATM   12  C26 UNL     1       2.018  48.742 -13.524  1.00  0.00     0.049 C 
HETATM   13  C29 UNL     1       1.199  49.978 -13.008  1.00  0.00     0.253 C 
HETATM   14  C30 UNL     1       1.808  50.443 -11.625  1.00  0.00     0.122 C 
HETATM   15  C33 UNL     1       3.341  50.655 -11.852  1.00  0.00     0.035 C 
HETATM   16  C34 UNL     1      -0.032  53.608 -10.681  1.00  0.00    -0.000 A 
HETATM   17  C35 UNL     1      -0.891  54.721 -10.640  1.00  0.00     0.017 A 
HETATM   18  C36 UNL     1      -0.827  55.608  -9.560  1.00  0.00     0.038 A 
HETATM   19  C37 UNL     1       0.077  55.409  -8.513  1.00  0.00     0.077 A 
HETATM   20  H19 UNL     1       2.320  51.926  -9.327  1.00  0.00     0.166 HD
ENDROOT
BRANCH   1  21
HETATM   21  C16 UNL     1       1.966  54.064  -7.359  1.00  0.00     0.075 C 
HETATM   22  C9  UNL     1       1.256  54.375  -6.000  1.00  0.00     0.025 A 
HETATM   23  C8  UNL     1       1.471  55.048  -4.778  1.00  0.00    -0.020 A 
HETATM   24  N2  UNL     1       0.008  53.769  -5.862  1.00  0.00    -0.358 N 
HETATM   25  C7  UNL     1       2.661  55.833  -4.224  1.00  0.00     0.079 C 
HETATM   26  C15 UNL     1       0.284  54.879  -3.975  1.00  0.00    -0.001 A 
HETATM   27  C6  UNL     1       3.819  55.855  -5.202  1.00  0.00     0.248 C 
HETATM   28  N1  UNL     1       4.874  56.894  -5.239  1.00  0.00     0.094 N 
HETATM   29  C41 UNL     1       4.512  54.479  -5.493  1.00  0.00     0.107 C 
HETATM   30  C4  UNL     1       5.332  57.035  -6.654  1.00  0.00     0.306 C 
HETATM   31  C5  UNL     1       4.458  58.191  -4.715  1.00  0.00     0.310 C 
HETATM   32  C3  UNL     1       5.597  55.699  -7.379  1.00  0.00    -0.051 C 
HETATM   33  C2  UNL     1       6.643  55.593  -8.222  1.00  0.00    -0.026 C 
HETATM   34  C40 UNL     1       4.640  54.527  -7.034  1.00  0.00     0.039 C 
HETATM   35  C1  UNL     1       7.061  54.401  -9.022  1.00  0.00     0.036 C 
HETATM   36  C39 UNL     1       3.291  54.745  -7.808  1.00  0.00     0.026 C 
HETATM   37  C10 UNL     1      -0.602  54.084  -4.682  1.00  0.00     0.043 A 
HETATM   38  C14 UNL     1      -0.102  55.330  -2.693  1.00  0.00     0.014 A 
HETATM   39  C11 UNL     1      -1.860  53.716  -4.191  1.00  0.00     0.030 A 
HETATM   40  C12 UNL     1      -2.222  54.179  -2.924  1.00  0.00     0.002 A 
HETATM   41  C13 UNL     1      -1.355  54.975  -2.181  1.00  0.00     0.001 A 
HETATM   42  H13 UNL     1      -0.416  53.194  -6.578  1.00  0.00     0.166 HD
BRANCH  29  43
HETATM   43  C42 UNL     1       5.911  54.321  -4.790  1.00  0.00     0.186 C 
BRANCH  43  44
HETATM   44  O5  UNL     1       6.432  52.984  -4.860  1.00  0.00    -0.399 OA
HETATM   45  H51 UNL     1       5.774  52.363  -4.503  1.00  0.00     0.209 HD
ENDBRANCH  43  44
ENDBRANCH  29  43
BRANCH  29  46
HETATM   46  C43 UNL     1       3.838  53.176  -5.037  1.00  0.00     0.272 C 
HETATM   47  O6  UNL     1       3.620  52.222  -5.778  1.00  0.00    -0.264 OA
BRANCH  46  48
HETATM   48  O7  UNL     1       3.675  53.119  -3.686  1.00  0.00    -0.326 OA
HETATM   49  C44 UNL     1       2.895  52.015  -3.224  1.00  0.00     0.213 C 
ENDBRANCH  46  48
ENDBRANCH  29  46
ENDBRANCH   1  21
BRANCH  19  50
HETATM   50  O4  UNL     1       0.184  56.246  -7.431  1.00  0.00    -0.355 OA
HETATM   51  C38 UNL     1      -0.440  57.521  -7.518  1.00  0.00     0.210 C 
ENDBRANCH  19  50
BRANCH  14  52
HETATM   52  C31 UNL     1       1.579  49.384 -10.521  1.00  0.00     0.275 C 
HETATM   53  O2  UNL     1       2.467  48.666 -10.069  1.00  0.00    -0.264 OA
BRANCH  52  54
HETATM   54  O3  UNL     1       0.302  49.406 -10.046  1.00  0.00    -0.326 OA
HETATM   55  C32 UNL     1      -0.130  48.180  -9.456  1.00  0.00     0.213 C 
ENDBRANCH  52  54
ENDBRANCH  14  52
BRANCH  12  56
HETATM   56  C27 UNL     1       1.358  47.899 -14.636  1.00  0.00     0.120 C 
HETATM   57  C28 UNL     1      -0.120  47.566 -14.478  1.00  0.00     0.040 C 
BRANCH  56  58
HETATM   58  O1  UNL     1       2.086  46.675 -14.784  1.00  0.00    -0.396 OA
HETATM   59  H34 UNL     1       1.807  46.077 -14.070  1.00  0.00     0.210 HD
ENDBRANCH  56  58
ENDBRANCH  12  56
TORSDOF 10
ENDMDL
