MODEL 1
REMARK minimizedAffinity -9.13260078
REMARK  4 active torsions:
REMARK  status: ('A' for Active; 'I' for Inactive)
REMARK    1  A    between atoms: C4_4  and  C5_5 
REMARK    2  A    between atoms: C5_5  and  C6_6 
REMARK    3  A    between atoms: C6_6  and  C7_7 
REMARK    4  A    between atoms: C7_7  and  C9_9 
ROOT
HETATM    1  C9  UNL     1      -3.503   7.162  14.424  1.00  0.00    -0.002 C 
HETATM    2  C10 UNL     1      -4.229   8.077  13.384  1.00  0.00     0.007 C 
HETATM    3  C11 UNL     1      -3.153   8.681  12.461  1.00  0.00     0.015 C 
HETATM    4  C12 UNL     1      -1.827   8.420  13.202  1.00  0.00    -0.013 C 
HETATM    5  C13 UNL     1      -1.712   9.555  14.268  1.00  0.00     0.021 C 
HETATM    6  C14 UNL     1      -0.510   8.385  12.428  1.00  0.00    -0.070 C 
HETATM    7  C15 UNL     1      -0.414   8.588  11.102  1.00  0.00    -0.022 C 
HETATM    8  C16 UNL     1       0.839   8.375  10.303  1.00  0.00     0.034 C 
HETATM    9  C17 UNL     1       1.900   7.549  11.064  1.00  0.00     0.013 C 
HETATM   10  C18 UNL     1       3.241   7.273  10.278  1.00  0.00     0.018 C 
HETATM   11  C19 UNL     1       3.279   7.933   8.883  1.00  0.00     0.023 C 
HETATM   12  C20 UNL     1       3.403   5.751  10.061  1.00  0.00     0.023 C 
HETATM   13  C21 UNL     1       4.491   7.722  11.052  1.00  0.00     0.135 C 
HETATM   14  O1  UNL     1       5.472   8.208  10.482  1.00  0.00    -0.297 OA
HETATM   15  C22 UNL     1       4.561   7.479  12.543  1.00  0.00     0.080 C 
HETATM   16  C23 UNL     1       3.200   7.314  13.199  1.00  0.00     0.017 C 
HETATM   17  C24 UNL     1       2.080   8.118  12.508  1.00  0.00    -0.031 C 
HETATM   18  C25 UNL     1       2.471   9.627  12.488  1.00  0.00     0.016 C 
HETATM   19  C26 UNL     1       0.708   8.008  13.289  1.00  0.00     0.024 C 
HETATM   20  C27 UNL     1       0.442   6.660  14.003  1.00  0.00     0.010 C 
HETATM   21  C28 UNL     1      -0.931   6.587  14.713  1.00  0.00     0.011 C 
HETATM   22  C29 UNL     1      -2.096   6.971  13.774  1.00  0.00    -0.029 C 
HETATM   23  C30 UNL     1      -2.191   5.881  12.659  1.00  0.00     0.016 C 
ENDROOT
BRANCH   1  24
HETATM   24  C7  UNL     1      -4.375   5.927  14.807  1.00  0.00    -0.014 C 
HETATM   25  C8  UNL     1      -5.748   6.330  15.353  1.00  0.00     0.010 C 
BRANCH  24  26
HETATM   26  C6  UNL     1      -4.543   4.998  13.569  1.00  0.00     0.008 C 
BRANCH  26  27
HETATM   27  C5  UNL     1      -5.973   4.789  13.053  1.00  0.00     0.028 C 
BRANCH  27  28
HETATM   28  C4  UNL     1      -6.249   3.380  12.607  1.00  0.00    -0.025 C 
HETATM   29  C2  UNL     1      -5.707   2.732  11.557  1.00  0.00    -0.091 C 
HETATM   30  C1  UNL     1      -6.130   1.327  11.218  1.00  0.00     0.042 C 
HETATM   31  C3  UNL     1      -4.655   3.301  10.645  1.00  0.00     0.042 C 
ENDBRANCH  27  28
ENDBRANCH  26  27
ENDBRANCH  24  26
ENDBRANCH   1  24
TORSDOF 4
ENDMDL
MODEL 2
REMARK minimizedAffinity -8.7142868
REMARK  4 active torsions:
REMARK  status: ('A' for Active; 'I' for Inactive)
REMARK    1  A    between atoms: C4_4  and  C5_5 
REMARK    2  A    between atoms: C5_5  and  C6_6 
REMARK    3  A    between atoms: C6_6  and  C7_7 
REMARK    4  A    between atoms: C7_7  and  C9_9 
ROOT
HETATM    1  C9  UNL     1      -3.188   5.618  12.314  1.00  0.00    -0.002 C 
HETATM    2  C10 UNL     1      -1.739   5.074  12.534  1.00  0.00     0.007 C 
HETATM    3  C11 UNL     1      -0.985   6.096  13.407  1.00  0.00     0.015 C 
HETATM    4  C12 UNL     1      -1.863   7.361  13.356  1.00  0.00    -0.013 C 
HETATM    5  C13 UNL     1      -1.500   8.070  12.013  1.00  0.00     0.021 C 
HETATM    6  C14 UNL     1      -1.768   8.407  14.465  1.00  0.00    -0.070 C 
HETATM    7  C15 UNL     1      -0.931   8.313  15.514  1.00  0.00    -0.022 C 
HETATM    8  C16 UNL     1      -0.956   9.233  16.700  1.00  0.00     0.034 C 
HETATM    9  C17 UNL     1      -2.257  10.060  16.788  1.00  0.00     0.013 C 
HETATM   10  C18 UNL     1      -2.359  11.042  18.020  1.00  0.00     0.018 C 
HETATM   11  C19 UNL     1      -1.096  11.042  18.908  1.00  0.00     0.023 C 
HETATM   12  C20 UNL     1      -3.542  10.613  18.919  1.00  0.00     0.023 C 
HETATM   13  C21 UNL     1      -2.651  12.493  17.606  1.00  0.00     0.135 C 
HETATM   14  O1  UNL     1      -2.158  13.454  18.205  1.00  0.00    -0.297 OA
HETATM   15  C22 UNL     1      -3.641  12.757  16.494  1.00  0.00     0.080 C 
HETATM   16  C23 UNL     1      -3.832  11.579  15.555  1.00  0.00     0.017 C 
HETATM   17  C24 UNL     1      -2.573  10.702  15.399  1.00  0.00    -0.031 C 
HETATM   18  C25 UNL     1      -1.394  11.587  14.892  1.00  0.00     0.016 C 
HETATM   19  C26 UNL     1      -2.782   9.555  14.327  1.00  0.00     0.024 C 
HETATM   20  C27 UNL     1      -4.213   8.975  14.229  1.00  0.00     0.010 C 
HETATM   21  C28 UNL     1      -4.355   7.827  13.201  1.00  0.00     0.011 C 
HETATM   22  C29 UNL     1      -3.305   6.715  13.418  1.00  0.00    -0.029 C 
HETATM   23  C30 UNL     1      -3.610   6.031  14.789  1.00  0.00     0.016 C 
ENDROOT
BRANCH   1  24
HETATM   24  C7  UNL     1      -4.229   4.457  12.234  1.00  0.00    -0.014 C 
HETATM   25  C8  UNL     1      -3.608   3.095  12.559  1.00  0.00     0.010 C 
BRANCH  24  26
HETATM   26  C6  UNL     1      -5.416   4.749  13.198  1.00  0.00     0.008 C 
BRANCH  26  27
HETATM   27  C5  UNL     1      -6.809   4.309  12.728  1.00  0.00     0.028 C 
BRANCH  27  28
HETATM   28  C4  UNL     1      -7.929   5.094  13.353  1.00  0.00    -0.025 C 
HETATM   29  C2  UNL     1      -8.869   5.824  12.722  1.00  0.00    -0.091 C 
HETATM   30  C1  UNL     1      -9.901   6.592  13.507  1.00  0.00     0.042 C 
HETATM   31  C3  UNL     1      -9.006   5.947  11.230  1.00  0.00     0.042 C 
ENDBRANCH  27  28
ENDBRANCH  26  27
ENDBRANCH  24  26
ENDBRANCH   1  24
TORSDOF 4
ENDMDL
MODEL 3
REMARK minimizedAffinity -8.66811848
REMARK  4 active torsions:
REMARK  status: ('A' for Active; 'I' for Inactive)
REMARK    1  A    between atoms: C4_4  and  C5_5 
REMARK    2  A    between atoms: C5_5  and  C6_6 
REMARK    3  A    between atoms: C6_6  and  C7_7 
REMARK    4  A    between atoms: C7_7  and  C9_9 
ROOT
HETATM    1  C9  UNL     1      -0.955   6.672  12.011  1.00  0.00    -0.002 C 
HETATM    2  C10 UNL     1      -0.625   5.368  11.213  1.00  0.00     0.007 C 
HETATM    3  C11 UNL     1       0.868   5.420  10.833  1.00  0.00     0.015 C 
HETATM    4  C12 UNL     1       1.271   6.887  11.074  1.00  0.00    -0.013 C 
HETATM    5  C13 UNL     1       0.803   7.665   9.803  1.00  0.00     0.021 C 
HETATM    6  C14 UNL     1       2.734   7.251  11.319  1.00  0.00    -0.070 C 
HETATM    7  C15 UNL     1       3.738   6.356  11.323  1.00  0.00    -0.022 C 
HETATM    8  C16 UNL     1       5.145   6.666  11.743  1.00  0.00     0.034 C 
HETATM    9  C17 UNL     1       5.258   7.997  12.519  1.00  0.00     0.013 C 
HETATM   10  C18 UNL     1       6.710   8.382  13.005  1.00  0.00     0.018 C 
HETATM   11  C19 UNL     1       7.791   7.371  12.566  1.00  0.00     0.023 C 
HETATM   12  C20 UNL     1       6.738   8.428  14.550  1.00  0.00     0.023 C 
HETATM   13  C21 UNL     1       7.146   9.780  12.536  1.00  0.00     0.135 C 
HETATM   14  O1  UNL     1       8.312  10.025  12.213  1.00  0.00    -0.297 OA
HETATM   15  C22 UNL     1       6.143  10.911  12.558  1.00  0.00     0.080 C 
HETATM   16  C23 UNL     1       4.697  10.445  12.525  1.00  0.00     0.017 C 
HETATM   17  C24 UNL     1       4.492   9.124  11.755  1.00  0.00    -0.031 C 
HETATM   18  C25 UNL     1       5.019   9.293  10.298  1.00  0.00     0.016 C 
HETATM   19  C26 UNL     1       2.960   8.736  11.649  1.00  0.00     0.024 C 
HETATM   20  C27 UNL     1       2.075   9.141  12.852  1.00  0.00     0.010 C 
HETATM   21  C28 UNL     1       0.598   8.700  12.720  1.00  0.00     0.011 C 
HETATM   22  C29 UNL     1       0.463   7.195  12.398  1.00  0.00    -0.029 C 
HETATM   23  C30 UNL     1       0.986   6.394  13.633  1.00  0.00     0.016 C 
ENDROOT
BRANCH   1  24
HETATM   24  C7  UNL     1      -2.033   6.412  13.110  1.00  0.00    -0.014 C 
HETATM   25  C8  UNL     1      -3.160   7.447  13.077  1.00  0.00     0.010 C 
BRANCH  24  26
HETATM   26  C6  UNL     1      -2.616   4.978  12.944  1.00  0.00     0.008 C 
BRANCH  26  27
HETATM   27  C5  UNL     1      -4.115   4.877  12.627  1.00  0.00     0.028 C 
BRANCH  27  28
HETATM   28  C4  UNL     1      -4.496   3.596  11.937  1.00  0.00    -0.025 C 
HETATM   29  C2  UNL     1      -5.680   2.956  11.997  1.00  0.00    -0.091 C 
HETATM   30  C1  UNL     1      -5.884   1.649  11.276  1.00  0.00     0.042 C 
HETATM   31  C3  UNL     1      -6.889   3.448  12.743  1.00  0.00     0.042 C 
ENDBRANCH  27  28
ENDBRANCH  26  27
ENDBRANCH  24  26
ENDBRANCH   1  24
TORSDOF 4
ENDMDL
MODEL 4
REMARK minimizedAffinity -8.48669243
REMARK  4 active torsions:
REMARK  status: ('A' for Active; 'I' for Inactive)
REMARK    1  A    between atoms: C4_4  and  C5_5 
REMARK    2  A    between atoms: C5_5  and  C6_6 
REMARK    3  A    between atoms: C6_6  and  C7_7 
REMARK    4  A    between atoms: C7_7  and  C9_9 
ROOT
HETATM    1  C9  UNL     1      -3.321   5.544  12.926  1.00  0.00    -0.002 C 
HETATM    2  C10 UNL     1      -1.899   4.980  13.248  1.00  0.00     0.007 C 
HETATM    3  C11 UNL     1      -1.124   6.073  14.009  1.00  0.00     0.015 C 
HETATM    4  C12 UNL     1      -1.951   7.353  13.782  1.00  0.00    -0.013 C 
HETATM    5  C13 UNL     1      -1.532   7.878  12.372  1.00  0.00     0.021 C 
HETATM    6  C14 UNL     1      -1.838   8.523  14.757  1.00  0.00    -0.070 C 
HETATM    7  C15 UNL     1      -1.028   8.528  15.831  1.00  0.00    -0.022 C 
HETATM    8  C16 UNL     1      -1.041   9.587  16.895  1.00  0.00     0.034 C 
HETATM    9  C17 UNL     1      -2.311  10.466  16.848  1.00  0.00     0.013 C 
HETATM   10  C18 UNL     1      -2.400  11.594  17.949  1.00  0.00     0.018 C 
HETATM   11  C19 UNL     1      -1.158  11.658  18.862  1.00  0.00     0.023 C 
HETATM   12  C20 UNL     1      -3.618  11.322  18.862  1.00  0.00     0.023 C 
HETATM   13  C21 UNL     1      -2.627  12.993  17.353  1.00  0.00     0.135 C 
HETATM   14  O1  UNL     1      -2.110  14.002  17.843  1.00  0.00    -0.297 OA
HETATM   15  C22 UNL     1      -3.582  13.155  16.192  1.00  0.00     0.080 C 
HETATM   16  C23 UNL     1      -3.800  11.877  15.399  1.00  0.00     0.017 C 
HETATM   17  C24 UNL     1      -2.572  10.943  15.383  1.00  0.00    -0.031 C 
HETATM   18  C25 UNL     1      -1.349  11.716  14.803  1.00  0.00     0.016 C 
HETATM   19  C26 UNL     1      -2.804   9.682  14.455  1.00  0.00     0.024 C 
HETATM   20  C27 UNL     1      -4.254   9.146  14.391  1.00  0.00     0.010 C 
HETATM   21  C28 UNL     1      -4.419   7.886  13.507  1.00  0.00     0.011 C 
HETATM   22  C29 UNL     1      -3.418   6.772  13.885  1.00  0.00    -0.029 C 
HETATM   23  C30 UNL     1      -3.778   6.273  15.322  1.00  0.00     0.016 C 
ENDROOT
BRANCH   1  24
HETATM   24  C7  UNL     1      -4.404   4.420  12.963  1.00  0.00    -0.014 C 
HETATM   25  C8  UNL     1      -5.818   4.980  13.140  1.00  0.00     0.010 C 
BRANCH  24  26
HETATM   26  C6  UNL     1      -4.322   3.571  11.661  1.00  0.00     0.008 C 
BRANCH  26  27
HETATM   27  C5  UNL     1      -3.279   4.004  10.621  1.00  0.00     0.028 C 
BRANCH  27  28
HETATM   28  C4  UNL     1      -2.120   3.054  10.503  1.00  0.00    -0.025 C 
HETATM   29  C2  UNL     1      -2.046   1.791  10.967  1.00  0.00    -0.091 C 
HETATM   30  C1  UNL     1      -0.784   0.984  10.803  1.00  0.00     0.042 C 
HETATM   31  C3  UNL     1      -3.163   1.061  11.660  1.00  0.00     0.042 C 
ENDBRANCH  27  28
ENDBRANCH  26  27
ENDBRANCH  24  26
ENDBRANCH   1  24
TORSDOF 4
ENDMDL
MODEL 5
REMARK minimizedAffinity -8.37347794
REMARK  4 active torsions:
REMARK  status: ('A' for Active; 'I' for Inactive)
REMARK    1  A    between atoms: C4_4  and  C5_5 
REMARK    2  A    between atoms: C5_5  and  C6_6 
REMARK    3  A    between atoms: C6_6  and  C7_7 
REMARK    4  A    between atoms: C7_7  and  C9_9 
ROOT
HETATM    1  C9  UNL     1      -6.314   6.907  14.783  1.00  0.00    -0.002 C 
HETATM    2  C10 UNL     1      -6.012   8.112  15.733  1.00  0.00     0.007 C 
HETATM    3  C11 UNL     1      -4.504   8.415  15.637  1.00  0.00     0.015 C 
HETATM    4  C12 UNL     1      -3.909   7.170  14.951  1.00  0.00    -0.013 C 
HETATM    5  C13 UNL     1      -3.740   6.108  16.083  1.00  0.00     0.021 C 
HETATM    6  C14 UNL     1      -2.575   7.266  14.211  1.00  0.00    -0.070 C 
HETATM    7  C15 UNL     1      -1.845   8.392  14.125  1.00  0.00    -0.022 C 
HETATM    8  C16 UNL     1      -0.634   8.548  13.252  1.00  0.00     0.034 C 
HETATM    9  C17 UNL     1      -0.517   7.436  12.186  1.00  0.00     0.013 C 
HETATM   10  C18 UNL     1       0.728   7.545  11.221  1.00  0.00     0.018 C 
HETATM   11  C19 UNL     1       1.656   8.734  11.551  1.00  0.00     0.023 C 
HETATM   12  C20 UNL     1       0.234   7.747   9.770  1.00  0.00     0.023 C 
HETATM   13  C21 UNL     1       1.581   6.266  11.200  1.00  0.00     0.135 C 
HETATM   14  O1  UNL     1       2.811   6.304  11.102  1.00  0.00    -0.297 OA
HETATM   15  C22 UNL     1       0.892   4.920  11.207  1.00  0.00     0.080 C 
HETATM   16  C23 UNL     1      -0.519   4.960  11.770  1.00  0.00     0.017 C 
HETATM   17  C24 UNL     1      -0.722   6.039  12.853  1.00  0.00    -0.031 C 
HETATM   18  C25 UNL     1       0.295   5.798  14.010  1.00  0.00     0.016 C 
HETATM   19  C26 UNL     1      -2.170   5.969  13.490  1.00  0.00     0.024 C 
HETATM   20  C27 UNL     1      -3.306   5.526  12.538  1.00  0.00     0.010 C 
HETATM   21  C28 UNL     1      -4.707   5.518  13.196  1.00  0.00     0.011 C 
HETATM   22  C29 UNL     1      -5.036   6.860  13.887  1.00  0.00    -0.029 C 
HETATM   23  C30 UNL     1      -5.148   7.955  12.778  1.00  0.00     0.016 C 
ENDROOT
BRANCH   1  24
HETATM   24  C7  UNL     1      -7.731   7.027  14.140  1.00  0.00    -0.014 C 
HETATM   25  C8  UNL     1      -8.145   5.751  13.401  1.00  0.00     0.010 C 
BRANCH  24  26
HETATM   26  C6  UNL     1      -8.778   7.375  15.239  1.00  0.00     0.008 C 
BRANCH  26  27
HETATM   27  C5  UNL     1      -9.926   8.306  14.825  1.00  0.00     0.028 C 
BRANCH  27  28
HETATM   28  C4  UNL     1     -11.169   7.574  14.402  1.00  0.00    -0.025 C 
HETATM   29  C2  UNL     1     -11.983   7.870  13.370  1.00  0.00    -0.091 C 
HETATM   30  C1  UNL     1     -13.222   7.054  13.109  1.00  0.00     0.042 C 
HETATM   31  C3  UNL     1     -11.760   8.990  12.392  1.00  0.00     0.042 C 
ENDBRANCH  27  28
ENDBRANCH  26  27
ENDBRANCH  24  26
ENDBRANCH   1  24
TORSDOF 4
ENDMDL
MODEL 6
REMARK minimizedAffinity -8.29035664
REMARK  4 active torsions:
REMARK  status: ('A' for Active; 'I' for Inactive)
REMARK    1  A    between atoms: C4_4  and  C5_5 
REMARK    2  A    between atoms: C5_5  and  C6_6 
REMARK    3  A    between atoms: C6_6  and  C7_7 
REMARK    4  A    between atoms: C7_7  and  C9_9 
ROOT
HETATM    1  C9  UNL     1      -1.615   7.195  14.098  1.00  0.00    -0.002 C 
HETATM    2  C10 UNL     1      -2.082   7.843  12.754  1.00  0.00     0.007 C 
HETATM    3  C11 UNL     1      -0.843   8.465  12.081  1.00  0.00     0.015 C 
HETATM    4  C12 UNL     1       0.218   8.503  13.197  1.00  0.00    -0.013 C 
HETATM    5  C13 UNL     1      -0.104   9.777  14.039  1.00  0.00     0.021 C 
HETATM    6  C14 UNL     1       1.703   8.552  12.842  1.00  0.00    -0.070 C 
HETATM    7  C15 UNL     1       2.172   8.584  11.582  1.00  0.00    -0.022 C 
HETATM    8  C16 UNL     1       3.621   8.447  11.216  1.00  0.00     0.034 C 
HETATM    9  C17 UNL     1       4.481   7.896  12.375  1.00  0.00     0.013 C 
HETATM   10  C18 UNL     1       6.016   7.712  12.057  1.00  0.00     0.018 C 
HETATM   11  C19 UNL     1       6.407   8.173  10.636  1.00  0.00     0.023 C 
HETATM   12  C20 UNL     1       6.385   6.214  12.161  1.00  0.00     0.023 C 
HETATM   13  C21 UNL     1       6.926   8.438  13.061  1.00  0.00     0.135 C 
HETATM   14  O1  UNL     1       7.981   8.978  12.713  1.00  0.00    -0.297 OA
HETATM   15  C22 UNL     1       6.570   8.414  14.530  1.00  0.00     0.080 C 
HETATM   16  C23 UNL     1       5.098   8.146  14.796  1.00  0.00     0.017 C 
HETATM   17  C24 UNL     1       4.163   8.677  13.690  1.00  0.00    -0.031 C 
HETATM   18  C25 UNL     1       4.392  10.210  13.519  1.00  0.00     0.016 C 
HETATM   19  C26 UNL     1       2.637   8.477  14.062  1.00  0.00     0.024 C 
HETATM   20  C27 UNL     1       2.304   7.216  14.895  1.00  0.00     0.010 C 
HETATM   21  C28 UNL     1       0.795   7.043  15.193  1.00  0.00     0.011 C 
HETATM   22  C29 UNL     1      -0.067   7.122  13.913  1.00  0.00    -0.029 C 
HETATM   23  C30 UNL     1       0.285   5.887  13.023  1.00  0.00     0.016 C 
ENDROOT
BRANCH   1  24
HETATM   24  C7  UNL     1      -2.437   5.910  14.430  1.00  0.00    -0.014 C 
HETATM   25  C8  UNL     1      -3.605   6.195  15.377  1.00  0.00     0.010 C 
BRANCH  24  26
HETATM   26  C6  UNL     1      -2.959   5.267  13.112  1.00  0.00     0.008 C 
BRANCH  26  27
HETATM   27  C5  UNL     1      -4.456   4.936  13.054  1.00  0.00     0.028 C 
BRANCH  27  28
HETATM   28  C4  UNL     1      -4.767   3.703  12.251  1.00  0.00    -0.025 C 
HETATM   29  C2  UNL     1      -5.930   3.024  12.210  1.00  0.00    -0.091 C 
HETATM   30  C1  UNL     1      -6.061   1.773  11.381  1.00  0.00     0.042 C 
HETATM   31  C3  UNL     1      -7.183   3.418  12.941  1.00  0.00     0.042 C 
ENDBRANCH  27  28
ENDBRANCH  26  27
ENDBRANCH  24  26
ENDBRANCH   1  24
TORSDOF 4
ENDMDL
MODEL 7
REMARK minimizedAffinity -8.27015305
REMARK  4 active torsions:
REMARK  status: ('A' for Active; 'I' for Inactive)
REMARK    1  A    between atoms: C4_4  and  C5_5 
REMARK    2  A    between atoms: C5_5  and  C6_6 
REMARK    3  A    between atoms: C6_6  and  C7_7 
REMARK    4  A    between atoms: C7_7  and  C9_9 
ROOT
HETATM    1  C9  UNL     1      -3.632   7.120  14.288  1.00  0.00    -0.002 C 
HETATM    2  C10 UNL     1      -4.337   8.102  13.296  1.00  0.00     0.007 C 
HETATM    3  C11 UNL     1      -3.248   8.720  12.398  1.00  0.00     0.015 C 
HETATM    4  C12 UNL     1      -1.928   8.390  13.119  1.00  0.00    -0.013 C 
HETATM    5  C13 UNL     1      -1.778   9.469  14.237  1.00  0.00     0.021 C 
HETATM    6  C14 UNL     1      -0.615   8.356  12.338  1.00  0.00    -0.070 C 
HETATM    7  C15 UNL     1      -0.518   8.620  11.023  1.00  0.00    -0.022 C 
HETATM    8  C16 UNL     1       0.726   8.411  10.208  1.00  0.00     0.034 C 
HETATM    9  C17 UNL     1       1.767   7.522  10.924  1.00  0.00     0.013 C 
HETATM   10  C18 UNL     1       3.097   7.249  10.119  1.00  0.00     0.018 C 
HETATM   11  C19 UNL     1       3.149   7.973   8.757  1.00  0.00     0.023 C 
HETATM   12  C20 UNL     1       3.218   5.735   9.829  1.00  0.00     0.023 C 
HETATM   13  C21 UNL     1       4.362   7.626  10.908  1.00  0.00     0.135 C 
HETATM   14  O1  UNL     1       5.354   8.112  10.356  1.00  0.00    -0.297 OA
HETATM   15  C22 UNL     1       4.431   7.311  12.385  1.00  0.00     0.080 C 
HETATM   16  C23 UNL     1       3.068   7.152  13.039  1.00  0.00     0.017 C 
HETATM   17  C24 UNL     1       1.967   8.017  12.392  1.00  0.00    -0.031 C 
HETATM   18  C25 UNL     1       2.399   9.514  12.442  1.00  0.00     0.016 C 
HETATM   19  C26 UNL     1       0.595   7.906  13.174  1.00  0.00     0.024 C 
HETATM   20  C27 UNL     1       0.297   6.534  13.824  1.00  0.00     0.010 C 
HETATM   21  C28 UNL     1      -1.076   6.463  14.537  1.00  0.00     0.011 C 
HETATM   22  C29 UNL     1      -2.233   6.923  13.623  1.00  0.00    -0.029 C 
HETATM   23  C30 UNL     1      -2.361   5.889  12.458  1.00  0.00     0.016 C 
ENDROOT
BRANCH   1  24
HETATM   24  C7  UNL     1      -4.536   5.891  14.616  1.00  0.00    -0.014 C 
HETATM   25  C8  UNL     1      -5.307   6.070  15.927  1.00  0.00     0.010 C 
BRANCH  24  26
HETATM   26  C6  UNL     1      -5.526   5.639  13.442  1.00  0.00     0.008 C 
BRANCH  26  27
HETATM   27  C5  UNL     1      -6.828   4.903  13.785  1.00  0.00     0.028 C 
BRANCH  27  28
HETATM   28  C4  UNL     1      -8.062   5.598  13.279  1.00  0.00    -0.025 C 
HETATM   29  C2  UNL     1      -8.954   6.308  13.996  1.00  0.00    -0.091 C 
HETATM   30  C1  UNL     1     -10.169   6.907  13.336  1.00  0.00     0.042 C 
HETATM   31  C3  UNL     1      -8.848   6.587  15.470  1.00  0.00     0.042 C 
ENDBRANCH  27  28
ENDBRANCH  26  27
ENDBRANCH  24  26
ENDBRANCH   1  24
TORSDOF 4
ENDMDL
MODEL 8
REMARK minimizedAffinity -8.04359913
REMARK  4 active torsions:
REMARK  status: ('A' for Active; 'I' for Inactive)
REMARK    1  A    between atoms: C4_4  and  C5_5 
REMARK    2  A    between atoms: C5_5  and  C6_6 
REMARK    3  A    between atoms: C6_6  and  C7_7 
REMARK    4  A    between atoms: C7_7  and  C9_9 
ROOT
HETATM    1  C9  UNL     1      -0.035  10.693  16.895  1.00  0.00    -0.002 C 
HETATM    2  C10 UNL     1      -0.774  12.070  16.961  1.00  0.00     0.007 C 
HETATM    3  C11 UNL     1      -2.169  11.880  16.334  1.00  0.00     0.015 C 
HETATM    4  C12 UNL     1      -2.072  10.535  15.589  1.00  0.00    -0.013 C 
HETATM    5  C13 UNL     1      -1.380  10.859  14.227  1.00  0.00     0.021 C 
HETATM    6  C14 UNL     1      -3.337   9.736  15.280  1.00  0.00    -0.070 C 
HETATM    7  C15 UNL     1      -4.578  10.141  15.605  1.00  0.00    -0.022 C 
HETATM    8  C16 UNL     1      -5.806   9.288  15.475  1.00  0.00     0.034 C 
HETATM    9  C17 UNL     1      -5.478   7.790  15.290  1.00  0.00     0.013 C 
HETATM   10  C18 UNL     1      -6.724   6.830  15.160  1.00  0.00     0.018 C 
HETATM   11  C19 UNL     1      -8.076   7.574  15.188  1.00  0.00     0.023 C 
HETATM   12  C20 UNL     1      -6.731   5.837  16.345  1.00  0.00     0.023 C 
HETATM   13  C21 UNL     1      -6.682   5.965  13.889  1.00  0.00     0.135 C 
HETATM   14  O1  UNL     1      -7.705   5.680  13.260  1.00  0.00    -0.297 OA
HETATM   15  C22 UNL     1      -5.365   5.368  13.447  1.00  0.00     0.080 C 
HETATM   16  C23 UNL     1      -4.150   6.109  13.979  1.00  0.00     0.017 C 
HETATM   17  C24 UNL     1      -4.388   7.619  14.183  1.00  0.00    -0.031 C 
HETATM   18  C25 UNL     1      -4.835   8.254  12.831  1.00  0.00     0.016 C 
HETATM   19  C26 UNL     1      -3.066   8.368  14.629  1.00  0.00     0.024 C 
HETATM   20  C27 UNL     1      -2.094   7.554  15.517  1.00  0.00     0.010 C 
HETATM   21  C28 UNL     1      -0.841   8.346  15.963  1.00  0.00     0.011 C 
HETATM   22  C29 UNL     1      -1.205   9.699  16.613  1.00  0.00    -0.029 C 
HETATM   23  C30 UNL     1      -1.957   9.400  17.950  1.00  0.00     0.016 C 
ENDROOT
BRANCH   1  24
HETATM   24  C7  UNL     1       0.902  10.488  18.127  1.00  0.00    -0.014 C 
HETATM   25  C8  UNL     1       2.383  10.504  17.740  1.00  0.00     0.010 C 
BRANCH  24  26
HETATM   26  C6  UNL     1       0.614  11.585  19.193  1.00  0.00     0.008 C 
BRANCH  26  27
HETATM   27  C5  UNL     1       1.472  11.551  20.465  1.00  0.00     0.028 C 
BRANCH  27  28
HETATM   28  C4  UNL     1       1.530  10.195  21.114  1.00  0.00    -0.025 C 
HETATM   29  C2  UNL     1       2.415   9.765  22.034  1.00  0.00    -0.091 C 
HETATM   30  C1  UNL     1       2.359   8.351  22.552  1.00  0.00     0.042 C 
HETATM   31  C3  UNL     1       3.505  10.605  22.639  1.00  0.00     0.042 C 
ENDBRANCH  27  28
ENDBRANCH  26  27
ENDBRANCH  24  26
ENDBRANCH   1  24
TORSDOF 4
ENDMDL
MODEL 9
REMARK minimizedAffinity -8.0200882
REMARK  4 active torsions:
REMARK  status: ('A' for Active; 'I' for Inactive)
REMARK    1  A    between atoms: C4_4  and  C5_5 
REMARK    2  A    between atoms: C5_5  and  C6_6 
REMARK    3  A    between atoms: C6_6  and  C7_7 
REMARK    4  A    between atoms: C7_7  and  C9_9 
ROOT
HETATM    1  C9  UNL     1      -2.136   5.909  13.387  1.00  0.00    -0.002 C 
HETATM    2  C10 UNL     1      -3.613   6.066  12.897  1.00  0.00     0.007 C 
HETATM    3  C11 UNL     1      -4.242   7.235  13.681  1.00  0.00     0.015 C 
HETATM    4  C12 UNL     1      -3.269   7.475  14.851  1.00  0.00    -0.013 C 
HETATM    5  C13 UNL     1      -3.636   6.405  15.928  1.00  0.00     0.021 C 
HETATM    6  C14 UNL     1      -3.230   8.833  15.551  1.00  0.00    -0.070 C 
HETATM    7  C15 UNL     1      -4.023   9.868  15.221  1.00  0.00    -0.022 C 
HETATM    8  C16 UNL     1      -3.870  11.257  15.770  1.00  0.00     0.034 C 
HETATM    9  C17 UNL     1      -2.505  11.483  16.456  1.00  0.00     0.013 C 
HETATM   10  C18 UNL     1      -2.269  12.928  17.046  1.00  0.00     0.018 C 
HETATM   11  C19 UNL     1      -3.485  13.863  16.879  1.00  0.00     0.023 C 
HETATM   12  C20 UNL     1      -1.084  13.594  16.309  1.00  0.00     0.023 C 
HETATM   13  C21 UNL     1      -1.881  12.910  18.533  1.00  0.00     0.135 C 
HETATM   14  O1  UNL     1      -2.268  13.781  19.319  1.00  0.00    -0.297 OA
HETATM   15  C22 UNL     1      -0.925  11.851  19.034  1.00  0.00     0.080 C 
HETATM   16  C23 UNL     1      -0.872  10.613  18.154  1.00  0.00     0.017 C 
HETATM   17  C24 UNL     1      -2.203  10.306  17.438  1.00  0.00    -0.031 C 
HETATM   18  C25 UNL     1      -3.330  10.141  18.503  1.00  0.00     0.016 C 
HETATM   19  C26 UNL     1      -2.135   8.949  16.624  1.00  0.00     0.024 C 
HETATM   20  C27 UNL     1      -0.760   8.601  16.005  1.00  0.00     0.010 C 
HETATM   21  C28 UNL     1      -0.758   7.289  15.182  1.00  0.00     0.011 C 
HETATM   22  C29 UNL     1      -1.882   7.261  14.123  1.00  0.00    -0.029 C 
HETATM   23  C30 UNL     1      -1.570   8.369  13.066  1.00  0.00     0.016 C 
ENDROOT
BRANCH   1  24
HETATM   24  C7  UNL     1      -1.197   5.444  12.230  1.00  0.00    -0.014 C 
HETATM   25  C8  UNL     1       0.285   5.597  12.586  1.00  0.00     0.010 C 
BRANCH  24  26
HETATM   26  C6  UNL     1      -1.510   3.965  11.861  1.00  0.00     0.008 C 
BRANCH  26  27
HETATM   27  C5  UNL     1      -2.292   3.731  10.561  1.00  0.00     0.028 C 
BRANCH  27  28
HETATM   28  C4  UNL     1      -3.764   3.516  10.777  1.00  0.00    -0.025 C 
HETATM   29  C2  UNL     1      -4.367   2.421  11.280  1.00  0.00    -0.091 C 
HETATM   30  C1  UNL     1      -5.867   2.350  11.389  1.00  0.00     0.042 C 
HETATM   31  C3  UNL     1      -3.650   1.197  11.782  1.00  0.00     0.042 C 
ENDBRANCH  27  28
ENDBRANCH  26  27
ENDBRANCH  24  26
ENDBRANCH   1  24
TORSDOF 4
ENDMDL
