MODEL 1
REMARK minimizedAffinity -8.07499599
REMARK CNNscore 0.706382155
REMARK CNNaffinity 6.62484932
REMARK  12 active torsions:
REMARK  status: ('A' for Active; 'I' for Inactive)
REMARK    1  A    between atoms: C2_2  and  N1_3 
REMARK    2  A    between atoms: N1_3  and  C3_4 
REMARK    3  A    between atoms: C3_4  and  C4_5 
REMARK    4  A    between atoms: C4_5  and  C5_6 
REMARK    5  A    between atoms: C4_5  and  C32_37 
REMARK    6  A    between atoms: C5_6  and  C7_8 
REMARK    7  A    between atoms: C9_10  and  O1_11 
REMARK    8  A    between atoms: C31_35  and  O4_36 
REMARK    9  A    between atoms: C32_37  and  O5_38 
REMARK   10  A    between atoms: C32_37  and  C33_39 
REMARK   11  A    between atoms: C34_40  and  C36_42 
REMARK   12  A    between atoms: C36_42  and  O7_44 
ROOT
HETATM    1  C7  UNL     1     -12.970  45.497 -27.689  1.00  0.00     0.002 C 
HETATM    2  C8  UNL     1     -12.763  46.542 -26.556  1.00  0.00     0.038 C 
HETATM    3  C9  UNL     1     -11.409  47.242 -26.831  1.00  0.00     0.132 C 
HETATM    4  C10 UNL     1     -11.014  46.807 -28.277  1.00  0.00     0.017 C 
HETATM    5  C11 UNL     1     -11.787  47.711 -29.303  1.00  0.00     0.023 C 
HETATM    6  C12 UNL     1      -9.556  46.859 -28.756  1.00  0.00    -0.029 C 
HETATM    7  C13 UNL     1      -9.073  45.941 -29.640  1.00  0.00     0.003 C 
HETATM    8  C14 UNL     1     -10.031  44.931 -30.235  1.00  0.00     0.157 C 
HETATM    9  O2  UNL     1      -9.729  44.239 -31.206  1.00  0.00    -0.293 OA
HETATM   10  C15 UNL     1     -11.406  44.740 -29.634  1.00  0.00     0.094 C 
HETATM   11  C16 UNL     1     -11.499  45.289 -28.212  1.00  0.00    -0.016 C 
HETATM   12  C17 UNL     1     -10.726  44.291 -27.233  1.00  0.00     0.011 C 
HETATM   13  C18 UNL     1      -9.369  44.604 -26.573  1.00  0.00     0.001 C 
HETATM   14  C19 UNL     1      -8.232  43.618 -26.879  1.00  0.00     0.000 C 
HETATM   15  C20 UNL     1      -7.629  43.692 -28.283  1.00  0.00     0.001 C 
HETATM   16  C21 UNL     1      -6.975  45.051 -28.625  1.00  0.00     0.015 C 
HETATM   17  C22 UNL     1      -7.552  45.812 -29.897  1.00  0.00    -0.004 C 
HETATM   18  C23 UNL     1      -7.140  44.972 -31.152  1.00  0.00     0.022 C 
HETATM   19  C24 UNL     1      -5.703  45.202 -31.586  1.00  0.00     0.080 C 
HETATM   20  C25 UNL     1      -5.561  46.608 -32.093  1.00  0.00     0.135 C 
HETATM   21  O3  UNL     1      -4.804  46.856 -33.031  1.00  0.00    -0.297 OA
HETATM   22  C26 UNL     1      -6.399  47.702 -31.410  1.00  0.00     0.018 C 
HETATM   23  C27 UNL     1      -7.566  48.043 -32.355  1.00  0.00     0.023 C 
HETATM   24  C28 UNL     1      -5.487  48.951 -31.307  1.00  0.00     0.023 C 
HETATM   25  C29 UNL     1      -6.847  47.237 -29.970  1.00  0.00     0.017 C 
HETATM   26  C30 UNL     1      -7.619  48.361 -29.243  1.00  0.00     0.043 C 
HETATM   27  C31 UNL     1      -8.633  47.921 -28.199  1.00  0.00     0.149 C 
ENDROOT
BRANCH   1  28
HETATM   28  C5  UNL     1     -14.014  44.366 -27.364  1.00  0.00    -0.005 C 
HETATM   29  C6  UNL     1     -13.827  43.013 -28.061  1.00  0.00     0.011 C 
BRANCH  28  30
HETATM   30  C4  UNL     1     -15.498  44.893 -27.361  1.00  0.00     0.050 C 
BRANCH  30  31
HETATM   31  C3  UNL     1     -16.368  44.535 -28.596  1.00  0.00     0.277 C 
BRANCH  31  32
HETATM   32  N1  UNL     1     -17.647  43.893 -28.319  1.00  0.00     0.083 N 
HETATM   33  H6  UNL     1     -17.680  43.542 -27.363  1.00  0.00     0.315 HD
BRANCH  32  34
HETATM   34  C2  UNL     1     -17.915  42.795 -29.246  1.00  0.00     0.265 C 
HETATM   35  C1  UNL     1     -18.577  43.331 -30.507  1.00  0.00     0.037 C 
ENDBRANCH  32  34
ENDBRANCH  31  32
ENDBRANCH  30  31
BRANCH  30  36
HETATM   36  C32 UNL     1     -16.245  44.681 -26.008  1.00  0.00     0.147 C 
BRANCH  36  37
HETATM   37  O5  UNL     1     -16.588  43.299 -25.936  1.00  0.00    -0.391 OA
HETATM   38  H50 UNL     1     -15.863  42.856 -25.468  1.00  0.00     0.210 HD
ENDBRANCH  36  37
BRANCH  36  39
HETATM   39  C33 UNL     1     -17.463  45.537 -25.777  1.00  0.00     0.018 C 
HETATM   40  C34 UNL     1     -18.356  45.537 -24.763  1.00  0.00     0.010 C 
HETATM   41  C35 UNL     1     -18.296  44.642 -23.555  1.00  0.00     0.055 C 
BRANCH  40  42
HETATM   42  C36 UNL     1     -19.491  46.490 -24.782  1.00  0.00     0.171 C 
HETATM   43  O6  UNL     1     -20.673  46.198 -24.839  1.00  0.00    -0.646 OA
BRANCH  42  44
HETATM   44  O7  UNL     1     -19.118  47.779 -24.767  1.00  0.00    -0.773 OA
HETATM   45  H55 UNL     1     -19.975  48.251 -24.797  1.00  0.00     0.167 HD
ENDBRANCH  42  44
ENDBRANCH  40  42
ENDBRANCH  36  39
ENDBRANCH  30  36
ENDBRANCH  28  30
ENDBRANCH   1  28
BRANCH   3  46
HETATM   46  O1  UNL     1     -11.560  48.631 -26.591  1.00  0.00    -0.394 OA
HETATM   47  H18 UNL     1     -11.187  49.120 -27.358  1.00  0.00     0.210 HD
ENDBRANCH   3  46
BRANCH  27  48
HETATM   48  O4  UNL     1      -9.363  49.095 -27.856  1.00  0.00    -0.391 OA
HETATM   49  H48 UNL     1      -9.097  49.333 -26.950  1.00  0.00     0.210 HD
ENDBRANCH  27  48
TORSDOF 12
ENDMDL
MODEL 2
REMARK minimizedAffinity -9.320961
REMARK CNNscore 0.655878961
REMARK CNNaffinity 6.6510849
REMARK  12 active torsions:
REMARK  status: ('A' for Active; 'I' for Inactive)
REMARK    1  A    between atoms: C2_2  and  N1_3 
REMARK    2  A    between atoms: N1_3  and  C3_4 
REMARK    3  A    between atoms: C3_4  and  C4_5 
REMARK    4  A    between atoms: C4_5  and  C5_6 
REMARK    5  A    between atoms: C4_5  and  C32_37 
REMARK    6  A    between atoms: C5_6  and  C7_8 
REMARK    7  A    between atoms: C9_10  and  O1_11 
REMARK    8  A    between atoms: C31_35  and  O4_36 
REMARK    9  A    between atoms: C32_37  and  O5_38 
REMARK   10  A    between atoms: C32_37  and  C33_39 
REMARK   11  A    between atoms: C34_40  and  C36_42 
REMARK   12  A    between atoms: C36_42  and  O7_44 
ROOT
HETATM    1  C7  UNL     1       4.089  66.856 -37.247  1.00  0.00     0.002 C 
HETATM    2  C8  UNL     1       3.172  66.984 -35.996  1.00  0.00     0.038 C 
HETATM    3  C9  UNL     1       1.879  67.700 -36.458  1.00  0.00     0.132 C 
HETATM    4  C10 UNL     1       1.945  67.692 -38.017  1.00  0.00     0.017 C 
HETATM    5  C11 UNL     1       1.457  66.291 -38.534  1.00  0.00     0.023 C 
HETATM    6  C12 UNL     1       1.147  68.701 -38.855  1.00  0.00    -0.029 C 
HETATM    7  C13 UNL     1       1.635  69.178 -40.035  1.00  0.00     0.003 C 
HETATM    8  C14 UNL     1       2.933  68.608 -40.568  1.00  0.00     0.157 C 
HETATM    9  O2  UNL     1       3.306  68.806 -41.723  1.00  0.00    -0.293 OA
HETATM   10  C15 UNL     1       3.821  67.773 -39.674  1.00  0.00     0.094 C 
HETATM   11  C16 UNL     1       3.506  67.972 -38.192  1.00  0.00    -0.016 C 
HETATM   12  C17 UNL     1       4.073  69.395 -37.742  1.00  0.00     0.011 C 
HETATM   13  C18 UNL     1       3.189  70.620 -37.430  1.00  0.00     0.001 C 
HETATM   14  C19 UNL     1       3.463  71.875 -38.271  1.00  0.00     0.000 C 
HETATM   15  C20 UNL     1       2.988  71.833 -39.725  1.00  0.00     0.001 C 
HETATM   16  C21 UNL     1       1.461  71.662 -39.893  1.00  0.00     0.015 C 
HETATM   17  C22 UNL     1       0.980  70.397 -40.728  1.00  0.00    -0.004 C 
HETATM   18  C23 UNL     1       1.404  70.647 -42.214  1.00  0.00     0.022 C 
HETATM   19  C24 UNL     1       0.466  71.577 -42.961  1.00  0.00     0.080 C 
HETATM   20  C25 UNL     1      -0.865  70.903 -43.128  1.00  0.00     0.135 C 
HETATM   21  O3  UNL     1      -1.528  71.082 -44.150  1.00  0.00    -0.297 OA
HETATM   22  C26 UNL     1      -1.348  69.984 -41.994  1.00  0.00     0.018 C 
HETATM   23  C27 UNL     1      -1.149  68.531 -42.463  1.00  0.00     0.023 C 
HETATM   24  C28 UNL     1      -2.871  70.234 -41.847  1.00  0.00     0.023 C 
HETATM   25  C29 UNL     1      -0.608  70.336 -40.644  1.00  0.00     0.017 C 
HETATM   26  C30 UNL     1      -1.146  69.473 -39.480  1.00  0.00     0.043 C 
HETATM   27  C31 UNL     1      -0.182  69.204 -38.335  1.00  0.00     0.149 C 
ENDROOT
BRANCH   1  28
HETATM   28  C5  UNL     1       5.609  66.601 -36.930  1.00  0.00    -0.005 C 
HETATM   29  C6  UNL     1       6.578  66.554 -38.117  1.00  0.00     0.011 C 
BRANCH  28  30
HETATM   30  C4  UNL     1       5.824  65.452 -35.874  1.00  0.00     0.050 C 
BRANCH  30  31
HETATM   31  C3  UNL     1       4.619  65.116 -34.954  1.00  0.00     0.277 C 
BRANCH  31  32
HETATM   32  N1  UNL     1       4.840  65.266 -33.521  1.00  0.00     0.083 N 
HETATM   33  H6  UNL     1       5.821  65.458 -33.321  1.00  0.00     0.315 HD
BRANCH  32  34
HETATM   34  C2  UNL     1       4.419  64.079 -32.780  1.00  0.00     0.265 C 
HETATM   35  C1  UNL     1       3.702  64.493 -31.503  1.00  0.00     0.037 C 
ENDBRANCH  32  34
ENDBRANCH  31  32
ENDBRANCH  30  31
BRANCH  30  36
HETATM   36  C32 UNL     1       6.523  64.182 -36.450  1.00  0.00     0.147 C 
BRANCH  36  37
HETATM   37  O5  UNL     1       5.500  63.372 -37.027  1.00  0.00    -0.391 OA
HETATM   38  H50 UNL     1       5.444  63.620 -37.964  1.00  0.00     0.210 HD
ENDBRANCH  36  37
BRANCH  36  39
HETATM   39  C33 UNL     1       7.345  63.375 -35.481  1.00  0.00     0.018 C 
HETATM   40  C34 UNL     1       7.031  62.270 -34.770  1.00  0.00     0.010 C 
HETATM   41  C35 UNL     1       5.711  61.549 -34.827  1.00  0.00     0.055 C 
BRANCH  40  42
HETATM   42  C36 UNL     1       8.035  61.667 -33.863  1.00  0.00     0.171 C 
HETATM   43  O6  UNL     1       8.807  62.274 -33.140  1.00  0.00    -0.646 OA
BRANCH  42  44
HETATM   44  O7  UNL     1       8.074  60.326 -33.910  1.00  0.00    -0.773 OA
HETATM   45  H55 UNL     1       8.786  60.109 -33.274  1.00  0.00     0.167 HD
ENDBRANCH  42  44
ENDBRANCH  40  42
ENDBRANCH  36  39
ENDBRANCH  30  36
ENDBRANCH  28  30
ENDBRANCH   1  28
BRANCH   3  46
HETATM   46  O1  UNL     1       0.768  67.060 -35.854  1.00  0.00    -0.394 OA
HETATM   47  H18 UNL     1       0.097  66.880 -36.550  1.00  0.00     0.210 HD
ENDBRANCH   3  46
BRANCH  27  48
HETATM   48  O4  UNL     1      -0.815  68.217 -37.526  1.00  0.00    -0.391 OA
HETATM   49  H48 UNL     1      -1.078  68.661 -36.701  1.00  0.00     0.210 HD
ENDBRANCH  27  48
TORSDOF 12
ENDMDL
MODEL 3
REMARK minimizedAffinity -7.61244822
REMARK CNNscore 0.483784914
REMARK CNNaffinity 6.5487113
REMARK  12 active torsions:
REMARK  status: ('A' for Active; 'I' for Inactive)
REMARK    1  A    between atoms: C2_2  and  N1_3 
REMARK    2  A    between atoms: N1_3  and  C3_4 
REMARK    3  A    between atoms: C3_4  and  C4_5 
REMARK    4  A    between atoms: C4_5  and  C5_6 
REMARK    5  A    between atoms: C4_5  and  C32_37 
REMARK    6  A    between atoms: C5_6  and  C7_8 
REMARK    7  A    between atoms: C9_10  and  O1_11 
REMARK    8  A    between atoms: C31_35  and  O4_36 
REMARK    9  A    between atoms: C32_37  and  O5_38 
REMARK   10  A    between atoms: C32_37  and  C33_39 
REMARK   11  A    between atoms: C34_40  and  C36_42 
REMARK   12  A    between atoms: C36_42  and  O7_44 
ROOT
HETATM    1  C7  UNL     1       1.881  54.954  -9.539  1.00  0.00     0.002 C 
HETATM    2  C8  UNL     1       2.779  55.710 -10.560  1.00  0.00     0.038 C 
HETATM    3  C9  UNL     1       4.155  55.917  -9.881  1.00  0.00     0.132 C 
HETATM    4  C10 UNL     1       4.122  55.008  -8.612  1.00  0.00     0.017 C 
HETATM    5  C11 UNL     1       4.458  53.535  -9.040  1.00  0.00     0.023 C 
HETATM    6  C12 UNL     1       5.050  55.273  -7.417  1.00  0.00    -0.029 C 
HETATM    7  C13 UNL     1       4.645  55.012  -6.142  1.00  0.00     0.003 C 
HETATM    8  C14 UNL     1       3.302  54.346  -5.927  1.00  0.00     0.157 C 
HETATM    9  O2  UNL     1       2.979  53.865  -4.842  1.00  0.00    -0.293 OA
HETATM   10  C15 UNL     1       2.304  54.262  -7.061  1.00  0.00     0.094 C 
HETATM   11  C16 UNL     1       2.609  55.260  -8.177  1.00  0.00    -0.016 C 
HETATM   12  C17 UNL     1       2.199  56.720  -7.676  1.00  0.00     0.011 C 
HETATM   13  C18 UNL     1       3.211  57.821  -7.298  1.00  0.00     0.001 C 
HETATM   14  C19 UNL     1       3.102  58.369  -5.869  1.00  0.00     0.000 C 
HETATM   15  C20 UNL     1       3.599  57.451  -4.750  1.00  0.00     0.001 C 
HETATM   16  C21 UNL     1       5.101  57.091  -4.841  1.00  0.00     0.015 C 
HETATM   17  C22 UNL     1       5.450  55.542  -4.931  1.00  0.00    -0.004 C 
HETATM   18  C23 UNL     1       5.090  54.915  -3.544  1.00  0.00     0.022 C 
HETATM   19  C24 UNL     1       6.145  55.157  -2.479  1.00  0.00     0.080 C 
HETATM   20  C25 UNL     1       7.393  54.407  -2.844  1.00  0.00     0.135 C 
HETATM   21  O3  UNL     1       8.094  53.904  -1.966  1.00  0.00    -0.297 OA
HETATM   22  C26 UNL     1       7.743  54.284  -4.336  1.00  0.00     0.018 C 
HETATM   23  C27 UNL     1       7.388  52.850  -4.775  1.00  0.00     0.023 C 
HETATM   24  C28 UNL     1       9.280  54.448  -4.440  1.00  0.00     0.023 C 
HETATM   25  C29 UNL     1       7.018  55.413  -5.169  1.00  0.00     0.017 C 
HETATM   26  C30 UNL     1       7.429  55.349  -6.658  1.00  0.00     0.043 C 
HETATM   27  C31 UNL     1       6.416  55.875  -7.662  1.00  0.00     0.149 C 
ENDROOT
BRANCH   1  28
HETATM   28  C5  UNL     1       0.335  55.055  -9.816  1.00  0.00    -0.005 C 
HETATM   29  C6  UNL     1      -0.530  55.728  -8.743  1.00  0.00     0.011 C 
BRANCH  28  30
HETATM   30  C4  UNL     1      -0.268  53.716 -10.387  1.00  0.00     0.050 C 
BRANCH  30  31
HETATM   31  C3  UNL     1       0.709  52.782 -11.151  1.00  0.00     0.277 C 
BRANCH  31  32
HETATM   32  N1  UNL     1       0.855  53.032 -12.579  1.00  0.00     0.083 N 
HETATM   33  H6  UNL     1       0.716  54.019 -12.794  1.00  0.00     0.315 HD
BRANCH  32  34
HETATM   34  C2  UNL     1      -0.077  52.230 -13.370  1.00  0.00     0.265 C 
HETATM   35  C1  UNL     1       0.527  51.926 -14.733  1.00  0.00     0.037 C 
ENDBRANCH  32  34
ENDBRANCH  31  32
ENDBRANCH  30  31
BRANCH  30  36
HETATM   36  C32 UNL     1      -1.180  52.950  -9.380  1.00  0.00     0.147 C 
BRANCH  36  37
HETATM   37  O5  UNL     1      -0.316  52.257  -8.482  1.00  0.00    -0.391 OA
HETATM   38  H50 UNL     1      -0.174  52.844  -7.723  1.00  0.00     0.210 HD
ENDBRANCH  36  37
BRANCH  36  39
HETATM   39  C33 UNL     1      -2.185  52.001  -9.978  1.00  0.00     0.018 C 
HETATM   40  C34 UNL     1      -3.401  52.237 -10.520  1.00  0.00     0.010 C 
HETATM   41  C35 UNL     1      -4.032  53.593 -10.675  1.00  0.00     0.055 C 
BRANCH  40  42
HETATM   42  C36 UNL     1      -4.208  51.106 -11.036  1.00  0.00     0.171 C 
HETATM   43  O6  UNL     1      -3.887  50.345 -11.932  1.00  0.00    -0.646 OA
BRANCH  42  44
HETATM   44  O7  UNL     1      -5.407  50.981 -10.445  1.00  0.00    -0.773 OA
HETATM   45  H55 UNL     1      -5.796  50.213 -10.911  1.00  0.00     0.167 HD
ENDBRANCH  42  44
ENDBRANCH  40  42
ENDBRANCH  36  39
ENDBRANCH  30  36
ENDBRANCH  28  30
ENDBRANCH   1  28
BRANCH   3  46
HETATM   46  O1  UNL     1       5.173  55.660 -10.835  1.00  0.00    -0.394 OA
HETATM   47  H18 UNL     1       5.833  55.055 -10.429  1.00  0.00     0.210 HD
ENDBRANCH   3  46
BRANCH  27  48
HETATM   48  O4  UNL     1       6.914  55.495  -8.942  1.00  0.00    -0.391 OA
HETATM   49  H48 UNL     1       7.208  56.314  -9.380  1.00  0.00     0.210 HD
ENDBRANCH  27  48
TORSDOF 12
ENDMDL
MODEL 4
REMARK minimizedAffinity -8.5873785
REMARK CNNscore 0.469008923
REMARK CNNaffinity 6.42959929
REMARK  12 active torsions:
REMARK  status: ('A' for Active; 'I' for Inactive)
REMARK    1  A    between atoms: C2_2  and  N1_3 
REMARK    2  A    between atoms: N1_3  and  C3_4 
REMARK    3  A    between atoms: C3_4  and  C4_5 
REMARK    4  A    between atoms: C4_5  and  C5_6 
REMARK    5  A    between atoms: C4_5  and  C32_37 
REMARK    6  A    between atoms: C5_6  and  C7_8 
REMARK    7  A    between atoms: C9_10  and  O1_11 
REMARK    8  A    between atoms: C31_35  and  O4_36 
REMARK    9  A    between atoms: C32_37  and  O5_38 
REMARK   10  A    between atoms: C32_37  and  C33_39 
REMARK   11  A    between atoms: C34_40  and  C36_42 
REMARK   12  A    between atoms: C36_42  and  O7_44 
ROOT
HETATM    1  C7  UNL     1     -13.147  46.208 -27.581  1.00  0.00     0.002 C 
HETATM    2  C8  UNL     1     -12.804  47.281 -26.508  1.00  0.00     0.038 C 
HETATM    3  C9  UNL     1     -11.372  47.783 -26.816  1.00  0.00     0.132 C 
HETATM    4  C10 UNL     1     -11.041  47.220 -28.234  1.00  0.00     0.017 C 
HETATM    5  C11 UNL     1     -11.695  48.157 -29.312  1.00  0.00     0.023 C 
HETATM    6  C12 UNL     1      -9.590  47.057 -28.709  1.00  0.00    -0.029 C 
HETATM    7  C13 UNL     1      -9.232  46.036 -29.537  1.00  0.00     0.003 C 
HETATM    8  C14 UNL     1     -10.314  45.125 -30.079  1.00  0.00     0.157 C 
HETATM    9  O2  UNL     1     -10.107  44.347 -31.008  1.00  0.00    -0.293 OA
HETATM   10  C15 UNL     1     -11.700  45.147 -29.473  1.00  0.00     0.094 C 
HETATM   11  C16 UNL     1     -11.717  45.783 -28.085  1.00  0.00    -0.016 C 
HETATM   12  C17 UNL     1     -11.077  44.751 -27.048  1.00  0.00     0.011 C 
HETATM   13  C18 UNL     1      -9.688  44.923 -26.401  1.00  0.00     0.001 C 
HETATM   14  C19 UNL     1      -8.689  43.783 -26.646  1.00  0.00     0.000 C 
HETATM   15  C20 UNL     1      -8.086  43.700 -28.049  1.00  0.00     0.001 C 
HETATM   16  C21 UNL     1      -7.263  44.942 -28.465  1.00  0.00     0.015 C 
HETATM   17  C22 UNL     1      -7.741  45.698 -29.780  1.00  0.00    -0.004 C 
HETATM   18  C23 UNL     1      -7.444  44.743 -30.984  1.00  0.00     0.022 C 
HETATM   19  C24 UNL     1      -5.992  44.760 -31.424  1.00  0.00     0.080 C 
HETATM   20  C25 UNL     1      -5.671  46.105 -32.009  1.00  0.00     0.135 C 
HETATM   21  O3  UNL     1      -4.891  46.200 -32.957  1.00  0.00    -0.297 OA
HETATM   22  C26 UNL     1      -6.359  47.335 -31.393  1.00  0.00     0.018 C 
HETATM   23  C27 UNL     1      -7.475  47.770 -32.361  1.00  0.00     0.023 C 
HETATM   24  C28 UNL     1      -5.293  48.460 -31.357  1.00  0.00     0.023 C 
HETATM   25  C29 UNL     1      -6.859  47.013 -29.930  1.00  0.00     0.017 C 
HETATM   26  C30 UNL     1      -7.478  48.268 -29.272  1.00  0.00     0.043 C 
HETATM   27  C31 UNL     1      -8.536  48.021 -28.208  1.00  0.00     0.149 C 
ENDROOT
BRANCH   1  28
HETATM   28  C5  UNL     1     -14.328  45.241 -27.196  1.00  0.00    -0.005 C 
HETATM   29  C6  UNL     1     -15.513  45.156 -28.165  1.00  0.00     0.011 C 
BRANCH  28  30
HETATM   30  C4  UNL     1     -14.738  45.359 -25.680  1.00  0.00     0.050 C 
BRANCH  30  31
HETATM   31  C3  UNL     1     -13.759  44.748 -24.642  1.00  0.00     0.277 C 
BRANCH  31  32
HETATM   32  N1  UNL     1     -14.233  43.573 -23.923  1.00  0.00     0.083 N 
HETATM   33  H6  UNL     1     -14.682  42.913 -24.556  1.00  0.00     0.315 HD
BRANCH  32  34
HETATM   34  C2  UNL     1     -15.164  43.929 -22.855  1.00  0.00     0.265 C 
HETATM   35  C1  UNL     1     -14.611  43.478 -21.511  1.00  0.00     0.037 C 
ENDBRANCH  32  34
ENDBRANCH  31  32
ENDBRANCH  30  31
BRANCH  30  36
HETATM   36  C32 UNL     1     -15.256  46.773 -25.271  1.00  0.00     0.147 C 
BRANCH  36  37
HETATM   37  O5  UNL     1     -14.310  47.309 -24.348  1.00  0.00    -0.391 OA
HETATM   38  H50 UNL     1     -13.674  47.824 -24.868  1.00  0.00     0.210 HD
ENDBRANCH  36  37
BRANCH  36  39
HETATM   39  C33 UNL     1     -16.645  46.833 -24.693  1.00  0.00     0.018 C 
HETATM   40  C34 UNL     1     -17.767  46.161 -25.032  1.00  0.00     0.010 C 
HETATM   41  C35 UNL     1     -17.859  45.119 -26.113  1.00  0.00     0.055 C 
BRANCH  40  42
HETATM   42  C36 UNL     1     -19.029  46.418 -24.299  1.00  0.00     0.171 C 
HETATM   43  O6  UNL     1     -19.186  46.351 -23.092  1.00  0.00    -0.646 OA
BRANCH  42  44
HETATM   44  O7  UNL     1     -20.069  46.713 -25.096  1.00  0.00    -0.773 OA
HETATM   45  H55 UNL     1     -20.801  46.834 -24.457  1.00  0.00     0.167 HD
ENDBRANCH  42  44
ENDBRANCH  40  42
ENDBRANCH  36  39
ENDBRANCH  30  36
ENDBRANCH  28  30
ENDBRANCH   1  28
BRANCH   3  46
HETATM   46  O1  UNL     1     -11.342  49.191 -26.655  1.00  0.00    -0.394 OA
HETATM   47  H18 UNL     1     -10.912  49.585 -27.447  1.00  0.00     0.210 HD
ENDBRANCH   3  46
BRANCH  27  48
HETATM   48  O4  UNL     1      -9.108  49.297 -27.935  1.00  0.00    -0.391 OA
HETATM   49  H48 UNL     1      -8.811  49.549 -27.043  1.00  0.00     0.210 HD
ENDBRANCH  27  48
TORSDOF 12
ENDMDL
MODEL 5
REMARK minimizedAffinity -7.91535854
REMARK CNNscore 0.462503463
REMARK CNNaffinity 6.52678728
REMARK  12 active torsions:
REMARK  status: ('A' for Active; 'I' for Inactive)
REMARK    1  A    between atoms: C2_2  and  N1_3 
REMARK    2  A    between atoms: N1_3  and  C3_4 
REMARK    3  A    between atoms: C3_4  and  C4_5 
REMARK    4  A    between atoms: C4_5  and  C5_6 
REMARK    5  A    between atoms: C4_5  and  C32_37 
REMARK    6  A    between atoms: C5_6  and  C7_8 
REMARK    7  A    between atoms: C9_10  and  O1_11 
REMARK    8  A    between atoms: C31_35  and  O4_36 
REMARK    9  A    between atoms: C32_37  and  O5_38 
REMARK   10  A    between atoms: C32_37  and  C33_39 
REMARK   11  A    between atoms: C34_40  and  C36_42 
REMARK   12  A    between atoms: C36_42  and  O7_44 
ROOT
HETATM    1  C7  UNL     1      -8.534  47.129 -28.149  1.00  0.00     0.002 C 
HETATM    2  C8  UNL     1      -7.404  48.030 -28.725  1.00  0.00     0.038 C 
HETATM    3  C9  UNL     1      -7.445  47.874 -30.265  1.00  0.00     0.132 C 
HETATM    4  C10 UNL     1      -8.788  47.135 -30.562  1.00  0.00     0.017 C 
HETATM    5  C11 UNL     1      -9.954  48.187 -30.551  1.00  0.00     0.023 C 
HETATM    6  C12 UNL     1      -8.998  46.356 -31.868  1.00  0.00    -0.029 C 
HETATM    7  C13 UNL     1      -9.761  45.227 -31.899  1.00  0.00     0.003 C 
HETATM    8  C14 UNL     1     -10.498  44.814 -30.643  1.00  0.00     0.157 C 
HETATM    9  O2  UNL     1     -11.384  43.961 -30.658  1.00  0.00    -0.293 OA
HETATM   10  C15 UNL     1     -10.150  45.446 -29.313  1.00  0.00     0.094 C 
HETATM   11  C16 UNL     1      -8.779  46.119 -29.332  1.00  0.00    -0.016 C 
HETATM   12  C17 UNL     1      -7.658  44.983 -29.298  1.00  0.00     0.011 C 
HETATM   13  C18 UNL     1      -6.770  44.607 -30.502  1.00  0.00     0.001 C 
HETATM   14  C19 UNL     1      -6.847  43.142 -30.958  1.00  0.00     0.000 C 
HETATM   15  C20 UNL     1      -8.121  42.727 -31.696  1.00  0.00     0.001 C 
HETATM   16  C21 UNL     1      -8.367  43.488 -33.020  1.00  0.00     0.015 C 
HETATM   17  C22 UNL     1      -9.738  44.288 -33.129  1.00  0.00    -0.004 C 
HETATM   18  C23 UNL     1     -10.881  43.221 -33.196  1.00  0.00     0.022 C 
HETATM   19  C24 UNL     1     -11.054  42.608 -34.573  1.00  0.00     0.080 C 
HETATM   20  C25 UNL     1     -11.556  43.659 -35.520  1.00  0.00     0.135 C 
HETATM   21  O3  UNL     1     -12.348  43.362 -36.415  1.00  0.00    -0.297 OA
HETATM   22  C26 UNL     1     -11.058  45.099 -35.318  1.00  0.00     0.018 C 
HETATM   23  C27 UNL     1     -12.204  45.895 -34.665  1.00  0.00     0.023 C 
HETATM   24  C28 UNL     1     -10.818  45.683 -36.734  1.00  0.00     0.023 C 
HETATM   25  C29 UNL     1      -9.712  45.108 -34.492  1.00  0.00     0.017 C 
HETATM   26  C30 UNL     1      -9.160  46.545 -34.355  1.00  0.00     0.043 C 
HETATM   27  C31 UNL     1      -8.306  46.827 -33.129  1.00  0.00     0.149 C 
ENDROOT
BRANCH   1  28
HETATM   28  C5  UNL     1      -8.378  46.764 -26.626  1.00  0.00    -0.005 C 
HETATM   29  C6  UNL     1      -8.296  45.276 -26.264  1.00  0.00     0.011 C 
BRANCH  28  30
HETATM   30  C4  UNL     1      -9.336  47.603 -25.700  1.00  0.00     0.050 C 
BRANCH  30  31
HETATM   31  C3  UNL     1      -8.689  48.760 -24.892  1.00  0.00     0.277 C 
BRANCH  31  32
HETATM   32  N1  UNL     1      -7.241  48.887 -24.996  1.00  0.00     0.083 N 
HETATM   33  H6  UNL     1      -6.850  48.151 -25.582  1.00  0.00     0.315 HD
BRANCH  32  34
HETATM   34  C2  UNL     1      -6.597  48.853 -23.684  1.00  0.00     0.265 C 
HETATM   35  C1  UNL     1      -6.537  47.421 -23.173  1.00  0.00     0.037 C 
ENDBRANCH  32  34
ENDBRANCH  31  32
ENDBRANCH  30  31
BRANCH  30  36
HETATM   36  C32 UNL     1     -10.679  48.013 -26.381  1.00  0.00     0.147 C 
BRANCH  36  37
HETATM   37  O5  UNL     1     -10.764  49.435 -26.305  1.00  0.00    -0.391 OA
HETATM   38  H50 UNL     1     -10.381  49.781 -27.126  1.00  0.00     0.210 HD
ENDBRANCH  36  37
BRANCH  36  39
HETATM   39  C33 UNL     1     -11.928  47.383 -25.825  1.00  0.00     0.018 C 
HETATM   40  C34 UNL     1     -13.080  47.030 -26.437  1.00  0.00     0.010 C 
HETATM   41  C35 UNL     1     -13.360  47.176 -27.909  1.00  0.00     0.055 C 
BRANCH  40  42
HETATM   42  C36 UNL     1     -14.179  46.427 -25.647  1.00  0.00     0.171 C 
HETATM   43  O6  UNL     1     -14.497  45.250 -25.639  1.00  0.00    -0.646 OA
BRANCH  42  44
HETATM   44  O7  UNL     1     -14.874  47.315 -24.918  1.00  0.00    -0.773 OA
HETATM   45  H55 UNL     1     -15.550  46.755 -24.485  1.00  0.00     0.167 HD
ENDBRANCH  42  44
ENDBRANCH  40  42
ENDBRANCH  36  39
ENDBRANCH  30  36
ENDBRANCH  28  30
ENDBRANCH   1  28
BRANCH   3  46
HETATM   46  O1  UNL     1      -7.265  49.151 -30.854  1.00  0.00    -0.394 OA
HETATM   47  H18 UNL     1      -7.962  49.279 -31.535  1.00  0.00     0.210 HD
ENDBRANCH   3  46
BRANCH  27  48
HETATM   48  O4  UNL     1      -8.123  48.240 -33.106  1.00  0.00    -0.391 OA
HETATM   49  H48 UNL     1      -7.189  48.404 -33.328  1.00  0.00     0.210 HD
ENDBRANCH  27  48
TORSDOF 12
ENDMDL
MODEL 6
REMARK minimizedAffinity -9.08228111
REMARK CNNscore 0.424329907
REMARK CNNaffinity 6.93896341
REMARK  12 active torsions:
REMARK  status: ('A' for Active; 'I' for Inactive)
REMARK    1  A    between atoms: C2_2  and  N1_3 
REMARK    2  A    between atoms: N1_3  and  C3_4 
REMARK    3  A    between atoms: C3_4  and  C4_5 
REMARK    4  A    between atoms: C4_5  and  C5_6 
REMARK    5  A    between atoms: C4_5  and  C32_37 
REMARK    6  A    between atoms: C5_6  and  C7_8 
REMARK    7  A    between atoms: C9_10  and  O1_11 
REMARK    8  A    between atoms: C31_35  and  O4_36 
REMARK    9  A    between atoms: C32_37  and  O5_38 
REMARK   10  A    between atoms: C32_37  and  C33_39 
REMARK   11  A    between atoms: C34_40  and  C36_42 
REMARK   12  A    between atoms: C36_42  and  O7_44 
ROOT
HETATM    1  C7  UNL     1      -3.270  49.159 -22.452  1.00  0.00     0.002 C 
HETATM    2  C8  UNL     1      -3.973  48.677 -23.753  1.00  0.00     0.038 C 
HETATM    3  C9  UNL     1      -5.384  48.186 -23.347  1.00  0.00     0.132 C 
HETATM    4  C10 UNL     1      -5.579  48.682 -21.879  1.00  0.00     0.017 C 
HETATM    5  C11 UNL     1      -6.017  50.189 -21.912  1.00  0.00     0.023 C 
HETATM    6  C12 UNL     1      -6.595  48.015 -20.940  1.00  0.00    -0.029 C 
HETATM    7  C13 UNL     1      -6.355  47.916 -19.602  1.00  0.00     0.003 C 
HETATM    8  C14 UNL     1      -5.118  48.579 -19.034  1.00  0.00     0.157 C 
HETATM    9  O2  UNL     1      -4.963  48.741 -17.824  1.00  0.00    -0.293 OA
HETATM   10  C15 UNL     1      -4.021  49.060 -19.956  1.00  0.00     0.094 C 
HETATM   11  C16 UNL     1      -4.102  48.417 -21.339  1.00  0.00    -0.016 C 
HETATM   12  C17 UNL     1      -3.599  46.906 -21.224  1.00  0.00     0.011 C 
HETATM   13  C18 UNL     1      -4.526  45.676 -21.310  1.00  0.00     0.001 C 
HETATM   14  C19 UNL     1      -4.511  44.740 -20.093  1.00  0.00     0.000 C 
HETATM   15  C20 UNL     1      -5.216  45.252 -18.835  1.00  0.00     0.001 C 
HETATM   16  C21 UNL     1      -6.728  45.520 -19.015  1.00  0.00     0.015 C 
HETATM   17  C22 UNL     1      -7.224  47.000 -18.707  1.00  0.00    -0.004 C 
HETATM   18  C23 UNL     1      -7.079  47.214 -17.164  1.00  0.00     0.022 C 
HETATM   19  C24 UNL     1      -8.209  46.598 -16.359  1.00  0.00     0.080 C 
HETATM   20  C25 UNL     1      -9.483  47.336 -16.656  1.00  0.00     0.135 C 
HETATM   21  O3  UNL     1     -10.320  47.510 -15.770  1.00  0.00    -0.297 OA
HETATM   22  C26 UNL     1      -9.684  47.868 -18.084  1.00  0.00     0.018 C 
HETATM   23  C27 UNL     1      -9.435  49.388 -18.048  1.00  0.00     0.023 C 
HETATM   24  C28 UNL     1     -11.177  47.638 -18.431  1.00  0.00     0.023 C 
HETATM   25  C29 UNL     1      -8.764  47.086 -19.101  1.00  0.00     0.017 C 
HETATM   26  C30 UNL     1      -9.020  47.557 -20.551  1.00  0.00     0.043 C 
HETATM   27  C31 UNL     1      -7.858  47.420 -21.522  1.00  0.00     0.149 C 
ENDROOT
BRANCH   1  28
HETATM   28  C5  UNL     1      -1.701  49.249 -22.541  1.00  0.00    -0.005 C 
HETATM   29  C6  UNL     1      -0.902  48.880 -21.286  1.00  0.00     0.011 C 
BRANCH  28  30
HETATM   30  C4  UNL     1      -1.210  50.562 -23.259  1.00  0.00     0.050 C 
BRANCH  30  31
HETATM   31  C3  UNL     1      -1.394  50.626 -24.799  1.00  0.00     0.277 C 
BRANCH  31  32
HETATM   32  N1  UNL     1      -0.550  51.579 -25.510  1.00  0.00     0.083 N 
HETATM   33  H6  UNL     1      -1.113  52.281 -25.986  1.00  0.00     0.315 HD
BRANCH  32  34
HETATM   34  C2  UNL     1       0.318  50.916 -26.481  1.00  0.00     0.265 C 
HETATM   35  C1  UNL     1       1.749  51.406 -26.316  1.00  0.00     0.037 C 
ENDBRANCH  32  34
ENDBRANCH  31  32
ENDBRANCH  30  31
BRANCH  30  36
HETATM   36  C32 UNL     1      -1.638  51.878 -22.539  1.00  0.00     0.147 C 
BRANCH  36  37
HETATM   37  O5  UNL     1      -2.561  52.541 -23.402  1.00  0.00    -0.391 OA
HETATM   38  H50 UNL     1      -3.448  52.249 -23.139  1.00  0.00     0.210 HD
ENDBRANCH  36  37
BRANCH  36  39
HETATM   39  C33 UNL     1      -0.527  52.814 -22.142  1.00  0.00     0.018 C 
HETATM   40  C34 UNL     1       0.161  52.918 -20.983  1.00  0.00     0.010 C 
HETATM   41  C35 UNL     1      -0.034  52.038 -19.778  1.00  0.00     0.055 C 
BRANCH  40  42
HETATM   42  C36 UNL     1       1.216  53.948 -20.844  1.00  0.00     0.171 C 
HETATM   43  O6  UNL     1       1.757  54.551 -21.755  1.00  0.00    -0.646 OA
BRANCH  42  44
HETATM   44  O7  UNL     1       1.593  54.171 -19.574  1.00  0.00    -0.773 OA
HETATM   45  H55 UNL     1       2.289  54.852 -19.674  1.00  0.00     0.167 HD
ENDBRANCH  42  44
ENDBRANCH  40  42
ENDBRANCH  36  39
ENDBRANCH  30  36
ENDBRANCH  28  30
ENDBRANCH   1  28
BRANCH   3  46
HETATM   46  O1  UNL     1      -6.317  48.642 -24.312  1.00  0.00    -0.394 OA
HETATM   47  H18 UNL     1      -7.075  49.055 -23.841  1.00  0.00     0.210 HD
ENDBRANCH   3  46
BRANCH  27  48
HETATM   48  O4  UNL     1      -8.255  48.124 -22.695  1.00  0.00    -0.391 OA
HETATM   49  H48 UNL     1      -8.416  47.453 -23.381  1.00  0.00     0.210 HD
ENDBRANCH  27  48
TORSDOF 12
ENDMDL
MODEL 7
REMARK minimizedAffinity -7.83098984
REMARK CNNscore 0.423822045
REMARK CNNaffinity 6.45248795
REMARK  12 active torsions:
REMARK  status: ('A' for Active; 'I' for Inactive)
REMARK    1  A    between atoms: C2_2  and  N1_3 
REMARK    2  A    between atoms: N1_3  and  C3_4 
REMARK    3  A    between atoms: C3_4  and  C4_5 
REMARK    4  A    between atoms: C4_5  and  C5_6 
REMARK    5  A    between atoms: C4_5  and  C32_37 
REMARK    6  A    between atoms: C5_6  and  C7_8 
REMARK    7  A    between atoms: C9_10  and  O1_11 
REMARK    8  A    between atoms: C31_35  and  O4_36 
REMARK    9  A    between atoms: C32_37  and  O5_38 
REMARK   10  A    between atoms: C32_37  and  C33_39 
REMARK   11  A    between atoms: C34_40  and  C36_42 
REMARK   12  A    between atoms: C36_42  and  O7_44 
ROOT
HETATM    1  C7  UNL     1      -9.661  46.426 -31.304  1.00  0.00     0.002 C 
HETATM    2  C8  UNL     1      -9.659  47.981 -31.323  1.00  0.00     0.038 C 
HETATM    3  C9  UNL     1      -9.692  48.449 -29.847  1.00  0.00     0.132 C 
HETATM    4  C10 UNL     1      -9.399  47.166 -29.008  1.00  0.00     0.017 C 
HETATM    5  C11 UNL     1      -7.848  46.922 -28.987  1.00  0.00     0.023 C 
HETATM    6  C12 UNL     1      -9.815  47.063 -27.534  1.00  0.00    -0.029 C 
HETATM    7  C13 UNL     1     -10.202  45.874 -26.993  1.00  0.00     0.003 C 
HETATM    8  C14 UNL     1     -10.104  44.623 -27.841  1.00  0.00     0.157 C 
HETATM    9  O2  UNL     1     -10.199  43.497 -27.356  1.00  0.00    -0.293 OA
HETATM   10  C15 UNL     1      -9.889  44.732 -29.334  1.00  0.00     0.094 C 
HETATM   11  C16 UNL     1     -10.238  46.119 -29.871  1.00  0.00    -0.016 C 
HETATM   12  C17 UNL     1     -11.828  46.265 -29.900  1.00  0.00     0.011 C 
HETATM   13  C18 UNL     1     -12.633  47.150 -28.927  1.00  0.00     0.001 C 
HETATM   14  C19 UNL     1     -13.697  46.427 -28.089  1.00  0.00     0.000 C 
HETATM   15  C20 UNL     1     -13.180  45.547 -26.949  1.00  0.00     0.001 C 
HETATM   16  C21 UNL     1     -12.383  46.310 -25.865  1.00  0.00     0.015 C 
HETATM   17  C22 UNL     1     -10.893  45.819 -25.609  1.00  0.00    -0.004 C 
HETATM   18  C23 UNL     1     -10.989  44.404 -24.948  1.00  0.00     0.022 C 
HETATM   19  C24 UNL     1     -11.298  44.451 -23.463  1.00  0.00     0.080 C 
HETATM   20  C25 UNL     1     -10.129  45.053 -22.736  1.00  0.00     0.135 C 
HETATM   21  O3  UNL     1      -9.821  44.649 -21.615  1.00  0.00    -0.297 OA
HETATM   22  C26 UNL     1      -9.341  46.165 -23.448  1.00  0.00     0.018 C 
HETATM   23  C27 UNL     1      -8.026  45.543 -23.955  1.00  0.00     0.023 C 
HETATM   24  C28 UNL     1      -8.986  47.213 -22.363  1.00  0.00     0.023 C 
HETATM   25  C29 UNL     1     -10.221  46.829 -24.579  1.00  0.00     0.017 C 
HETATM   26  C30 UNL     1      -9.467  48.003 -25.244  1.00  0.00     0.043 C 
HETATM   27  C31 UNL     1      -9.840  48.316 -26.685  1.00  0.00     0.149 C 
ENDROOT
BRANCH   1  28
HETATM   28  C5  UNL     1     -10.103  45.748 -32.654  1.00  0.00    -0.005 C 
HETATM   29  C6  UNL     1     -10.935  44.464 -32.558  1.00  0.00     0.011 C 
BRANCH  28  30
HETATM   30  C4  UNL     1      -8.936  45.686 -33.711  1.00  0.00     0.050 C 
BRANCH  30  31
HETATM   31  C3  UNL     1      -8.803  46.896 -34.675  1.00  0.00     0.277 C 
BRANCH  31  32
HETATM   32  N1  UNL     1      -8.267  46.609 -35.999  1.00  0.00     0.083 N 
HETATM   33  H6  UNL     1      -7.252  46.534 -35.975  1.00  0.00     0.315 HD
BRANCH  32  34
HETATM   34  C2  UNL     1      -8.654  47.627 -36.974  1.00  0.00     0.265 C 
HETATM   35  C1  UNL     1      -7.416  48.184 -37.661  1.00  0.00     0.037 C 
ENDBRANCH  32  34
ENDBRANCH  31  32
ENDBRANCH  30  31
BRANCH  30  36
HETATM   36  C32 UNL     1      -7.568  45.224 -33.121  1.00  0.00     0.147 C 
BRANCH  36  37
HETATM   37  O5  UNL     1      -7.857  44.248 -32.122  1.00  0.00    -0.391 OA
HETATM   38  H50 UNL     1      -7.825  43.383 -32.560  1.00  0.00     0.210 HD
ENDBRANCH  36  37
BRANCH  36  39
HETATM   39  C33 UNL     1      -6.685  46.305 -32.558  1.00  0.00     0.018 C 
HETATM   40  C34 UNL     1      -5.387  46.272 -32.183  1.00  0.00     0.010 C 
HETATM   41  C35 UNL     1      -4.486  45.072 -32.286  1.00  0.00     0.055 C 
BRANCH  40  42
HETATM   42  C36 UNL     1      -4.746  47.493 -31.639  1.00  0.00     0.171 C 
HETATM   43  O6  UNL     1      -4.779  47.866 -30.480  1.00  0.00    -0.646 OA
BRANCH  42  44
HETATM   44  O7  UNL     1      -4.115  48.232 -32.565  1.00  0.00    -0.773 OA
HETATM   45  H55 UNL     1      -3.773  48.985 -32.042  1.00  0.00     0.167 HD
ENDBRANCH  42  44
ENDBRANCH  40  42
ENDBRANCH  36  39
ENDBRANCH  30  36
ENDBRANCH  28  30
ENDBRANCH   1  28
BRANCH   3  46
HETATM   46  O1  UNL     1      -8.796  49.538 -29.698  1.00  0.00    -0.394 OA
HETATM   47  H18 UNL     1      -8.228  49.367 -28.913  1.00  0.00     0.210 HD
ENDBRANCH   3  46
BRANCH  27  48
HETATM   48  O4  UNL     1      -8.865  49.252 -27.137  1.00  0.00    -0.391 OA
HETATM   49  H48 UNL     1      -9.322  50.106 -27.230  1.00  0.00     0.210 HD
ENDBRANCH  27  48
TORSDOF 12
ENDMDL
MODEL 8
REMARK minimizedAffinity -8.19937611
REMARK CNNscore 0.36752668
REMARK CNNaffinity 6.53332567
REMARK  12 active torsions:
REMARK  status: ('A' for Active; 'I' for Inactive)
REMARK    1  A    between atoms: C2_2  and  N1_3 
REMARK    2  A    between atoms: N1_3  and  C3_4 
REMARK    3  A    between atoms: C3_4  and  C4_5 
REMARK    4  A    between atoms: C4_5  and  C5_6 
REMARK    5  A    between atoms: C4_5  and  C32_37 
REMARK    6  A    between atoms: C5_6  and  C7_8 
REMARK    7  A    between atoms: C9_10  and  O1_11 
REMARK    8  A    between atoms: C31_35  and  O4_36 
REMARK    9  A    between atoms: C32_37  and  O5_38 
REMARK   10  A    between atoms: C32_37  and  C33_39 
REMARK   11  A    between atoms: C34_40  and  C36_42 
REMARK   12  A    between atoms: C36_42  and  O7_44 
ROOT
HETATM    1  C7  UNL     1      -7.892  47.021 -28.477  1.00  0.00     0.002 C 
HETATM    2  C8  UNL     1      -6.891  47.999 -29.156  1.00  0.00     0.038 C 
HETATM    3  C9  UNL     1      -7.099  47.865 -30.685  1.00  0.00     0.132 C 
HETATM    4  C10 UNL     1      -8.420  47.050 -30.845  1.00  0.00     0.017 C 
HETATM    5  C11 UNL     1      -9.638  48.027 -30.678  1.00  0.00     0.023 C 
HETATM    6  C12 UNL     1      -8.731  46.279 -32.137  1.00  0.00    -0.029 C 
HETATM    7  C13 UNL     1      -9.424  45.106 -32.107  1.00  0.00     0.003 C 
HETATM    8  C14 UNL     1      -9.987  44.628 -30.784  1.00  0.00     0.157 C 
HETATM    9  O2  UNL     1     -10.817  43.723 -30.718  1.00  0.00    -0.293 OA
HETATM   10  C15 UNL     1      -9.527  45.259 -29.489  1.00  0.00     0.094 C 
HETATM   11  C16 UNL     1      -8.210  46.017 -29.648  1.00  0.00    -0.016 C 
HETATM   12  C17 UNL     1      -7.026  44.952 -29.767  1.00  0.00     0.011 C 
HETATM   13  C18 UNL     1      -6.262  44.650 -31.072  1.00  0.00     0.001 C 
HETATM   14  C19 UNL     1      -6.302  43.192 -31.549  1.00  0.00     0.000 C 
HETATM   15  C20 UNL     1      -7.625  42.710 -32.147  1.00  0.00     0.001 C 
HETATM   16  C21 UNL     1      -8.066  43.475 -33.417  1.00  0.00     0.015 C 
HETATM   17  C22 UNL     1      -9.486  44.190 -33.352  1.00  0.00    -0.004 C 
HETATM   18  C23 UNL     1     -10.563  43.055 -33.313  1.00  0.00     0.022 C 
HETATM   19  C24 UNL     1     -10.856  42.454 -34.676  1.00  0.00     0.080 C 
HETATM   20  C25 UNL     1     -11.525  43.488 -35.536  1.00  0.00     0.135 C 
HETATM   21  O3  UNL     1     -12.395  43.156 -36.342  1.00  0.00    -0.297 OA
HETATM   22  C26 UNL     1     -11.093  44.953 -35.358  1.00  0.00     0.018 C 
HETATM   23  C27 UNL     1     -12.203  45.665 -34.562  1.00  0.00     0.023 C 
HETATM   24  C28 UNL     1     -11.053  45.572 -36.779  1.00  0.00     0.023 C 
HETATM   25  C29 UNL     1      -9.665  45.032 -34.690  1.00  0.00     0.017 C 
HETATM   26  C30 UNL     1      -9.188  46.498 -34.584  1.00  0.00     0.043 C 
HETATM   27  C31 UNL     1      -8.217  46.813 -33.456  1.00  0.00     0.149 C 
ENDROOT
BRANCH   1  28
HETATM   28  C5  UNL     1      -7.542  46.642 -26.990  1.00  0.00    -0.005 C 
HETATM   29  C6  UNL     1      -8.543  45.763 -26.233  1.00  0.00     0.011 C 
BRANCH  28  30
HETATM   30  C4  UNL     1      -7.003  47.869 -26.163  1.00  0.00     0.050 C 
BRANCH  30  31
HETATM   31  C3  UNL     1      -7.759  48.213 -24.851  1.00  0.00     0.277 C 
BRANCH  31  32
HETATM   32  N1  UNL     1      -7.676  49.597 -24.403  1.00  0.00     0.083 N 
HETATM   33  H6  UNL     1      -6.831  50.045 -24.754  1.00  0.00     0.315 HD
BRANCH  32  34
HETATM   34  C2  UNL     1      -7.708  49.698 -22.945  1.00  0.00     0.265 C 
HETATM   35  C1  UNL     1      -7.976  48.330 -22.336  1.00  0.00     0.037 C 
ENDBRANCH  32  34
ENDBRANCH  31  32
ENDBRANCH  30  31
BRANCH  30  36
HETATM   36  C32 UNL     1      -5.452  47.890 -25.995  1.00  0.00     0.147 C 
BRANCH  36  37
HETATM   37  O5  UNL     1      -5.188  48.142 -24.616  1.00  0.00    -0.391 OA
HETATM   38  H50 UNL     1      -5.103  47.276 -24.186  1.00  0.00     0.210 HD
ENDBRANCH  36  37
BRANCH  36  39
HETATM   39  C33 UNL     1      -4.700  48.868 -26.860  1.00  0.00     0.018 C 
HETATM   40  C34 UNL     1      -3.401  49.240 -26.838  1.00  0.00     0.010 C 
HETATM   41  C35 UNL     1      -2.359  48.694 -25.901  1.00  0.00     0.055 C 
BRANCH  40  42
HETATM   42  C36 UNL     1      -2.908  50.247 -27.807  1.00  0.00     0.171 C 
HETATM   43  O6  UNL     1      -1.951  50.985 -27.652  1.00  0.00    -0.646 OA
BRANCH  42  44
HETATM   44  O7  UNL     1      -3.646  50.331 -28.926  1.00  0.00    -0.773 OA
HETATM   45  H55 UNL     1      -3.193  51.038 -29.429  1.00  0.00     0.167 HD
ENDBRANCH  42  44
ENDBRANCH  40  42
ENDBRANCH  36  39
ENDBRANCH  30  36
ENDBRANCH  28  30
ENDBRANCH   1  28
BRANCH   3  46
HETATM   46  O1  UNL     1      -7.064  49.160 -31.261  1.00  0.00    -0.394 OA
HETATM   47  H18 UNL     1      -7.841  49.256 -31.857  1.00  0.00     0.210 HD
ENDBRANCH   3  46
BRANCH  27  48
HETATM   48  O4  UNL     1      -8.118  48.234 -33.422  1.00  0.00    -0.391 OA
HETATM   49  H48 UNL     1      -7.228  48.458 -33.745  1.00  0.00     0.210 HD
ENDBRANCH  27  48
TORSDOF 12
ENDMDL
MODEL 9
REMARK minimizedAffinity -9.52327156
REMARK CNNscore 0.364223748
REMARK CNNaffinity 6.98857117
REMARK  12 active torsions:
REMARK  status: ('A' for Active; 'I' for Inactive)
REMARK    1  A    between atoms: C2_2  and  N1_3 
REMARK    2  A    between atoms: N1_3  and  C3_4 
REMARK    3  A    between atoms: C3_4  and  C4_5 
REMARK    4  A    between atoms: C4_5  and  C5_6 
REMARK    5  A    between atoms: C4_5  and  C32_37 
REMARK    6  A    between atoms: C5_6  and  C7_8 
REMARK    7  A    between atoms: C9_10  and  O1_11 
REMARK    8  A    between atoms: C31_35  and  O4_36 
REMARK    9  A    between atoms: C32_37  and  O5_38 
REMARK   10  A    between atoms: C32_37  and  C33_39 
REMARK   11  A    between atoms: C34_40  and  C36_42 
REMARK   12  A    between atoms: C36_42  and  O7_44 
ROOT
HETATM    1  C7  UNL     1      -2.055  51.374 -21.521  1.00  0.00     0.002 C 
HETATM    2  C8  UNL     1      -2.589  51.433 -22.981  1.00  0.00     0.038 C 
HETATM    3  C9  UNL     1      -4.000  50.795 -22.970  1.00  0.00     0.132 C 
HETATM    4  C10 UNL     1      -4.374  50.663 -21.461  1.00  0.00     0.017 C 
HETATM    5  C11 UNL     1      -4.904  52.051 -20.952  1.00  0.00     0.023 C 
HETATM    6  C12 UNL     1      -5.434  49.659 -20.986  1.00  0.00    -0.029 C 
HETATM    7  C13 UNL     1      -5.326  49.042 -19.775  1.00  0.00     0.003 C 
HETATM    8  C14 UNL     1      -4.199  49.450 -18.850  1.00  0.00     0.157 C 
HETATM    9  O2  UNL     1      -4.178  49.122 -17.665  1.00  0.00    -0.293 OA
HETATM   10  C15 UNL     1      -3.047  50.279 -19.373  1.00  0.00     0.094 C 
HETATM   11  C16 UNL     1      -2.945  50.235 -20.896  1.00  0.00    -0.016 C 
HETATM   12  C17 UNL     1      -2.360  48.812 -21.323  1.00  0.00     0.011 C 
HETATM   13  C18 UNL     1      -3.191  47.700 -21.993  1.00  0.00     0.001 C 
HETATM   14  C19 UNL     1      -3.240  46.358 -21.248  1.00  0.00     0.000 C 
HETATM   15  C20 UNL     1      -4.100  46.316 -19.984  1.00  0.00     0.001 C 
HETATM   16  C21 UNL     1      -5.601  46.604 -20.223  1.00  0.00     0.015 C 
HETATM   17  C22 UNL     1      -6.221  47.830 -19.421  1.00  0.00    -0.004 C 
HETATM   18  C23 UNL     1      -6.247  47.417 -17.912  1.00  0.00     0.022 C 
HETATM   19  C24 UNL     1      -7.410  46.511 -17.554  1.00  0.00     0.080 C 
HETATM   20  C25 UNL     1      -8.693  47.281 -17.687  1.00  0.00     0.135 C 
HETATM   21  O3  UNL     1      -9.625  47.073 -16.910  1.00  0.00    -0.297 OA
HETATM   22  C26 UNL     1      -8.782  48.332 -18.806  1.00  0.00     0.018 C 
HETATM   23  C27 UNL     1      -8.637  49.717 -18.147  1.00  0.00     0.023 C 
HETATM   24  C28 UNL     1     -10.214  48.229 -19.390  1.00  0.00     0.023 C 
HETATM   25  C29 UNL     1      -7.714  48.035 -19.930  1.00  0.00     0.017 C 
HETATM   26  C30 UNL     1      -7.852  49.037 -21.099  1.00  0.00     0.043 C 
HETATM   27  C31 UNL     1      -6.591  49.319 -21.900  1.00  0.00     0.149 C 
ENDROOT
BRANCH   1  28
HETATM   28  C5  UNL     1      -0.494  51.522 -21.381  1.00  0.00    -0.005 C 
HETATM   29  C6  UNL     1       0.248  50.440 -20.588  1.00  0.00     0.011 C 
BRANCH  28  30
HETATM   30  C4  UNL     1      -0.055  52.994 -21.034  1.00  0.00     0.050 C 
BRANCH  30  31
HETATM   31  C3  UNL     1       0.097  53.341 -19.528  1.00  0.00     0.277 C 
BRANCH  31  32
HETATM   32  N1  UNL     1       1.370  52.990 -18.911  1.00  0.00     0.083 N 
HETATM   33  H6  UNL     1       1.836  52.249 -19.431  1.00  0.00     0.315 HD
BRANCH  32  34
HETATM   34  C2  UNL     1       1.202  52.573 -17.520  1.00  0.00     0.265 C 
HETATM   35  C1  UNL     1       2.548  52.579 -16.811  1.00  0.00     0.037 C 
ENDBRANCH  32  34
ENDBRANCH  31  32
ENDBRANCH  30  31
BRANCH  30  36
HETATM   36  C32 UNL     1       1.127  53.526 -21.903  1.00  0.00     0.147 C 
BRANCH  36  37
HETATM   37  O5  UNL     1       1.835  54.472 -21.105  1.00  0.00    -0.391 OA
HETATM   38  H50 UNL     1       2.542  53.984 -20.655  1.00  0.00     0.210 HD
ENDBRANCH  36  37
BRANCH  36  39
HETATM   39  C33 UNL     1       0.758  54.132 -23.231  1.00  0.00     0.018 C 
HETATM   40  C34 UNL     1       0.545  53.550 -24.433  1.00  0.00     0.010 C 
HETATM   41  C35 UNL     1       0.607  52.071 -24.703  1.00  0.00     0.055 C 
BRANCH  40  42
HETATM   42  C36 UNL     1       0.200  54.388 -25.605  1.00  0.00     0.171 C 
HETATM   43  O6  UNL     1       0.365  55.592 -25.702  1.00  0.00    -0.646 OA
BRANCH  42  44
HETATM   44  O7  UNL     1      -0.375  53.706 -26.609  1.00  0.00    -0.773 OA
HETATM   45  H55 UNL     1      -0.543  54.405 -27.274  1.00  0.00     0.167 HD
ENDBRANCH  42  44
ENDBRANCH  40  42
ENDBRANCH  36  39
ENDBRANCH  30  36
ENDBRANCH  28  30
ENDBRANCH   1  28
BRANCH   3  46
HETATM   46  O1  UNL     1      -4.857  51.578 -23.784  1.00  0.00    -0.394 OA
HETATM   47  H18 UNL     1      -5.684  51.755 -23.283  1.00  0.00     0.210 HD
ENDBRANCH   3  46
BRANCH  27  48
HETATM   48  O4  UNL     1      -6.911  50.423 -22.742  1.00  0.00    -0.391 OA
HETATM   49  H48 UNL     1      -6.958  50.076 -23.650  1.00  0.00     0.210 HD
ENDBRANCH  27  48
TORSDOF 12
ENDMDL
