MODEL 1
REMARK minimizedAffinity -8.39935875
REMARK CNNscore 0.638923287
REMARK CNNaffinity 7.26697302
REMARK  15 active torsions:
REMARK  status: ('A' for Active; 'I' for Inactive)
REMARK    1  A    between atoms: C2_2  and  C3_3 
REMARK    2  A    between atoms: C3_3  and  C4_4 
REMARK    3  A    between atoms: C4_4  and  C5_5 
REMARK    4  A    between atoms: C5_5  and  C6_6 
REMARK    5  A    between atoms: C6_6  and  C7_7 
REMARK    6  A    between atoms: C7_7  and  C8_8 
REMARK    7  A    between atoms: C7_7  and  C30_36 
REMARK    8  A    between atoms: C9_9  and  C11_11 
REMARK    9  A    between atoms: C11_11  and  O1_12 
REMARK   10  A    between atoms: C11_11  and  C12_13 
REMARK   11  A    between atoms: C12_13  and  C14_15 
REMARK   12  A    between atoms: C14_15  and  O3_17 
REMARK   13  A    between atoms: O3_17  and  C15_18 
REMARK   14  A    between atoms: C27_31  and  O5_32 
REMARK   15  A    between atoms: C30_36  and  O7_37 
ROOT
HETATM    1  C14 UNL     1      -1.159   8.186  12.564  1.00  0.00     0.266 C 
HETATM    2  O2  UNL     1      -0.984   9.216  13.203  1.00  0.00    -0.265 OA
ENDROOT
BRANCH   1   3
HETATM    3  C12 UNL     1      -2.450   7.399  12.542  1.00  0.00     0.114 C 
HETATM    4  C13 UNL     1      -3.567   8.321  13.030  1.00  0.00     0.023 C 
BRANCH   3   5
HETATM    5  C11 UNL     1      -2.272   6.132  13.386  1.00  0.00     0.159 C 
BRANCH   5   6
HETATM    6  C9  UNL     1      -2.393   4.838  12.587  1.00  0.00    -0.058 C 
HETATM    7  C8  UNL     1      -3.443   4.008  12.766  1.00  0.00    -0.015 C 
HETATM    8  C10 UNL     1      -1.242   4.574  11.653  1.00  0.00     0.046 C 
BRANCH   7   9
HETATM    9  C7  UNL     1      -3.693   2.667  12.096  1.00  0.00     0.032 C 
BRANCH   9  10
HETATM   10  C6  UNL     1      -4.985   2.776  11.258  1.00  0.00     0.010 C 
BRANCH  10  11
HETATM   11  C5  UNL     1      -5.996   1.664  11.553  1.00  0.00     0.001 C 
BRANCH  11  12
HETATM   12  C4  UNL     1      -7.225   2.153  12.330  1.00  0.00     0.000 C 
BRANCH  12  13
HETATM   13  C3  UNL     1      -7.078   3.580  12.864  1.00  0.00    -0.000 C 
BRANCH  13  14
HETATM   14  C2  UNL     1      -8.371   4.398  12.767  1.00  0.00    -0.005 C 
HETATM   15  C1  UNL     1      -8.189   5.865  13.122  1.00  0.00     0.005 C 
ENDBRANCH  13  14
ENDBRANCH  12  13
ENDBRANCH  11  12
ENDBRANCH  10  11
ENDBRANCH   9  10
BRANCH   9  16
HETATM   16  C30 UNL     1      -2.475   2.265  11.243  1.00  0.00     0.172 C 
BRANCH  16  17
HETATM   17  O7  UNL     1      -2.416   0.848  11.082  1.00  0.00    -0.400 OA
HETATM   18  H50 UNL     1      -2.422   0.454  11.973  1.00  0.00     0.209 HD
ENDBRANCH  16  17
ENDBRANCH   9  16
ENDBRANCH   7   9
ENDBRANCH   5   6
BRANCH   5  19
HETATM   19  O1  UNL     1      -0.963   6.150  13.973  1.00  0.00    -0.390 OA
HETATM   20  H20 UNL     1      -0.831   5.289  14.400  1.00  0.00     0.210 HD
ENDBRANCH   5  19
ENDBRANCH   3   5
ENDBRANCH   1   3
BRANCH   1  21
HETATM   21  O3  UNL     1      -0.248   7.603  11.739  1.00  0.00    -0.312 OA
BRANCH  21  22
HETATM   22  C15 UNL     1       0.498   8.476  10.874  1.00  0.00     0.170 C 
HETATM   23  C16 UNL     1       0.173   8.094   9.428  1.00  0.00     0.036 C 
HETATM   24  C17 UNL     1       1.354   8.349   8.506  1.00  0.00     0.007 C 
HETATM   25  C18 UNL     1       2.582   7.484   8.869  1.00  0.00    -0.007 C 
HETATM   26  C19 UNL     1       2.585   6.200   8.028  1.00  0.00     0.011 C 
HETATM   27  C20 UNL     1       2.745   7.231  10.426  1.00  0.00    -0.004 C 
HETATM   28  C21 UNL     1       2.261   5.829  10.868  1.00  0.00     0.019 C 
HETATM   29  C22 UNL     1       4.257   7.362  10.760  1.00  0.00     0.023 C 
HETATM   30  C29 UNL     1       1.961   8.291  11.193  1.00  0.00     0.127 A 
HETATM   31  C23 UNL     1       4.599   7.369  12.263  1.00  0.00     0.057 C 
HETATM   32  C24 UNL     1       5.876   8.168  12.546  1.00  0.00     0.015 C 
HETATM   33  C27 UNL     1       3.571   8.018  13.211  1.00  0.00     0.195 C 
HETATM   34  C25 UNL     1       7.162   7.395  12.317  1.00  0.00     0.012 C 
HETATM   35  C26 UNL     1       5.672   8.594  13.985  1.00  0.00     0.176 C 
HETATM   36  O4  UNL     1       4.282   8.918  14.068  1.00  0.00    -0.352 OA
HETATM   37  C28 UNL     1       2.436   8.733  12.559  1.00  0.00     0.223 A 
HETATM   38  O6  UNL     1       2.694   9.523  11.393  1.00  0.00    -0.360 OA
BRANCH  33  39
HETATM   39  O5  UNL     1       3.049   6.991  14.044  1.00  0.00    -0.363 OA
HETATM   40  H46 UNL     1       2.430   7.437  14.650  1.00  0.00     0.213 HD
ENDBRANCH  33  39
ENDBRANCH  21  22
ENDBRANCH   1  21
TORSDOF 15
ENDMDL
MODEL 2
REMARK minimizedAffinity -8.51605797
REMARK CNNscore 0.625286758
REMARK CNNaffinity 7.13714838
REMARK  15 active torsions:
REMARK  status: ('A' for Active; 'I' for Inactive)
REMARK    1  A    between atoms: C2_2  and  C3_3 
REMARK    2  A    between atoms: C3_3  and  C4_4 
REMARK    3  A    between atoms: C4_4  and  C5_5 
REMARK    4  A    between atoms: C5_5  and  C6_6 
REMARK    5  A    between atoms: C6_6  and  C7_7 
REMARK    6  A    between atoms: C7_7  and  C8_8 
REMARK    7  A    between atoms: C7_7  and  C30_36 
REMARK    8  A    between atoms: C9_9  and  C11_11 
REMARK    9  A    between atoms: C11_11  and  O1_12 
REMARK   10  A    between atoms: C11_11  and  C12_13 
REMARK   11  A    between atoms: C12_13  and  C14_15 
REMARK   12  A    between atoms: C14_15  and  O3_17 
REMARK   13  A    between atoms: O3_17  and  C15_18 
REMARK   14  A    between atoms: C27_31  and  O5_32 
REMARK   15  A    between atoms: C30_36  and  O7_37 
ROOT
HETATM    1  C14 UNL     1       0.009   5.592  12.484  1.00  0.00     0.266 C 
HETATM    2  O2  UNL     1       0.445   5.494  13.624  1.00  0.00    -0.265 OA
ENDROOT
BRANCH   1   3
HETATM    3  C12 UNL     1      -1.441   5.406  12.100  1.00  0.00     0.114 C 
HETATM    4  C13 UNL     1      -2.298   6.072  13.176  1.00  0.00     0.023 C 
BRANCH   3   5
HETATM    5  C11 UNL     1      -1.716   3.909  11.918  1.00  0.00     0.159 C 
BRANCH   5   6
HETATM    6  C9  UNL     1      -3.156   3.591  11.527  1.00  0.00    -0.058 C 
HETATM    7  C8  UNL     1      -4.046   3.163  12.448  1.00  0.00    -0.015 C 
HETATM    8  C10 UNL     1      -3.453   3.753  10.060  1.00  0.00     0.046 C 
BRANCH   7   9
HETATM    9  C7  UNL     1      -5.493   2.757  12.224  1.00  0.00     0.032 C 
BRANCH   9  10
HETATM   10  C6  UNL     1      -6.324   4.034  11.973  1.00  0.00     0.010 C 
BRANCH  10  11
HETATM   11  C5  UNL     1      -7.606   4.099  12.809  1.00  0.00     0.001 C 
BRANCH  11  12
HETATM   12  C4  UNL     1      -7.370   4.588  14.244  1.00  0.00     0.000 C 
BRANCH  12  13
HETATM   13  C3  UNL     1      -6.347   5.723  14.340  1.00  0.00    -0.000 C 
BRANCH  13  14
HETATM   14  C2  UNL     1      -6.100   6.196  15.776  1.00  0.00    -0.005 C 
HETATM   15  C1  UNL     1      -7.349   6.720  16.467  1.00  0.00     0.005 C 
ENDBRANCH  13  14
ENDBRANCH  12  13
ENDBRANCH  11  12
ENDBRANCH  10  11
ENDBRANCH   9  10
BRANCH   9  16
HETATM   16  C30 UNL     1      -5.590   1.759  11.055  1.00  0.00     0.172 C 
BRANCH  16  17
HETATM   17  O7  UNL     1      -6.630   0.808  11.285  1.00  0.00    -0.400 OA
HETATM   18  H50 UNL     1      -6.455   0.391  12.147  1.00  0.00     0.209 HD
ENDBRANCH  16  17
ENDBRANCH   9  16
ENDBRANCH   7   9
ENDBRANCH   5   6
BRANCH   5  19
HETATM   19  O1  UNL     1      -0.870   3.408  10.874  1.00  0.00    -0.390 OA
HETATM   20  H20 UNL     1      -1.146   2.495  10.698  1.00  0.00     0.210 HD
ENDBRANCH   5  19
ENDBRANCH   3   5
ENDBRANCH   1   3
BRANCH   1  21
HETATM   21  O3  UNL     1       0.740   5.926  11.386  1.00  0.00    -0.312 OA
BRANCH  21  22
HETATM   22  C15 UNL     1       0.579   7.262  10.878  1.00  0.00     0.170 C 
HETATM   23  C16 UNL     1      -0.113   7.166   9.516  1.00  0.00     0.036 C 
HETATM   24  C17 UNL     1       0.322   8.290   8.591  1.00  0.00     0.007 C 
HETATM   25  C18 UNL     1       1.832   8.233   8.264  1.00  0.00    -0.007 C 
HETATM   26  C19 UNL     1       2.054   7.469   6.952  1.00  0.00     0.011 C 
HETATM   27  C20 UNL     1       2.725   7.715   9.467  1.00  0.00    -0.004 C 
HETATM   28  C21 UNL     1       3.152   6.235   9.314  1.00  0.00     0.019 C 
HETATM   29  C22 UNL     1       4.003   8.599   9.508  1.00  0.00     0.023 C 
HETATM   30  C29 UNL     1       1.953   7.877  10.773  1.00  0.00     0.127 A 
HETATM   31  C23 UNL     1       4.899   8.399  10.747  1.00  0.00     0.057 C 
HETATM   32  C24 UNL     1       5.671   9.677  11.094  1.00  0.00     0.015 C 
HETATM   33  C27 UNL     1       4.192   8.055  12.073  1.00  0.00     0.195 C 
HETATM   34  C25 UNL     1       6.938   9.882  10.283  1.00  0.00     0.012 C 
HETATM   35  C26 UNL     1       5.922   9.503  12.577  1.00  0.00     0.176 C 
HETATM   36  O4  UNL     1       4.712   8.930  13.079  1.00  0.00    -0.352 OA
HETATM   37  C28 UNL     1       2.703   8.126  12.062  1.00  0.00     0.223 A 
HETATM   38  O6  UNL     1       2.067   9.197  11.355  1.00  0.00    -0.360 OA
BRANCH  33  39
HETATM   39  O5  UNL     1       4.586   6.737  12.437  1.00  0.00    -0.363 OA
HETATM   40  H46 UNL     1       4.152   6.563  13.291  1.00  0.00     0.213 HD
ENDBRANCH  33  39
ENDBRANCH  21  22
ENDBRANCH   1  21
TORSDOF 15
ENDMDL
MODEL 3
REMARK minimizedAffinity -7.93673038
REMARK CNNscore 0.520841956
REMARK CNNaffinity 6.3168931
REMARK  15 active torsions:
REMARK  status: ('A' for Active; 'I' for Inactive)
REMARK    1  A    between atoms: C2_2  and  C3_3 
REMARK    2  A    between atoms: C3_3  and  C4_4 
REMARK    3  A    between atoms: C4_4  and  C5_5 
REMARK    4  A    between atoms: C5_5  and  C6_6 
REMARK    5  A    between atoms: C6_6  and  C7_7 
REMARK    6  A    between atoms: C7_7  and  C8_8 
REMARK    7  A    between atoms: C7_7  and  C30_36 
REMARK    8  A    between atoms: C9_9  and  C11_11 
REMARK    9  A    between atoms: C11_11  and  O1_12 
REMARK   10  A    between atoms: C11_11  and  C12_13 
REMARK   11  A    between atoms: C12_13  and  C14_15 
REMARK   12  A    between atoms: C14_15  and  O3_17 
REMARK   13  A    between atoms: O3_17  and  C15_18 
REMARK   14  A    between atoms: C27_31  and  O5_32 
REMARK   15  A    between atoms: C30_36  and  O7_37 
ROOT
HETATM    1  C14 UNL     1      -1.528   8.180  12.213  1.00  0.00     0.266 C 
HETATM    2  O2  UNL     1      -1.799   9.374  12.229  1.00  0.00    -0.265 OA
ENDROOT
BRANCH   1   3
HETATM    3  C12 UNL     1      -2.245   7.125  13.025  1.00  0.00     0.114 C 
HETATM    4  C13 UNL     1      -1.991   5.772  12.361  1.00  0.00     0.023 C 
BRANCH   3   5
HETATM    5  C11 UNL     1      -3.728   7.503  13.126  1.00  0.00     0.159 C 
BRANCH   5   6
HETATM    6  C9  UNL     1      -4.581   6.459  13.839  1.00  0.00    -0.058 C 
HETATM    7  C8  UNL     1      -5.609   5.854  13.207  1.00  0.00    -0.015 C 
HETATM    8  C10 UNL     1      -4.201   6.221  15.276  1.00  0.00     0.046 C 
BRANCH   7   9
HETATM    9  C7  UNL     1      -6.583   4.837  13.777  1.00  0.00     0.032 C 
BRANCH   9  10
HETATM   10  C6  UNL     1      -7.987   5.476  13.817  1.00  0.00     0.010 C 
BRANCH  10  11
HETATM   11  C5  UNL     1      -8.018   6.831  14.532  1.00  0.00     0.001 C 
BRANCH  11  12
HETATM   12  C4  UNL     1      -9.437   7.303  14.875  1.00  0.00     0.000 C 
BRANCH  12  13
HETATM   13  C3  UNL     1     -10.441   7.084  13.740  1.00  0.00    -0.000 C 
BRANCH  13  14
HETATM   14  C2  UNL     1     -11.803   7.735  14.004  1.00  0.00    -0.005 C 
HETATM   15  C1  UNL     1     -12.899   7.253  13.067  1.00  0.00     0.005 C 
ENDBRANCH  13  14
ENDBRANCH  12  13
ENDBRANCH  11  12
ENDBRANCH  10  11
ENDBRANCH   9  10
BRANCH   9  16
HETATM   16  C30 UNL     1      -6.553   3.546  12.936  1.00  0.00     0.172 C 
BRANCH  16  17
HETATM   17  O7  UNL     1      -7.643   2.690  13.284  1.00  0.00    -0.400 OA
HETATM   18  H50 UNL     1      -7.596   2.538  14.244  1.00  0.00     0.209 HD
ENDBRANCH  16  17
ENDBRANCH   9  16
ENDBRANCH   7   9
ENDBRANCH   5   6
BRANCH   5  19
HETATM   19  O1  UNL     1      -3.841   8.726  13.868  1.00  0.00    -0.390 OA
HETATM   20  H20 UNL     1      -4.787   8.878  14.020  1.00  0.00     0.210 HD
ENDBRANCH   5  19
ENDBRANCH   3   5
ENDBRANCH   1   3
BRANCH   1  21
HETATM   21  O3  UNL     1      -0.575   7.597  11.437  1.00  0.00    -0.312 OA
BRANCH  21  22
HETATM   22  C15 UNL     1       0.268   8.476  10.671  1.00  0.00     0.170 C 
HETATM   23  C16 UNL     1       0.047   8.165   9.189  1.00  0.00     0.036 C 
HETATM   24  C17 UNL     1       1.306   8.413   8.374  1.00  0.00     0.007 C 
HETATM   25  C18 UNL     1       2.471   7.488   8.795  1.00  0.00    -0.007 C 
HETATM   26  C19 UNL     1       2.496   6.240   7.901  1.00  0.00     0.011 C 
HETATM   27  C20 UNL     1       2.499   7.166  10.347  1.00  0.00    -0.004 C 
HETATM   28  C21 UNL     1       1.934   5.766  10.688  1.00  0.00     0.019 C 
HETATM   29  C22 UNL     1       3.984   7.226  10.804  1.00  0.00     0.023 C 
HETATM   30  C29 UNL     1       1.694   8.223  11.096  1.00  0.00     0.127 A 
HETATM   31  C23 UNL     1       4.204   7.159  12.328  1.00  0.00     0.057 C 
HETATM   32  C24 UNL     1       5.481   7.897  12.745  1.00  0.00     0.015 C 
HETATM   33  C27 UNL     1       3.127   7.808  13.220  1.00  0.00     0.195 C 
HETATM   34  C25 UNL     1       6.754   7.086  12.584  1.00  0.00     0.012 C 
HETATM   35  C26 UNL     1       5.178   8.272  14.181  1.00  0.00     0.176 C 
HETATM   36  O4  UNL     1       3.797   8.644  14.168  1.00  0.00    -0.352 OA
HETATM   37  C28 UNL     1       2.072   8.590  12.513  1.00  0.00     0.223 A 
HETATM   38  O6  UNL     1       2.450   9.417  11.406  1.00  0.00    -0.360 OA
BRANCH  33  39
HETATM   39  O5  UNL     1       2.505   6.767  13.964  1.00  0.00    -0.363 OA
HETATM   40  H46 UNL     1       1.856   7.211  14.539  1.00  0.00     0.213 HD
ENDBRANCH  33  39
ENDBRANCH  21  22
ENDBRANCH   1  21
TORSDOF 15
ENDMDL
MODEL 4
REMARK minimizedAffinity -8.28588486
REMARK CNNscore 0.423443794
REMARK CNNaffinity 6.6732583
REMARK  15 active torsions:
REMARK  status: ('A' for Active; 'I' for Inactive)
REMARK    1  A    between atoms: C2_2  and  C3_3 
REMARK    2  A    between atoms: C3_3  and  C4_4 
REMARK    3  A    between atoms: C4_4  and  C5_5 
REMARK    4  A    between atoms: C5_5  and  C6_6 
REMARK    5  A    between atoms: C6_6  and  C7_7 
REMARK    6  A    between atoms: C7_7  and  C8_8 
REMARK    7  A    between atoms: C7_7  and  C30_36 
REMARK    8  A    between atoms: C9_9  and  C11_11 
REMARK    9  A    between atoms: C11_11  and  O1_12 
REMARK   10  A    between atoms: C11_11  and  C12_13 
REMARK   11  A    between atoms: C12_13  and  C14_15 
REMARK   12  A    between atoms: C14_15  and  O3_17 
REMARK   13  A    between atoms: O3_17  and  C15_18 
REMARK   14  A    between atoms: C27_31  and  O5_32 
REMARK   15  A    between atoms: C30_36  and  O7_37 
ROOT
HETATM    1  C14 UNL     1       0.287   4.631  11.799  1.00  0.00     0.266 C 
HETATM    2  O2  UNL     1      -0.135   3.738  11.073  1.00  0.00    -0.265 OA
ENDROOT
BRANCH   1   3
HETATM    3  C12 UNL     1      -0.260   4.952  13.171  1.00  0.00     0.114 C 
HETATM    4  C13 UNL     1      -1.784   5.009  13.065  1.00  0.00     0.023 C 
BRANCH   3   5
HETATM    5  C11 UNL     1       0.382   6.253  13.667  1.00  0.00     0.159 C 
BRANCH   5   6
HETATM    6  C9  UNL     1      -0.519   7.071  14.587  1.00  0.00    -0.058 C 
HETATM    7  C8  UNL     1      -1.738   7.482  14.178  1.00  0.00    -0.015 C 
HETATM    8  C10 UNL     1       0.090   7.398  15.924  1.00  0.00     0.046 C 
BRANCH   7   9
HETATM    9  C7  UNL     1      -2.735   8.339  14.940  1.00  0.00     0.032 C 
BRANCH   9  10
HETATM   10  C6  UNL     1      -4.063   8.359  14.152  1.00  0.00     0.010 C 
BRANCH  10  11
HETATM   11  C5  UNL     1      -4.235   7.154  13.222  1.00  0.00     0.001 C 
BRANCH  11  12
HETATM   12  C4  UNL     1      -5.244   6.124  13.745  1.00  0.00     0.000 C 
BRANCH  12  13
HETATM   13  C3  UNL     1      -6.686   6.413  13.319  1.00  0.00    -0.000 C 
BRANCH  13  14
HETATM   14  C2  UNL     1      -7.434   5.168  12.831  1.00  0.00    -0.005 C 
HETATM   15  C1  UNL     1      -6.521   3.990  12.527  1.00  0.00     0.005 C 
ENDBRANCH  13  14
ENDBRANCH  12  13
ENDBRANCH  11  12
ENDBRANCH  10  11
ENDBRANCH   9  10
BRANCH   9  16
HETATM   16  C30 UNL     1      -2.914   7.797  16.372  1.00  0.00     0.172 C 
BRANCH  16  17
HETATM   17  O7  UNL     1      -3.312   6.426  16.348  1.00  0.00    -0.400 OA
HETATM   18  H50 UNL     1      -4.114   6.367  15.800  1.00  0.00     0.209 HD
ENDBRANCH  16  17
ENDBRANCH   9  16
ENDBRANCH   7   9
ENDBRANCH   5   6
BRANCH   5  19
HETATM   19  O1  UNL     1       1.567   5.929  14.407  1.00  0.00    -0.390 OA
HETATM   20  H20 UNL     1       1.885   6.753  14.808  1.00  0.00     0.210 HD
ENDBRANCH   5  19
ENDBRANCH   3   5
ENDBRANCH   1   3
BRANCH   1  21
HETATM   21  O3  UNL     1       1.336   5.450  11.515  1.00  0.00    -0.312 OA
BRANCH  21  22
HETATM   22  C15 UNL     1       1.025   6.812  11.176  1.00  0.00     0.170 C 
HETATM   23  C16 UNL     1       0.171   6.796   9.906  1.00  0.00     0.036 C 
HETATM   24  C17 UNL     1       0.409   8.037   9.060  1.00  0.00     0.007 C 
HETATM   25  C18 UNL     1       1.865   8.129   8.548  1.00  0.00    -0.007 C 
HETATM   26  C19 UNL     1       1.966   7.516   7.145  1.00  0.00     0.011 C 
HETATM   27  C20 UNL     1       2.937   7.567   9.572  1.00  0.00    -0.004 C 
HETATM   28  C21 UNL     1       3.436   6.147   9.211  1.00  0.00     0.019 C 
HETATM   29  C22 UNL     1       4.150   8.539   9.552  1.00  0.00     0.023 C 
HETATM   30  C29 UNL     1       2.331   7.540  10.972  1.00  0.00     0.127 A 
HETATM   31  C23 UNL     1       5.209   8.289  10.644  1.00  0.00     0.057 C 
HETATM   32  C24 UNL     1       5.935   9.583  11.029  1.00  0.00     0.015 C 
HETATM   33  C27 UNL     1       4.703   7.762  12.001  1.00  0.00     0.195 C 
HETATM   34  C25 UNL     1       7.071   9.964  10.097  1.00  0.00     0.012 C 
HETATM   35  C26 UNL     1       6.386   9.285  12.444  1.00  0.00     0.176 C 
HETATM   36  O4  UNL     1       5.290   8.573  13.025  1.00  0.00    -0.352 OA
HETATM   37  C28 UNL     1       3.223   7.719  12.179  1.00  0.00     0.223 A 
HETATM   38  O6  UNL     1       2.433   8.801  11.673  1.00  0.00    -0.360 OA
BRANCH  33  39
HETATM   39  O5  UNL     1       5.225   6.450  12.173  1.00  0.00    -0.363 OA
HETATM   40  H46 UNL     1       4.916   6.160  13.049  1.00  0.00     0.213 HD
ENDBRANCH  33  39
ENDBRANCH  21  22
ENDBRANCH   1  21
TORSDOF 15
ENDMDL
MODEL 5
REMARK minimizedAffinity -8.6155138
REMARK CNNscore 0.33032167
REMARK CNNaffinity 6.50136995
REMARK  15 active torsions:
REMARK  status: ('A' for Active; 'I' for Inactive)
REMARK    1  A    between atoms: C2_2  and  C3_3 
REMARK    2  A    between atoms: C3_3  and  C4_4 
REMARK    3  A    between atoms: C4_4  and  C5_5 
REMARK    4  A    between atoms: C5_5  and  C6_6 
REMARK    5  A    between atoms: C6_6  and  C7_7 
REMARK    6  A    between atoms: C7_7  and  C8_8 
REMARK    7  A    between atoms: C7_7  and  C30_36 
REMARK    8  A    between atoms: C9_9  and  C11_11 
REMARK    9  A    between atoms: C11_11  and  O1_12 
REMARK   10  A    between atoms: C11_11  and  C12_13 
REMARK   11  A    between atoms: C12_13  and  C14_15 
REMARK   12  A    between atoms: C14_15  and  O3_17 
REMARK   13  A    between atoms: O3_17  and  C15_18 
REMARK   14  A    between atoms: C27_31  and  O5_32 
REMARK   15  A    between atoms: C30_36  and  O7_37 
ROOT
HETATM    1  C14 UNL     1       0.582   4.751  11.862  1.00  0.00     0.266 C 
HETATM    2  O2  UNL     1       0.947   3.994  10.971  1.00  0.00    -0.265 OA
ENDROOT
BRANCH   1   3
HETATM    3  C12 UNL     1      -0.679   4.573  12.676  1.00  0.00     0.114 C 
HETATM    4  C13 UNL     1      -1.838   4.358  11.702  1.00  0.00     0.023 C 
BRANCH   3   5
HETATM    5  C11 UNL     1      -0.851   5.789  13.594  1.00  0.00     0.159 C 
BRANCH   5   6
HETATM    6  C9  UNL     1      -2.224   6.445  13.495  1.00  0.00    -0.058 C 
HETATM    7  C8  UNL     1      -3.334   5.799  13.913  1.00  0.00    -0.015 C 
HETATM    8  C10 UNL     1      -2.217   7.812  12.863  1.00  0.00     0.046 C 
BRANCH   7   9
HETATM    9  C7  UNL     1      -4.773   6.281  13.842  1.00  0.00     0.032 C 
BRANCH   9  10
HETATM   10  C6  UNL     1      -5.653   5.116  13.341  1.00  0.00     0.010 C 
BRANCH  10  11
HETATM   11  C5  UNL     1      -6.881   4.859  14.220  1.00  0.00     0.001 C 
BRANCH  11  12
HETATM   12  C4  UNL     1      -7.531   3.493  13.969  1.00  0.00     0.000 C 
BRANCH  12  13
HETATM   13  C3  UNL     1      -7.530   3.081  12.495  1.00  0.00    -0.000 C 
BRANCH  13  14
HETATM   14  C2  UNL     1      -6.813   1.750  12.240  1.00  0.00    -0.005 C 
HETATM   15  C1  UNL     1      -5.632   1.868  11.289  1.00  0.00     0.005 C 
ENDBRANCH  13  14
ENDBRANCH  12  13
ENDBRANCH  11  12
ENDBRANCH  10  11
ENDBRANCH   9  10
BRANCH   9  16
HETATM   16  C30 UNL     1      -5.226   6.804  15.219  1.00  0.00     0.172 C 
BRANCH  16  17
HETATM   17  O7  UNL     1      -4.378   6.304  16.254  1.00  0.00    -0.400 OA
HETATM   18  H50 UNL     1      -4.375   5.333  16.181  1.00  0.00     0.209 HD
ENDBRANCH  16  17
ENDBRANCH   9  16
ENDBRANCH   7   9
ENDBRANCH   5   6
BRANCH   5  19
HETATM   19  O1  UNL     1      -0.677   5.367  14.954  1.00  0.00    -0.390 OA
HETATM   20  H20 UNL     1      -0.908   6.123  15.518  1.00  0.00     0.210 HD
ENDBRANCH   5  19
ENDBRANCH   3   5
ENDBRANCH   1   3
BRANCH   1  21
HETATM   21  O3  UNL     1       1.263   5.845  12.297  1.00  0.00    -0.312 OA
BRANCH  21  22
HETATM   22  C15 UNL     1       0.993   7.089  11.627  1.00  0.00     0.170 C 
HETATM   23  C16 UNL     1       0.271   6.768  10.316  1.00  0.00     0.036 C 
HETATM   24  C17 UNL     1       0.598   7.786   9.237  1.00  0.00     0.007 C 
HETATM   25  C18 UNL     1       2.098   7.787   8.863  1.00  0.00    -0.007 C 
HETATM   26  C19 UNL     1       2.336   6.872   7.654  1.00  0.00     0.011 C 
HETATM   27  C20 UNL     1       3.060   7.493  10.088  1.00  0.00    -0.004 C 
HETATM   28  C21 UNL     1       3.586   6.037  10.113  1.00  0.00     0.019 C 
HETATM   29  C22 UNL     1       4.273   8.457   9.966  1.00  0.00     0.023 C 
HETATM   30  C29 UNL     1       2.317   7.775  11.391  1.00  0.00     0.127 A 
HETATM   31  C23 UNL     1       5.216   8.483  11.185  1.00  0.00     0.057 C 
HETATM   32  C24 UNL     1       5.906   9.844  11.334  1.00  0.00     0.015 C 
HETATM   33  C27 UNL     1       4.575   8.270  12.570  1.00  0.00     0.195 C 
HETATM   34  C25 UNL     1       7.132  10.024  10.455  1.00  0.00     0.012 C 
HETATM   35  C26 UNL     1       6.212   9.885  12.816  1.00  0.00     0.176 C 
HETATM   36  O4  UNL     1       5.060   9.304  13.434  1.00  0.00    -0.352 OA
HETATM   37  C28 UNL     1       3.084   8.241  12.607  1.00  0.00     0.223 A 
HETATM   38  O6  UNL     1       2.354   9.164  11.791  1.00  0.00    -0.360 OA
BRANCH  33  39
HETATM   39  O5  UNL     1       5.071   7.042  13.088  1.00  0.00    -0.363 OA
HETATM   40  H46 UNL     1       4.675   6.953  13.973  1.00  0.00     0.213 HD
ENDBRANCH  33  39
ENDBRANCH  21  22
ENDBRANCH   1  21
TORSDOF 15
ENDMDL
MODEL 6
REMARK minimizedAffinity -7.19493723
REMARK CNNscore 0.290288895
REMARK CNNaffinity 5.90680647
REMARK  15 active torsions:
REMARK  status: ('A' for Active; 'I' for Inactive)
REMARK    1  A    between atoms: C2_2  and  C3_3 
REMARK    2  A    between atoms: C3_3  and  C4_4 
REMARK    3  A    between atoms: C4_4  and  C5_5 
REMARK    4  A    between atoms: C5_5  and  C6_6 
REMARK    5  A    between atoms: C6_6  and  C7_7 
REMARK    6  A    between atoms: C7_7  and  C8_8 
REMARK    7  A    between atoms: C7_7  and  C30_36 
REMARK    8  A    between atoms: C9_9  and  C11_11 
REMARK    9  A    between atoms: C11_11  and  O1_12 
REMARK   10  A    between atoms: C11_11  and  C12_13 
REMARK   11  A    between atoms: C12_13  and  C14_15 
REMARK   12  A    between atoms: C14_15  and  O3_17 
REMARK   13  A    between atoms: O3_17  and  C15_18 
REMARK   14  A    between atoms: C27_31  and  O5_32 
REMARK   15  A    between atoms: C30_36  and  O7_37 
ROOT
HETATM    1  C14 UNL     1       0.875  10.734  17.328  1.00  0.00     0.266 C 
HETATM    2  O2  UNL     1       1.717  11.003  16.480  1.00  0.00    -0.265 OA
ENDROOT
BRANCH   1   3
HETATM    3  C12 UNL     1       1.157  10.609  18.808  1.00  0.00     0.114 C 
HETATM    4  C13 UNL     1      -0.060  11.146  19.561  1.00  0.00     0.023 C 
BRANCH   3   5
HETATM    5  C11 UNL     1       2.464  11.345  19.126  1.00  0.00     0.159 C 
BRANCH   5   6
HETATM    6  C9  UNL     1       2.845  11.312  20.603  1.00  0.00    -0.058 C 
HETATM    7  C8  UNL     1       3.515  10.262  21.123  1.00  0.00    -0.015 C 
HETATM    8  C10 UNL     1       2.370  12.502  21.394  1.00  0.00     0.046 C 
BRANCH   7   9
HETATM    9  C7  UNL     1       3.926  10.045  22.570  1.00  0.00     0.032 C 
BRANCH   9  10
HETATM   10  C6  UNL     1       4.427  11.388  23.141  1.00  0.00     0.010 C 
BRANCH  10  11
HETATM   11  C5  UNL     1       5.953  11.527  23.117  1.00  0.00     0.001 C 
BRANCH  11  12
HETATM   12  C4  UNL     1       6.441  12.701  22.259  1.00  0.00     0.000 C 
BRANCH  12  13
HETATM   13  C3  UNL     1       6.997  13.866  23.081  1.00  0.00    -0.000 C 
BRANCH  13  14
HETATM   14  C2  UNL     1       8.512  13.783  23.300  1.00  0.00    -0.005 C 
HETATM   15  C1  UNL     1       9.115  12.452  22.881  1.00  0.00     0.005 C 
ENDBRANCH  13  14
ENDBRANCH  12  13
ENDBRANCH  11  12
ENDBRANCH  10  11
ENDBRANCH   9  10
BRANCH   9  16
HETATM   16  C30 UNL     1       2.745   9.472  23.376  1.00  0.00     0.172 C 
BRANCH  16  17
HETATM   17  O7  UNL     1       2.725   8.046  23.302  1.00  0.00    -0.400 OA
HETATM   18  H50 UNL     1       2.714   7.806  22.359  1.00  0.00     0.209 HD
ENDBRANCH  16  17
ENDBRANCH   9  16
ENDBRANCH   7   9
ENDBRANCH   5   6
BRANCH   5  19
HETATM   19  O1  UNL     1       3.532  10.724  18.396  1.00  0.00    -0.390 OA
HETATM   20  H20 UNL     1       4.359  11.127  18.705  1.00  0.00     0.210 HD
ENDBRANCH   5  19
ENDBRANCH   3   5
ENDBRANCH   1   3
BRANCH   1  21
HETATM   21  O3  UNL     1      -0.451  10.547  17.092  1.00  0.00    -0.312 OA
BRANCH  21  22
HETATM   22  C15 UNL     1      -0.963  11.025  15.836  1.00  0.00     0.170 C 
HETATM   23  C16 UNL     1      -1.364  12.490  16.020  1.00  0.00     0.036 C 
HETATM   24  C17 UNL     1      -2.533  12.864  15.124  1.00  0.00     0.007 C 
HETATM   25  C18 UNL     1      -3.813  12.066  15.464  1.00  0.00    -0.007 C 
HETATM   26  C19 UNL     1      -4.687  12.870  16.437  1.00  0.00     0.011 C 
HETATM   27  C20 UNL     1      -3.530  10.579  15.934  1.00  0.00    -0.004 C 
HETATM   28  C21 UNL     1      -3.620  10.399  17.469  1.00  0.00     0.019 C 
HETATM   29  C22 UNL     1      -4.600   9.672  15.264  1.00  0.00     0.023 C 
HETATM   30  C29 UNL     1      -2.141  10.158  15.465  1.00  0.00     0.127 A 
HETATM   31  C23 UNL     1      -4.364   8.156  15.419  1.00  0.00     0.057 C 
HETATM   32  C24 UNL     1      -4.954   7.372  14.241  1.00  0.00     0.015 C 
HETATM   33  C27 UNL     1      -2.900   7.676  15.452  1.00  0.00     0.195 C 
HETATM   34  C25 UNL     1      -6.442   7.093  14.357  1.00  0.00     0.012 C 
HETATM   35  C26 UNL     1      -4.101   6.120  14.234  1.00  0.00     0.176 C 
HETATM   36  O4  UNL     1      -2.782   6.586  14.532  1.00  0.00    -0.352 OA
HETATM   37  C28 UNL     1      -1.863   8.705  15.151  1.00  0.00     0.223 A 
HETATM   38  O6  UNL     1      -2.114   9.655  14.109  1.00  0.00    -0.360 OA
BRANCH  33  39
HETATM   39  O5  UNL     1      -2.654   7.142  16.748  1.00  0.00    -0.363 OA
HETATM   40  H46 UNL     1      -1.735   6.819  16.725  1.00  0.00     0.213 HD
ENDBRANCH  33  39
ENDBRANCH  21  22
ENDBRANCH   1  21
TORSDOF 15
ENDMDL
MODEL 7
REMARK minimizedAffinity -7.6112361
REMARK CNNscore 0.280750781
REMARK CNNaffinity 5.77518845
REMARK  15 active torsions:
REMARK  status: ('A' for Active; 'I' for Inactive)
REMARK    1  A    between atoms: C2_2  and  C3_3 
REMARK    2  A    between atoms: C3_3  and  C4_4 
REMARK    3  A    between atoms: C4_4  and  C5_5 
REMARK    4  A    between atoms: C5_5  and  C6_6 
REMARK    5  A    between atoms: C6_6  and  C7_7 
REMARK    6  A    between atoms: C7_7  and  C8_8 
REMARK    7  A    between atoms: C7_7  and  C30_36 
REMARK    8  A    between atoms: C9_9  and  C11_11 
REMARK    9  A    between atoms: C11_11  and  O1_12 
REMARK   10  A    between atoms: C11_11  and  C12_13 
REMARK   11  A    between atoms: C12_13  and  C14_15 
REMARK   12  A    between atoms: C14_15  and  O3_17 
REMARK   13  A    between atoms: O3_17  and  C15_18 
REMARK   14  A    between atoms: C27_31  and  O5_32 
REMARK   15  A    between atoms: C30_36  and  O7_37 
ROOT
HETATM    1  C14 UNL     1       2.459  10.083  16.816  1.00  0.00     0.266 C 
HETATM    2  O2  UNL     1       3.501   9.642  16.349  1.00  0.00    -0.265 OA
ENDROOT
BRANCH   1   3
HETATM    3  C12 UNL     1       2.379  11.181  17.853  1.00  0.00     0.114 C 
HETATM    4  C13 UNL     1       3.804  11.498  18.308  1.00  0.00     0.023 C 
BRANCH   3   5
HETATM    5  C11 UNL     1       1.448  10.726  18.984  1.00  0.00     0.159 C 
BRANCH   5   6
HETATM    6  C9  UNL     1       2.094  10.767  20.365  1.00  0.00    -0.058 C 
HETATM    7  C8  UNL     1       2.768   9.700  20.847  1.00  0.00    -0.015 C 
HETATM    8  C10 UNL     1       1.868  12.049  21.121  1.00  0.00     0.046 C 
BRANCH   7   9
HETATM    9  C7  UNL     1       3.424   9.553  22.210  1.00  0.00     0.032 C 
BRANCH   9  10
HETATM   10  C6  UNL     1       3.568  10.956  22.836  1.00  0.00     0.010 C 
BRANCH  10  11
HETATM   11  C5  UNL     1       5.022  11.423  22.953  1.00  0.00     0.001 C 
BRANCH  11  12
HETATM   12  C4  UNL     1       5.169  12.950  22.961  1.00  0.00     0.000 C 
BRANCH  12  13
HETATM   13  C3  UNL     1       6.624  13.422  22.892  1.00  0.00    -0.000 C 
BRANCH  13  14
HETATM   14  C2  UNL     1       7.581  12.354  22.351  1.00  0.00    -0.005 C 
HETATM   15  C1  UNL     1       8.854  12.208  23.169  1.00  0.00     0.005 C 
ENDBRANCH  13  14
ENDBRANCH  12  13
ENDBRANCH  11  12
ENDBRANCH  10  11
ENDBRANCH   9  10
BRANCH   9  16
HETATM   16  C30 UNL     1       2.598   8.599  23.095  1.00  0.00     0.172 C 
BRANCH  16  17
HETATM   17  O7  UNL     1       1.674   7.850  22.307  1.00  0.00    -0.400 OA
HETATM   18  H50 UNL     1       1.136   8.488  21.805  1.00  0.00     0.209 HD
ENDBRANCH  16  17
ENDBRANCH   9  16
ENDBRANCH   7   9
ENDBRANCH   5   6
BRANCH   5  19
HETATM   19  O1  UNL     1       0.308  11.596  19.020  1.00  0.00    -0.390 OA
HETATM   20  H20 UNL     1      -0.201  11.364  19.812  1.00  0.00     0.210 HD
ENDBRANCH   5  19
ENDBRANCH   3   5
ENDBRANCH   1   3
BRANCH   1  21
HETATM   21  O3  UNL     1       1.205   9.697  16.455  1.00  0.00    -0.312 OA
BRANCH  21  22
HETATM   22  C15 UNL     1       0.672  10.267  15.247  1.00  0.00     0.170 C 
HETATM   23  C16 UNL     1      -0.576  11.071  15.620  1.00  0.00     0.036 C 
HETATM   24  C17 UNL     1      -1.597  11.068  14.494  1.00  0.00     0.007 C 
HETATM   25  C18 UNL     1      -2.128   9.649  14.185  1.00  0.00    -0.007 C 
HETATM   26  C19 UNL     1      -3.427   9.396  14.963  1.00  0.00     0.011 C 
HETATM   27  C20 UNL     1      -1.041   8.509  14.364  1.00  0.00    -0.004 C 
HETATM   28  C21 UNL     1      -1.192   7.728  15.692  1.00  0.00     0.019 C 
HETATM   29  C22 UNL     1      -1.213   7.516  13.181  1.00  0.00     0.023 C 
HETATM   30  C29 UNL     1       0.353   9.129  14.309  1.00  0.00     0.127 A 
HETATM   31  C23 UNL     1      -0.103   6.453  13.050  1.00  0.00     0.057 C 
HETATM   32  C24 UNL     1       0.081   6.010  11.595  1.00  0.00     0.015 C 
HETATM   33  C27 UNL     1       1.320   6.874  13.464  1.00  0.00     0.195 C 
HETATM   34  C25 UNL     1      -0.905   4.953  11.132  1.00  0.00     0.012 C 
HETATM   35  C26 UNL     1       1.521   5.541  11.586  1.00  0.00     0.176 C 
HETATM   36  O4  UNL     1       2.209   6.484  12.412  1.00  0.00    -0.352 OA
HETATM   37  C28 UNL     1       1.514   8.319  13.779  1.00  0.00     0.223 A 
HETATM   38  O6  UNL     1       0.859   9.298  12.964  1.00  0.00    -0.360 OA
BRANCH  33  39
HETATM   39  O5  UNL     1       1.679   6.103  14.605  1.00  0.00    -0.363 OA
HETATM   40  H46 UNL     1       2.591   6.367  14.821  1.00  0.00     0.213 HD
ENDBRANCH  33  39
ENDBRANCH  21  22
ENDBRANCH   1  21
TORSDOF 15
ENDMDL
MODEL 8
REMARK minimizedAffinity -6.9099946
REMARK CNNscore 0.260730922
REMARK CNNaffinity 6.428864
REMARK  15 active torsions:
REMARK  status: ('A' for Active; 'I' for Inactive)
REMARK    1  A    between atoms: C2_2  and  C3_3 
REMARK    2  A    between atoms: C3_3  and  C4_4 
REMARK    3  A    between atoms: C4_4  and  C5_5 
REMARK    4  A    between atoms: C5_5  and  C6_6 
REMARK    5  A    between atoms: C6_6  and  C7_7 
REMARK    6  A    between atoms: C7_7  and  C8_8 
REMARK    7  A    between atoms: C7_7  and  C30_36 
REMARK    8  A    between atoms: C9_9  and  C11_11 
REMARK    9  A    between atoms: C11_11  and  O1_12 
REMARK   10  A    between atoms: C11_11  and  C12_13 
REMARK   11  A    between atoms: C12_13  and  C14_15 
REMARK   12  A    between atoms: C14_15  and  O3_17 
REMARK   13  A    between atoms: O3_17  and  C15_18 
REMARK   14  A    between atoms: C27_31  and  O5_32 
REMARK   15  A    between atoms: C30_36  and  O7_37 
ROOT
HETATM    1  C14 UNL     1      -3.362   3.809  11.180  1.00  0.00     0.266 C 
HETATM    2  O2  UNL     1      -2.980   3.684  10.023  1.00  0.00    -0.265 OA
ENDROOT
BRANCH   1   3
HETATM    3  C12 UNL     1      -3.940   2.691  12.019  1.00  0.00     0.114 C 
HETATM    4  C13 UNL     1      -3.108   1.435  11.759  1.00  0.00     0.023 C 
BRANCH   3   5
HETATM    5  C11 UNL     1      -5.427   2.537  11.680  1.00  0.00     0.159 C 
BRANCH   5   6
HETATM    6  C9  UNL     1      -6.285   3.717  12.125  1.00  0.00    -0.058 C 
HETATM    7  C8  UNL     1      -6.519   3.950  13.435  1.00  0.00    -0.015 C 
HETATM    8  C10 UNL     1      -6.859   4.530  10.996  1.00  0.00     0.046 C 
BRANCH   7   9
HETATM    9  C7  UNL     1      -7.382   5.040  14.046  1.00  0.00     0.032 C 
BRANCH   9  10
HETATM   10  C6  UNL     1      -8.776   4.985  13.386  1.00  0.00     0.010 C 
BRANCH  10  11
HETATM   11  C5  UNL     1      -9.360   6.369  13.083  1.00  0.00     0.001 C 
BRANCH  11  12
HETATM   12  C4  UNL     1     -10.433   6.807  14.088  1.00  0.00     0.000 C 
BRANCH  12  13
HETATM   13  C3  UNL     1     -11.817   6.986  13.460  1.00  0.00    -0.000 C 
BRANCH  13  14
HETATM   14  C2  UNL     1     -12.937   6.312  14.262  1.00  0.00    -0.005 C 
HETATM   15  C1  UNL     1     -13.720   7.276  15.139  1.00  0.00     0.005 C 
ENDBRANCH  13  14
ENDBRANCH  12  13
ENDBRANCH  11  12
ENDBRANCH  10  11
ENDBRANCH   9  10
BRANCH   9  16
HETATM   16  C30 UNL     1      -7.453   4.865  15.576  1.00  0.00     0.172 C 
BRANCH  16  17
HETATM   17  O7  UNL     1      -7.218   6.107  16.239  1.00  0.00    -0.400 OA
HETATM   18  H50 UNL     1      -6.365   6.449  15.919  1.00  0.00     0.209 HD
ENDBRANCH  16  17
ENDBRANCH   9  16
ENDBRANCH   7   9
ENDBRANCH   5   6
BRANCH   5  19
HETATM   19  O1  UNL     1      -5.566   2.420  10.257  1.00  0.00    -0.390 OA
HETATM   20  H20 UNL     1      -6.516   2.444  10.062  1.00  0.00     0.210 HD
ENDBRANCH   5  19
ENDBRANCH   3   5
ENDBRANCH   1   3
BRANCH   1  21
HETATM   21  O3  UNL     1      -3.294   4.951  11.915  1.00  0.00    -0.312 OA
BRANCH  21  22
HETATM   22  C15 UNL     1      -2.658   4.860  13.202  1.00  0.00     0.170 C 
HETATM   23  C16 UNL     1      -3.633   5.406  14.247  1.00  0.00     0.036 C 
HETATM   24  C17 UNL     1      -2.898   6.055  15.409  1.00  0.00     0.007 C 
HETATM   25  C18 UNL     1      -2.072   7.285  14.969  1.00  0.00    -0.007 C 
HETATM   26  C19 UNL     1      -2.897   8.565  15.163  1.00  0.00     0.011 C 
HETATM   27  C20 UNL     1      -1.440   7.143  13.522  1.00  0.00    -0.004 C 
HETATM   28  C21 UNL     1      -2.227   7.917  12.436  1.00  0.00     0.019 C 
HETATM   29  C22 UNL     1       0.004   7.715  13.590  1.00  0.00     0.023 C 
HETATM   30  C29 UNL     1      -1.385   5.668  13.138  1.00  0.00     0.127 A 
HETATM   31  C23 UNL     1       0.867   7.467  12.337  1.00  0.00     0.057 C 
HETATM   32  C24 UNL     1       2.357   7.389  12.688  1.00  0.00     0.015 C 
HETATM   33  C27 UNL     1       0.626   6.152  11.570  1.00  0.00     0.195 C 
HETATM   34  C25 UNL     1       3.041   8.738  12.821  1.00  0.00     0.012 C 
HETATM   35  C26 UNL     1       2.905   6.540  11.560  1.00  0.00     0.176 C 
HETATM   36  O4  UNL     1       1.902   5.544  11.343  1.00  0.00    -0.352 OA
HETATM   37  C28 UNL     1      -0.292   5.172  12.219  1.00  0.00     0.223 A 
HETATM   38  O6  UNL     1      -0.212   4.983  13.636  1.00  0.00    -0.360 OA
BRANCH  33  39
HETATM   39  O5  UNL     1       0.104   6.492  10.291  1.00  0.00    -0.363 OA
HETATM   40  H46 UNL     1      -0.006   5.646   9.822  1.00  0.00     0.213 HD
ENDBRANCH  33  39
ENDBRANCH  21  22
ENDBRANCH   1  21
TORSDOF 15
ENDMDL
MODEL 9
REMARK minimizedAffinity -7.03809595
REMARK CNNscore 0.255940348
REMARK CNNaffinity 5.91979074
REMARK  15 active torsions:
REMARK  status: ('A' for Active; 'I' for Inactive)
REMARK    1  A    between atoms: C2_2  and  C3_3 
REMARK    2  A    between atoms: C3_3  and  C4_4 
REMARK    3  A    between atoms: C4_4  and  C5_5 
REMARK    4  A    between atoms: C5_5  and  C6_6 
REMARK    5  A    between atoms: C6_6  and  C7_7 
REMARK    6  A    between atoms: C7_7  and  C8_8 
REMARK    7  A    between atoms: C7_7  and  C30_36 
REMARK    8  A    between atoms: C9_9  and  C11_11 
REMARK    9  A    between atoms: C11_11  and  O1_12 
REMARK   10  A    between atoms: C11_11  and  C12_13 
REMARK   11  A    between atoms: C12_13  and  C14_15 
REMARK   12  A    between atoms: C14_15  and  O3_17 
REMARK   13  A    between atoms: O3_17  and  C15_18 
REMARK   14  A    between atoms: C27_31  and  O5_32 
REMARK   15  A    between atoms: C30_36  and  O7_37 
ROOT
HETATM    1  C14 UNL     1      -0.699   8.846  15.702  1.00  0.00     0.266 C 
HETATM    2  O2  UNL     1      -0.487   7.914  16.469  1.00  0.00    -0.265 OA
ENDROOT
BRANCH   1   3
HETATM    3  C12 UNL     1      -1.723   9.933  15.936  1.00  0.00     0.114 C 
HETATM    4  C13 UNL     1      -1.051  11.277  15.653  1.00  0.00     0.023 C 
BRANCH   3   5
HETATM    5  C11 UNL     1      -2.274   9.797  17.360  1.00  0.00     0.159 C 
BRANCH   5   6
HETATM    6  C9  UNL     1      -1.773  10.872  18.319  1.00  0.00    -0.058 C 
HETATM    7  C8  UNL     1      -0.509  10.844  18.794  1.00  0.00    -0.015 C 
HETATM    8  C10 UNL     1      -2.807  11.897  18.700  1.00  0.00     0.046 C 
BRANCH   7   9
HETATM    9  C7  UNL     1       0.134  11.798  19.786  1.00  0.00     0.032 C 
BRANCH   9  10
HETATM   10  C6  UNL     1       1.231  11.034  20.557  1.00  0.00     0.010 C 
BRANCH  10  11
HETATM   11  C5  UNL     1       2.209  11.954  21.294  1.00  0.00     0.001 C 
BRANCH  11  12
HETATM   12  C4  UNL     1       3.423  11.213  21.868  1.00  0.00     0.000 C 
BRANCH  12  13
HETATM   13  C3  UNL     1       3.383   9.702  21.626  1.00  0.00    -0.000 C 
BRANCH  13  14
HETATM   14  C2  UNL     1       2.896   8.907  22.843  1.00  0.00    -0.005 C 
HETATM   15  C1  UNL     1       2.908   9.707  24.136  1.00  0.00     0.005 C 
ENDBRANCH  13  14
ENDBRANCH  12  13
ENDBRANCH  11  12
ENDBRANCH  10  11
ENDBRANCH   9  10
BRANCH   9  16
HETATM   16  C30 UNL     1       0.689  13.033  19.050  1.00  0.00     0.172 C 
BRANCH  16  17
HETATM   17  O7  UNL     1       1.410  12.643  17.881  1.00  0.00    -0.400 OA
HETATM   18  H50 UNL     1       2.093  12.008  18.160  1.00  0.00     0.209 HD
ENDBRANCH  16  17
ENDBRANCH   9  16
ENDBRANCH   7   9
ENDBRANCH   5   6
BRANCH   5  19
HETATM   19  O1  UNL     1      -3.704   9.899  17.313  1.00  0.00    -0.390 OA
HETATM   20  H20 UNL     1      -4.017   9.931  18.231  1.00  0.00     0.210 HD
ENDBRANCH   5  19
ENDBRANCH   3   5
ENDBRANCH   1   3
BRANCH   1  21
HETATM   21  O3  UNL     1      -0.027   9.084  14.544  1.00  0.00    -0.312 OA
BRANCH  21  22
HETATM   22  C15 UNL     1      -0.733   8.828  13.317  1.00  0.00     0.170 C 
HETATM   23  C16 UNL     1      -2.017   8.071  13.664  1.00  0.00     0.036 C 
HETATM   24  C17 UNL     1      -2.426   7.127  12.546  1.00  0.00     0.007 C 
HETATM   25  C18 UNL     1      -1.376   6.018  12.298  1.00  0.00    -0.007 C 
HETATM   26  C19 UNL     1      -1.748   4.759  13.094  1.00  0.00     0.011 C 
HETATM   27  C20 UNL     1       0.119   6.497  12.517  1.00  0.00    -0.004 C 
HETATM   28  C21 UNL     1       0.708   6.048  13.876  1.00  0.00     0.019 C 
HETATM   29  C22 UNL     1       0.974   5.878  11.376  1.00  0.00     0.023 C 
HETATM   30  C29 UNL     1       0.179   8.019  12.428  1.00  0.00     0.127 A 
HETATM   31  C23 UNL     1       2.421   6.403  11.282  1.00  0.00     0.057 C 
HETATM   32  C24 UNL     1       2.949   6.339   9.845  1.00  0.00     0.015 C 
HETATM   33  C27 UNL     1       2.657   7.875  11.670  1.00  0.00     0.195 C 
HETATM   34  C25 UNL     1       3.478   4.978   9.431  1.00  0.00     0.012 C 
HETATM   35  C26 UNL     1       4.005   7.425   9.846  1.00  0.00     0.176 C 
HETATM   36  O4  UNL     1       3.434   8.477  10.629  1.00  0.00    -0.352 OA
HETATM   37  C28 UNL     1       1.435   8.692  11.925  1.00  0.00     0.223 A 
HETATM   38  O6  UNL     1       0.297   8.517  11.075  1.00  0.00    -0.360 OA
BRANCH  33  39
HETATM   39  O5  UNL     1       3.468   7.885  12.839  1.00  0.00    -0.363 OA
HETATM   40  H46 UNL     1       3.626   8.825  13.038  1.00  0.00     0.213 HD
ENDBRANCH  33  39
ENDBRANCH  21  22
ENDBRANCH   1  21
TORSDOF 15
ENDMDL
