MODEL 1
REMARK minimizedAffinity -9.44091988
REMARK CNNscore 0.331491172
REMARK CNNaffinity 7.70391083
REMARK  12 active torsions:
REMARK  status: ('A' for Active; 'I' for Inactive)
REMARK    1  A    between atoms: C3_3  and  O1_4 
REMARK    2  A    between atoms: N1_14  and  O2_16 
REMARK    3  A    between atoms: O2_16  and  C13_17 
REMARK    4  A    between atoms: C13_17  and  C14_18 
REMARK       I    between atoms: C14_18  and  N2_20 
REMARK    5  A    between atoms: N2_20  and  C15_21 
REMARK    6  A    between atoms: C15_21  and  C16_22 
REMARK    7  A    between atoms: C15_21  and  C27_38 
REMARK       I    between atoms: C16_22  and  N3_24 
REMARK    8  A    between atoms: N3_24  and  C17_25 
REMARK    9  A    between atoms: C17_25  and  C18_26 
REMARK   10  A    between atoms: C17_25  and  C20_30 
REMARK   11  A    between atoms: C18_26  and  C19_27 
REMARK   12  A    between atoms: C19_27  and  O6_29 
ROOT
HETATM    1  C1  UNL     1     -14.800   9.172  12.998  1.00  0.00     0.015 C 
HETATM    2  C2  UNL     1     -13.677   9.152  13.426  1.00  0.00    -0.078 C 
HETATM    3  C3  UNL     1     -12.307   9.164  13.961  1.00  0.00     0.128 C 
HETATM    4  C4  UNL     1     -12.271   9.688  15.400  1.00  0.00     0.052 C 
HETATM    5  C5  UNL     1     -10.869   9.305  15.855  1.00  0.00     0.010 C 
HETATM    6  C6  UNL     1     -10.697   7.879  15.330  1.00  0.00     0.002 C 
HETATM    7  C7  UNL     1      -9.244   7.366  15.207  1.00  0.00    -0.004 C 
HETATM    8  C8  UNL     1      -8.203   8.346  14.646  1.00  0.00     0.010 C 
HETATM    9  C9  UNL     1      -6.796   7.746  14.655  1.00  0.00     0.035 C 
HETATM   10  C10 UNL     1      -6.700   6.358  14.057  1.00  0.00    -0.069 C 
HETATM   11  C11 UNL     1      -5.623   6.033  13.316  1.00  0.00     0.030 C 
HETATM   12  C12 UNL     1      -5.338   4.622  12.910  1.00  0.00     0.032 C 
HETATM   13  N1  UNL     1      -4.247   4.203  12.343  1.00  0.00    -0.271 N 
ATOM     14  H1  UNL     1      -4.053   3.222  12.141  1.00  0.00     0.194 HD
HETATM   15  C30 UNL     1      -6.359   3.556  13.267  1.00  0.00     0.060 C 
HETATM   16  C31 UNL     1      -7.752   4.142  13.445  1.00  0.00     0.020 C 
HETATM   17  C32 UNL     1      -7.793   5.357  14.425  1.00  0.00    -0.016 C 
HETATM   18  C33 UNL     1      -7.498   4.829  15.856  1.00  0.00     0.020 C 
HETATM   19  C34 UNL     1      -9.217   6.043  14.402  1.00  0.00     0.002 C 
HETATM   20  C35 UNL     1      -9.793   6.245  12.975  1.00  0.00     0.007 C 
HETATM   21  C36 UNL     1     -10.778   7.409  12.803  1.00  0.00     0.014 C 
HETATM   22  C37 UNL     1     -11.602   7.760  14.056  1.00  0.00     0.003 C 
HETATM   23  C38 UNL     1     -12.624   6.619  14.302  1.00  0.00     0.020 C 
ENDROOT
BRANCH   3  24
HETATM   24  O1  UNL     1     -11.533  10.065  13.166  1.00  0.00    -0.377 OA
HETATM   25  H2  UNL     1     -12.070  10.865  13.043  1.00  0.00     0.211 HD
ENDBRANCH   3  24
BRANCH  13  26
HETATM   26  O2  UNL     1      -3.369   5.251  12.040  1.00  0.00    -0.271 OA
BRANCH  26  27
HETATM   27  C13 UNL     1      -2.155   5.079  12.751  1.00  0.00     0.303 C 
BRANCH  27  28
HETATM   28  C14 UNL     1      -1.411   6.348  13.184  1.00  0.00     0.244 C 
HETATM   29  O3  UNL     1      -1.162   7.307  12.458  1.00  0.00    -0.271 OA
HETATM   30  N2  UNL     1      -1.038   6.320  14.528  1.00  0.00    -0.346 N 
HETATM   31  H16 UNL     1      -1.606   5.725  15.125  1.00  0.00     0.163 HD
BRANCH  30  32
HETATM   32  C15 UNL     1      -0.514   7.525  15.172  1.00  0.00     0.180 C 
BRANCH  32  33
HETATM   33  C16 UNL     1       0.476   8.186  14.185  1.00  0.00     0.241 C 
HETATM   34  O4  UNL     1       0.453   9.390  13.947  1.00  0.00    -0.271 OA
HETATM   35  N3  UNL     1       1.419   7.330  13.656  1.00  0.00    -0.354 N 
HETATM   36  H18 UNL     1       1.296   6.333  13.814  1.00  0.00     0.162 HD
BRANCH  35  37
HETATM   37  C17 UNL     1       2.430   7.782  12.695  1.00  0.00     0.098 C 
BRANCH  37  38
HETATM   38  C18 UNL     1       3.845   7.420  13.189  1.00  0.00     0.135 C 
BRANCH  38  39
HETATM   39  C19 UNL     1       4.886   8.402  12.721  1.00  0.00     0.141 C 
HETATM   40  O5  UNL     1       5.188   9.468  13.220  1.00  0.00    -0.650 OA
BRANCH  39  41
HETATM   41  O6  UNL     1       5.550   7.950  11.637  1.00  0.00    -0.776 OA
HETATM   42  H22 UNL     1       6.242   8.626  11.487  1.00  0.00     0.167 HD
ENDBRANCH  39  41
ENDBRANCH  38  39
ENDBRANCH  37  38
BRANCH  37  43
HETATM   43  C20 UNL     1       2.077   7.238  11.280  1.00  0.00     0.014 C 
HETATM   44  C21 UNL     1       2.699   5.860  10.957  1.00  0.00     0.033 C 
HETATM   45  C22 UNL     1       2.957   5.671   9.463  1.00  0.00     0.169 C 
HETATM   46  O7  UNL     1       1.914   6.269   8.701  1.00  0.00    -0.381 OA
HETATM   47  C23 UNL     1       1.869   7.705   8.791  1.00  0.00     0.054 C 
HETATM   48  C24 UNL     1       2.691   8.298   7.638  1.00  0.00     0.045 C 
HETATM   49  C25 UNL     1       0.396   8.087   8.600  1.00  0.00     0.045 C 
HETATM   50  C26 UNL     1       2.395   8.223  10.149  1.00  0.00     0.044 C 
ENDBRANCH  37  43
ENDBRANCH  35  37
ENDBRANCH  32  33
BRANCH  32  51
HETATM   51  C27 UNL     1      -1.653   8.478  15.602  1.00  0.00     0.009 C 
HETATM   52  C28 UNL     1      -3.003   7.757  15.689  1.00  0.00     0.012 C 
HETATM   53  C29 UNL     1      -1.384   9.224  16.919  1.00  0.00     0.012 C 
ENDBRANCH  32  51
ENDBRANCH  30  32
ENDBRANCH  27  28
ENDBRANCH  26  27
ENDBRANCH  13  26
TORSDOF 12
ENDMDL
MODEL 2
REMARK minimizedAffinity -8.78588009
REMARK CNNscore 0.249646261
REMARK CNNaffinity 7.02508402
REMARK  12 active torsions:
REMARK  status: ('A' for Active; 'I' for Inactive)
REMARK    1  A    between atoms: C3_3  and  O1_4 
REMARK    2  A    between atoms: N1_14  and  O2_16 
REMARK    3  A    between atoms: O2_16  and  C13_17 
REMARK    4  A    between atoms: C13_17  and  C14_18 
REMARK       I    between atoms: C14_18  and  N2_20 
REMARK    5  A    between atoms: N2_20  and  C15_21 
REMARK    6  A    between atoms: C15_21  and  C16_22 
REMARK    7  A    between atoms: C15_21  and  C27_38 
REMARK       I    between atoms: C16_22  and  N3_24 
REMARK    8  A    between atoms: N3_24  and  C17_25 
REMARK    9  A    between atoms: C17_25  and  C18_26 
REMARK   10  A    between atoms: C17_25  and  C20_30 
REMARK   11  A    between atoms: C18_26  and  C19_27 
REMARK   12  A    between atoms: C19_27  and  O6_29 
ROOT
HETATM    1  C1  UNL     1     -10.165   6.822  13.338  1.00  0.00     0.015 C 
HETATM    2  C2  UNL     1      -9.156   6.859  13.990  1.00  0.00    -0.078 C 
HETATM    3  C3  UNL     1      -7.944   6.902  14.821  1.00  0.00     0.128 C 
HETATM    4  C4  UNL     1      -7.929   5.768  15.851  1.00  0.00     0.052 C 
HETATM    5  C5  UNL     1      -6.489   5.793  16.348  1.00  0.00     0.010 C 
HETATM    6  C6  UNL     1      -5.669   5.962  15.067  1.00  0.00     0.002 C 
HETATM    7  C7  UNL     1      -4.227   6.488  15.242  1.00  0.00    -0.004 C 
HETATM    8  C8  UNL     1      -4.018   7.630  16.248  1.00  0.00     0.010 C 
HETATM    9  C9  UNL     1      -2.540   7.998  16.389  1.00  0.00     0.035 C 
HETATM   10  C10 UNL     1      -1.817   8.213  15.076  1.00  0.00    -0.069 C 
HETATM   11  C11 UNL     1      -0.900   9.195  14.980  1.00  0.00     0.030 C 
HETATM   12  C12 UNL     1       0.026   9.304  13.811  1.00  0.00     0.032 C 
HETATM   13  N1  UNL     1       1.038  10.113  13.719  1.00  0.00    -0.271 N 
ATOM     14  H1  UNL     1       1.694  10.115  12.938  1.00  0.00     0.194 HD
HETATM   15  C30 UNL     1      -0.158   8.329  12.661  1.00  0.00     0.060 C 
HETATM   16  C31 UNL     1      -1.582   7.795  12.593  1.00  0.00     0.020 C 
HETATM   17  C32 UNL     1      -2.093   7.218  13.951  1.00  0.00    -0.016 C 
HETATM   18  C33 UNL     1      -1.294   5.919  14.251  1.00  0.00     0.020 C 
HETATM   19  C34 UNL     1      -3.635   6.877  13.866  1.00  0.00     0.002 C 
HETATM   20  C35 UNL     1      -4.485   7.981  13.184  1.00  0.00     0.007 C 
HETATM   21  C36 UNL     1      -5.957   8.061  13.610  1.00  0.00     0.014 C 
HETATM   22  C37 UNL     1      -6.584   6.724  14.049  1.00  0.00     0.003 C 
HETATM   23  C38 UNL     1      -6.749   5.829  12.792  1.00  0.00     0.020 C 
ENDROOT
BRANCH   3  24
HETATM   24  O1  UNL     1      -7.954   8.131  15.550  1.00  0.00    -0.377 OA
HETATM   25  H2  UNL     1      -8.852   8.242  15.902  1.00  0.00     0.211 HD
ENDBRANCH   3  24
BRANCH  13  26
HETATM   26  O2  UNL     1       1.126  10.981  14.815  1.00  0.00    -0.271 OA
BRANCH  26  27
HETATM   27  C13 UNL     1       1.937  10.401  15.821  1.00  0.00     0.303 C 
BRANCH  27  28
HETATM   28  C14 UNL     1       1.885  11.036  17.216  1.00  0.00     0.244 C 
HETATM   29  O3  UNL     1       2.860  11.276  17.923  1.00  0.00    -0.271 OA
HETATM   30  N2  UNL     1       0.585  11.340  17.620  1.00  0.00    -0.346 N 
HETATM   31  H16 UNL     1      -0.081  11.492  16.867  1.00  0.00     0.163 HD
BRANCH  30  32
HETATM   32  C15 UNL     1       0.355  12.143  18.822  1.00  0.00     0.180 C 
BRANCH  32  33
HETATM   33  C16 UNL     1       0.849  11.319  20.033  1.00  0.00     0.241 C 
HETATM   34  O4  UNL     1       0.319  10.262  20.362  1.00  0.00    -0.271 OA
HETATM   35  N3  UNL     1       1.965  11.832  20.661  1.00  0.00    -0.354 N 
HETATM   36  H18 UNL     1       2.268  12.766  20.400  1.00  0.00     0.162 HD
BRANCH  35  37
HETATM   37  C17 UNL     1       2.564  11.187  21.834  1.00  0.00     0.098 C 
BRANCH  37  38
HETATM   38  C18 UNL     1       3.049   9.767  21.482  1.00  0.00     0.135 C 
BRANCH  38  39
HETATM   39  C19 UNL     1       2.520   8.726  22.433  1.00  0.00     0.141 C 
HETATM   40  O5  UNL     1       1.912   7.708  22.167  1.00  0.00    -0.650 OA
BRANCH  39  41
HETATM   41  O6  UNL     1       2.838   9.010  23.713  1.00  0.00    -0.776 OA
HETATM   42  H22 UNL     1       2.519   8.231  24.212  1.00  0.00     0.167 HD
ENDBRANCH  39  41
ENDBRANCH  38  39
ENDBRANCH  37  38
BRANCH  37  43
HETATM   43  C20 UNL     1       3.659  12.118  22.431  1.00  0.00     0.014 C 
HETATM   44  C21 UNL     1       3.178  13.558  22.721  1.00  0.00     0.033 C 
HETATM   45  C22 UNL     1       4.306  14.584  22.613  1.00  0.00     0.169 C 
HETATM   46  O7  UNL     1       5.521  14.037  23.113  1.00  0.00    -0.381 OA
HETATM   47  C23 UNL     1       6.054  12.962  22.318  1.00  0.00     0.054 C 
HETATM   48  C24 UNL     1       7.044  13.544  21.300  1.00  0.00     0.045 C 
HETATM   49  C25 UNL     1       6.818  12.061  23.297  1.00  0.00     0.045 C 
HETATM   50  C26 UNL     1       4.944  12.165  21.596  1.00  0.00     0.044 C 
ENDBRANCH  37  43
ENDBRANCH  35  37
ENDBRANCH  32  33
BRANCH  32  51
HETATM   51  C27 UNL     1       1.045  13.524  18.719  1.00  0.00     0.009 C 
HETATM   52  C28 UNL     1       0.878  14.147  17.329  1.00  0.00     0.012 C 
HETATM   53  C29 UNL     1       0.597  14.530  19.791  1.00  0.00     0.012 C 
ENDBRANCH  32  51
ENDBRANCH  30  32
ENDBRANCH  27  28
ENDBRANCH  26  27
ENDBRANCH  13  26
TORSDOF 12
ENDMDL
MODEL 3
REMARK minimizedAffinity -8.58584404
REMARK CNNscore 0.237738356
REMARK CNNaffinity 7.45048904
REMARK  12 active torsions:
REMARK  status: ('A' for Active; 'I' for Inactive)
REMARK    1  A    between atoms: C3_3  and  O1_4 
REMARK    2  A    between atoms: N1_14  and  O2_16 
REMARK    3  A    between atoms: O2_16  and  C13_17 
REMARK    4  A    between atoms: C13_17  and  C14_18 
REMARK       I    between atoms: C14_18  and  N2_20 
REMARK    5  A    between atoms: N2_20  and  C15_21 
REMARK    6  A    between atoms: C15_21  and  C16_22 
REMARK    7  A    between atoms: C15_21  and  C27_38 
REMARK       I    between atoms: C16_22  and  N3_24 
REMARK    8  A    between atoms: N3_24  and  C17_25 
REMARK    9  A    between atoms: C17_25  and  C18_26 
REMARK   10  A    between atoms: C17_25  and  C20_30 
REMARK   11  A    between atoms: C18_26  and  C19_27 
REMARK   12  A    between atoms: C19_27  and  O6_29 
ROOT
HETATM    1  C1  UNL     1     -16.358   6.840  11.617  1.00  0.00     0.015 C 
HETATM    2  C2  UNL     1     -15.598   7.575  12.188  1.00  0.00    -0.078 C 
HETATM    3  C3  UNL     1     -14.690   8.505  12.876  1.00  0.00     0.128 C 
HETATM    4  C4  UNL     1     -15.455   9.447  13.812  1.00  0.00     0.052 C 
HETATM    5  C5  UNL     1     -14.338  10.062  14.645  1.00  0.00     0.010 C 
HETATM    6  C6  UNL     1     -13.440   8.870  14.979  1.00  0.00     0.002 C 
HETATM    7  C7  UNL     1     -11.993   9.203  15.407  1.00  0.00    -0.004 C 
HETATM    8  C8  UNL     1     -11.268  10.302  14.618  1.00  0.00     0.010 C 
HETATM    9  C9  UNL     1      -9.880  10.592  15.193  1.00  0.00     0.035 C 
HETATM   10  C10 UNL     1      -9.029   9.363  15.434  1.00  0.00    -0.069 C 
HETATM   11  C11 UNL     1      -7.707   9.416  15.180  1.00  0.00     0.030 C 
HETATM   12  C12 UNL     1      -6.771   8.339  15.626  1.00  0.00     0.032 C 
HETATM   13  N1  UNL     1      -5.474   8.391  15.569  1.00  0.00    -0.271 N 
ATOM     14  H1  UNL     1      -4.860   7.669  15.946  1.00  0.00     0.194 HD
HETATM   15  C30 UNL     1      -7.362   7.110  16.294  1.00  0.00     0.060 C 
HETATM   16  C31 UNL     1      -8.812   6.885  15.885  1.00  0.00     0.020 C 
HETATM   17  C32 UNL     1      -9.709   8.149  16.063  1.00  0.00    -0.016 C 
HETATM   18  C33 UNL     1      -9.861   8.420  17.586  1.00  0.00     0.020 C 
HETATM   19  C34 UNL     1     -11.138   7.912  15.429  1.00  0.00     0.002 C 
HETATM   20  C35 UNL     1     -11.099   7.244  14.028  1.00  0.00     0.007 C 
HETATM   21  C36 UNL     1     -12.282   7.551  13.100  1.00  0.00     0.014 C 
HETATM   22  C37 UNL     1     -13.617   7.837  13.814  1.00  0.00     0.003 C 
HETATM   23  C38 UNL     1     -14.135   6.509  14.428  1.00  0.00     0.020 C 
ENDROOT
BRANCH   3  24
HETATM   24  O1  UNL     1     -14.059   9.318  11.885  1.00  0.00    -0.377 OA
HETATM   25  H2  UNL     1     -14.754   9.601  11.269  1.00  0.00     0.211 HD
ENDBRANCH   3  24
BRANCH  13  26
HETATM   26  O2  UNL     1      -5.016   9.550  14.930  1.00  0.00    -0.271 OA
BRANCH  26  27
HETATM   27  C13 UNL     1      -3.604   9.620  15.020  1.00  0.00     0.303 C 
BRANCH  27  28
HETATM   28  C14 UNL     1      -2.859   8.328  15.377  1.00  0.00     0.244 C 
HETATM   29  O3  UNL     1      -2.839   7.804  16.488  1.00  0.00    -0.271 OA
HETATM   30  N2  UNL     1      -2.192   7.773  14.284  1.00  0.00    -0.346 N 
HETATM   31  H16 UNL     1      -2.574   8.013  13.374  1.00  0.00     0.163 HD
BRANCH  30  32
HETATM   32  C15 UNL     1      -1.610   6.434  14.380  1.00  0.00     0.180 C 
BRANCH  32  33
HETATM   33  C16 UNL     1      -2.041   5.648  13.121  1.00  0.00     0.241 C 
HETATM   34  O4  UNL     1      -1.614   5.921  12.003  1.00  0.00    -0.271 OA
HETATM   35  N3  UNL     1      -2.883   4.583  13.367  1.00  0.00    -0.354 N 
HETATM   36  H18 UNL     1      -3.279   4.498  14.300  1.00  0.00     0.162 HD
BRANCH  35  37
HETATM   37  C17 UNL     1      -3.401   3.733  12.290  1.00  0.00     0.098 C 
BRANCH  37  38
HETATM   38  C18 UNL     1      -2.414   2.588  11.984  1.00  0.00     0.135 C 
BRANCH  38  39
HETATM   39  C19 UNL     1      -1.996   2.561  10.537  1.00  0.00     0.141 C 
HETATM   40  O5  UNL     1      -1.130   1.884  10.021  1.00  0.00    -0.650 OA
BRANCH  39  41
HETATM   41  O6  UNL     1      -2.753   3.384   9.782  1.00  0.00    -0.776 OA
HETATM   42  H22 UNL     1      -2.445   3.214   8.869  1.00  0.00     0.167 HD
ENDBRANCH  39  41
ENDBRANCH  38  39
ENDBRANCH  37  38
BRANCH  37  43
HETATM   43  C20 UNL     1      -4.843   3.270  12.647  1.00  0.00     0.014 C 
HETATM   44  C21 UNL     1      -5.404   2.171  11.716  1.00  0.00     0.033 C 
HETATM   45  C22 UNL     1      -6.926   2.229  11.595  1.00  0.00     0.169 C 
HETATM   46  O7  UNL     1      -7.509   2.584  12.843  1.00  0.00    -0.381 OA
HETATM   47  C23 UNL     1      -7.218   3.928  13.268  1.00  0.00     0.054 C 
HETATM   48  C24 UNL     1      -8.341   4.854  12.781  1.00  0.00     0.045 C 
HETATM   49  C25 UNL     1      -7.231   3.892  14.801  1.00  0.00     0.045 C 
HETATM   50  C26 UNL     1      -5.849   4.422  12.745  1.00  0.00     0.044 C 
ENDBRANCH  37  43
ENDBRANCH  35  37
ENDBRANCH  32  33
BRANCH  32  51
HETATM   51  C27 UNL     1      -0.074   6.496  14.547  1.00  0.00     0.009 C 
HETATM   52  C28 UNL     1       0.588   7.351  13.461  1.00  0.00     0.012 C 
HETATM   53  C29 UNL     1       0.389   6.977  15.932  1.00  0.00     0.012 C 
ENDBRANCH  32  51
ENDBRANCH  30  32
ENDBRANCH  27  28
ENDBRANCH  26  27
ENDBRANCH  13  26
TORSDOF 12
ENDMDL
MODEL 4
REMARK minimizedAffinity -7.64647484
REMARK CNNscore 0.224327937
REMARK CNNaffinity 7.04936981
REMARK  12 active torsions:
REMARK  status: ('A' for Active; 'I' for Inactive)
REMARK    1  A    between atoms: C3_3  and  O1_4 
REMARK    2  A    between atoms: N1_14  and  O2_16 
REMARK    3  A    between atoms: O2_16  and  C13_17 
REMARK    4  A    between atoms: C13_17  and  C14_18 
REMARK       I    between atoms: C14_18  and  N2_20 
REMARK    5  A    between atoms: N2_20  and  C15_21 
REMARK    6  A    between atoms: C15_21  and  C16_22 
REMARK    7  A    between atoms: C15_21  and  C27_38 
REMARK       I    between atoms: C16_22  and  N3_24 
REMARK    8  A    between atoms: N3_24  and  C17_25 
REMARK    9  A    between atoms: C17_25  and  C18_26 
REMARK   10  A    between atoms: C17_25  and  C20_30 
REMARK   11  A    between atoms: C18_26  and  C19_27 
REMARK   12  A    between atoms: C19_27  and  O6_29 
ROOT
HETATM    1  C1  UNL     1       0.232   9.854  14.040  1.00  0.00     0.015 C 
HETATM    2  C2  UNL     1      -0.620   9.038  13.809  1.00  0.00    -0.078 C 
HETATM    3  C3  UNL     1      -1.641   8.026  13.498  1.00  0.00     0.128 C 
HETATM    4  C4  UNL     1      -1.038   6.618  13.448  1.00  0.00     0.052 C 
HETATM    5  C5  UNL     1      -2.275   5.730  13.456  1.00  0.00     0.010 C 
HETATM    6  C6  UNL     1      -3.174   6.373  14.515  1.00  0.00     0.002 C 
HETATM    7  C7  UNL     1      -4.675   6.012  14.448  1.00  0.00    -0.004 C 
HETATM    8  C8  UNL     1      -5.320   5.967  13.055  1.00  0.00     0.010 C 
HETATM    9  C9  UNL     1      -6.781   5.517  13.122  1.00  0.00     0.035 C 
HETATM   10  C10 UNL     1      -7.618   6.248  14.150  1.00  0.00    -0.069 C 
HETATM   11  C11 UNL     1      -8.895   6.563  13.857  1.00  0.00     0.030 C 
HETATM   12  C12 UNL     1      -9.850   7.052  14.900  1.00  0.00     0.032 C 
HETATM   13  N1  UNL     1     -11.128   7.218  14.738  1.00  0.00    -0.271 N 
ATOM     14  H1  UNL     1     -11.765   7.486  15.488  1.00  0.00     0.194 HD
HETATM   15  C30 UNL     1      -9.316   7.289  16.301  1.00  0.00     0.060 C 
HETATM   16  C31 UNL     1      -7.819   7.564  16.299  1.00  0.00     0.020 C 
HETATM   17  C32 UNL     1      -6.993   6.493  15.521  1.00  0.00    -0.016 C 
HETATM   18  C33 UNL     1      -7.056   5.163  16.322  1.00  0.00     0.020 C 
HETATM   19  C34 UNL     1      -5.485   6.947  15.379  1.00  0.00     0.002 C 
HETATM   20  C35 UNL     1      -5.313   8.433  14.965  1.00  0.00     0.007 C 
HETATM   21  C36 UNL     1      -4.026   8.779  14.205  1.00  0.00     0.014 C 
HETATM   22  C37 UNL     1      -2.809   7.897  14.544  1.00  0.00     0.003 C 
HETATM   23  C38 UNL     1      -2.338   8.248  15.980  1.00  0.00     0.020 C 
ENDROOT
BRANCH   3  24
HETATM   24  O1  UNL     1      -2.157   8.308  12.195  1.00  0.00    -0.377 OA
HETATM   25  H2  UNL     1      -1.394   8.497  11.625  1.00  0.00     0.211 HD
ENDBRANCH   3  24
BRANCH  13  26
HETATM   26  O2  UNL     1     -11.530   6.989  13.416  1.00  0.00    -0.271 OA
BRANCH  26  27
HETATM   27  C13 UNL     1     -12.342   8.061  12.970  1.00  0.00     0.303 C 
BRANCH  27  28
HETATM   28  C14 UNL     1     -13.859   7.841  12.975  1.00  0.00     0.244 C 
HETATM   29  O3  UNL     1     -14.510   7.363  12.051  1.00  0.00    -0.271 OA
HETATM   30  N2  UNL     1     -14.455   8.237  14.173  1.00  0.00    -0.346 N 
HETATM   31  H16 UNL     1     -13.845   8.229  14.986  1.00  0.00     0.163 HD
BRANCH  30  32
HETATM   32  C15 UNL     1     -15.855   7.906  14.444  1.00  0.00     0.180 C 
BRANCH  32  33
HETATM   33  C16 UNL     1     -15.901   6.436  14.919  1.00  0.00     0.241 C 
HETATM   34  O4  UNL     1     -15.548   6.102  16.046  1.00  0.00    -0.271 OA
HETATM   35  N3  UNL     1     -16.433   5.552  14.003  1.00  0.00    -0.354 N 
HETATM   36  H18 UNL     1     -16.592   5.889  13.056  1.00  0.00     0.162 HD
BRANCH  35  37
HETATM   37  C17 UNL     1     -16.545   4.116  14.278  1.00  0.00     0.098 C 
BRANCH  37  38
HETATM   38  C18 UNL     1     -15.239   3.582  14.902  1.00  0.00     0.135 C 
BRANCH  38  39
HETATM   39  C19 UNL     1     -15.090   2.093  14.737  1.00  0.00     0.141 C 
HETATM   40  O5  UNL     1     -14.542   1.308  15.485  1.00  0.00    -0.650 OA
BRANCH  39  41
HETATM   41  O6  UNL     1     -15.705   1.649  13.621  1.00  0.00    -0.776 OA
HETATM   42  H22 UNL     1     -15.611   0.676  13.673  1.00  0.00     0.167 HD
ENDBRANCH  39  41
ENDBRANCH  38  39
ENDBRANCH  37  38
BRANCH  37  43
HETATM   43  C20 UNL     1     -17.824   3.851  15.124  1.00  0.00     0.014 C 
HETATM   44  C21 UNL     1     -17.545   3.307  16.543  1.00  0.00     0.033 C 
HETATM   45  C22 UNL     1     -18.678   2.425  17.065  1.00  0.00     0.169 C 
HETATM   46  O7  UNL     1     -19.937   2.939  16.646  1.00  0.00    -0.381 OA
HETATM   47  C23 UNL     1     -20.162   2.861  15.226  1.00  0.00     0.054 C 
HETATM   48  C24 UNL     1     -20.893   1.548  14.913  1.00  0.00     0.045 C 
HETATM   49  C25 UNL     1     -21.086   4.038  14.887  1.00  0.00     0.045 C 
HETATM   50  C26 UNL     1     -18.846   2.950  14.421  1.00  0.00     0.044 C 
ENDBRANCH  37  43
ENDBRANCH  35  37
ENDBRANCH  32  33
BRANCH  32  51
HETATM   51  C27 UNL     1     -16.479   8.883  15.468  1.00  0.00     0.009 C 
HETATM   52  C28 UNL     1     -16.158  10.344  15.136  1.00  0.00     0.012 C 
HETATM   53  C29 UNL     1     -17.997   8.718  15.648  1.00  0.00     0.012 C 
ENDBRANCH  32  51
ENDBRANCH  30  32
ENDBRANCH  27  28
ENDBRANCH  26  27
ENDBRANCH  13  26
TORSDOF 12
ENDMDL
MODEL 5
REMARK minimizedAffinity -8.28671455
REMARK CNNscore 0.22225441
REMARK CNNaffinity 6.54807091
REMARK  12 active torsions:
REMARK  status: ('A' for Active; 'I' for Inactive)
REMARK    1  A    between atoms: C3_3  and  O1_4 
REMARK    2  A    between atoms: N1_14  and  O2_16 
REMARK    3  A    between atoms: O2_16  and  C13_17 
REMARK    4  A    between atoms: C13_17  and  C14_18 
REMARK       I    between atoms: C14_18  and  N2_20 
REMARK    5  A    between atoms: N2_20  and  C15_21 
REMARK    6  A    between atoms: C15_21  and  C16_22 
REMARK    7  A    between atoms: C15_21  and  C27_38 
REMARK       I    between atoms: C16_22  and  N3_24 
REMARK    8  A    between atoms: N3_24  and  C17_25 
REMARK    9  A    between atoms: C17_25  and  C18_26 
REMARK   10  A    between atoms: C17_25  and  C20_30 
REMARK   11  A    between atoms: C18_26  and  C19_27 
REMARK   12  A    between atoms: C19_27  and  O6_29 
ROOT
HETATM    1  C1  UNL     1      -7.326   8.277  15.423  1.00  0.00     0.015 C 
HETATM    2  C2  UNL     1      -6.366   7.608  15.148  1.00  0.00    -0.078 C 
HETATM    3  C3  UNL     1      -5.209   6.759  14.828  1.00  0.00     0.128 C 
HETATM    4  C4  UNL     1      -5.638   5.470  14.117  1.00  0.00     0.052 C 
HETATM    5  C5  UNL     1      -4.315   4.928  13.592  1.00  0.00     0.010 C 
HETATM    6  C6  UNL     1      -3.615   6.168  13.031  1.00  0.00     0.002 C 
HETATM    7  C7  UNL     1      -2.084   6.064  12.849  1.00  0.00    -0.004 C 
HETATM    8  C8  UNL     1      -1.292   5.380  13.973  1.00  0.00     0.010 C 
HETATM    9  C9  UNL     1       0.195   5.268  13.632  1.00  0.00     0.035 C 
HETATM   10  C10 UNL     1       0.828   6.554  13.147  1.00  0.00    -0.069 C 
HETATM   11  C11 UNL     1       2.085   6.856  13.529  1.00  0.00     0.030 C 
HETATM   12  C12 UNL     1       2.860   7.967  12.896  1.00  0.00     0.032 C 
HETATM   13  N1  UNL     1       4.120   8.216  13.087  1.00  0.00    -0.271 N 
ATOM     14  H1  UNL     1       4.639   8.939  12.588  1.00  0.00     0.194 HD
HETATM   15  C30 UNL     1       2.156   8.833  11.866  1.00  0.00     0.060 C 
HETATM   16  C31 UNL     1       0.645   8.830  12.060  1.00  0.00     0.020 C 
HETATM   17  C32 UNL     1       0.036   7.396  12.149  1.00  0.00    -0.016 C 
HETATM   18  C33 UNL     1       0.165   6.731  10.751  1.00  0.00     0.020 C 
HETATM   19  C34 UNL     1      -1.490   7.465  12.557  1.00  0.00     0.002 C 
HETATM   20  C35 UNL     1      -1.785   8.449  13.720  1.00  0.00     0.007 C 
HETATM   21  C36 UNL     1      -3.015   8.130  14.581  1.00  0.00     0.014 C 
HETATM   22  C37 UNL     1      -4.152   7.392  13.849  1.00  0.00     0.003 C 
HETATM   23  C38 UNL     1      -4.811   8.380  12.851  1.00  0.00     0.020 C 
ENDROOT
BRANCH   3  24
HETATM   24  O1  UNL     1      -4.592   6.374  16.059  1.00  0.00    -0.377 OA
HETATM   25  H2  UNL     1      -5.307   6.107  16.660  1.00  0.00     0.211 HD
ENDBRANCH   3  24
BRANCH  13  26
HETATM   26  O2  UNL     1       4.686   7.379  14.058  1.00  0.00    -0.271 OA
BRANCH  26  27
HETATM   27  C13 UNL     1       5.609   8.113  14.843  1.00  0.00     0.303 C 
BRANCH  27  28
HETATM   28  C14 UNL     1       5.122   9.437  15.444  1.00  0.00     0.244 C 
HETATM   29  O3  UNL     1       3.952   9.807  15.491  1.00  0.00    -0.271 OA
HETATM   30  N2  UNL     1       6.163  10.207  15.963  1.00  0.00    -0.346 N 
HETATM   31  H16 UNL     1       6.989   9.687  16.247  1.00  0.00     0.163 HD
BRANCH  30  32
HETATM   32  C15 UNL     1       5.871  11.396  16.765  1.00  0.00     0.180 C 
BRANCH  32  33
HETATM   33  C16 UNL     1       6.531  11.197  18.148  1.00  0.00     0.241 C 
HETATM   34  O4  UNL     1       7.232  10.222  18.403  1.00  0.00    -0.271 OA
HETATM   35  N3  UNL     1       6.325  12.230  19.038  1.00  0.00    -0.354 N 
HETATM   36  H18 UNL     1       5.641  12.940  18.789  1.00  0.00     0.162 HD
BRANCH  35  37
HETATM   37  C17 UNL     1       6.868  12.207  20.400  1.00  0.00     0.098 C 
BRANCH  37  38
HETATM   38  C18 UNL     1       7.959  13.284  20.565  1.00  0.00     0.135 C 
BRANCH  38  39
HETATM   39  C19 UNL     1       9.090  12.825  21.447  1.00  0.00     0.141 C 
HETATM   40  O5  UNL     1       9.408  11.686  21.725  1.00  0.00    -0.650 OA
BRANCH  39  41
HETATM   41  O6  UNL     1       9.818  13.863  21.909  1.00  0.00    -0.776 OA
HETATM   42  H22 UNL     1      10.557  13.436  22.388  1.00  0.00     0.167 HD
ENDBRANCH  39  41
ENDBRANCH  38  39
ENDBRANCH  37  38
BRANCH  37  43
HETATM   43  C20 UNL     1       5.699  12.305  21.423  1.00  0.00     0.014 C 
HETATM   44  C21 UNL     1       4.979  10.964  21.693  1.00  0.00     0.033 C 
HETATM   45  C22 UNL     1       3.512  11.154  22.077  1.00  0.00     0.169 C 
HETATM   46  O7  UNL     1       3.360  12.314  22.887  1.00  0.00    -0.381 OA
HETATM   47  C23 UNL     1       3.625  13.551  22.201  1.00  0.00     0.054 C 
HETATM   48  C24 UNL     1       2.306  14.096  21.637  1.00  0.00     0.045 C 
HETATM   49  C25 UNL     1       4.146  14.517  23.273  1.00  0.00     0.045 C 
HETATM   50  C26 UNL     1       4.664  13.380  21.070  1.00  0.00     0.044 C 
ENDBRANCH  37  43
ENDBRANCH  35  37
ENDBRANCH  32  33
BRANCH  32  51
HETATM   51  C27 UNL     1       6.347  12.686  16.057  1.00  0.00     0.009 C 
HETATM   52  C28 UNL     1       7.827  12.613  15.665  1.00  0.00     0.012 C 
HETATM   53  C29 UNL     1       5.509  13.074  14.829  1.00  0.00     0.012 C 
ENDBRANCH  32  51
ENDBRANCH  30  32
ENDBRANCH  27  28
ENDBRANCH  26  27
ENDBRANCH  13  26
TORSDOF 12
ENDMDL
MODEL 6
REMARK minimizedAffinity -8.39299107
REMARK CNNscore 0.189192116
REMARK CNNaffinity 7.03709745
REMARK  12 active torsions:
REMARK  status: ('A' for Active; 'I' for Inactive)
REMARK    1  A    between atoms: C3_3  and  O1_4 
REMARK    2  A    between atoms: N1_14  and  O2_16 
REMARK    3  A    between atoms: O2_16  and  C13_17 
REMARK    4  A    between atoms: C13_17  and  C14_18 
REMARK       I    between atoms: C14_18  and  N2_20 
REMARK    5  A    between atoms: N2_20  and  C15_21 
REMARK    6  A    between atoms: C15_21  and  C16_22 
REMARK    7  A    between atoms: C15_21  and  C27_38 
REMARK       I    between atoms: C16_22  and  N3_24 
REMARK    8  A    between atoms: N3_24  and  C17_25 
REMARK    9  A    between atoms: C17_25  and  C18_26 
REMARK   10  A    between atoms: C17_25  and  C20_30 
REMARK   11  A    between atoms: C18_26  and  C19_27 
REMARK   12  A    between atoms: C19_27  and  O6_29 
ROOT
HETATM    1  C1  UNL     1       0.649   5.264  11.713  1.00  0.00     0.015 C 
HETATM    2  C2  UNL     1      -0.487   4.869  11.702  1.00  0.00    -0.078 C 
HETATM    3  C3  UNL     1      -1.867   4.362  11.659  1.00  0.00     0.128 C 
HETATM    4  C4  UNL     1      -1.905   2.833  11.748  1.00  0.00     0.052 C 
HETATM    5  C5  UNL     1      -3.377   2.556  12.025  1.00  0.00     0.010 C 
HETATM    6  C6  UNL     1      -3.749   3.606  13.074  1.00  0.00     0.002 C 
HETATM    7  C7  UNL     1      -5.256   3.910  13.231  1.00  0.00    -0.004 C 
HETATM    8  C8  UNL     1      -6.083   4.024  11.942  1.00  0.00     0.010 C 
HETATM    9  C9  UNL     1      -7.568   4.242  12.238  1.00  0.00     0.035 C 
HETATM   10  C10 UNL     1      -7.855   5.344  13.236  1.00  0.00    -0.069 C 
HETATM   11  C11 UNL     1      -8.923   6.143  13.047  1.00  0.00     0.030 C 
HETATM   12  C12 UNL     1      -9.412   7.077  14.109  1.00  0.00     0.032 C 
HETATM   13  N1  UNL     1     -10.519   7.754  14.070  1.00  0.00    -0.271 N 
ATOM     14  H1  UNL     1     -10.861   8.329  14.841  1.00  0.00     0.194 HD
HETATM   15  C30 UNL     1      -8.606   7.184  15.391  1.00  0.00     0.060 C 
HETATM   16  C31 UNL     1      -7.148   6.799  15.179  1.00  0.00     0.020 C 
HETATM   17  C32 UNL     1      -6.969   5.416  14.478  1.00  0.00    -0.016 C 
HETATM   18  C33 UNL     1      -7.435   4.312  15.466  1.00  0.00     0.020 C 
HETATM   19  C34 UNL     1      -5.452   5.176  14.101  1.00  0.00     0.002 C 
HETATM   20  C35 UNL     1      -4.762   6.408  13.458  1.00  0.00     0.007 C 
HETATM   21  C36 UNL     1      -3.589   6.111  12.515  1.00  0.00     0.014 C 
HETATM   22  C37 UNL     1      -2.798   4.829  12.838  1.00  0.00     0.003 C 
HETATM   23  C38 UNL     1      -1.997   5.069  14.145  1.00  0.00     0.020 C 
ENDROOT
BRANCH   3  24
HETATM   24  O1  UNL     1      -2.429   4.724  10.396  1.00  0.00    -0.377 OA
HETATM   25  H2  UNL     1      -1.760   4.522   9.722  1.00  0.00     0.211 HD
ENDBRANCH   3  24
BRANCH  13  26
HETATM   26  O2  UNL     1     -11.191   7.605  12.850  1.00  0.00    -0.271 OA
BRANCH  26  27
HETATM   27  C13 UNL     1     -11.790   8.835  12.480  1.00  0.00     0.303 C 
BRANCH  27  28
HETATM   28  C14 UNL     1     -13.296   8.983  12.723  1.00  0.00     0.244 C 
HETATM   29  O3  UNL     1     -13.941   8.373  13.572  1.00  0.00    -0.271 OA
HETATM   30  N2  UNL     1     -13.889   9.915  11.871  1.00  0.00    -0.346 N 
HETATM   31  H16 UNL     1     -13.266  10.633  11.511  1.00  0.00     0.163 HD
BRANCH  30  32
HETATM   32  C15 UNL     1     -15.268  10.347  12.098  1.00  0.00     0.180 C 
BRANCH  32  33
HETATM   33  C16 UNL     1     -16.180   9.115  11.900  1.00  0.00     0.241 C 
HETATM   34  O4  UNL     1     -15.823   8.137  11.250  1.00  0.00    -0.271 OA
HETATM   35  N3  UNL     1     -17.387   9.179  12.565  1.00  0.00    -0.354 N 
HETATM   36  H18 UNL     1     -17.651  10.068  12.982  1.00  0.00     0.162 HD
BRANCH  35  37
HETATM   37  C17 UNL     1     -18.381   8.104  12.482  1.00  0.00     0.098 C 
BRANCH  37  38
HETATM   38  C18 UNL     1     -19.058   8.100  11.097  1.00  0.00     0.135 C 
BRANCH  38  39
HETATM   39  C19 UNL     1     -19.006   9.448  10.428  1.00  0.00     0.141 C 
HETATM   40  O5  UNL     1     -18.329   9.787   9.477  1.00  0.00    -0.650 OA
BRANCH  39  41
HETATM   41  O6  UNL     1     -19.878  10.316  10.982  1.00  0.00    -0.776 OA
HETATM   42  H22 UNL     1     -19.810  11.111  10.414  1.00  0.00     0.167 HD
ENDBRANCH  39  41
ENDBRANCH  38  39
ENDBRANCH  37  38
BRANCH  37  43
HETATM   43  C20 UNL     1     -17.717   6.755  12.885  1.00  0.00     0.014 C 
HETATM   44  C21 UNL     1     -18.503   5.503  12.433  1.00  0.00     0.033 C 
HETATM   45  C22 UNL     1     -18.288   4.311  13.365  1.00  0.00     0.169 C 
HETATM   46  O7  UNL     1     -16.942   4.279  13.826  1.00  0.00    -0.381 OA
HETATM   47  C23 UNL     1     -16.592   5.372  14.695  1.00  0.00     0.054 C 
HETATM   48  C24 UNL     1     -16.820   4.939  16.150  1.00  0.00     0.045 C 
HETATM   49  C25 UNL     1     -15.093   5.612  14.477  1.00  0.00     0.045 C 
HETATM   50  C26 UNL     1     -17.401   6.651  14.381  1.00  0.00     0.044 C 
ENDBRANCH  37  43
ENDBRANCH  35  37
ENDBRANCH  32  33
BRANCH  32  51
HETATM   51  C27 UNL     1     -15.437  10.995  13.492  1.00  0.00     0.009 C 
HETATM   52  C28 UNL     1     -15.751   9.955  14.574  1.00  0.00     0.012 C 
HETATM   53  C29 UNL     1     -14.239  11.851  13.936  1.00  0.00     0.012 C 
ENDBRANCH  32  51
ENDBRANCH  30  32
ENDBRANCH  27  28
ENDBRANCH  26  27
ENDBRANCH  13  26
TORSDOF 12
ENDMDL
MODEL 7
REMARK minimizedAffinity -7.91379499
REMARK CNNscore 0.186460033
REMARK CNNaffinity 7.03563261
REMARK  12 active torsions:
REMARK  status: ('A' for Active; 'I' for Inactive)
REMARK    1  A    between atoms: C3_3  and  O1_4 
REMARK    2  A    between atoms: N1_14  and  O2_16 
REMARK    3  A    between atoms: O2_16  and  C13_17 
REMARK    4  A    between atoms: C13_17  and  C14_18 
REMARK       I    between atoms: C14_18  and  N2_20 
REMARK    5  A    between atoms: N2_20  and  C15_21 
REMARK    6  A    between atoms: C15_21  and  C16_22 
REMARK    7  A    between atoms: C15_21  and  C27_38 
REMARK       I    between atoms: C16_22  and  N3_24 
REMARK    8  A    between atoms: N3_24  and  C17_25 
REMARK    9  A    between atoms: C17_25  and  C18_26 
REMARK   10  A    between atoms: C17_25  and  C20_30 
REMARK   11  A    between atoms: C18_26  and  C19_27 
REMARK   12  A    between atoms: C19_27  and  O6_29 
ROOT
HETATM    1  C1  UNL     1       0.709   9.511  14.223  1.00  0.00     0.015 C 
HETATM    2  C2  UNL     1      -0.159   8.711  13.996  1.00  0.00    -0.078 C 
HETATM    3  C3  UNL     1      -1.198   7.716  13.692  1.00  0.00     0.128 C 
HETATM    4  C4  UNL     1      -0.649   6.287  13.777  1.00  0.00     0.052 C 
HETATM    5  C5  UNL     1      -1.918   5.446  13.768  1.00  0.00     0.010 C 
HETATM    6  C6  UNL     1      -2.852   6.192  14.722  1.00  0.00     0.002 C 
HETATM    7  C7  UNL     1      -4.360   5.881  14.588  1.00  0.00    -0.004 C 
HETATM    8  C8  UNL     1      -4.922   5.759  13.164  1.00  0.00     0.010 C 
HETATM    9  C9  UNL     1      -6.401   5.367  13.170  1.00  0.00     0.035 C 
HETATM   10  C10 UNL     1      -7.269   6.197  14.091  1.00  0.00    -0.069 C 
HETATM   11  C11 UNL     1      -8.513   6.535  13.698  1.00  0.00     0.030 C 
HETATM   12  C12 UNL     1      -9.508   7.129  14.644  1.00  0.00     0.032 C 
HETATM   13  N1  UNL     1     -10.766   7.328  14.392  1.00  0.00    -0.271 N 
ATOM     14  H1  UNL     1     -11.436   7.670  15.081  1.00  0.00     0.194 HD
HETATM   15  C30 UNL     1      -9.050   7.446  16.056  1.00  0.00     0.060 C 
HETATM   16  C31 UNL     1      -7.545   7.668  16.128  1.00  0.00     0.020 C 
HETATM   17  C32 UNL     1      -6.717   6.516  15.478  1.00  0.00    -0.016 C 
HETATM   18  C33 UNL     1      -6.880   5.250  16.363  1.00  0.00     0.020 C 
HETATM   19  C34 UNL     1      -5.187   6.907  15.400  1.00  0.00     0.002 C 
HETATM   20  C35 UNL     1      -4.933   8.352  14.897  1.00  0.00     0.007 C 
HETATM   21  C36 UNL     1      -3.590   8.599  14.196  1.00  0.00     0.014 C 
HETATM   22  C37 UNL     1      -2.431   7.701  14.669  1.00  0.00     0.003 C 
HETATM   23  C38 UNL     1      -2.033   8.136  16.105  1.00  0.00     0.020 C 
ENDROOT
BRANCH   3  24
HETATM   24  O1  UNL     1      -1.624   7.923  12.343  1.00  0.00    -0.377 OA
HETATM   25  H2  UNL     1      -0.821   8.043  11.810  1.00  0.00     0.211 HD
ENDBRANCH   3  24
BRANCH  13  26
HETATM   26  O2  UNL     1     -11.098   7.019  13.066  1.00  0.00    -0.271 OA
BRANCH  26  27
HETATM   27  C13 UNL     1     -11.551   8.186  12.402  1.00  0.00     0.303 C 
BRANCH  27  28
HETATM   28  C14 UNL     1     -12.975   8.662  12.714  1.00  0.00     0.244 C 
HETATM   29  O3  UNL     1     -13.807   8.034  13.364  1.00  0.00    -0.271 OA
HETATM   30  N2  UNL     1     -13.247   9.925  12.187  1.00  0.00    -0.346 N 
HETATM   31  H16 UNL     1     -12.436  10.518  12.037  1.00  0.00     0.163 HD
BRANCH  30  32
HETATM   32  C15 UNL     1     -14.472  10.632  12.563  1.00  0.00     0.180 C 
BRANCH  32  33
HETATM   33  C16 UNL     1     -15.664   9.839  11.980  1.00  0.00     0.241 C 
HETATM   34  O4  UNL     1     -15.519   8.992  11.104  1.00  0.00    -0.271 OA
HETATM   35  N3  UNL     1     -16.881  10.113  12.569  1.00  0.00    -0.354 N 
HETATM   36  H18 UNL     1     -16.932  10.907  13.203  1.00  0.00     0.162 HD
BRANCH  35  37
HETATM   37  C17 UNL     1     -18.121   9.462  12.136  1.00  0.00     0.098 C 
BRANCH  37  38
HETATM   38  C18 UNL     1     -18.080   9.173  10.622  1.00  0.00     0.135 C 
BRANCH  38  39
HETATM   39  C19 UNL     1     -19.456   9.047  10.023  1.00  0.00     0.141 C 
HETATM   40  O5  UNL     1     -19.836   8.259   9.180  1.00  0.00    -0.650 OA
BRANCH  39  41
HETATM   41  O6  UNL     1     -20.323   9.922  10.573  1.00  0.00    -0.776 OA
HETATM   42  H22 UNL     1     -21.183   9.685  10.168  1.00  0.00     0.167 HD
ENDBRANCH  39  41
ENDBRANCH  38  39
ENDBRANCH  37  38
BRANCH  37  43
HETATM   43  C20 UNL     1     -18.389   8.215  13.029  1.00  0.00     0.014 C 
HETATM   44  C21 UNL     1     -18.598   8.540  14.526  1.00  0.00     0.033 C 
HETATM   45  C22 UNL     1     -18.161   7.395  15.438  1.00  0.00     0.169 C 
HETATM   46  O7  UNL     1     -18.482   6.141  14.847  1.00  0.00    -0.381 OA
HETATM   47  C23 UNL     1     -17.729   5.843  13.656  1.00  0.00     0.054 C 
HETATM   48  C24 UNL     1     -16.482   5.039  14.049  1.00  0.00     0.045 C 
HETATM   49  C25 UNL     1     -18.643   4.958  12.798  1.00  0.00     0.045 C 
HETATM   50  C26 UNL     1     -17.326   7.120  12.885  1.00  0.00     0.044 C 
ENDBRANCH  37  43
ENDBRANCH  35  37
ENDBRANCH  32  33
BRANCH  32  51
HETATM   51  C27 UNL     1     -14.571  10.815  14.095  1.00  0.00     0.009 C 
HETATM   52  C28 UNL     1     -15.167   9.582  14.784  1.00  0.00     0.012 C 
HETATM   53  C29 UNL     1     -13.242  11.189  14.770  1.00  0.00     0.012 C 
ENDBRANCH  32  51
ENDBRANCH  30  32
ENDBRANCH  27  28
ENDBRANCH  26  27
ENDBRANCH  13  26
TORSDOF 12
ENDMDL
MODEL 8
REMARK minimizedAffinity -8.47518826
REMARK CNNscore 0.175355896
REMARK CNNaffinity 6.92352057
REMARK  12 active torsions:
REMARK  status: ('A' for Active; 'I' for Inactive)
REMARK    1  A    between atoms: C3_3  and  O1_4 
REMARK    2  A    between atoms: N1_14  and  O2_16 
REMARK    3  A    between atoms: O2_16  and  C13_17 
REMARK    4  A    between atoms: C13_17  and  C14_18 
REMARK       I    between atoms: C14_18  and  N2_20 
REMARK    5  A    between atoms: N2_20  and  C15_21 
REMARK    6  A    between atoms: C15_21  and  C16_22 
REMARK    7  A    between atoms: C15_21  and  C27_38 
REMARK       I    between atoms: C16_22  and  N3_24 
REMARK    8  A    between atoms: N3_24  and  C17_25 
REMARK    9  A    between atoms: C17_25  and  C18_26 
REMARK   10  A    between atoms: C17_25  and  C20_30 
REMARK   11  A    between atoms: C18_26  and  C19_27 
REMARK   12  A    between atoms: C19_27  and  O6_29 
ROOT
HETATM    1  C1  UNL     1       3.474   8.612   8.644  1.00  0.00     0.015 C 
HETATM    2  C2  UNL     1       2.728   7.927   9.291  1.00  0.00    -0.078 C 
HETATM    3  C3  UNL     1       1.830   7.057  10.066  1.00  0.00     0.128 C 
HETATM    4  C4  UNL     1       2.604   5.941  10.776  1.00  0.00     0.052 C 
HETATM    5  C5  UNL     1       1.572   5.395  11.754  1.00  0.00     0.010 C 
HETATM    6  C6  UNL     1       0.922   6.653  12.332  1.00  0.00     0.002 C 
HETATM    7  C7  UNL     1      -0.462   6.466  12.993  1.00  0.00    -0.004 C 
HETATM    8  C8  UNL     1      -1.460   5.547  12.273  1.00  0.00     0.010 C 
HETATM    9  C9  UNL     1      -2.754   5.381  13.072  1.00  0.00     0.035 C 
HETATM   10  C10 UNL     1      -3.369   6.678  13.551  1.00  0.00    -0.069 C 
HETATM   11  C11 UNL     1      -4.709   6.816  13.541  1.00  0.00     0.030 C 
HETATM   12  C12 UNL     1      -5.394   7.956  14.227  1.00  0.00     0.032 C 
HETATM   13  N1  UNL     1      -6.675   8.073  14.405  1.00  0.00    -0.271 N 
ATOM     14  H1  UNL     1      -7.107   8.827  14.939  1.00  0.00     0.194 HD
HETATM   15  C30 UNL     1      -4.529   9.031  14.861  1.00  0.00     0.060 C 
HETATM   16  C31 UNL     1      -3.154   9.110  14.210  1.00  0.00     0.020 C 
HETATM   17  C32 UNL     1      -2.427   7.731  14.130  1.00  0.00    -0.016 C 
HETATM   18  C33 UNL     1      -2.055   7.300  15.575  1.00  0.00     0.020 C 
HETATM   19  C34 UNL     1      -1.110   7.846  13.263  1.00  0.00     0.002 C 
HETATM   20  C35 UNL     1      -1.294   8.644  11.944  1.00  0.00     0.007 C 
HETATM   21  C36 UNL     1      -0.344   8.281  10.796  1.00  0.00     0.014 C 
HETATM   22  C37 UNL     1       1.040   7.762  11.230  1.00  0.00     0.003 C 
HETATM   23  C38 UNL     1       1.837   8.950  11.831  1.00  0.00     0.020 C 
ENDROOT
BRANCH   3  24
HETATM   24  O1  UNL     1       0.930   6.428   9.152  1.00  0.00    -0.377 OA
HETATM   25  H2  UNL     1       1.462   6.120   8.400  1.00  0.00     0.211 HD
ENDBRANCH   3  24
BRANCH  13  26
HETATM   26  O2  UNL     1      -7.395   7.046  13.781  1.00  0.00    -0.271 OA
BRANCH  26  27
HETATM   27  C13 UNL     1      -8.454   6.624  14.622  1.00  0.00     0.303 C 
BRANCH  27  28
HETATM   28  C14 UNL     1      -9.726   7.480  14.630  1.00  0.00     0.244 C 
HETATM   29  O3  UNL     1      -9.772   8.685  14.397  1.00  0.00    -0.271 OA
HETATM   30  N2  UNL     1     -10.870   6.739  14.926  1.00  0.00    -0.346 N 
HETATM   31  H16 UNL     1     -10.816   5.748  14.706  1.00  0.00     0.163 HD
BRANCH  30  32
HETATM   32  C15 UNL     1     -12.196   7.337  14.768  1.00  0.00     0.180 C 
BRANCH  32  33
HETATM   33  C16 UNL     1     -12.199   8.672  15.548  1.00  0.00     0.241 C 
HETATM   34  O4  UNL     1     -12.947   9.599  15.251  1.00  0.00    -0.271 OA
HETATM   35  N3  UNL     1     -11.350   8.706  16.634  1.00  0.00    -0.354 N 
HETATM   36  H18 UNL     1     -10.685   7.944  16.740  1.00  0.00     0.162 HD
BRANCH  35  37
HETATM   37  C17 UNL     1     -11.216   9.895  17.482  1.00  0.00     0.098 C 
BRANCH  37  38
HETATM   38  C18 UNL     1     -11.248  11.176  16.625  1.00  0.00     0.135 C 
BRANCH  38  39
HETATM   39  C19 UNL     1     -10.109  12.109  16.943  1.00  0.00     0.141 C 
HETATM   40  O5  UNL     1      -9.994  12.852  17.898  1.00  0.00    -0.650 OA
BRANCH  39  41
HETATM   41  O6  UNL     1      -9.118  12.018  16.032  1.00  0.00    -0.776 OA
HETATM   42  H22 UNL     1      -8.416  12.598  16.391  1.00  0.00     0.167 HD
ENDBRANCH  39  41
ENDBRANCH  38  39
ENDBRANCH  37  38
BRANCH  37  43
HETATM   43  C20 UNL     1     -12.282   9.845  18.614  1.00  0.00     0.014 C 
HETATM   44  C21 UNL     1     -13.381  10.926  18.499  1.00  0.00     0.033 C 
HETATM   45  C22 UNL     1     -13.949  11.330  19.859  1.00  0.00     0.169 C 
HETATM   46  O7  UNL     1     -14.038  10.196  20.714  1.00  0.00    -0.381 OA
HETATM   47  C23 UNL     1     -12.764   9.649  21.102  1.00  0.00     0.054 C 
HETATM   48  C24 UNL     1     -12.337  10.286  22.432  1.00  0.00     0.045 C 
HETATM   49  C25 UNL     1     -13.005   8.150  21.323  1.00  0.00     0.045 C 
HETATM   50  C26 UNL     1     -11.680   9.874  20.024  1.00  0.00     0.044 C 
ENDBRANCH  37  43
ENDBRANCH  35  37
ENDBRANCH  32  33
BRANCH  32  51
HETATM   51  C27 UNL     1     -12.562   7.517  13.276  1.00  0.00     0.009 C 
HETATM   52  C28 UNL     1     -13.980   7.022  12.969  1.00  0.00     0.012 C 
HETATM   53  C29 UNL     1     -12.396   8.955  12.758  1.00  0.00     0.012 C 
ENDBRANCH  32  51
ENDBRANCH  30  32
ENDBRANCH  27  28
ENDBRANCH  26  27
ENDBRANCH  13  26
TORSDOF 12
ENDMDL
MODEL 9
REMARK minimizedAffinity -7.9046092
REMARK CNNscore 0.174732998
REMARK CNNaffinity 6.95471144
REMARK  12 active torsions:
REMARK  status: ('A' for Active; 'I' for Inactive)
REMARK    1  A    between atoms: C3_3  and  O1_4 
REMARK    2  A    between atoms: N1_14  and  O2_16 
REMARK    3  A    between atoms: O2_16  and  C13_17 
REMARK    4  A    between atoms: C13_17  and  C14_18 
REMARK       I    between atoms: C14_18  and  N2_20 
REMARK    5  A    between atoms: N2_20  and  C15_21 
REMARK    6  A    between atoms: C15_21  and  C16_22 
REMARK    7  A    between atoms: C15_21  and  C27_38 
REMARK       I    between atoms: C16_22  and  N3_24 
REMARK    8  A    between atoms: N3_24  and  C17_25 
REMARK    9  A    between atoms: C17_25  and  C18_26 
REMARK   10  A    between atoms: C17_25  and  C20_30 
REMARK   11  A    between atoms: C18_26  and  C19_27 
REMARK   12  A    between atoms: C19_27  and  O6_29 
ROOT
HETATM    1  C1  UNL     1       0.689   5.710  12.024  1.00  0.00     0.015 C 
HETATM    2  C2  UNL     1      -0.430   5.274  11.973  1.00  0.00    -0.078 C 
HETATM    3  C3  UNL     1      -1.788   4.717  11.882  1.00  0.00     0.128 C 
HETATM    4  C4  UNL     1      -1.771   3.186  11.933  1.00  0.00     0.052 C 
HETATM    5  C5  UNL     1      -3.238   2.847  12.164  1.00  0.00     0.010 C 
HETATM    6  C6  UNL     1      -3.677   3.856  13.227  1.00  0.00     0.002 C 
HETATM    7  C7  UNL     1      -5.198   4.100  13.352  1.00  0.00    -0.004 C 
HETATM    8  C8  UNL     1      -5.995   4.215  12.044  1.00  0.00     0.010 C 
HETATM    9  C9  UNL     1      -7.494   4.371  12.306  1.00  0.00     0.035 C 
HETATM   10  C10 UNL     1      -7.848   5.435  13.323  1.00  0.00    -0.069 C 
HETATM   11  C11 UNL     1      -8.940   6.199  13.125  1.00  0.00     0.030 C 
HETATM   12  C12 UNL     1      -9.491   7.087  14.196  1.00  0.00     0.032 C 
HETATM   13  N1  UNL     1     -10.622   7.723  14.144  1.00  0.00    -0.271 N 
ATOM     14  H1  UNL     1     -11.004   8.265  14.919  1.00  0.00     0.194 HD
HETATM   15  C30 UNL     1      -8.723   7.192  15.501  1.00  0.00     0.060 C 
HETATM   16  C31 UNL     1      -7.247   6.866  15.319  1.00  0.00     0.020 C 
HETATM   17  C32 UNL     1      -6.997   5.510  14.589  1.00  0.00    -0.016 C 
HETATM   18  C33 UNL     1      -7.447   4.365  15.538  1.00  0.00     0.020 C 
HETATM   19  C34 UNL     1      -5.463   5.335  14.247  1.00  0.00     0.002 C 
HETATM   20  C35 UNL     1      -4.804   6.608  13.652  1.00  0.00     0.007 C 
HETATM   21  C36 UNL     1      -3.597   6.378  12.733  1.00  0.00     0.014 C 
HETATM   22  C37 UNL     1      -2.767   5.119  13.047  1.00  0.00     0.003 C 
HETATM   23  C38 UNL     1      -2.009   5.356  14.380  1.00  0.00     0.020 C 
ENDROOT
BRANCH   3  24
HETATM   24  O1  UNL     1      -2.332   5.089  10.614  1.00  0.00    -0.377 OA
HETATM   25  H2  UNL     1      -1.639   4.930   9.953  1.00  0.00     0.211 HD
ENDBRANCH   3  24
BRANCH  13  26
HETATM   26  O2  UNL     1     -11.257   7.580  12.903  1.00  0.00    -0.271 OA
BRANCH  26  27
HETATM   27  C13 UNL     1     -11.913   8.787  12.559  1.00  0.00     0.303 C 
BRANCH  27  28
HETATM   28  C14 UNL     1     -13.357   8.963  13.044  1.00  0.00     0.244 C 
HETATM   29  O3  UNL     1     -13.815   9.982  13.554  1.00  0.00    -0.271 OA
HETATM   30  N2  UNL     1     -14.136   7.825  12.835  1.00  0.00    -0.346 N 
HETATM   31  H16 UNL     1     -13.827   7.218  12.081  1.00  0.00     0.163 HD
BRANCH  30  32
HETATM   32  C15 UNL     1     -15.585   7.878  13.034  1.00  0.00     0.180 C 
BRANCH  32  33
HETATM   33  C16 UNL     1     -16.175   8.771  11.919  1.00  0.00     0.241 C 
HETATM   34  O4  UNL     1     -16.092   8.473  10.731  1.00  0.00    -0.271 OA
HETATM   35  N3  UNL     1     -16.856   9.883  12.371  1.00  0.00    -0.354 N 
HETATM   36  H18 UNL     1     -16.778  10.117  13.357  1.00  0.00     0.162 HD
BRANCH  35  37
HETATM   37  C17 UNL     1     -17.471  10.847  11.454  1.00  0.00     0.098 C 
BRANCH  37  38
HETATM   38  C18 UNL     1     -18.930  10.449  11.151  1.00  0.00     0.135 C 
BRANCH  38  39
HETATM   39  C19 UNL     1     -19.141  10.100   9.701  1.00  0.00     0.141 C 
HETATM   40  O5  UNL     1     -18.813   9.085   9.120  1.00  0.00    -0.650 OA
BRANCH  39  41
HETATM   41  O6  UNL     1     -19.823  11.064   9.048  1.00  0.00    -0.776 OA
HETATM   42  H22 UNL     1     -19.967  10.686   8.157  1.00  0.00     0.167 HD
ENDBRANCH  39  41
ENDBRANCH  38  39
ENDBRANCH  37  38
BRANCH  37  43
HETATM   43  C20 UNL     1     -17.295  12.285  12.023  1.00  0.00     0.014 C 
HETATM   44  C21 UNL     1     -15.841  12.808  11.984  1.00  0.00     0.033 C 
HETATM   45  C22 UNL     1     -15.551  13.809  13.103  1.00  0.00     0.169 C 
HETATM   46  O7  UNL     1     -16.686  14.635  13.334  1.00  0.00    -0.381 OA
HETATM   47  C23 UNL     1     -17.820  13.938  13.880  1.00  0.00     0.054 C 
HETATM   48  C24 UNL     1     -17.770  14.035  15.411  1.00  0.00     0.045 C 
HETATM   49  C25 UNL     1     -19.055  14.694  13.374  1.00  0.00     0.045 C 
HETATM   50  C26 UNL     1     -17.867  12.459  13.435  1.00  0.00     0.044 C 
ENDBRANCH  37  43
ENDBRANCH  35  37
ENDBRANCH  32  33
BRANCH  32  51
HETATM   51  C27 UNL     1     -16.206   6.461  13.054  1.00  0.00     0.009 C 
HETATM   52  C28 UNL     1     -15.628   5.598  14.180  1.00  0.00     0.012 C 
HETATM   53  C29 UNL     1     -17.741   6.449  13.133  1.00  0.00     0.012 C 
ENDBRANCH  32  51
ENDBRANCH  30  32
ENDBRANCH  27  28
ENDBRANCH  26  27
ENDBRANCH  13  26
TORSDOF 12
ENDMDL
