MODEL 1
REMARK minimizedAffinity -5.40995264
REMARK  11 active torsions:
REMARK  status: ('A' for Active; 'I' for Inactive)
REMARK    1  A    between atoms: C2_2  and  C3_3 
REMARK    2  A    between atoms: C3_3  and  O1_4 
REMARK    3  A    between atoms: O1_4  and  C4_5 
REMARK    4  A    between atoms: C6_7  and  N1_8 
REMARK    5  A    between atoms: C9_11  and  C10_12 
REMARK    6  A    between atoms: C10_12  and  O3_14 
REMARK    7  A    between atoms: O3_14  and  C11_15 
REMARK    8  A    between atoms: C11_15  and  C12_16 
REMARK    9  A    between atoms: C12_16  and  N2_17 
REMARK   10  A    between atoms: N2_17  and  C13_18 
REMARK   11  A    between atoms: N2_17  and  C15_20 
ROOT
HETATM    1  C4  UNL     1       8.525  34.796  20.918  1.00  0.00     0.086 A 
HETATM    2  C5  UNL     1       7.641  35.346  21.854  1.00  0.00     0.061 A 
HETATM    3  C6  UNL     1       8.068  35.638  23.152  1.00  0.00     0.008 A 
HETATM    4  C7  UNL     1       9.370  35.294  23.525  1.00  0.00     0.024 A 
HETATM    5  C8  UNL     1      10.265  34.766  22.590  1.00  0.00     0.022 A 
HETATM    6  C9  UNL     1       9.850  34.528  21.273  1.00  0.00     0.072 A 
ENDROOT
BRANCH   6   7
HETATM    7  C10 UNL     1      10.795  33.938  20.297  1.00  0.00     0.296 C 
HETATM    8  O2  UNL     1      11.344  32.858  20.435  1.00  0.00    -0.259 OA
BRANCH   7   9
HETATM    9  O3  UNL     1      10.948  34.805  19.268  1.00  0.00    -0.316 OA
BRANCH   9  10
HETATM   10  C11 UNL     1      11.992  35.784  19.406  1.00  0.00     0.198 C 
BRANCH  10  11
HETATM   11  C12 UNL     1      13.075  35.543  18.338  1.00  0.00     0.143 C 
BRANCH  11  12
HETATM   12  N2  UNL     1      14.421  35.256  18.857  1.00  0.00    -0.411 N 
BRANCH  12  13
HETATM   13  C13 UNL     1      14.521  35.276  20.319  1.00  0.00     0.112 C 
HETATM   14  C14 UNL     1      14.695  33.936  21.029  1.00  0.00     0.026 C 
ENDBRANCH  12  13
BRANCH  12  15
HETATM   15  C15 UNL     1      15.130  34.145  18.214  1.00  0.00     0.112 C 
HETATM   16  C16 UNL     1      16.489  34.459  17.604  1.00  0.00     0.026 C 
ENDBRANCH  12  15
ENDBRANCH  11  12
ENDBRANCH  10  11
ENDBRANCH   9  10
ENDBRANCH   7   9
ENDBRANCH   6   7
BRANCH   1  17
HETATM   17  O1  UNL     1       8.085  34.615  19.632  1.00  0.00    -0.350 OA
BRANCH  17  18
HETATM   18  C3  UNL     1       7.222  35.691  19.236  1.00  0.00     0.175 C 
BRANCH  18  19
HETATM   19  C2  UNL     1       8.050  36.681  18.426  1.00  0.00     0.022 C 
HETATM   20  C1  UNL     1       8.799  36.000  17.294  1.00  0.00     0.007 C 
ENDBRANCH  18  19
ENDBRANCH  17  18
ENDBRANCH   1  17
BRANCH   3  21
HETATM   21  N1  UNL     1       7.147  36.061  24.118  1.00  0.00    -0.303 NA
HETATM   22  H9  UNL     1       7.567  36.537  24.909  1.00  0.00     0.124 HD
HETATM   23  H10 UNL     1       6.356  36.570  23.739  1.00  0.00     0.124 HD
ENDBRANCH   3  21
TORSDOF 11
ENDMDL
MODEL 2
REMARK minimizedAffinity -5.39922857
REMARK  11 active torsions:
REMARK  status: ('A' for Active; 'I' for Inactive)
REMARK    1  A    between atoms: C2_2  and  C3_3 
REMARK    2  A    between atoms: C3_3  and  O1_4 
REMARK    3  A    between atoms: O1_4  and  C4_5 
REMARK    4  A    between atoms: C6_7  and  N1_8 
REMARK    5  A    between atoms: C9_11  and  C10_12 
REMARK    6  A    between atoms: C10_12  and  O3_14 
REMARK    7  A    between atoms: O3_14  and  C11_15 
REMARK    8  A    between atoms: C11_15  and  C12_16 
REMARK    9  A    between atoms: C12_16  and  N2_17 
REMARK   10  A    between atoms: N2_17  and  C13_18 
REMARK   11  A    between atoms: N2_17  and  C15_20 
ROOT
HETATM    1  C4  UNL     1       8.261  34.634  21.049  1.00  0.00     0.086 A 
HETATM    2  C5  UNL     1       7.474  35.181  22.069  1.00  0.00     0.061 A 
HETATM    3  C6  UNL     1       8.066  35.739  23.206  1.00  0.00     0.008 A 
HETATM    4  C7  UNL     1       9.454  35.664  23.346  1.00  0.00     0.024 A 
HETATM    5  C8  UNL     1      10.248  35.139  22.322  1.00  0.00     0.022 A 
HETATM    6  C9  UNL     1       9.654  34.634  21.158  1.00  0.00     0.072 A 
ENDROOT
BRANCH   6   7
HETATM    7  C10 UNL     1      10.501  34.050  20.092  1.00  0.00     0.296 C 
HETATM    8  O2  UNL     1      11.324  33.168  20.270  1.00  0.00    -0.259 OA
BRANCH   7   9
HETATM    9  O3  UNL     1      10.216  34.676  18.925  1.00  0.00    -0.316 OA
BRANCH   9  10
HETATM   10  C11 UNL     1      10.947  35.883  18.652  1.00  0.00     0.198 C 
BRANCH  10  11
HETATM   11  C12 UNL     1      11.598  35.794  17.260  1.00  0.00     0.143 C 
BRANCH  11  12
HETATM   12  N2  UNL     1      13.067  35.858  17.244  1.00  0.00    -0.411 N 
BRANCH  12  13
HETATM   13  C13 UNL     1      13.730  34.584  17.540  1.00  0.00     0.112 C 
HETATM   14  C14 UNL     1      14.417  34.451  18.897  1.00  0.00     0.026 C 
ENDBRANCH  12  13
BRANCH  12  15
HETATM   15  C15 UNL     1      13.662  36.608  16.133  1.00  0.00     0.112 C 
HETATM   16  C16 UNL     1      14.551  37.788  16.501  1.00  0.00     0.026 C 
ENDBRANCH  12  15
ENDBRANCH  11  12
ENDBRANCH  10  11
ENDBRANCH   9  10
ENDBRANCH   7   9
ENDBRANCH   6   7
BRANCH   1  17
HETATM   17  O1  UNL     1       7.638  34.185  19.913  1.00  0.00    -0.350 OA
BRANCH  17  18
HETATM   18  C3  UNL     1       6.662  35.134  19.463  1.00  0.00     0.175 C 
BRANCH  18  19
HETATM   19  C2  UNL     1       5.469  34.357  18.918  1.00  0.00     0.022 C 
HETATM   20  C1  UNL     1       5.365  32.974  19.537  1.00  0.00     0.007 C 
ENDBRANCH  18  19
ENDBRANCH  17  18
ENDBRANCH   1  17
BRANCH   3  21
HETATM   21  N1  UNL     1       7.271  36.161  24.278  1.00  0.00    -0.303 NA
HETATM   22  H9  UNL     1       7.732  36.816  24.901  1.00  0.00     0.124 HD
HETATM   23  H10 UNL     1       6.346  36.476  24.007  1.00  0.00     0.124 HD
ENDBRANCH   3  21
TORSDOF 11
ENDMDL
MODEL 3
REMARK minimizedAffinity -5.22348595
REMARK  11 active torsions:
REMARK  status: ('A' for Active; 'I' for Inactive)
REMARK    1  A    between atoms: C2_2  and  C3_3 
REMARK    2  A    between atoms: C3_3  and  O1_4 
REMARK    3  A    between atoms: O1_4  and  C4_5 
REMARK    4  A    between atoms: C6_7  and  N1_8 
REMARK    5  A    between atoms: C9_11  and  C10_12 
REMARK    6  A    between atoms: C10_12  and  O3_14 
REMARK    7  A    between atoms: O3_14  and  C11_15 
REMARK    8  A    between atoms: C11_15  and  C12_16 
REMARK    9  A    between atoms: C12_16  and  N2_17 
REMARK   10  A    between atoms: N2_17  and  C13_18 
REMARK   11  A    between atoms: N2_17  and  C15_20 
ROOT
HETATM    1  C4  UNL     1      10.091  35.987  20.141  1.00  0.00     0.086 A 
HETATM    2  C5  UNL     1       9.259  35.859  19.021  1.00  0.00     0.061 A 
HETATM    3  C6  UNL     1       9.802  35.754  17.738  1.00  0.00     0.008 A 
HETATM    4  C7  UNL     1      11.186  35.862  17.583  1.00  0.00     0.024 A 
HETATM    5  C8  UNL     1      12.024  35.967  18.697  1.00  0.00     0.022 A 
HETATM    6  C9  UNL     1      11.479  36.014  19.986  1.00  0.00     0.072 A 
ENDROOT
BRANCH   6   7
HETATM    7  C10 UNL     1      12.372  36.159  21.159  1.00  0.00     0.296 C 
HETATM    8  O2  UNL     1      12.885  37.207  21.512  1.00  0.00    -0.259 OA
BRANCH   7   9
HETATM    9  O3  UNL     1      12.527  34.942  21.734  1.00  0.00    -0.316 OA
BRANCH   9  10
HETATM   10  C11 UNL     1      13.078  33.907  20.903  1.00  0.00     0.198 C 
BRANCH  10  11
HETATM   11  C12 UNL     1      14.616  33.945  20.974  1.00  0.00     0.143 C 
BRANCH  11  12
HETATM   12  N2  UNL     1      15.279  34.700  19.901  1.00  0.00    -0.411 N 
BRANCH  12  13
HETATM   13  C13 UNL     1      16.487  35.416  20.323  1.00  0.00     0.112 C 
HETATM   14  C14 UNL     1      16.566  35.859  21.782  1.00  0.00     0.026 C 
ENDBRANCH  12  13
BRANCH  12  15
HETATM   15  C15 UNL     1      15.403  34.007  18.614  1.00  0.00     0.112 C 
HETATM   16  C16 UNL     1      15.357  34.872  17.362  1.00  0.00     0.026 C 
ENDBRANCH  12  15
ENDBRANCH  11  12
ENDBRANCH  10  11
ENDBRANCH   9  10
ENDBRANCH   7   9
ENDBRANCH   6   7
BRANCH   1  17
HETATM   17  O1  UNL     1       9.515  35.992  21.384  1.00  0.00    -0.350 OA
BRANCH  17  18
HETATM   18  C3  UNL     1       8.751  34.796  21.594  1.00  0.00     0.175 C 
BRANCH  18  19
HETATM   19  C2  UNL     1       9.258  34.134  22.869  1.00  0.00     0.022 C 
HETATM   20  C1  UNL     1       8.194  34.103  23.952  1.00  0.00     0.007 C 
ENDBRANCH  18  19
ENDBRANCH  17  18
ENDBRANCH   1  17
BRANCH   3  21
HETATM   21  N1  UNL     1       8.965  35.762  16.616  1.00  0.00    -0.303 NA
HETATM   22  H9  UNL     1       9.391  35.377  15.779  1.00  0.00     0.124 HD
HETATM   23  H10 UNL     1       8.042  35.378  16.788  1.00  0.00     0.124 HD
ENDBRANCH   3  21
TORSDOF 11
ENDMDL
MODEL 4
REMARK minimizedAffinity -5.13388491
REMARK  11 active torsions:
REMARK  status: ('A' for Active; 'I' for Inactive)
REMARK    1  A    between atoms: C2_2  and  C3_3 
REMARK    2  A    between atoms: C3_3  and  O1_4 
REMARK    3  A    between atoms: O1_4  and  C4_5 
REMARK    4  A    between atoms: C6_7  and  N1_8 
REMARK    5  A    between atoms: C9_11  and  C10_12 
REMARK    6  A    between atoms: C10_12  and  O3_14 
REMARK    7  A    between atoms: O3_14  and  C11_15 
REMARK    8  A    between atoms: C11_15  and  C12_16 
REMARK    9  A    between atoms: C12_16  and  N2_17 
REMARK   10  A    between atoms: N2_17  and  C13_18 
REMARK   11  A    between atoms: N2_17  and  C15_20 
ROOT
HETATM    1  C4  UNL     1       9.584  36.005  20.476  1.00  0.00     0.086 A 
HETATM    2  C5  UNL     1       8.903  36.062  21.698  1.00  0.00     0.061 A 
HETATM    3  C6  UNL     1       7.518  35.885  21.752  1.00  0.00     0.008 A 
HETATM    4  C7  UNL     1       6.813  35.734  20.556  1.00  0.00     0.024 A 
HETATM    5  C8  UNL     1       7.488  35.654  19.334  1.00  0.00     0.022 A 
HETATM    6  C9  UNL     1       8.882  35.773  19.290  1.00  0.00     0.072 A 
ENDROOT
BRANCH   6   7
HETATM    7  C10 UNL     1       9.586  35.719  17.988  1.00  0.00     0.296 C 
HETATM    8  O2  UNL     1       9.163  36.206  16.954  1.00  0.00    -0.259 OA
BRANCH   7   9
HETATM    9  O3  UNL     1      10.740  35.029  18.151  1.00  0.00    -0.316 OA
BRANCH   9  10
HETATM   10  C11 UNL     1      11.894  35.537  17.459  1.00  0.00     0.198 C 
BRANCH  10  11
HETATM   11  C12 UNL     1      13.022  34.491  17.490  1.00  0.00     0.143 C 
BRANCH  11  12
HETATM   12  N2  UNL     1      14.295  34.951  18.066  1.00  0.00    -0.411 N 
BRANCH  12  13
HETATM   13  C13 UNL     1      14.777  34.141  19.189  1.00  0.00     0.112 C 
HETATM   14  C14 UNL     1      16.076  34.578  19.862  1.00  0.00     0.026 C 
ENDBRANCH  12  13
BRANCH  12  15
HETATM   15  C15 UNL     1      15.332  35.330  17.102  1.00  0.00     0.112 C 
HETATM   16  C16 UNL     1      14.870  35.657  15.688  1.00  0.00     0.026 C 
ENDBRANCH  12  15
ENDBRANCH  11  12
ENDBRANCH  10  11
ENDBRANCH   9  10
ENDBRANCH   7   9
ENDBRANCH   6   7
BRANCH   1  17
HETATM   17  O1  UNL     1      10.952  36.090  20.487  1.00  0.00    -0.350 OA
BRANCH  17  18
HETATM   18  C3  UNL     1      11.497  35.346  21.585  1.00  0.00     0.175 C 
BRANCH  18  19
HETATM   19  C2  UNL     1      10.888  33.949  21.554  1.00  0.00     0.022 C 
HETATM   20  C1  UNL     1      11.697  32.999  20.688  1.00  0.00     0.007 C 
ENDBRANCH  18  19
ENDBRANCH  17  18
ENDBRANCH   1  17
BRANCH   3  21
HETATM   21  N1  UNL     1       6.830  36.077  22.956  1.00  0.00    -0.303 NA
HETATM   22  H9  UNL     1       5.915  35.638  22.984  1.00  0.00     0.124 HD
HETATM   23  H10 UNL     1       7.380  35.870  23.783  1.00  0.00     0.124 HD
ENDBRANCH   3  21
TORSDOF 11
ENDMDL
MODEL 5
REMARK minimizedAffinity -4.98395205
REMARK  11 active torsions:
REMARK  status: ('A' for Active; 'I' for Inactive)
REMARK    1  A    between atoms: C2_2  and  C3_3 
REMARK    2  A    between atoms: C3_3  and  O1_4 
REMARK    3  A    between atoms: O1_4  and  C4_5 
REMARK    4  A    between atoms: C6_7  and  N1_8 
REMARK    5  A    between atoms: C9_11  and  C10_12 
REMARK    6  A    between atoms: C10_12  and  O3_14 
REMARK    7  A    between atoms: O3_14  and  C11_15 
REMARK    8  A    between atoms: C11_15  and  C12_16 
REMARK    9  A    between atoms: C12_16  and  N2_17 
REMARK   10  A    between atoms: N2_17  and  C13_18 
REMARK   11  A    between atoms: N2_17  and  C15_20 
ROOT
HETATM    1  C4  UNL     1      12.712  58.929   8.891  1.00  0.00     0.086 A 
HETATM    2  C5  UNL     1      11.623  59.256   9.707  1.00  0.00     0.061 A 
HETATM    3  C6  UNL     1      10.563  60.021   9.210  1.00  0.00     0.008 A 
HETATM    4  C7  UNL     1      10.650  60.524   7.910  1.00  0.00     0.024 A 
HETATM    5  C8  UNL     1      11.723  60.183   7.082  1.00  0.00     0.022 A 
HETATM    6  C9  UNL     1      12.755  59.369   7.565  1.00  0.00     0.072 A 
ENDROOT
BRANCH   6   7
HETATM    7  C10 UNL     1      13.905  59.039   6.691  1.00  0.00     0.296 C 
HETATM    8  O2  UNL     1      14.935  59.690   6.630  1.00  0.00    -0.259 OA
BRANCH   7   9
HETATM    9  O3  UNL     1      13.599  57.929   5.977  1.00  0.00    -0.316 OA
BRANCH   9  10
HETATM   10  C11 UNL     1      14.011  57.921   4.600  1.00  0.00     0.198 C 
BRANCH  10  11
HETATM   11  C12 UNL     1      13.578  56.601   3.935  1.00  0.00     0.143 C 
BRANCH  11  12
HETATM   12  N2  UNL     1      14.662  55.814   3.329  1.00  0.00    -0.411 N 
BRANCH  12  13
HETATM   13  C13 UNL     1      15.495  56.562   2.382  1.00  0.00     0.112 C 
HETATM   14  C14 UNL     1      14.989  56.681   0.946  1.00  0.00     0.026 C 
ENDBRANCH  12  13
BRANCH  12  15
HETATM   15  C15 UNL     1      15.412  54.948   4.244  1.00  0.00     0.112 C 
HETATM   16  C16 UNL     1      14.596  54.072   5.185  1.00  0.00     0.026 C 
ENDBRANCH  12  15
ENDBRANCH  11  12
ENDBRANCH  10  11
ENDBRANCH   9  10
ENDBRANCH   7   9
ENDBRANCH   6   7
BRANCH   1  17
HETATM   17  O1  UNL     1      13.680  58.100   9.395  1.00  0.00    -0.350 OA
BRANCH  17  18
HETATM   18  C3  UNL     1      13.547  57.973  10.818  1.00  0.00     0.175 C 
BRANCH  18  19
HETATM   19  C2  UNL     1      13.737  56.505  11.178  1.00  0.00     0.022 C 
HETATM   20  C1  UNL     1      14.827  56.313  12.218  1.00  0.00     0.007 C 
ENDBRANCH  18  19
ENDBRANCH  17  18
ENDBRANCH   1  17
BRANCH   3  21
HETATM   21  N1  UNL     1       9.546  60.455  10.068  1.00  0.00    -0.303 NA
HETATM   22  H9  UNL     1       8.690  60.720   9.592  1.00  0.00     0.124 HD
HETATM   23  H10 UNL     1       9.373  59.835  10.851  1.00  0.00     0.124 HD
ENDBRANCH   3  21
TORSDOF 11
ENDMDL
MODEL 6
REMARK minimizedAffinity -4.96907711
REMARK  11 active torsions:
REMARK  status: ('A' for Active; 'I' for Inactive)
REMARK    1  A    between atoms: C2_2  and  C3_3 
REMARK    2  A    between atoms: C3_3  and  O1_4 
REMARK    3  A    between atoms: O1_4  and  C4_5 
REMARK    4  A    between atoms: C6_7  and  N1_8 
REMARK    5  A    between atoms: C9_11  and  C10_12 
REMARK    6  A    between atoms: C10_12  and  O3_14 
REMARK    7  A    between atoms: O3_14  and  C11_15 
REMARK    8  A    between atoms: C11_15  and  C12_16 
REMARK    9  A    between atoms: C12_16  and  N2_17 
REMARK   10  A    between atoms: N2_17  and  C13_18 
REMARK   11  A    between atoms: N2_17  and  C15_20 
ROOT
HETATM    1  C4  UNL     1      10.387  34.777  19.682  1.00  0.00     0.086 A 
HETATM    2  C5  UNL     1       9.126  34.992  20.251  1.00  0.00     0.061 A 
HETATM    3  C6  UNL     1       8.118  35.636  19.528  1.00  0.00     0.008 A 
HETATM    4  C7  UNL     1       8.416  36.136  18.258  1.00  0.00     0.024 A 
HETATM    5  C8  UNL     1       9.666  35.905  17.675  1.00  0.00     0.022 A 
HETATM    6  C9  UNL     1      10.655  35.209  18.380  1.00  0.00     0.072 A 
ENDROOT
BRANCH   6   7
HETATM    7  C10 UNL     1      11.987  34.997  17.767  1.00  0.00     0.296 C 
HETATM    8  O2  UNL     1      12.479  33.904  17.545  1.00  0.00    -0.259 OA
BRANCH   7   9
HETATM    9  O3  UNL     1      12.549  36.207  17.531  1.00  0.00    -0.316 OA
BRANCH   9  10
HETATM   10  C11 UNL     1      13.970  36.221  17.312  1.00  0.00     0.198 C 
BRANCH  10  11
HETATM   11  C12 UNL     1      14.349  37.423  16.429  1.00  0.00     0.143 C 
BRANCH  11  12
HETATM   12  N2  UNL     1      15.472  37.201  15.506  1.00  0.00    -0.411 N 
BRANCH  12  13
HETATM   13  C13 UNL     1      16.442  38.299  15.459  1.00  0.00     0.112 C 
HETATM   14  C14 UNL     1      16.453  39.172  14.207  1.00  0.00     0.026 C 
ENDBRANCH  12  13
BRANCH  12  15
HETATM   15  C15 UNL     1      16.070  35.862  15.540  1.00  0.00     0.112 C 
HETATM   16  C16 UNL     1      16.611  35.319  14.224  1.00  0.00     0.026 C 
ENDBRANCH  12  15
ENDBRANCH  11  12
ENDBRANCH  10  11
ENDBRANCH   9  10
ENDBRANCH   7   9
ENDBRANCH   6   7
BRANCH   1  17
HETATM   17  O1  UNL     1      11.311  34.058  20.395  1.00  0.00    -0.350 OA
BRANCH  17  18
HETATM   18  C3  UNL     1      11.741  34.792  21.550  1.00  0.00     0.175 C 
BRANCH  18  19
HETATM   19  C2  UNL     1      13.167  35.268  21.299  1.00  0.00     0.022 C 
HETATM   20  C1  UNL     1      14.062  34.141  20.815  1.00  0.00     0.007 C 
ENDBRANCH  18  19
ENDBRANCH  17  18
ENDBRANCH   1  17
BRANCH   3  21
HETATM   21  N1  UNL     1       6.908  35.966  20.149  1.00  0.00    -0.303 NA
HETATM   22  H9  UNL     1       6.144  36.136  19.502  1.00  0.00     0.124 HD
HETATM   23  H10 UNL     1       6.643  35.336  20.899  1.00  0.00     0.124 HD
ENDBRANCH   3  21
TORSDOF 11
ENDMDL
MODEL 7
REMARK minimizedAffinity -4.90094805
REMARK  11 active torsions:
REMARK  status: ('A' for Active; 'I' for Inactive)
REMARK    1  A    between atoms: C2_2  and  C3_3 
REMARK    2  A    between atoms: C3_3  and  O1_4 
REMARK    3  A    between atoms: O1_4  and  C4_5 
REMARK    4  A    between atoms: C6_7  and  N1_8 
REMARK    5  A    between atoms: C9_11  and  C10_12 
REMARK    6  A    between atoms: C10_12  and  O3_14 
REMARK    7  A    between atoms: O3_14  and  C11_15 
REMARK    8  A    between atoms: C11_15  and  C12_16 
REMARK    9  A    between atoms: C12_16  and  N2_17 
REMARK   10  A    between atoms: N2_17  and  C13_18 
REMARK   11  A    between atoms: N2_17  and  C15_20 
ROOT
HETATM    1  C4  UNL     1      10.481  36.138  19.954  1.00  0.00     0.086 A 
HETATM    2  C5  UNL     1       9.504  36.074  18.954  1.00  0.00     0.061 A 
HETATM    3  C6  UNL     1       9.852  35.776  17.634  1.00  0.00     0.008 A 
HETATM    4  C7  UNL     1      11.204  35.625  17.314  1.00  0.00     0.024 A 
HETATM    5  C8  UNL     1      12.183  35.664  18.311  1.00  0.00     0.022 A 
HETATM    6  C9  UNL     1      11.824  35.907  19.642  1.00  0.00     0.072 A 
ENDROOT
BRANCH   6   7
HETATM    7  C10 UNL     1      12.871  35.980  20.687  1.00  0.00     0.296 C 
HETATM    8  O2  UNL     1      13.073  35.116  21.524  1.00  0.00    -0.259 OA
BRANCH   7   9
HETATM    9  O3  UNL     1      13.525  37.160  20.559  1.00  0.00    -0.316 OA
BRANCH   9  10
HETATM   10  C11 UNL     1      14.915  37.084  20.202  1.00  0.00     0.198 C 
BRANCH  10  11
HETATM   11  C12 UNL     1      15.131  37.709  18.812  1.00  0.00     0.143 C 
BRANCH  11  12
HETATM   12  N2  UNL     1      15.884  36.882  17.858  1.00  0.00    -0.411 N 
BRANCH  12  13
HETATM   13  C13 UNL     1      15.846  35.444  18.142  1.00  0.00     0.112 C 
HETATM   14  C14 UNL     1      17.039  34.607  17.687  1.00  0.00     0.026 C 
ENDBRANCH  12  13
BRANCH  12  15
HETATM   15  C15 UNL     1      15.715  37.225  16.442  1.00  0.00     0.112 C 
HETATM   16  C16 UNL     1      14.306  37.575  15.984  1.00  0.00     0.026 C 
ENDBRANCH  12  15
ENDBRANCH  11  12
ENDBRANCH  10  11
ENDBRANCH   9  10
ENDBRANCH   7   9
ENDBRANCH   6   7
BRANCH   1  17
HETATM   17  O1  UNL     1      10.078  36.341  21.248  1.00  0.00    -0.350 OA
BRANCH  17  18
HETATM   18  C3  UNL     1       9.345  35.208  21.734  1.00  0.00     0.175 C 
BRANCH  18  19
HETATM   19  C2  UNL     1       8.138  35.726  22.507  1.00  0.00     0.022 C 
HETATM   20  C1  UNL     1       6.950  35.981  21.595  1.00  0.00     0.007 C 
ENDBRANCH  18  19
ENDBRANCH  17  18
ENDBRANCH   1  17
BRANCH   3  21
HETATM   21  N1  UNL     1       8.891  35.846  16.619  1.00  0.00    -0.303 NA
HETATM   22  H9  UNL     1       9.137  35.329  15.781  1.00  0.00     0.124 HD
HETATM   23  H10 UNL     1       7.947  35.646  16.930  1.00  0.00     0.124 HD
ENDBRANCH   3  21
TORSDOF 11
ENDMDL
MODEL 8
REMARK minimizedAffinity -4.82632923
REMARK  11 active torsions:
REMARK  status: ('A' for Active; 'I' for Inactive)
REMARK    1  A    between atoms: C2_2  and  C3_3 
REMARK    2  A    between atoms: C3_3  and  O1_4 
REMARK    3  A    between atoms: O1_4  and  C4_5 
REMARK    4  A    between atoms: C6_7  and  N1_8 
REMARK    5  A    between atoms: C9_11  and  C10_12 
REMARK    6  A    between atoms: C10_12  and  O3_14 
REMARK    7  A    between atoms: O3_14  and  C11_15 
REMARK    8  A    between atoms: C11_15  and  C12_16 
REMARK    9  A    between atoms: C12_16  and  N2_17 
REMARK   10  A    between atoms: N2_17  and  C13_18 
REMARK   11  A    between atoms: N2_17  and  C15_20 
ROOT
HETATM    1  C4  UNL     1      10.240  34.870  19.979  1.00  0.00     0.086 A 
HETATM    2  C5  UNL     1       9.348  35.226  18.960  1.00  0.00     0.061 A 
HETATM    3  C6  UNL     1       9.817  35.583  17.693  1.00  0.00     0.008 A 
HETATM    4  C7  UNL     1      11.196  35.661  17.485  1.00  0.00     0.024 A 
HETATM    5  C8  UNL     1      12.093  35.286  18.489  1.00  0.00     0.022 A 
HETATM    6  C9  UNL     1      11.617  34.872  19.740  1.00  0.00     0.072 A 
ENDROOT
BRANCH   6   7
HETATM    7  C10 UNL     1      12.575  34.508  20.810  1.00  0.00     0.296 C 
HETATM    8  O2  UNL     1      12.719  33.381  21.253  1.00  0.00    -0.259 OA
BRANCH   7   9
HETATM    9  O3  UNL     1      13.223  35.630  21.207  1.00  0.00    -0.316 OA
BRANCH   9  10
HETATM   10  C11 UNL     1      14.650  35.528  21.348  1.00  0.00     0.198 C 
BRANCH  10  11
HETATM   11  C12 UNL     1      15.338  36.069  20.082  1.00  0.00     0.143 C 
BRANCH  11  12
HETATM   12  N2  UNL     1      16.391  35.211  19.519  1.00  0.00    -0.411 N 
BRANCH  12  13
HETATM   13  C13 UNL     1      15.945  34.349  18.421  1.00  0.00     0.112 C 
HETATM   14  C14 UNL     1      15.336  35.029  17.197  1.00  0.00     0.026 C 
ENDBRANCH  12  13
BRANCH  12  15
HETATM   15  C15 UNL     1      17.689  35.856  19.296  1.00  0.00     0.112 C 
HETATM   16  C16 UNL     1      18.700  35.090  18.453  1.00  0.00     0.026 C 
ENDBRANCH  12  15
ENDBRANCH  11  12
ENDBRANCH  10  11
ENDBRANCH   9  10
ENDBRANCH   7   9
ENDBRANCH   6   7
BRANCH   1  17
HETATM   17  O1  UNL     1       9.728  34.437  21.174  1.00  0.00    -0.350 OA
BRANCH  17  18
HETATM   18  C3  UNL     1       9.105  35.520  21.880  1.00  0.00     0.175 C 
BRANCH  18  19
HETATM   19  C2  UNL     1       7.858  34.977  22.566  1.00  0.00     0.022 C 
HETATM   20  C1  UNL     1       8.197  34.213  23.834  1.00  0.00     0.007 C 
ENDBRANCH  18  19
ENDBRANCH  17  18
ENDBRANCH   1  17
BRANCH   3  21
HETATM   21  N1  UNL     1       8.930  36.065  16.724  1.00  0.00    -0.303 NA
HETATM   22  H9  UNL     1       9.281  36.002  15.774  1.00  0.00     0.124 HD
HETATM   23  H10 UNL     1       7.987  35.700  16.809  1.00  0.00     0.124 HD
ENDBRANCH   3  21
TORSDOF 11
ENDMDL
MODEL 9
REMARK minimizedAffinity -4.81863356
REMARK  11 active torsions:
REMARK  status: ('A' for Active; 'I' for Inactive)
REMARK    1  A    between atoms: C2_2  and  C3_3 
REMARK    2  A    between atoms: C3_3  and  O1_4 
REMARK    3  A    between atoms: O1_4  and  C4_5 
REMARK    4  A    between atoms: C6_7  and  N1_8 
REMARK    5  A    between atoms: C9_11  and  C10_12 
REMARK    6  A    between atoms: C10_12  and  O3_14 
REMARK    7  A    between atoms: O3_14  and  C11_15 
REMARK    8  A    between atoms: C11_15  and  C12_16 
REMARK    9  A    between atoms: C12_16  and  N2_17 
REMARK   10  A    between atoms: N2_17  and  C13_18 
REMARK   11  A    between atoms: N2_17  and  C15_20 
ROOT
HETATM    1  C4  UNL     1      12.196  60.102   6.455  1.00  0.00     0.086 A 
HETATM    2  C5  UNL     1      11.607  61.329   6.786  1.00  0.00     0.061 A 
HETATM    3  C6  UNL     1      11.573  62.376   5.861  1.00  0.00     0.008 A 
HETATM    4  C7  UNL     1      12.212  62.206   4.630  1.00  0.00     0.024 A 
HETATM    5  C8  UNL     1      12.783  60.977   4.285  1.00  0.00     0.022 A 
HETATM    6  C9  UNL     1      12.764  59.911   5.193  1.00  0.00     0.072 A 
ENDROOT
BRANCH   6   7
HETATM    7  C10 UNL     1      13.400  58.623   4.832  1.00  0.00     0.296 C 
HETATM    8  O2  UNL     1      12.871  57.759   4.152  1.00  0.00    -0.259 OA
BRANCH   7   9
HETATM    9  O3  UNL     1      14.629  58.576   5.399  1.00  0.00    -0.316 OA
BRANCH   9  10
HETATM   10  C11 UNL     1      14.939  57.394   6.157  1.00  0.00     0.198 C 
BRANCH  10  11
HETATM   11  C12 UNL     1      16.325  56.863   5.749  1.00  0.00     0.143 C 
BRANCH  11  12
HETATM   12  N2  UNL     1      16.324  55.588   5.018  1.00  0.00    -0.411 N 
BRANCH  12  13
HETATM   13  C13 UNL     1      17.249  54.584   5.553  1.00  0.00     0.112 C 
HETATM   14  C14 UNL     1      18.157  53.866   4.558  1.00  0.00     0.026 C 
ENDBRANCH  12  13
BRANCH  12  15
HETATM   15  C15 UNL     1      15.005  55.063   4.651  1.00  0.00     0.112 C 
HETATM   16  C16 UNL     1      14.530  53.821   5.393  1.00  0.00     0.026 C 
ENDBRANCH  12  15
ENDBRANCH  11  12
ENDBRANCH  10  11
ENDBRANCH   9  10
ENDBRANCH   7   9
ENDBRANCH   6   7
BRANCH   1  17
HETATM   17  O1  UNL     1      12.121  59.077   7.362  1.00  0.00    -0.350 OA
BRANCH  17  18
HETATM   18  C3  UNL     1      12.821  59.415   8.568  1.00  0.00     0.175 C 
BRANCH  18  19
HETATM   19  C2  UNL     1      12.249  58.564   9.696  1.00  0.00     0.022 C 
HETATM   20  C1  UNL     1      13.288  57.623  10.277  1.00  0.00     0.007 C 
ENDBRANCH  18  19
ENDBRANCH  17  18
ENDBRANCH   1  17
BRANCH   3  21
HETATM   21  N1  UNL     1      11.104  63.638   6.243  1.00  0.00    -0.303 NA
HETATM   22  H9  UNL     1      10.825  64.228   5.465  1.00  0.00     0.124 HD
HETATM   23  H10 UNL     1      10.404  63.614   6.976  1.00  0.00     0.124 HD
ENDBRANCH   3  21
TORSDOF 11
ENDMDL
