MODEL 1
REMARK minimizedAffinity -9.41518593
REMARK CNNscore 0.790506244
REMARK CNNaffinity 5.67027426
REMARK  8 active torsions:
REMARK  status: ('A' for Active; 'I' for Inactive)
REMARK    1  A    between atoms: C3_3  and  C4_4 
REMARK    2  A    between atoms: C4_4  and  O1_5 
REMARK    3  A    between atoms: C6_9  and  C7_10 
REMARK    4  A    between atoms: C7_10  and  O4_12 
REMARK    5  A    between atoms: C7_10  and  C9_13 
REMARK    6  A    between atoms: C12_16  and  O5_17 
REMARK    7  A    between atoms: C15_20  and  O6_21 
REMARK    8  A    between atoms: C16_22  and  O7_23 
ROOT
HETATM    1  C9  UNL     1       6.551  67.092 -36.794  1.00  0.00     0.033 C 
HETATM    2  C10 UNL     1       7.253  67.028 -38.190  1.00  0.00     0.011 C 
HETATM    3  C11 UNL     1       6.180  67.261 -39.269  1.00  0.00     0.039 C 
HETATM    4  C12 UNL     1       4.973  67.750 -38.480  1.00  0.00     0.070 C 
HETATM    5  C13 UNL     1       3.595  67.678 -39.171  1.00  0.00     0.028 C 
HETATM    6  C14 UNL     1       3.583  68.459 -40.496  1.00  0.00     0.043 C 
HETATM    7  C15 UNL     1       2.224  68.403 -41.191  1.00  0.00     0.154 C 
HETATM    8  C16 UNL     1       1.092  68.893 -40.249  1.00  0.00     0.098 C 
HETATM    9  C17 UNL     1      -0.264  68.905 -40.989  1.00  0.00     0.042 C 
HETATM   10  C18 UNL     1      -1.468  69.108 -40.066  1.00  0.00     0.010 C 
HETATM   11  C19 UNL     1      -1.100  69.644 -38.696  1.00  0.00     0.079 C 
HETATM   12  C20 UNL     1      -0.057  68.771 -38.020  1.00  0.00     0.138 C 
HETATM   13  O8  UNL     1      -0.136  68.596 -36.802  1.00  0.00    -0.297 OA
HETATM   14  C21 UNL     1       1.036  68.098 -38.893  1.00  0.00     0.054 C 
HETATM   15  C22 UNL     1       0.578  66.631 -39.059  1.00  0.00     0.027 C 
HETATM   16  C23 UNL     1       2.461  68.174 -38.203  1.00  0.00     0.011 C 
HETATM   17  C24 UNL     1       2.575  67.459 -36.826  1.00  0.00     0.007 C 
HETATM   18  C25 UNL     1       3.990  67.439 -36.209  1.00  0.00     0.013 C 
HETATM   19  C26 UNL     1       5.043  66.880 -37.183  1.00  0.00    -0.006 C 
HETATM   20  C27 UNL     1       4.746  65.377 -37.434  1.00  0.00     0.019 C 
ENDROOT
BRANCH   1  21
HETATM   21  C7  UNL     1       7.258  66.213 -35.695  1.00  0.00     0.085 C 
HETATM   22  C8  UNL     1       8.331  65.307 -36.317  1.00  0.00     0.049 C 
BRANCH  21  23
HETATM   23  C6  UNL     1       6.189  65.333 -34.929  1.00  0.00     0.170 C 
HETATM   24  O3  UNL     1       6.136  65.735 -33.544  1.00  0.00    -0.309 OA
HETATM   25  C5  UNL     1       5.324  65.092 -32.671  1.00  0.00     0.292 C 
HETATM   26  C3  UNL     1       4.834  63.744 -33.077  1.00  0.00     0.042 C 
HETATM   27  O2  UNL     1       5.060  65.578 -31.579  1.00  0.00    -0.260 OA
HETATM   28  C2  UNL     1       5.414  63.109 -34.120  1.00  0.00    -0.067 C 
HETATM   29  C1  UNL     1       5.119  61.697 -34.546  1.00  0.00     0.044 C 
HETATM   30  C28 UNL     1       6.439  63.823 -34.966  1.00  0.00     0.070 C 
BRANCH  26  31
HETATM   31  C4  UNL     1       3.788  63.152 -32.174  1.00  0.00     0.209 C 
BRANCH  31  32
HETATM   32  O1  UNL     1       3.557  61.789 -32.525  1.00  0.00    -0.396 OA
HETATM   33  H6  UNL     1       4.417  61.340 -32.558  1.00  0.00     0.209 HD
ENDBRANCH  31  32
ENDBRANCH  26  31
ENDBRANCH  21  23
BRANCH  21  34
HETATM   34  O4  UNL     1       7.933  67.080 -34.775  1.00  0.00    -0.387 OA
HETATM   35  H11 UNL     1       8.318  66.555 -34.054  1.00  0.00     0.210 HD
ENDBRANCH  21  34
ENDBRANCH   1  21
BRANCH   4  36
HETATM   36  O5  UNL     1       5.272  69.135 -38.200  1.00  0.00    -0.389 OA
HETATM   37  H17 UNL     1       4.578  69.513 -37.639  1.00  0.00     0.210 HD
ENDBRANCH   4  36
BRANCH   7  38
HETATM   38  O6  UNL     1       2.002  67.080 -41.668  1.00  0.00    -0.392 OA
HETATM   39  H22 UNL     1       1.512  67.138 -42.506  1.00  0.00     0.210 HD
ENDBRANCH   7  38
BRANCH   8  40
HETATM   40  O7  UNL     1       1.397  70.273 -39.933  1.00  0.00    -0.386 OA
HETATM   41  H23 UNL     1       1.518  70.769 -40.763  1.00  0.00     0.210 HD
ENDBRANCH   8  40
TORSDOF 8
ENDMDL
MODEL 2
REMARK minimizedAffinity -8.31203461
REMARK CNNscore 0.785658956
REMARK CNNaffinity 6.11013937
REMARK  8 active torsions:
REMARK  status: ('A' for Active; 'I' for Inactive)
REMARK    1  A    between atoms: C3_3  and  C4_4 
REMARK    2  A    between atoms: C4_4  and  O1_5 
REMARK    3  A    between atoms: C6_9  and  C7_10 
REMARK    4  A    between atoms: C7_10  and  O4_12 
REMARK    5  A    between atoms: C7_10  and  C9_13 
REMARK    6  A    between atoms: C12_16  and  O5_17 
REMARK    7  A    between atoms: C15_20  and  O6_21 
REMARK    8  A    between atoms: C16_22  and  O7_23 
ROOT
HETATM    1  C9  UNL     1     -13.421  44.704 -28.552  1.00  0.00     0.033 C 
HETATM    2  C10 UNL     1     -14.027  46.144 -28.627  1.00  0.00     0.011 C 
HETATM    3  C11 UNL     1     -12.884  47.121 -28.958  1.00  0.00     0.039 C 
HETATM    4  C12 UNL     1     -11.734  46.207 -29.363  1.00  0.00     0.070 C 
HETATM    5  C13 UNL     1     -10.312  46.808 -29.353  1.00  0.00     0.028 C 
HETATM    6  C14 UNL     1     -10.212  48.046 -30.259  1.00  0.00     0.043 C 
HETATM    7  C15 UNL     1      -8.809  48.650 -30.265  1.00  0.00     0.154 C 
HETATM    8  C16 UNL     1      -7.745  47.591 -30.656  1.00  0.00     0.098 C 
HETATM    9  C17 UNL     1      -6.342  48.232 -30.733  1.00  0.00     0.042 C 
HETATM   10  C18 UNL     1      -5.203  47.215 -30.841  1.00  0.00     0.010 C 
HETATM   11  C19 UNL     1      -5.665  45.827 -31.243  1.00  0.00     0.079 C 
HETATM   12  C20 UNL     1      -6.749  45.311 -30.313  1.00  0.00     0.138 C 
HETATM   13  O8  UNL     1      -6.752  44.113 -30.020  1.00  0.00    -0.297 OA
HETATM   14  C21 UNL     1      -7.778  46.317 -29.733  1.00  0.00     0.054 C 
HETATM   15  C22 UNL     1      -7.307  46.594 -28.287  1.00  0.00     0.027 C 
HETATM   16  C23 UNL     1      -9.248  45.722 -29.747  1.00  0.00     0.011 C 
HETATM   17  C24 UNL     1      -9.452  44.431 -28.903  1.00  0.00     0.007 C 
HETATM   18  C25 UNL     1     -10.907  43.916 -28.829  1.00  0.00     0.013 C 
HETATM   19  C26 UNL     1     -11.890  45.009 -28.372  1.00  0.00    -0.006 C 
HETATM   20  C27 UNL     1     -11.573  45.385 -26.899  1.00  0.00     0.019 C 
ENDROOT
BRANCH   1  21
HETATM   21  C7  UNL     1     -14.199  43.747 -27.573  1.00  0.00     0.085 C 
HETATM   22  C8  UNL     1     -13.484  42.394 -27.437  1.00  0.00     0.049 C 
BRANCH  21  23
HETATM   23  C6  UNL     1     -15.678  43.524 -28.089  1.00  0.00     0.170 C 
HETATM   24  O3  UNL     1     -16.583  44.360 -27.336  1.00  0.00    -0.309 OA
HETATM   25  C5  UNL     1     -17.917  44.310 -27.564  1.00  0.00     0.292 C 
HETATM   26  C3  UNL     1     -18.433  43.109 -28.282  1.00  0.00     0.042 C 
HETATM   27  O2  UNL     1     -18.663  45.185 -27.144  1.00  0.00    -0.260 OA
HETATM   28  C2  UNL     1     -17.638  42.024 -28.423  1.00  0.00    -0.067 C 
HETATM   29  C1  UNL     1     -18.072  40.702 -28.995  1.00  0.00     0.044 C 
HETATM   30  C28 UNL     1     -16.192  42.084 -27.998  1.00  0.00     0.070 C 
BRANCH  26  31
HETATM   31  C4  UNL     1     -19.879  43.183 -28.683  1.00  0.00     0.209 C 
BRANCH  31  32
HETATM   32  O1  UNL     1     -19.984  43.463 -30.078  1.00  0.00    -0.396 OA
HETATM   33  H6  UNL     1     -19.427  42.825 -30.553  1.00  0.00     0.209 HD
ENDBRANCH  31  32
ENDBRANCH  26  31
ENDBRANCH  21  23
BRANCH  21  34
HETATM   34  O4  UNL     1     -14.216  44.338 -26.267  1.00  0.00    -0.387 OA
HETATM   35  H11 UNL     1     -14.750  43.790 -25.668  1.00  0.00     0.210 HD
ENDBRANCH  21  34
ENDBRANCH   1  21
BRANCH   4  36
HETATM   36  O5  UNL     1     -12.055  45.815 -30.716  1.00  0.00    -0.389 OA
HETATM   37  H17 UNL     1     -11.401  45.174 -31.035  1.00  0.00     0.210 HD
ENDBRANCH   4  36
BRANCH   7  38
HETATM   38  O6  UNL     1      -8.552  49.237 -28.994  1.00  0.00    -0.392 OA
HETATM   39  H22 UNL     1      -8.006  50.031 -29.130  1.00  0.00     0.210 HD
ENDBRANCH   7  38
BRANCH   8  40
HETATM   40  O7  UNL     1      -8.074  47.163 -32.000  1.00  0.00    -0.386 OA
HETATM   41  H23 UNL     1      -8.139  47.947 -32.575  1.00  0.00     0.210 HD
ENDBRANCH   8  40
TORSDOF 8
ENDMDL
MODEL 3
REMARK minimizedAffinity -9.2875042
REMARK CNNscore 0.739800096
REMARK CNNaffinity 6.0926919
REMARK  8 active torsions:
REMARK  status: ('A' for Active; 'I' for Inactive)
REMARK    1  A    between atoms: C3_3  and  C4_4 
REMARK    2  A    between atoms: C4_4  and  O1_5 
REMARK    3  A    between atoms: C6_9  and  C7_10 
REMARK    4  A    between atoms: C7_10  and  O4_12 
REMARK    5  A    between atoms: C7_10  and  C9_13 
REMARK    6  A    between atoms: C12_16  and  O5_17 
REMARK    7  A    between atoms: C15_20  and  O6_21 
REMARK    8  A    between atoms: C16_22  and  O7_23 
ROOT
HETATM    1  C9  UNL     1      -2.733  50.196 -20.114  1.00  0.00     0.033 C 
HETATM    2  C10 UNL     1      -4.084  49.660 -19.538  1.00  0.00     0.011 C 
HETATM    3  C11 UNL     1      -3.911  49.478 -18.018  1.00  0.00     0.039 C 
HETATM    4  C12 UNL     1      -2.598  50.189 -17.716  1.00  0.00     0.070 C 
HETATM    5  C13 UNL     1      -1.899  49.852 -16.383  1.00  0.00     0.028 C 
HETATM    6  C14 UNL     1      -2.815  50.117 -15.177  1.00  0.00     0.043 C 
HETATM    7  C15 UNL     1      -2.135  49.794 -13.848  1.00  0.00     0.154 C 
HETATM    8  C16 UNL     1      -0.793  50.560 -13.703  1.00  0.00     0.098 C 
HETATM    9  C17 UNL     1      -0.155  50.285 -12.324  1.00  0.00     0.042 C 
HETATM   10  C18 UNL     1       1.290  50.775 -12.203  1.00  0.00     0.010 C 
HETATM   11  C19 UNL     1       1.687  51.764 -13.282  1.00  0.00     0.079 C 
HETATM   12  C20 UNL     1       1.433  51.205 -14.671  1.00  0.00     0.138 C 
HETATM   13  O8  UNL     1       2.237  51.467 -15.568  1.00  0.00    -0.297 OA
HETATM   14  C21 UNL     1       0.198  50.291 -14.894  1.00  0.00     0.054 C 
HETATM   15  C22 UNL     1       0.758  48.850 -14.914  1.00  0.00     0.027 C 
HETATM   16  C23 UNL     1      -0.541  50.632 -16.255  1.00  0.00     0.011 C 
HETATM   17  C24 UNL     1       0.313  50.449 -17.542  1.00  0.00     0.007 C 
HETATM   18  C25 UNL     1      -0.442  50.674 -18.871  1.00  0.00     0.013 C 
HETATM   19  C26 UNL     1      -1.726  49.831 -18.962  1.00  0.00    -0.006 C 
HETATM   20  C27 UNL     1      -1.336  48.329 -19.029  1.00  0.00     0.019 C 
ENDROOT
BRANCH   1  21
HETATM   21  C7  UNL     1      -2.476  49.772 -21.608  1.00  0.00     0.085 C 
HETATM   22  C8  UNL     1      -1.632  48.492 -21.684  1.00  0.00     0.049 C 
BRANCH  21  23
HETATM   23  C6  UNL     1      -1.752  50.942 -22.390  1.00  0.00     0.170 C 
HETATM   24  O3  UNL     1      -1.463  50.515 -23.739  1.00  0.00    -0.309 OA
HETATM   25  C5  UNL     1      -0.800  51.331 -24.592  1.00  0.00     0.292 C 
HETATM   26  C3  UNL     1      -0.038  52.461 -23.987  1.00  0.00     0.042 C 
HETATM   27  O2  UNL     1      -0.785  51.108 -25.796  1.00  0.00    -0.260 OA
HETATM   28  C2  UNL     1       0.196  52.470 -22.655  1.00  0.00    -0.067 C 
HETATM   29  C1  UNL     1       1.066  53.465 -21.936  1.00  0.00     0.044 C 
HETATM   30  C28 UNL     1      -0.442  51.431 -21.767  1.00  0.00     0.070 C 
BRANCH  26  31
HETATM   31  C4  UNL     1       0.520  53.449 -24.972  1.00  0.00     0.209 C 
BRANCH  31  32
HETATM   32  O1  UNL     1      -0.536  54.017 -25.743  1.00  0.00    -0.396 OA
HETATM   33  H6  UNL     1      -1.213  54.343 -25.127  1.00  0.00     0.209 HD
ENDBRANCH  31  32
ENDBRANCH  26  31
ENDBRANCH  21  23
BRANCH  21  34
HETATM   34  O4  UNL     1      -3.735  49.473 -22.224  1.00  0.00    -0.387 OA
HETATM   35  H11 UNL     1      -3.599  49.275 -23.165  1.00  0.00     0.210 HD
ENDBRANCH  21  34
ENDBRANCH   1  21
BRANCH   4  36
HETATM   36  O5  UNL     1      -2.950  51.589 -17.706  1.00  0.00    -0.389 OA
HETATM   37  H17 UNL     1      -2.152  52.126 -17.583  1.00  0.00     0.210 HD
ENDBRANCH   4  36
BRANCH   7  38
HETATM   38  O6  UNL     1      -1.971  48.384 -13.743  1.00  0.00    -0.392 OA
HETATM   39  H22 UNL     1      -2.083  48.134 -12.809  1.00  0.00     0.210 HD
ENDBRANCH   7  38
BRANCH   8  40
HETATM   40  O7  UNL     1      -1.128  51.970 -13.725  1.00  0.00    -0.386 OA
HETATM   41  H23 UNL     1      -1.804  52.145 -13.047  1.00  0.00     0.210 HD
ENDBRANCH   8  40
TORSDOF 8
ENDMDL
MODEL 4
REMARK minimizedAffinity -7.63527393
REMARK CNNscore 0.734939754
REMARK CNNaffinity 6.17667055
REMARK  8 active torsions:
REMARK  status: ('A' for Active; 'I' for Inactive)
REMARK    1  A    between atoms: C3_3  and  C4_4 
REMARK    2  A    between atoms: C4_4  and  O1_5 
REMARK    3  A    between atoms: C6_9  and  C7_10 
REMARK    4  A    between atoms: C7_10  and  O4_12 
REMARK    5  A    between atoms: C7_10  and  C9_13 
REMARK    6  A    between atoms: C12_16  and  O5_17 
REMARK    7  A    between atoms: C15_20  and  O6_21 
REMARK    8  A    between atoms: C16_22  and  O7_23 
ROOT
HETATM    1  C9  UNL     1       3.071  56.064  -8.483  1.00  0.00     0.033 C 
HETATM    2  C10 UNL     1       4.301  55.316  -9.094  1.00  0.00     0.011 C 
HETATM    3  C11 UNL     1       3.769  54.141  -9.935  1.00  0.00     0.039 C 
HETATM    4  C12 UNL     1       2.275  54.418 -10.040  1.00  0.00     0.070 C 
HETATM    5  C13 UNL     1       1.361  53.244 -10.445  1.00  0.00     0.028 C 
HETATM    6  C14 UNL     1       1.779  52.639 -11.796  1.00  0.00     0.043 C 
HETATM    7  C15 UNL     1       0.879  51.477 -12.215  1.00  0.00     0.154 C 
HETATM    8  C16 UNL     1      -0.613  51.902 -12.237  1.00  0.00     0.098 C 
HETATM    9  C17 UNL     1      -1.502  50.742 -12.736  1.00  0.00     0.042 C 
HETATM   10  C18 UNL     1      -3.000  50.979 -12.529  1.00  0.00     0.010 C 
HETATM   11  C19 UNL     1      -3.352  52.427 -12.249  1.00  0.00     0.079 C 
HETATM   12  C20 UNL     1      -2.563  52.974 -11.072  1.00  0.00     0.138 C 
HETATM   13  O8  UNL     1      -3.122  53.756 -10.300  1.00  0.00    -0.297 OA
HETATM   14  C21 UNL     1      -1.102  52.492 -10.863  1.00  0.00     0.054 C 
HETATM   15  C22 UNL     1      -1.179  51.438  -9.734  1.00  0.00     0.027 C 
HETATM   16  C23 UNL     1      -0.145  53.690 -10.458  1.00  0.00     0.011 C 
HETATM   17  C24 UNL     1      -0.507  54.412  -9.128  1.00  0.00     0.007 C 
HETATM   18  C25 UNL     1       0.489  55.504  -8.679  1.00  0.00     0.013 C 
HETATM   19  C26 UNL     1       1.937  54.985  -8.623  1.00  0.00    -0.006 C 
HETATM   20  C27 UNL     1       2.046  53.924  -7.494  1.00  0.00     0.019 C 
ENDROOT
BRANCH   1  21
HETATM   21  C7  UNL     1       3.384  56.768  -7.110  1.00  0.00     0.085 C 
HETATM   22  C8  UNL     1       2.859  58.211  -7.095  1.00  0.00     0.049 C 
BRANCH  21  23
HETATM   23  C6  UNL     1       4.942  56.760  -6.834  1.00  0.00     0.170 C 
HETATM   24  O3  UNL     1       5.344  55.453  -6.370  1.00  0.00    -0.309 OA
HETATM   25  C5  UNL     1       6.630  55.211  -6.022  1.00  0.00     0.292 C 
HETATM   26  C3  UNL     1       7.485  56.400  -5.739  1.00  0.00     0.042 C 
HETATM   27  O2  UNL     1       7.045  54.067  -5.892  1.00  0.00    -0.260 OA
HETATM   28  C2  UNL     1       6.908  57.610  -5.563  1.00  0.00    -0.067 C 
HETATM   29  C1  UNL     1       7.629  58.858  -5.134  1.00  0.00     0.044 C 
HETATM   30  C28 UNL     1       5.430  57.787  -5.809  1.00  0.00     0.070 C 
BRANCH  26  31
HETATM   31  C4  UNL     1       8.945  56.099  -5.547  1.00  0.00     0.209 C 
BRANCH  31  32
HETATM   32  O1  UNL     1       9.139  55.391  -4.324  1.00  0.00    -0.396 OA
HETATM   33  H6  UNL     1       8.528  54.636  -4.316  1.00  0.00     0.209 HD
ENDBRANCH  31  32
ENDBRANCH  26  31
ENDBRANCH  21  23
BRANCH  21  34
HETATM   34  O4  UNL     1       2.695  56.068  -6.065  1.00  0.00    -0.387 OA
HETATM   35  H11 UNL     1       2.932  56.451  -5.205  1.00  0.00     0.210 HD
ENDBRANCH  21  34
ENDBRANCH   1  21
BRANCH   4  36
HETATM   36  O5  UNL     1       2.177  55.444 -11.052  1.00  0.00    -0.389 OA
HETATM   37  H17 UNL     1       1.255  55.731 -11.140  1.00  0.00     0.210 HD
ENDBRANCH   4  36
BRANCH   7  38
HETATM   38  O6  UNL     1       1.119  50.371 -11.352  1.00  0.00    -0.392 OA
HETATM   39  H22 UNL     1       1.032  49.554 -11.873  1.00  0.00     0.210 HD
ENDBRANCH   7  38
BRANCH   8  40
HETATM   40  O7  UNL     1      -0.720  52.955 -13.226  1.00  0.00    -0.386 OA
HETATM   41  H23 UNL     1      -0.346  52.639 -14.068  1.00  0.00     0.210 HD
ENDBRANCH   8  40
TORSDOF 8
ENDMDL
MODEL 5
REMARK minimizedAffinity -8.79483795
REMARK CNNscore 0.659927905
REMARK CNNaffinity 6.42363882
REMARK  8 active torsions:
REMARK  status: ('A' for Active; 'I' for Inactive)
REMARK    1  A    between atoms: C3_3  and  C4_4 
REMARK    2  A    between atoms: C4_4  and  O1_5 
REMARK    3  A    between atoms: C6_9  and  C7_10 
REMARK    4  A    between atoms: C7_10  and  O4_12 
REMARK    5  A    between atoms: C7_10  and  C9_13 
REMARK    6  A    between atoms: C12_16  and  O5_17 
REMARK    7  A    between atoms: C15_20  and  O6_21 
REMARK    8  A    between atoms: C16_22  and  O7_23 
ROOT
HETATM    1  C9  UNL     1      -4.002  48.416 -23.763  1.00  0.00     0.033 C 
HETATM    2  C10 UNL     1      -2.715  48.285 -22.885  1.00  0.00     0.011 C 
HETATM    3  C11 UNL     1      -3.158  48.084 -21.424  1.00  0.00     0.039 C 
HETATM    4  C12 UNL     1      -4.650  47.799 -21.534  1.00  0.00     0.070 C 
HETATM    5  C13 UNL     1      -5.502  47.965 -20.258  1.00  0.00     0.028 C 
HETATM    6  C14 UNL     1      -4.983  47.084 -19.110  1.00  0.00     0.043 C 
HETATM    7  C15 UNL     1      -5.819  47.232 -17.840  1.00  0.00     0.154 C 
HETATM    8  C16 UNL     1      -7.319  46.951 -18.120  1.00  0.00     0.098 C 
HETATM    9  C17 UNL     1      -8.140  47.028 -16.814  1.00  0.00     0.042 C 
HETATM   10  C18 UNL     1      -9.654  47.037 -17.037  1.00  0.00     0.010 C 
HETATM   11  C19 UNL     1     -10.067  46.580 -18.423  1.00  0.00     0.079 C 
HETATM   12  C20 UNL     1      -9.369  47.385 -19.505  1.00  0.00     0.138 C 
HETATM   13  O8  UNL     1      -9.998  47.668 -20.527  1.00  0.00    -0.297 OA
HETATM   14  C21 UNL     1      -7.910  47.857 -19.262  1.00  0.00     0.054 C 
HETATM   15  C22 UNL     1      -8.026  49.347 -18.866  1.00  0.00     0.027 C 
HETATM   16  C23 UNL     1      -7.017  47.681 -20.560  1.00  0.00     0.011 C 
HETATM   17  C24 UNL     1      -7.482  48.491 -21.804  1.00  0.00     0.007 C 
HETATM   18  C25 UNL     1      -6.550  48.406 -23.032  1.00  0.00     0.013 C 
HETATM   19  C26 UNL     1      -5.093  48.761 -22.684  1.00  0.00    -0.006 C 
HETATM   20  C27 UNL     1      -5.022  50.262 -22.292  1.00  0.00     0.019 C 
ENDROOT
BRANCH   1  21
HETATM   21  C7  UNL     1      -3.797  49.300 -25.049  1.00  0.00     0.085 C 
HETATM   22  C8  UNL     1      -3.733  48.431 -26.314  1.00  0.00     0.049 C 
BRANCH  21  23
HETATM   23  C6  UNL     1      -2.472  50.156 -24.917  1.00  0.00     0.170 C 
HETATM   24  O3  UNL     1      -2.812  51.537 -24.670  1.00  0.00    -0.309 OA
HETATM   25  C5  UNL     1      -1.843  52.477 -24.567  1.00  0.00     0.292 C 
HETATM   26  C3  UNL     1      -0.503  52.124 -25.119  1.00  0.00     0.042 C 
HETATM   27  O2  UNL     1      -2.081  53.581 -24.095  1.00  0.00    -0.260 OA
HETATM   28  C2  UNL     1      -0.376  51.047 -25.925  1.00  0.00    -0.067 C 
HETATM   29  C1  UNL     1       0.877  50.659 -26.662  1.00  0.00     0.044 C 
HETATM   30  C28 UNL     1      -1.545  50.116 -26.136  1.00  0.00     0.070 C 
BRANCH  26  31
HETATM   31  C4  UNL     1       0.588  53.112 -24.813  1.00  0.00     0.209 C 
BRANCH  31  32
HETATM   32  O1  UNL     1       0.453  54.260 -25.648  1.00  0.00    -0.396 OA
HETATM   33  H6  UNL     1      -0.462  54.577 -25.574  1.00  0.00     0.209 HD
ENDBRANCH  31  32
ENDBRANCH  26  31
ENDBRANCH  21  23
BRANCH  21  34
HETATM   34  O4  UNL     1      -4.930  50.165 -25.200  1.00  0.00    -0.387 OA
HETATM   35  H11 UNL     1      -4.786  50.763 -25.952  1.00  0.00     0.210 HD
ENDBRANCH  21  34
ENDBRANCH   1  21
BRANCH   4  36
HETATM   36  O5  UNL     1      -4.716  46.418 -21.951  1.00  0.00    -0.389 OA
HETATM   37  H17 UNL     1      -5.638  46.167 -22.109  1.00  0.00     0.210 HD
ENDBRANCH   4  36
BRANCH   7  38
HETATM   38  O6  UNL     1      -5.601  48.527 -17.291  1.00  0.00    -0.392 OA
HETATM   39  H22 UNL     1      -5.630  48.454 -16.321  1.00  0.00     0.210 HD
ENDBRANCH   7  38
BRANCH   8  40
HETATM   40  O7  UNL     1      -7.396  45.576 -18.571  1.00  0.00    -0.386 OA
HETATM   41  H23 UNL     1      -6.961  45.002 -17.915  1.00  0.00     0.210 HD
ENDBRANCH   8  40
TORSDOF 8
ENDMDL
MODEL 6
REMARK minimizedAffinity -9.21623421
REMARK CNNscore 0.646001101
REMARK CNNaffinity 6.66347837
REMARK  8 active torsions:
REMARK  status: ('A' for Active; 'I' for Inactive)
REMARK    1  A    between atoms: C3_3  and  C4_4 
REMARK    2  A    between atoms: C4_4  and  O1_5 
REMARK    3  A    between atoms: C6_9  and  C7_10 
REMARK    4  A    between atoms: C7_10  and  O4_12 
REMARK    5  A    between atoms: C7_10  and  C9_13 
REMARK    6  A    between atoms: C12_16  and  O5_17 
REMARK    7  A    between atoms: C15_20  and  O6_21 
REMARK    8  A    between atoms: C16_22  and  O7_23 
ROOT
HETATM    1  C9  UNL     1      -3.950  51.066 -23.248  1.00  0.00     0.033 C 
HETATM    2  C10 UNL     1      -5.423  51.318 -23.710  1.00  0.00     0.011 C 
HETATM    3  C11 UNL     1      -6.347  50.443 -22.842  1.00  0.00     0.039 C 
HETATM    4  C12 UNL     1      -5.436  49.955 -21.723  1.00  0.00     0.070 C 
HETATM    5  C13 UNL     1      -5.902  48.728 -20.912  1.00  0.00     0.028 C 
HETATM    6  C14 UNL     1      -7.279  48.962 -20.269  1.00  0.00     0.043 C 
HETATM    7  C15 UNL     1      -7.753  47.758 -19.457  1.00  0.00     0.154 C 
HETATM    8  C16 UNL     1      -6.705  47.355 -18.387  1.00  0.00     0.098 C 
HETATM    9  C17 UNL     1      -7.230  46.188 -17.523  1.00  0.00     0.042 C 
HETATM   10  C18 UNL     1      -6.161  45.550 -16.632  1.00  0.00     0.010 C 
HETATM   11  C19 UNL     1      -4.920  46.406 -16.465  1.00  0.00     0.079 C 
HETATM   12  C20 UNL     1      -4.327  46.793 -17.808  1.00  0.00     0.138 C 
HETATM   13  O8  UNL     1      -3.099  46.842 -17.917  1.00  0.00    -0.297 OA
HETATM   14  C21 UNL     1      -5.285  47.066 -18.998  1.00  0.00     0.054 C 
HETATM   15  C22 UNL     1      -5.237  45.784 -19.861  1.00  0.00     0.027 C 
HETATM   16  C23 UNL     1      -4.828  48.332 -19.836  1.00  0.00     0.011 C 
HETATM   17  C24 UNL     1      -3.420  48.225 -20.491  1.00  0.00     0.007 C 
HETATM   18  C25 UNL     1      -3.024  49.412 -21.397  1.00  0.00     0.013 C 
HETATM   19  C26 UNL     1      -4.086  49.706 -22.471  1.00  0.00    -0.006 C 
HETATM   20  C27 UNL     1      -4.143  48.510 -23.461  1.00  0.00     0.019 C 
ENDROOT
BRANCH   1  21
HETATM   21  C7  UNL     1      -2.891  51.265 -24.396  1.00  0.00     0.085 C 
HETATM   22  C8  UNL     1      -2.240  49.931 -24.788  1.00  0.00     0.049 C 
BRANCH  21  23
HETATM   23  C6  UNL     1      -1.778  52.292 -23.938  1.00  0.00     0.170 C 
HETATM   24  O3  UNL     1      -1.054  52.768 -25.093  1.00  0.00    -0.309 OA
HETATM   25  C5  UNL     1      -0.015  53.625 -24.950  1.00  0.00     0.292 C 
HETATM   26  C3  UNL     1       0.598  53.719 -23.594  1.00  0.00     0.042 C 
HETATM   27  O2  UNL     1       0.429  54.245 -25.907  1.00  0.00    -0.260 OA
HETATM   28  C2  UNL     1       0.306  52.782 -22.664  1.00  0.00    -0.067 C 
HETATM   29  C1  UNL     1       0.957  52.672 -21.312  1.00  0.00     0.044 C 
HETATM   30  C28 UNL     1      -0.752  51.743 -22.941  1.00  0.00     0.070 C 
BRANCH  26  31
HETATM   31  C4  UNL     1       1.613  54.815 -23.432  1.00  0.00     0.209 C 
BRANCH  31  32
HETATM   32  O1  UNL     1       2.004  54.919 -22.064  1.00  0.00    -0.396 OA
HETATM   33  H6  UNL     1       2.259  54.033 -21.759  1.00  0.00     0.209 HD
ENDBRANCH  31  32
ENDBRANCH  26  31
ENDBRANCH  21  23
BRANCH  21  34
HETATM   34  O4  UNL     1      -3.563  51.755 -25.563  1.00  0.00    -0.387 OA
HETATM   35  H11 UNL     1      -2.912  51.947 -26.258  1.00  0.00     0.210 HD
ENDBRANCH  21  34
ENDBRANCH   1  21
BRANCH   4  36
HETATM   36  O5  UNL     1      -5.339  51.085 -20.829  1.00  0.00    -0.389 OA
HETATM   37  H17 UNL     1      -4.720  50.882 -20.111  1.00  0.00     0.210 HD
ENDBRANCH   4  36
BRANCH   7  38
HETATM   38  O6  UNL     1      -8.061  46.691 -20.347  1.00  0.00    -0.392 OA
HETATM   39  H22 UNL     1      -8.819  46.200 -19.983  1.00  0.00     0.210 HD
ENDBRANCH   7  38
BRANCH   8  40
HETATM   40  O7  UNL     1      -6.573  48.494 -17.500  1.00  0.00    -0.386 OA
HETATM   41  H23 UNL     1      -7.456  48.743 -17.172  1.00  0.00     0.210 HD
ENDBRANCH   8  40
TORSDOF 8
ENDMDL
MODEL 7
REMARK minimizedAffinity -9.20432281
REMARK CNNscore 0.634534419
REMARK CNNaffinity 6.05211639
REMARK  8 active torsions:
REMARK  status: ('A' for Active; 'I' for Inactive)
REMARK    1  A    between atoms: C3_3  and  C4_4 
REMARK    2  A    between atoms: C4_4  and  O1_5 
REMARK    3  A    between atoms: C6_9  and  C7_10 
REMARK    4  A    between atoms: C7_10  and  O4_12 
REMARK    5  A    between atoms: C7_10  and  C9_13 
REMARK    6  A    between atoms: C12_16  and  O5_17 
REMARK    7  A    between atoms: C15_20  and  O6_21 
REMARK    8  A    between atoms: C16_22  and  O7_23 
ROOT
HETATM    1  C9  UNL     1      -2.503  49.348 -23.514  1.00  0.00     0.033 C 
HETATM    2  C10 UNL     1      -1.524  50.332 -22.794  1.00  0.00     0.011 C 
HETATM    3  C11 UNL     1      -1.687  50.135 -21.276  1.00  0.00     0.039 C 
HETATM    4  C12 UNL     1      -2.508  48.856 -21.163  1.00  0.00     0.070 C 
HETATM    5  C13 UNL     1      -3.218  48.583 -19.821  1.00  0.00     0.028 C 
HETATM    6  C14 UNL     1      -2.225  48.557 -18.648  1.00  0.00     0.043 C 
HETATM    7  C15 UNL     1      -2.912  48.282 -17.311  1.00  0.00     0.154 C 
HETATM    8  C16 UNL     1      -3.740  46.971 -17.365  1.00  0.00     0.098 C 
HETATM    9  C17 UNL     1      -4.365  46.664 -15.987  1.00  0.00     0.042 C 
HETATM   10  C18 UNL     1      -5.413  45.550 -16.018  1.00  0.00     0.010 C 
HETATM   11  C19 UNL     1      -5.361  44.703 -17.275  1.00  0.00     0.079 C 
HETATM   12  C20 UNL     1      -5.461  45.558 -18.526  1.00  0.00     0.138 C 
HETATM   13  O8  UNL     1      -6.097  45.122 -19.488  1.00  0.00    -0.297 OA
HETATM   14  C21 UNL     1      -4.800  46.962 -18.527  1.00  0.00     0.054 C 
HETATM   15  C22 UNL     1      -5.962  47.959 -18.305  1.00  0.00     0.027 C 
HETATM   16  C23 UNL     1      -4.054  47.255 -19.895  1.00  0.00     0.011 C 
HETATM   17  C24 UNL     1      -4.958  47.254 -21.161  1.00  0.00     0.007 C 
HETATM   18  C25 UNL     1      -4.251  47.648 -22.476  1.00  0.00     0.013 C 
HETATM   19  C26 UNL     1      -3.506  48.991 -22.358  1.00  0.00    -0.006 C 
HETATM   20  C27 UNL     1      -4.548  50.126 -22.165  1.00  0.00     0.019 C 
ENDROOT
BRANCH   1  21
HETATM   21  C7  UNL     1      -2.998  49.869 -24.915  1.00  0.00     0.085 C 
HETATM   22  C8  UNL     1      -3.156  48.711 -25.912  1.00  0.00     0.049 C 
BRANCH  21  23
HETATM   23  C6  UNL     1      -1.984  50.939 -25.489  1.00  0.00     0.170 C 
HETATM   24  O3  UNL     1      -2.625  51.699 -26.535  1.00  0.00    -0.309 OA
HETATM   25  C5  UNL     1      -1.939  52.649 -27.215  1.00  0.00     0.292 C 
HETATM   26  C3  UNL     1      -0.451  52.586 -27.142  1.00  0.00     0.042 C 
HETATM   27  O2  UNL     1      -2.522  53.479 -27.902  1.00  0.00    -0.260 OA
HETATM   28  C2  UNL     1       0.146  51.472 -26.663  1.00  0.00    -0.067 C 
HETATM   29  C1  UNL     1       1.629  51.217 -26.665  1.00  0.00     0.044 C 
HETATM   30  C28 UNL     1      -0.684  50.366 -26.060  1.00  0.00     0.070 C 
BRANCH  26  31
HETATM   31  C4  UNL     1       0.263  53.763 -27.746  1.00  0.00     0.209 C 
BRANCH  31  32
HETATM   32  O1  UNL     1      -0.243  54.976 -27.193  1.00  0.00    -0.396 OA
HETATM   33  H6  UNL     1      -0.219  54.895 -26.225  1.00  0.00     0.209 HD
ENDBRANCH  31  32
ENDBRANCH  26  31
ENDBRANCH  21  23
BRANCH  21  34
HETATM   34  O4  UNL     1      -4.296  50.455 -24.755  1.00  0.00    -0.387 OA
HETATM   35  H11 UNL     1      -4.586  50.841 -25.598  1.00  0.00     0.210 HD
ENDBRANCH  21  34
ENDBRANCH   1  21
BRANCH   4  36
HETATM   36  O5  UNL     1      -1.550  47.801 -21.396  1.00  0.00    -0.389 OA
HETATM   37  H17 UNL     1      -2.002  46.944 -21.407  1.00  0.00     0.210 HD
ENDBRANCH   4  36
BRANCH   7  38
HETATM   38  O6  UNL     1      -3.702  49.411 -16.956  1.00  0.00    -0.392 OA
HETATM   39  H22 UNL     1      -3.673  49.510 -15.988  1.00  0.00     0.210 HD
ENDBRANCH   7  38
BRANCH   8  40
HETATM   40  O7  UNL     1      -2.794  45.906 -17.631  1.00  0.00    -0.386 OA
HETATM   41  H23 UNL     1      -2.081  45.943 -16.969  1.00  0.00     0.210 HD
ENDBRANCH   8  40
TORSDOF 8
ENDMDL
MODEL 8
REMARK minimizedAffinity -9.05241585
REMARK CNNscore 0.616857648
REMARK CNNaffinity 5.90640879
REMARK  8 active torsions:
REMARK  status: ('A' for Active; 'I' for Inactive)
REMARK    1  A    between atoms: C3_3  and  C4_4 
REMARK    2  A    between atoms: C4_4  and  O1_5 
REMARK    3  A    between atoms: C6_9  and  C7_10 
REMARK    4  A    between atoms: C7_10  and  O4_12 
REMARK    5  A    between atoms: C7_10  and  C9_13 
REMARK    6  A    between atoms: C12_16  and  O5_17 
REMARK    7  A    between atoms: C15_20  and  O6_21 
REMARK    8  A    between atoms: C16_22  and  O7_23 
ROOT
HETATM    1  C9  UNL     1     -13.429  45.000 -28.413  1.00  0.00     0.033 C 
HETATM    2  C10 UNL     1     -13.988  46.446 -28.621  1.00  0.00     0.011 C 
HETATM    3  C11 UNL     1     -12.818  47.349 -29.051  1.00  0.00     0.039 C 
HETATM    4  C12 UNL     1     -11.702  46.364 -29.375  1.00  0.00     0.070 C 
HETATM    5  C13 UNL     1     -10.262  46.915 -29.432  1.00  0.00     0.028 C 
HETATM    6  C14 UNL     1     -10.130  48.058 -30.452  1.00  0.00     0.043 C 
HETATM    7  C15 UNL     1      -8.708  48.611 -30.524  1.00  0.00     0.154 C 
HETATM    8  C16 UNL     1      -7.683  47.486 -30.820  1.00  0.00     0.098 C 
HETATM    9  C17 UNL     1      -6.261  48.070 -30.968  1.00  0.00     0.042 C 
HETATM   10  C18 UNL     1      -5.157  47.010 -30.986  1.00  0.00     0.010 C 
HETATM   11  C19 UNL     1      -5.667  45.606 -31.251  1.00  0.00     0.079 C 
HETATM   12  C20 UNL     1      -6.758  45.217 -30.269  1.00  0.00     0.138 C 
HETATM   13  O8  UNL     1      -6.797  44.052 -29.864  1.00  0.00    -0.297 OA
HETATM   14  C21 UNL     1      -7.749  46.307 -29.781  1.00  0.00     0.054 C 
HETATM   15  C22 UNL     1      -7.254  46.703 -28.370  1.00  0.00     0.027 C 
HETATM   16  C23 UNL     1      -9.236  45.761 -29.728  1.00  0.00     0.011 C 
HETATM   17  C24 UNL     1      -9.474  44.564 -28.764  1.00  0.00     0.007 C 
HETATM   18  C25 UNL     1     -10.944  44.107 -28.631  1.00  0.00     0.013 C 
HETATM   19  C26 UNL     1     -11.886  45.270 -28.274  1.00  0.00    -0.006 C 
HETATM   20  C27 UNL     1     -11.544  45.773 -26.845  1.00  0.00     0.019 C 
ENDROOT
BRANCH   1  21
HETATM   21  C7  UNL     1     -14.227  44.166 -27.343  1.00  0.00     0.085 C 
HETATM   22  C8  UNL     1     -14.719  42.836 -27.932  1.00  0.00     0.049 C 
BRANCH  21  23
HETATM   23  C6  UNL     1     -15.457  45.004 -26.805  1.00  0.00     0.170 C 
HETATM   24  O3  UNL     1     -15.193  45.434 -25.452  1.00  0.00    -0.309 OA
HETATM   25  C5  UNL     1     -16.124  46.131 -24.757  1.00  0.00     0.292 C 
HETATM   26  C3  UNL     1     -17.526  46.069 -25.261  1.00  0.00     0.042 C 
HETATM   27  O2  UNL     1     -15.828  46.732 -23.732  1.00  0.00    -0.260 OA
HETATM   28  C2  UNL     1     -17.864  45.135 -26.178  1.00  0.00    -0.067 C 
HETATM   29  C1  UNL     1     -19.262  44.866 -26.665  1.00  0.00     0.044 C 
HETATM   30  C28 UNL     1     -16.800  44.268 -26.805  1.00  0.00     0.070 C 
BRANCH  26  31
HETATM   31  C4  UNL     1     -18.486  47.004 -24.581  1.00  0.00     0.209 C 
BRANCH  31  32
HETATM   32  O1  UNL     1     -19.802  46.806 -25.092  1.00  0.00    -0.396 OA
HETATM   33  H6  UNL     1     -20.002  45.857 -25.042  1.00  0.00     0.209 HD
ENDBRANCH  31  32
ENDBRANCH  26  31
ENDBRANCH  21  23
BRANCH  21  34
HETATM   34  O4  UNL     1     -13.344  43.837 -26.263  1.00  0.00    -0.387 OA
HETATM   35  H11 UNL     1     -13.840  43.380 -25.564  1.00  0.00     0.210 HD
ENDBRANCH  21  34
ENDBRANCH   1  21
BRANCH   4  36
HETATM   36  O5  UNL     1     -12.048  45.855 -30.682  1.00  0.00    -0.389 OA
HETATM   37  H17 UNL     1     -11.419  45.166 -30.943  1.00  0.00     0.210 HD
ENDBRANCH   4  36
BRANCH   7  38
HETATM   38  O6  UNL     1      -8.420  49.307 -29.317  1.00  0.00    -0.392 OA
HETATM   39  H22 UNL     1      -7.850  50.066 -29.532  1.00  0.00     0.210 HD
ENDBRANCH   7  38
BRANCH   8  40
HETATM   40  O7  UNL     1      -8.039  46.943 -32.116  1.00  0.00    -0.386 OA
HETATM   41  H23 UNL     1      -8.085  47.671 -32.762  1.00  0.00     0.210 HD
ENDBRANCH   8  40
TORSDOF 8
ENDMDL
MODEL 9
REMARK minimizedAffinity -7.89249945
REMARK CNNscore 0.534111977
REMARK CNNaffinity 5.37273645
REMARK  8 active torsions:
REMARK  status: ('A' for Active; 'I' for Inactive)
REMARK    1  A    between atoms: C3_3  and  C4_4 
REMARK    2  A    between atoms: C4_4  and  O1_5 
REMARK    3  A    between atoms: C6_9  and  C7_10 
REMARK    4  A    between atoms: C7_10  and  O4_12 
REMARK    5  A    between atoms: C7_10  and  C9_13 
REMARK    6  A    between atoms: C12_16  and  O5_17 
REMARK    7  A    between atoms: C15_20  and  O6_21 
REMARK    8  A    between atoms: C16_22  and  O7_23 
ROOT
HETATM    1  C9  UNL     1     -14.527  45.890 -18.490  1.00  0.00     0.033 C 
HETATM    2  C10 UNL     1     -15.346  44.849 -17.658  1.00  0.00     0.011 C 
HETATM    3  C11 UNL     1     -16.498  44.338 -18.543  1.00  0.00     0.039 C 
HETATM    4  C12 UNL     1     -16.140  44.849 -19.933  1.00  0.00     0.070 C 
HETATM    5  C13 UNL     1     -17.266  44.892 -20.986  1.00  0.00     0.028 C 
HETATM    6  C14 UNL     1     -17.904  43.508 -21.192  1.00  0.00     0.043 C 
HETATM    7  C15 UNL     1     -19.018  43.532 -22.237  1.00  0.00     0.154 C 
HETATM    8  C16 UNL     1     -18.513  44.114 -23.583  1.00  0.00     0.098 C 
HETATM    9  C17 UNL     1     -19.626  44.061 -24.652  1.00  0.00     0.042 C 
HETATM   10  C18 UNL     1     -19.306  44.859 -25.918  1.00  0.00     0.010 C 
HETATM   11  C19 UNL     1     -17.838  45.216 -26.056  1.00  0.00     0.079 C 
HETATM   12  C20 UNL     1     -17.326  45.946 -24.827  1.00  0.00     0.138 C 
HETATM   13  O8  UNL     1     -16.507  46.855 -24.980  1.00  0.00    -0.297 OA
HETATM   14  C21 UNL     1     -17.885  45.549 -23.434  1.00  0.00     0.054 C 
HETATM   15  C22 UNL     1     -18.923  46.641 -23.087  1.00  0.00     0.027 C 
HETATM   16  C23 UNL     1     -16.738  45.488 -22.341  1.00  0.00     0.011 C 
HETATM   17  C24 UNL     1     -15.986  46.826 -22.087  1.00  0.00     0.007 C 
HETATM   18  C25 UNL     1     -14.946  46.791 -20.946  1.00  0.00     0.013 C 
HETATM   19  C26 UNL     1     -15.544  46.262 -19.629  1.00  0.00    -0.006 C 
HETATM   20  C27 UNL     1     -16.600  47.277 -19.114  1.00  0.00     0.019 C 
ENDROOT
BRANCH   1  21
HETATM   21  C7  UNL     1     -13.829  46.990 -17.605  1.00  0.00     0.085 C 
HETATM   22  C8  UNL     1     -14.295  48.398 -18.004  1.00  0.00     0.049 C 
BRANCH  21  23
HETATM   23  C6  UNL     1     -12.257  46.884 -17.742  1.00  0.00     0.170 C 
HETATM   24  O3  UNL     1     -11.640  47.184 -16.472  1.00  0.00    -0.309 OA
HETATM   25  C5  UNL     1     -10.291  47.204 -16.349  1.00  0.00     0.292 C 
HETATM   26  C3  UNL     1      -9.503  47.323 -17.609  1.00  0.00     0.042 C 
HETATM   27  O2  UNL     1      -9.757  47.184 -15.248  1.00  0.00    -0.260 OA
HETATM   28  C2  UNL     1     -10.125  47.681 -18.754  1.00  0.00    -0.067 C 
HETATM   29  C1  UNL     1      -9.436  47.977 -20.059  1.00  0.00     0.044 C 
HETATM   30  C28 UNL     1     -11.629  47.804 -18.793  1.00  0.00     0.070 C 
BRANCH  26  31
HETATM   31  C4  UNL     1      -8.019  47.148 -17.447  1.00  0.00     0.209 C 
BRANCH  31  32
HETATM   32  O1  UNL     1      -7.406  48.408 -17.181  1.00  0.00    -0.396 OA
HETATM   33  H6  UNL     1      -7.884  48.822 -16.444  1.00  0.00     0.209 HD
ENDBRANCH  31  32
ENDBRANCH  26  31
ENDBRANCH  21  23
BRANCH  21  34
HETATM   34  O4  UNL     1     -14.219  46.798 -16.239  1.00  0.00    -0.387 OA
HETATM   35  H11 UNL     1     -13.744  47.428 -15.673  1.00  0.00     0.210 HD
ENDBRANCH  21  34
ENDBRANCH   1  21
BRANCH   4  36
HETATM   36  O5  UNL     1     -15.119  43.937 -20.392  1.00  0.00    -0.389 OA
HETATM   37  H17 UNL     1     -14.783  44.228 -21.254  1.00  0.00     0.210 HD
ENDBRANCH   4  36
BRANCH   7  38
HETATM   38  O6  UNL     1     -20.128  44.254 -21.714  1.00  0.00    -0.392 OA
HETATM   39  H22 UNL     1     -20.944  43.839 -22.046  1.00  0.00     0.210 HD
ENDBRANCH   7  38
BRANCH   8  40
HETATM   40  O7  UNL     1     -17.464  43.226 -24.041  1.00  0.00    -0.386 OA
HETATM   41  H23 UNL     1     -17.807  42.315 -24.063  1.00  0.00     0.210 HD
ENDBRANCH   8  40
TORSDOF 8
ENDMDL
