MODEL 1
REMARK minimizedAffinity -8.77417278
REMARK  4 active torsions:
REMARK  status: ('A' for Active; 'I' for Inactive)
REMARK    1  A    between atoms: C4_4  and  C5_5 
REMARK    2  A    between atoms: C7_7  and  N1_8 
REMARK    3  A    between atoms: C9_10  and  C10_11 
REMARK    4  A    between atoms: C10_11  and  N2_12 
ROOT
HETATM    1  N1  UNL     1      -7.089   6.049  13.636  1.00  0.00    -0.300 N 
HETATM    2  C8  UNL     1      -6.045   6.953  13.700  1.00  0.00     0.109 A 
HETATM    3  C9  UNL     1      -4.886   6.374  13.221  1.00  0.00    -0.011 A 
HETATM    4  C14 UNL     1      -5.232   5.046  12.826  1.00  0.00     0.000 A 
HETATM    5  C15 UNL     1      -4.495   3.978  12.268  1.00  0.00     0.014 A 
HETATM    6  C16 UNL     1      -5.130   2.767  11.978  1.00  0.00     0.001 A 
HETATM    7  C17 UNL     1      -6.483   2.604  12.238  1.00  0.00     0.002 A 
HETATM    8  C18 UNL     1      -7.236   3.642  12.794  1.00  0.00     0.031 A 
HETATM    9  C19 UNL     1      -6.598   4.865  13.085  1.00  0.00     0.051 A 
ENDROOT
BRANCH   1  10
HETATM   10  C7  UNL     1      -8.405   6.297  14.048  1.00  0.00     0.179 A 
HETATM   11  C6  UNL     1      -9.508   6.504  13.244  1.00  0.00     0.091 A 
HETATM   12  C5  UNL     1     -10.602   6.705  14.133  1.00  0.00     0.069 A 
HETATM   13  N4  UNL     1     -10.172   6.618  15.401  1.00  0.00    -0.258 N 
HETATM   14  O1  UNL     1      -8.820   6.376  15.344  1.00  0.00    -0.219 OA
ATOM     15  H4  UNL     1     -10.738   6.714  16.245  1.00  0.00     0.195 HD
BRANCH  12  16
HETATM   16  C4  UNL     1     -12.008   6.964  13.809  1.00  0.00    -0.007 A 
HETATM   17  C3  UNL     1     -13.018   6.110  14.285  1.00  0.00     0.014 A 
HETATM   18  C2  UNL     1     -14.360   6.344  13.977  1.00  0.00     0.001 A 
HETATM   19  C1  UNL     1     -14.714   7.437  13.190  1.00  0.00     0.000 A 
HETATM   20  C21 UNL     1     -13.726   8.297  12.714  1.00  0.00     0.001 A 
HETATM   21  C20 UNL     1     -12.382   8.063  13.020  1.00  0.00     0.014 A 
ENDBRANCH  12  16
ENDBRANCH   1  10
BRANCH   3  22
HETATM   22  C10 UNL     1      -3.541   7.017  13.127  1.00  0.00     0.170 C 
BRANCH  22  23
HETATM   23  N2  UNL     1      -3.077   7.461  14.430  1.00  0.00    -0.347 N 
HETATM   24  C11 UNL     1      -2.561   8.692  14.732  1.00  0.00     0.109 A 
HETATM   25  C12 UNL     1      -2.222   8.616  16.063  1.00  0.00     0.106 A 
HETATM   26  N3  UNL     1      -2.512   7.376  16.570  1.00  0.00    -0.361 N 
HETATM   27  C13 UNL     1      -3.027   6.702  15.565  1.00  0.00     0.182 A 
ATOM     28  H3  UNL     1      -2.361   7.046  17.524  1.00  0.00     0.166 HD
ENDBRANCH  22  23
ENDBRANCH   3  22
TORSDOF 4
ENDMDL
MODEL 2
REMARK minimizedAffinity -8.74706745
REMARK  4 active torsions:
REMARK  status: ('A' for Active; 'I' for Inactive)
REMARK    1  A    between atoms: C4_4  and  C5_5 
REMARK    2  A    between atoms: C7_7  and  N1_8 
REMARK    3  A    between atoms: C9_10  and  C10_11 
REMARK    4  A    between atoms: C10_11  and  N2_12 
ROOT
HETATM    1  N1  UNL     1      -0.143   4.981  11.634  1.00  0.00    -0.300 N 
HETATM    2  C8  UNL     1       0.917   5.040  10.749  1.00  0.00     0.109 A 
HETATM    3  C9  UNL     1       1.913   5.852  11.255  1.00  0.00    -0.011 A 
HETATM    4  C14 UNL     1       1.453   6.309  12.526  1.00  0.00     0.000 A 
HETATM    5  C15 UNL     1       2.011   7.151  13.514  1.00  0.00     0.014 A 
HETATM    6  C16 UNL     1       1.302   7.417  14.688  1.00  0.00     0.001 A 
HETATM    7  C17 UNL     1       0.047   6.862  14.892  1.00  0.00     0.002 A 
HETATM    8  C18 UNL     1      -0.533   6.029  13.930  1.00  0.00     0.031 A 
HETATM    9  C19 UNL     1       0.183   5.757  12.746  1.00  0.00     0.051 A 
ENDROOT
BRANCH   1  10
HETATM   10  C7  UNL     1      -1.327   4.257  11.437  1.00  0.00     0.179 A 
HETATM   11  C6  UNL     1      -2.494   4.347  12.168  1.00  0.00     0.091 A 
HETATM   12  C5  UNL     1      -3.395   3.419  11.575  1.00  0.00     0.069 A 
HETATM   13  N4  UNL     1      -2.796   2.810  10.540  1.00  0.00    -0.258 N 
HETATM   14  O1  UNL     1      -1.523   3.322  10.464  1.00  0.00    -0.219 OA
ATOM     15  H4  UNL     1      -3.206   2.104   9.928  1.00  0.00     0.195 HD
BRANCH  12  16
HETATM   16  C4  UNL     1      -4.777   3.114  11.958  1.00  0.00    -0.007 A 
HETATM   17  C3  UNL     1      -5.497   3.989  12.788  1.00  0.00     0.014 A 
HETATM   18  C2  UNL     1      -6.812   3.704  13.164  1.00  0.00     0.001 A 
HETATM   19  C1  UNL     1      -7.428   2.540  12.713  1.00  0.00     0.000 A 
HETATM   20  C21 UNL     1      -6.732   1.663  11.885  1.00  0.00     0.001 A 
HETATM   21  C20 UNL     1      -5.416   1.947  11.509  1.00  0.00     0.014 A 
ENDBRANCH  12  16
ENDBRANCH   1  10
BRANCH   3  22
HETATM   22  C10 UNL     1       3.217   6.175  10.603  1.00  0.00     0.170 C 
BRANCH  22  23
HETATM   23  N2  UNL     1       3.028   7.029   9.443  1.00  0.00    -0.347 N 
HETATM   24  C11 UNL     1       2.278   6.742   8.335  1.00  0.00     0.109 A 
HETATM   25  C12 UNL     1       2.449   7.823   7.502  1.00  0.00     0.106 A 
HETATM   26  N3  UNL     1       3.284   8.749   8.071  1.00  0.00    -0.361 N 
HETATM   27  C13 UNL     1       3.617   8.246   9.239  1.00  0.00     0.182 A 
ATOM     28  H3  UNL     1       3.584   9.639   7.672  1.00  0.00     0.166 HD
ENDBRANCH  22  23
ENDBRANCH   3  22
TORSDOF 4
ENDMDL
MODEL 3
REMARK minimizedAffinity -8.70138645
REMARK  4 active torsions:
REMARK  status: ('A' for Active; 'I' for Inactive)
REMARK    1  A    between atoms: C4_4  and  C5_5 
REMARK    2  A    between atoms: C7_7  and  N1_8 
REMARK    3  A    between atoms: C9_10  and  C10_11 
REMARK    4  A    between atoms: C10_11  and  N2_12 
ROOT
HETATM    1  N1  UNL     1      -3.707   4.830  13.021  1.00  0.00    -0.300 N 
HETATM    2  C8  UNL     1      -4.748   5.667  13.378  1.00  0.00     0.109 A 
HETATM    3  C9  UNL     1      -5.959   5.073  13.080  1.00  0.00    -0.011 A 
HETATM    4  C14 UNL     1      -5.654   3.795  12.522  1.00  0.00     0.000 A 
HETATM    5  C15 UNL     1      -6.451   2.737  12.033  1.00  0.00     0.014 A 
HETATM    6  C16 UNL     1      -5.847   1.577  11.539  1.00  0.00     0.001 A 
HETATM    7  C17 UNL     1      -4.465   1.457  11.524  1.00  0.00     0.002 A 
HETATM    8  C18 UNL     1      -3.651   2.490  11.998  1.00  0.00     0.031 A 
HETATM    9  C19 UNL     1      -4.259   3.660  12.498  1.00  0.00     0.051 A 
ENDROOT
BRANCH   1  10
HETATM   10  C7  UNL     1      -2.344   5.117  13.172  1.00  0.00     0.179 A 
HETATM   11  C6  UNL     1      -1.424   5.358  12.172  1.00  0.00     0.091 A 
HETATM   12  C5  UNL     1      -0.188   5.602  12.834  1.00  0.00     0.069 A 
HETATM   13  N4  UNL     1      -0.364   5.513  14.161  1.00  0.00    -0.258 N 
HETATM   14  O1  UNL     1      -1.689   5.207  14.364  1.00  0.00    -0.219 OA
ATOM     15  H4  UNL     1       0.347   5.647  14.881  1.00  0.00     0.195 HD
BRANCH  12  16
HETATM   16  C4  UNL     1       1.118   5.914  12.246  1.00  0.00    -0.007 A 
HETATM   17  C3  UNL     1       1.942   6.897  12.821  1.00  0.00     0.014 A 
HETATM   18  C2  UNL     1       3.185   7.207  12.265  1.00  0.00     0.001 A 
HETATM   19  C1  UNL     1       3.625   6.537  11.127  1.00  0.00     0.000 A 
HETATM   20  C21 UNL     1       2.824   5.556  10.546  1.00  0.00     0.001 A 
HETATM   21  C20 UNL     1       1.579   5.246  11.101  1.00  0.00     0.014 A 
ENDBRANCH  12  16
ENDBRANCH   1  10
BRANCH   3  22
HETATM   22  C10 UNL     1      -7.316   5.652  13.308  1.00  0.00     0.170 C 
BRANCH  22  23
HETATM   23  N2  UNL     1      -7.450   6.164  14.662  1.00  0.00    -0.347 N 
HETATM   24  C11 UNL     1      -8.327   7.125  15.085  1.00  0.00     0.109 A 
HETATM   25  C12 UNL     1      -8.042   7.302  16.419  1.00  0.00     0.106 A 
HETATM   26  N3  UNL     1      -7.016   6.482  16.811  1.00  0.00    -0.361 N 
HETATM   27  C13 UNL     1      -6.679   5.808  15.734  1.00  0.00     0.182 A 
ATOM     28  H3  UNL     1      -6.601   6.411  17.740  1.00  0.00     0.166 HD
ENDBRANCH  22  23
ENDBRANCH   3  22
TORSDOF 4
ENDMDL
MODEL 4
REMARK minimizedAffinity -8.57871437
REMARK  4 active torsions:
REMARK  status: ('A' for Active; 'I' for Inactive)
REMARK    1  A    between atoms: C4_4  and  C5_5 
REMARK    2  A    between atoms: C7_7  and  N1_8 
REMARK    3  A    between atoms: C9_10  and  C10_11 
REMARK    4  A    between atoms: C10_11  and  N2_12 
ROOT
HETATM    1  N1  UNL     1      -0.435   5.568  11.639  1.00  0.00    -0.300 N 
HETATM    2  C8  UNL     1       0.424   5.984  10.639  1.00  0.00     0.109 A 
HETATM    3  C9  UNL     1       1.342   6.884  11.145  1.00  0.00    -0.011 A 
HETATM    4  C14 UNL     1       1.045   7.024  12.534  1.00  0.00     0.000 A 
HETATM    5  C15 UNL     1       1.620   7.785  13.576  1.00  0.00     0.014 A 
HETATM    6  C16 UNL     1       1.097   7.706  14.870  1.00  0.00     0.001 A 
HETATM    7  C17 UNL     1       0.012   6.884  15.140  1.00  0.00     0.002 A 
HETATM    8  C18 UNL     1      -0.579   6.123  14.128  1.00  0.00     0.031 A 
HETATM    9  C19 UNL     1      -0.052   6.200  12.823  1.00  0.00     0.051 A 
ENDROOT
BRANCH   1  10
HETATM   10  C7  UNL     1      -1.494   4.664  11.477  1.00  0.00     0.179 A 
HETATM   11  C6  UNL     1      -2.718   4.688  12.114  1.00  0.00     0.091 A 
HETATM   12  C5  UNL     1      -3.439   3.570  11.609  1.00  0.00     0.069 A 
HETATM   13  N4  UNL     1      -2.683   2.916  10.714  1.00  0.00    -0.258 N 
HETATM   14  O1  UNL     1      -1.485   3.587  10.642  1.00  0.00    -0.219 OA
ATOM     15  H4  UNL     1      -2.945   2.082  10.188  1.00  0.00     0.195 HD
BRANCH  12  16
HETATM   16  C4  UNL     1      -4.795   3.128  11.946  1.00  0.00    -0.007 A 
HETATM   17  C3  UNL     1      -5.306   1.930  11.418  1.00  0.00     0.014 A 
HETATM   18  C2  UNL     1      -6.599   1.503  11.728  1.00  0.00     0.001 A 
HETATM   19  C1  UNL     1      -7.401   2.266  12.572  1.00  0.00     0.000 A 
HETATM   20  C21 UNL     1      -6.910   3.454  13.109  1.00  0.00     0.001 A 
HETATM   21  C20 UNL     1      -5.615   3.883  12.799  1.00  0.00     0.014 A 
ENDBRANCH  12  16
ENDBRANCH   1  10
BRANCH   3  22
HETATM   22  C10 UNL     1       2.433   7.566  10.387  1.00  0.00     0.170 C 
BRANCH  22  23
HETATM   23  N2  UNL     1       3.712   6.911  10.602  1.00  0.00    -0.347 N 
HETATM   24  C11 UNL     1       4.785   7.424  11.279  1.00  0.00     0.109 A 
HETATM   25  C12 UNL     1       5.765   6.466  11.168  1.00  0.00     0.106 A 
HETATM   26  N3  UNL     1       5.318   5.394  10.440  1.00  0.00    -0.361 N 
HETATM   27  C13 UNL     1       4.079   5.688  10.113  1.00  0.00     0.182 A 
ATOM     28  H3  UNL     1       5.836   4.548  10.202  1.00  0.00     0.166 HD
ENDBRANCH  22  23
ENDBRANCH   3  22
TORSDOF 4
ENDMDL
MODEL 5
REMARK minimizedAffinity -8.52725506
REMARK  4 active torsions:
REMARK  status: ('A' for Active; 'I' for Inactive)
REMARK    1  A    between atoms: C4_4  and  C5_5 
REMARK    2  A    between atoms: C7_7  and  N1_8 
REMARK    3  A    between atoms: C9_10  and  C10_11 
REMARK    4  A    between atoms: C10_11  and  N2_12 
ROOT
HETATM    1  N1  UNL     1      -2.586   5.305  12.739  1.00  0.00    -0.300 N 
HETATM    2  C8  UNL     1      -2.902   5.960  13.915  1.00  0.00     0.109 A 
HETATM    3  C9  UNL     1      -4.195   5.658  14.293  1.00  0.00    -0.011 A 
HETATM    4  C14 UNL     1      -4.704   4.759  13.309  1.00  0.00     0.000 A 
HETATM    5  C15 UNL     1      -5.944   4.103  13.144  1.00  0.00     0.014 A 
HETATM    6  C16 UNL     1      -6.148   3.257  12.050  1.00  0.00     0.001 A 
HETATM    7  C17 UNL     1      -5.138   3.057  11.120  1.00  0.00     0.002 A 
HETATM    8  C18 UNL     1      -3.902   3.696  11.256  1.00  0.00     0.031 A 
HETATM    9  C19 UNL     1      -3.694   4.548  12.359  1.00  0.00     0.051 A 
ENDROOT
BRANCH   1  10
HETATM   10  C7  UNL     1      -1.360   5.390  12.065  1.00  0.00     0.179 A 
HETATM   11  C6  UNL     1      -0.872   6.465  11.350  1.00  0.00     0.091 A 
HETATM   12  C5  UNL     1       0.404   6.061  10.866  1.00  0.00     0.069 A 
HETATM   13  N4  UNL     1       0.664   4.809  11.276  1.00  0.00    -0.258 N 
HETATM   14  O1  UNL     1      -0.427   4.399  12.006  1.00  0.00    -0.219 OA
ATOM     15  H4  UNL     1       1.507   4.268  11.084  1.00  0.00     0.195 HD
BRANCH  12  16
HETATM   16  C4  UNL     1       1.356   6.821  10.051  1.00  0.00    -0.007 A 
HETATM   17  C3  UNL     1       2.732   6.772  10.331  1.00  0.00     0.014 A 
HETATM   18  C2  UNL     1       3.647   7.498   9.565  1.00  0.00     0.001 A 
HETATM   19  C1  UNL     1       3.200   8.282   8.505  1.00  0.00     0.000 A 
HETATM   20  C21 UNL     1       1.840   8.339   8.210  1.00  0.00     0.001 A 
HETATM   21  C20 UNL     1       0.923   7.614   8.977  1.00  0.00     0.014 A 
ENDBRANCH  12  16
ENDBRANCH   1  10
BRANCH   3  22
HETATM   22  C10 UNL     1      -4.912   6.167  15.501  1.00  0.00     0.170 C 
BRANCH  22  23
HETATM   23  N2  UNL     1      -6.332   6.334  15.239  1.00  0.00    -0.347 N 
HETATM   24  C11 UNL     1      -6.904   7.280  14.432  1.00  0.00     0.109 A 
HETATM   25  C12 UNL     1      -8.259   7.069  14.545  1.00  0.00     0.106 A 
HETATM   26  N3  UNL     1      -8.520   6.030  15.400  1.00  0.00    -0.361 N 
HETATM   27  C13 UNL     1      -7.342   5.606  15.802  1.00  0.00     0.182 A 
ATOM     28  H3  UNL     1      -9.434   5.665  15.668  1.00  0.00     0.166 HD
ENDBRANCH  22  23
ENDBRANCH   3  22
TORSDOF 4
ENDMDL
MODEL 6
REMARK minimizedAffinity -8.44896698
REMARK  4 active torsions:
REMARK  status: ('A' for Active; 'I' for Inactive)
REMARK    1  A    between atoms: C4_4  and  C5_5 
REMARK    2  A    between atoms: C7_7  and  N1_8 
REMARK    3  A    between atoms: C9_10  and  C10_11 
REMARK    4  A    between atoms: C10_11  and  N2_12 
ROOT
HETATM    1  N1  UNL     1      -0.787   5.998  12.544  1.00  0.00    -0.300 N 
HETATM    2  C8  UNL     1      -0.044   5.679  11.423  1.00  0.00     0.109 A 
HETATM    3  C9  UNL     1       1.275   6.047  11.606  1.00  0.00    -0.011 A 
HETATM    4  C14 UNL     1       1.357   6.612  12.914  1.00  0.00     0.000 A 
HETATM    5  C15 UNL     1       2.419   7.158  13.669  1.00  0.00     0.014 A 
HETATM    6  C16 UNL     1       2.184   7.640  14.959  1.00  0.00     0.001 A 
HETATM    7  C17 UNL     1       0.910   7.589  15.507  1.00  0.00     0.002 A 
HETATM    8  C18 UNL     1      -0.160   7.058  14.782  1.00  0.00     0.031 A 
HETATM    9  C19 UNL     1       0.076   6.568  13.482  1.00  0.00     0.051 A 
ENDROOT
BRANCH   1  10
HETATM   10  C7  UNL     1      -2.161   5.774  12.700  1.00  0.00     0.179 A 
HETATM   11  C6  UNL     1      -2.844   4.591  12.500  1.00  0.00     0.091 A 
HETATM   12  C5  UNL     1      -4.207   4.878  12.791  1.00  0.00     0.069 A 
HETATM   13  N4  UNL     1      -4.329   6.165  13.150  1.00  0.00    -0.258 N 
HETATM   14  O1  UNL     1      -3.070   6.714  13.084  1.00  0.00    -0.219 OA
ATOM     15  H4  UNL     1      -5.189   6.644  13.419  1.00  0.00     0.195 HD
BRANCH  12  16
HETATM   16  C4  UNL     1      -5.362   3.976  12.742  1.00  0.00    -0.007 A 
HETATM   17  C3  UNL     1      -5.355   2.854  11.896  1.00  0.00     0.014 A 
HETATM   18  C2  UNL     1      -6.452   1.992  11.838  1.00  0.00     0.001 A 
HETATM   19  C1  UNL     1      -7.573   2.237  12.626  1.00  0.00     0.000 A 
HETATM   20  C21 UNL     1      -7.596   3.341  13.475  1.00  0.00     0.001 A 
HETATM   21  C20 UNL     1      -6.499   4.206  13.534  1.00  0.00     0.014 A 
ENDBRANCH  12  16
ENDBRANCH   1  10
BRANCH   3  22
HETATM   22  C10 UNL     1       2.392   5.877  10.630  1.00  0.00     0.170 C 
BRANCH  22  23
HETATM   23  N2  UNL     1       2.196   6.708   9.454  1.00  0.00    -0.347 N 
HETATM   24  C11 UNL     1       1.660   7.967   9.429  1.00  0.00     0.109 A 
HETATM   25  C12 UNL     1       1.635   8.315   8.098  1.00  0.00     0.106 A 
HETATM   26  N3  UNL     1       2.134   7.301   7.321  1.00  0.00    -0.361 N 
HETATM   27  C13 UNL     1       2.464   6.347   8.163  1.00  0.00     0.182 A 
ATOM     28  H3  UNL     1       2.228   7.290   6.305  1.00  0.00     0.166 HD
ENDBRANCH  22  23
ENDBRANCH   3  22
TORSDOF 4
ENDMDL
MODEL 7
REMARK minimizedAffinity -8.42450809
REMARK  4 active torsions:
REMARK  status: ('A' for Active; 'I' for Inactive)
REMARK    1  A    between atoms: C4_4  and  C5_5 
REMARK    2  A    between atoms: C7_7  and  N1_8 
REMARK    3  A    between atoms: C9_10  and  C10_11 
REMARK    4  A    between atoms: C10_11  and  N2_12 
ROOT
HETATM    1  N1  UNL     1      -6.334   4.814  13.528  1.00  0.00    -0.300 N 
HETATM    2  C8  UNL     1      -5.091   5.411  13.421  1.00  0.00     0.109 A 
HETATM    3  C9  UNL     1      -4.236   4.599  12.702  1.00  0.00    -0.011 A 
HETATM    4  C14 UNL     1      -4.990   3.445  12.333  1.00  0.00     0.000 A 
HETATM    5  C15 UNL     1      -4.679   2.277  11.601  1.00  0.00     0.014 A 
HETATM    6  C16 UNL     1      -5.656   1.299  11.396  1.00  0.00     0.001 A 
HETATM    7  C17 UNL     1      -6.934   1.465  11.911  1.00  0.00     0.002 A 
HETATM    8  C18 UNL     1      -7.269   2.608  12.643  1.00  0.00     0.031 A 
HETATM    9  C19 UNL     1      -6.285   3.597  12.848  1.00  0.00     0.051 A 
ENDROOT
BRANCH   1  10
HETATM   10  C7  UNL     1      -7.440   5.353  14.200  1.00  0.00     0.179 A 
HETATM   11  C6  UNL     1      -8.411   6.183  13.679  1.00  0.00     0.091 A 
HETATM   12  C5  UNL     1      -9.310   6.446  14.751  1.00  0.00     0.069 A 
HETATM   13  N4  UNL     1      -8.896   5.802  15.853  1.00  0.00    -0.258 N 
HETATM   14  O1  UNL     1      -7.742   5.138  15.512  1.00  0.00    -0.219 OA
ATOM     15  H4  UNL     1      -9.350   5.804  16.767  1.00  0.00     0.195 HD
BRANCH  12  16
HETATM   16  C4  UNL     1     -10.523   7.269  14.746  1.00  0.00    -0.007 A 
HETATM   17  C3  UNL     1     -11.679   6.831  14.079  1.00  0.00     0.014 A 
HETATM   18  C2  UNL     1     -12.838   7.610  14.062  1.00  0.00     0.001 A 
HETATM   19  C1  UNL     1     -12.860   8.839  14.715  1.00  0.00     0.000 A 
HETATM   20  C21 UNL     1     -11.725   9.288  15.387  1.00  0.00     0.001 A 
HETATM   21  C20 UNL     1     -10.564   8.509  15.403  1.00  0.00     0.014 A 
ENDBRANCH  12  16
ENDBRANCH   1  10
BRANCH   3  22
HETATM   22  C10 UNL     1      -2.808   4.883  12.369  1.00  0.00     0.170 C 
BRANCH  22  23
HETATM   23  N2  UNL     1      -2.199   5.753  13.361  1.00  0.00    -0.347 N 
HETATM   24  C11 UNL     1      -1.778   7.041  13.163  1.00  0.00     0.109 A 
HETATM   25  C12 UNL     1      -1.231   7.423  14.366  1.00  0.00     0.106 A 
HETATM   26  N3  UNL     1      -1.305   6.404  15.280  1.00  0.00    -0.361 N 
HETATM   27  C13 UNL     1      -1.892   5.412  14.648  1.00  0.00     0.182 A 
ATOM     28  H3  UNL     1      -0.973   6.413  16.245  1.00  0.00     0.166 HD
ENDBRANCH  22  23
ENDBRANCH   3  22
TORSDOF 4
ENDMDL
MODEL 8
REMARK minimizedAffinity -8.35735989
REMARK  4 active torsions:
REMARK  status: ('A' for Active; 'I' for Inactive)
REMARK    1  A    between atoms: C4_4  and  C5_5 
REMARK    2  A    between atoms: C7_7  and  N1_8 
REMARK    3  A    between atoms: C9_10  and  C10_11 
REMARK    4  A    between atoms: C10_11  and  N2_12 
ROOT
HETATM    1  N1  UNL     1      -7.491   5.216  13.473  1.00  0.00    -0.300 N 
HETATM    2  C8  UNL     1      -7.433   4.076  12.693  1.00  0.00     0.109 A 
HETATM    3  C9  UNL     1      -6.122   3.667  12.548  1.00  0.00    -0.011 A 
HETATM    4  C14 UNL     1      -5.326   4.593  13.286  1.00  0.00     0.000 A 
HETATM    5  C15 UNL     1      -3.938   4.706  13.521  1.00  0.00     0.014 A 
HETATM    6  C16 UNL     1      -3.445   5.748  14.312  1.00  0.00     0.001 A 
HETATM    7  C17 UNL     1      -4.312   6.677  14.869  1.00  0.00     0.002 A 
HETATM    8  C18 UNL     1      -5.690   6.592  14.651  1.00  0.00     0.031 A 
HETATM    9  C19 UNL     1      -6.189   5.541  13.855  1.00  0.00     0.051 A 
ENDROOT
BRANCH   1  10
HETATM   10  C7  UNL     1      -8.660   5.908  13.815  1.00  0.00     0.179 A 
HETATM   11  C6  UNL     1      -9.639   6.372  12.959  1.00  0.00     0.091 A 
HETATM   12  C5  UNL     1     -10.613   6.997  13.788  1.00  0.00     0.069 A 
HETATM   13  N4  UNL     1     -10.234   6.907  15.072  1.00  0.00    -0.258 N 
HETATM   14  O1  UNL     1      -9.030   6.244  15.083  1.00  0.00    -0.219 OA
ATOM     15  H4  UNL     1     -10.742   7.261  15.883  1.00  0.00     0.195 HD
BRANCH  12  16
HETATM   16  C4  UNL     1     -11.863   7.653  13.394  1.00  0.00    -0.007 A 
HETATM   17  C3  UNL     1     -11.872   9.010  13.031  1.00  0.00     0.014 A 
HETATM   18  C2  UNL     1     -13.058   9.647  12.661  1.00  0.00     0.001 A 
HETATM   19  C1  UNL     1     -14.255   8.936  12.646  1.00  0.00     0.000 A 
HETATM   20  C21 UNL     1     -14.265   7.588  12.997  1.00  0.00     0.001 A 
HETATM   21  C20 UNL     1     -13.078   6.950  13.369  1.00  0.00     0.014 A 
ENDBRANCH  12  16
ENDBRANCH   1  10
BRANCH   3  22
HETATM   22  C10 UNL     1      -5.638   2.482  11.778  1.00  0.00     0.170 C 
BRANCH  22  23
HETATM   23  N2  UNL     1      -4.302   2.706  11.250  1.00  0.00    -0.347 N 
HETATM   24  C11 UNL     1      -3.951   3.607  10.282  1.00  0.00     0.109 A 
HETATM   25  C12 UNL     1      -2.603   3.412  10.090  1.00  0.00     0.106 A 
HETATM   26  N3  UNL     1      -2.133   2.417  10.908  1.00  0.00    -0.361 N 
HETATM   27  C13 UNL     1      -3.177   2.010  11.596  1.00  0.00     0.182 A 
ATOM     28  H3  UNL     1      -1.177   2.066  10.969  1.00  0.00     0.166 HD
ENDBRANCH  22  23
ENDBRANCH   3  22
TORSDOF 4
ENDMDL
MODEL 9
REMARK minimizedAffinity -8.25498676
REMARK  4 active torsions:
REMARK  status: ('A' for Active; 'I' for Inactive)
REMARK    1  A    between atoms: C4_4  and  C5_5 
REMARK    2  A    between atoms: C7_7  and  N1_8 
REMARK    3  A    between atoms: C9_10  and  C10_11 
REMARK    4  A    between atoms: C10_11  and  N2_12 
ROOT
HETATM    1  N1  UNL     1      -8.461   5.497  13.263  1.00  0.00    -0.300 N 
HETATM    2  C8  UNL     1      -9.525   5.975  12.520  1.00  0.00     0.109 A 
HETATM    3  C9  UNL     1     -10.205   6.942  13.234  1.00  0.00    -0.011 A 
HETATM    4  C14 UNL     1      -9.520   7.081  14.478  1.00  0.00     0.000 A 
HETATM    5  C15 UNL     1      -9.726   7.899  15.612  1.00  0.00     0.014 A 
HETATM    6  C16 UNL     1      -8.861   7.808  16.706  1.00  0.00     0.001 A 
HETATM    7  C17 UNL     1      -7.798   6.917  16.688  1.00  0.00     0.002 A 
HETATM    8  C18 UNL     1      -7.572   6.093  15.582  1.00  0.00     0.031 A 
HETATM    9  C19 UNL     1      -8.442   6.184  14.477  1.00  0.00     0.051 A 
ENDROOT
BRANCH   1  10
HETATM   10  C7  UNL     1      -7.564   4.501  12.851  1.00  0.00     0.179 A 
HETATM   11  C6  UNL     1      -6.232   4.659  12.528  1.00  0.00     0.091 A 
HETATM   12  C5  UNL     1      -5.763   3.360  12.181  1.00  0.00     0.069 A 
HETATM   13  N4  UNL     1      -6.765   2.475  12.295  1.00  0.00    -0.258 N 
HETATM   14  O1  UNL     1      -7.872   3.182  12.700  1.00  0.00    -0.219 OA
ATOM     15  H4  UNL     1      -6.714   1.472  12.117  1.00  0.00     0.195 HD
BRANCH  12  16
HETATM   16  C4  UNL     1      -4.417   2.956  11.761  1.00  0.00    -0.007 A 
HETATM   17  C3  UNL     1      -4.015   1.613  11.854  1.00  0.00     0.014 A 
HETATM   18  C2  UNL     1      -2.734   1.219  11.463  1.00  0.00     0.001 A 
HETATM   19  C1  UNL     1      -1.835   2.161  10.970  1.00  0.00     0.000 A 
HETATM   20  C21 UNL     1      -2.218   3.496  10.866  1.00  0.00     0.001 A 
HETATM   21  C20 UNL     1      -3.500   3.892  11.258  1.00  0.00     0.014 A 
ENDBRANCH  12  16
ENDBRANCH   1  10
BRANCH   3  22
HETATM   22  C10 UNL     1     -11.412   7.698  12.784  1.00  0.00     0.170 C 
BRANCH  22  23
HETATM   23  N2  UNL     1     -12.631   7.101  13.301  1.00  0.00    -0.347 N 
HETATM   24  C11 UNL     1     -12.716   6.119  14.251  1.00  0.00     0.109 A 
HETATM   25  C12 UNL     1     -14.061   5.853  14.366  1.00  0.00     0.106 A 
HETATM   26  N3  UNL     1     -14.788   6.640  13.510  1.00  0.00    -0.361 N 
HETATM   27  C13 UNL     1     -13.902   7.382  12.883  1.00  0.00     0.182 A 
ATOM     28  H3  UNL     1     -15.800   6.648  13.387  1.00  0.00     0.166 HD
ENDBRANCH  22  23
ENDBRANCH   3  22
TORSDOF 4
ENDMDL
