MODEL 1
REMARK minimizedAffinity -9.49017906
REMARK CNNscore 0.570654035
REMARK CNNaffinity 6.92861032
REMARK  8 active torsions:
REMARK  status: ('A' for Active; 'I' for Inactive)
REMARK    1  A    between atoms: C4_4  and  C5_5 
REMARK    2  A    between atoms: C5_5  and  C6_6 
REMARK    3  A    between atoms: C12_14  and  O3_15 
REMARK    4  A    between atoms: C20_24  and  O5_25 
REMARK    5  A    between atoms: C27_33  and  C28_34 
REMARK    6  A    between atoms: C28_34  and  C29_35 
REMARK    7  A    between atoms: C30_36  and  C32_38 
REMARK    8  A    between atoms: C32_38  and  O8_40 
ROOT
HETATM    1  C6  UNL     1      -8.680  47.089 -34.431  1.00  0.00     0.014 A 
HETATM    2  C7  UNL     1      -9.293  46.793 -35.667  1.00  0.00     0.096 A 
HETATM    3  O1  UNL     1      -8.639  47.198 -36.796  1.00  0.00    -0.333 OA
HETATM    4  C8  UNL     1      -9.258  47.057 -38.083  1.00  0.00     0.126 C 
HETATM    5  C9  UNL     1     -10.126  45.792 -38.163  1.00  0.00     0.129 C 
HETATM    6  C10 UNL     1     -11.043  45.671 -36.976  1.00  0.00     0.174 C 
HETATM    7  O2  UNL     1     -12.146  45.130 -37.036  1.00  0.00    -0.292 OA
HETATM    8  C11 UNL     1     -10.514  46.121 -35.683  1.00  0.00     0.078 A 
HETATM    9  C12 UNL     1     -11.185  45.821 -34.487  1.00  0.00     0.095 A 
HETATM   10  C13 UNL     1     -10.618  46.165 -33.254  1.00  0.00     0.032 A 
HETATM   11  C14 UNL     1      -9.362  46.786 -33.231  1.00  0.00     0.092 A 
HETATM   12  O4  UNL     1      -8.722  47.122 -32.069  1.00  0.00    -0.335 OA
HETATM   13  C15 UNL     1      -9.338  46.850 -30.795  1.00  0.00     0.078 A 
HETATM   14  C16 UNL     1      -8.365  45.945 -30.030  1.00  0.00     0.051 C 
HETATM   15  C17 UNL     1      -9.462  48.198 -30.074  1.00  0.00     0.051 C 
HETATM   16  C18 UNL     1     -10.691  46.192 -30.852  1.00  0.00     0.012 A 
HETATM   17  C19 UNL     1     -11.296  45.869 -31.998  1.00  0.00     0.016 A 
HETATM   18  C20 UNL     1     -10.855  45.704 -39.512  1.00  0.00     0.144 C 
HETATM   19  C21 UNL     1     -10.128  46.586 -40.529  1.00  0.00     0.089 C 
HETATM   20  C22 UNL     1      -8.617  46.348 -40.426  1.00  0.00     0.025 C 
HETATM   21  C23 UNL     1      -8.073  46.972 -39.110  1.00  0.00     0.060 C 
HETATM   22  C24 UNL     1      -7.625  48.467 -39.234  1.00  0.00     0.062 C 
HETATM   23  C25 UNL     1      -6.497  48.820 -38.254  1.00  0.00     0.046 C 
HETATM   24  C26 UNL     1      -7.169  48.924 -40.625  1.00  0.00     0.046 C 
HETATM   25  O6  UNL     1      -8.783  49.254 -38.872  1.00  0.00    -0.358 OA
HETATM   26  C27 UNL     1      -9.900  48.353 -38.665  1.00  0.00     0.158 C 
HETATM   27  C33 UNL     1     -10.386  48.022 -40.106  1.00  0.00     0.171 C 
HETATM   28  O9  UNL     1     -10.841  48.850 -40.893  1.00  0.00    -0.294 OA
ENDROOT
BRANCH  26  29
HETATM   29  C28 UNL     1     -11.042  49.050 -37.908  1.00  0.00     0.077 C 
BRANCH  29  30
HETATM   30  C29 UNL     1     -12.340  48.290 -37.784  1.00  0.00    -0.010 C 
HETATM   31  C30 UNL     1     -13.490  48.522 -38.447  1.00  0.00     0.008 C 
HETATM   32  C31 UNL     1     -14.717  47.679 -38.274  1.00  0.00     0.055 C 
BRANCH  31  33
HETATM   33  C32 UNL     1     -13.613  49.626 -39.421  1.00  0.00     0.171 C 
HETATM   34  O7  UNL     1     -13.982  49.541 -40.577  1.00  0.00    -0.646 OA
BRANCH  33  35
HETATM   35  O8  UNL     1     -13.279  50.801 -38.865  1.00  0.00    -0.773 OA
HETATM   36  H38 UNL     1     -13.344  51.429 -39.614  1.00  0.00     0.167 HD
ENDBRANCH  33  35
ENDBRANCH  31  33
ENDBRANCH  29  30
ENDBRANCH  26  29
BRANCH  18  37
HETATM   37  O5  UNL     1     -12.210  46.130 -39.451  1.00  0.00    -0.394 OA
HETATM   38  H21 UNL     1     -12.686  45.551 -38.815  1.00  0.00     0.210 HD
ENDBRANCH  18  37
BRANCH   1  39
HETATM   39  C5  UNL     1      -7.293  47.705 -34.376  1.00  0.00     0.072 C 
BRANCH  39  40
HETATM   40  C4  UNL     1      -6.349  46.989 -33.450  1.00  0.00    -0.020 C 
HETATM   41  C2  UNL     1      -5.024  47.181 -33.295  1.00  0.00    -0.091 C 
HETATM   42  C1  UNL     1      -4.182  48.147 -34.083  1.00  0.00     0.042 C 
HETATM   43  C3  UNL     1      -4.254  46.407 -32.256  1.00  0.00     0.042 C 
ENDBRANCH  39  40
ENDBRANCH   1  39
BRANCH   9  44
HETATM   44  O3  UNL     1     -12.397  45.173 -34.484  1.00  0.00    -0.359 OA
HETATM   45  H11 UNL     1     -12.674  45.003 -35.411  1.00  0.00     0.217 HD
ENDBRANCH   9  44
TORSDOF 8
ENDMDL
MODEL 2
REMARK minimizedAffinity -10.3105803
REMARK CNNscore 0.548025608
REMARK CNNaffinity 7.4326005
REMARK  8 active torsions:
REMARK  status: ('A' for Active; 'I' for Inactive)
REMARK    1  A    between atoms: C4_4  and  C5_5 
REMARK    2  A    between atoms: C5_5  and  C6_6 
REMARK    3  A    between atoms: C12_14  and  O3_15 
REMARK    4  A    between atoms: C20_24  and  O5_25 
REMARK    5  A    between atoms: C27_33  and  C28_34 
REMARK    6  A    between atoms: C28_34  and  C29_35 
REMARK    7  A    between atoms: C30_36  and  C32_38 
REMARK    8  A    between atoms: C32_38  and  O8_40 
ROOT
HETATM    1  C6  UNL     1      -1.348  50.342 -23.984  1.00  0.00     0.014 A 
HETATM    2  C7  UNL     1      -1.183  50.408 -22.585  1.00  0.00     0.096 A 
HETATM    3  O1  UNL     1      -1.752  49.409 -21.847  1.00  0.00    -0.333 OA
HETATM    4  C8  UNL     1      -1.747  49.473 -20.413  1.00  0.00     0.126 C 
HETATM    5  C9  UNL     1      -0.468  50.133 -19.876  1.00  0.00     0.129 C 
HETATM    6  C10 UNL     1      -0.162  51.420 -20.592  1.00  0.00     0.174 C 
HETATM    7  O2  UNL     1       0.412  52.365 -20.054  1.00  0.00    -0.292 OA
HETATM    8  C11 UNL     1      -0.469  51.467 -22.027  1.00  0.00     0.078 A 
HETATM    9  C12 UNL     1       0.004  52.516 -22.831  1.00  0.00     0.095 A 
HETATM   10  C13 UNL     1      -0.206  52.497 -24.215  1.00  0.00     0.032 A 
HETATM   11  C14 UNL     1      -0.870  51.404 -24.787  1.00  0.00     0.092 A 
HETATM   12  O4  UNL     1      -1.085  51.289 -26.134  1.00  0.00    -0.335 OA
HETATM   13  C15 UNL     1      -0.632  52.320 -27.033  1.00  0.00     0.078 A 
HETATM   14  C16 UNL     1       0.321  51.640 -28.023  1.00  0.00     0.051 C 
HETATM   15  C17 UNL     1      -1.873  52.825 -27.778  1.00  0.00     0.051 C 
HETATM   16  C18 UNL     1       0.068  53.486 -26.387  1.00  0.00     0.012 A 
HETATM   17  C19 UNL     1       0.271  53.576 -25.071  1.00  0.00     0.016 A 
HETATM   18  C20 UNL     1      -0.518  50.279 -18.347  1.00  0.00     0.144 C 
HETATM   19  C21 UNL     1      -1.549  49.297 -17.788  1.00  0.00     0.089 C 
HETATM   20  C22 UNL     1      -1.361  47.926 -18.448  1.00  0.00     0.025 C 
HETATM   21  C23 UNL     1      -1.838  47.983 -19.927  1.00  0.00     0.060 C 
HETATM   22  C24 UNL     1      -3.355  47.652 -20.136  1.00  0.00     0.062 C 
HETATM   23  C25 UNL     1      -3.629  47.020 -21.508  1.00  0.00     0.046 C 
HETATM   24  C26 UNL     1      -3.999  46.739 -19.085  1.00  0.00     0.046 C 
HETATM   25  O6  UNL     1      -4.042  48.923 -20.094  1.00  0.00    -0.358 OA
HETATM   26  C27 UNL     1      -3.078  49.953 -19.758  1.00  0.00     0.158 C 
HETATM   27  C33 UNL     1      -2.909  49.819 -18.217  1.00  0.00     0.171 C 
HETATM   28  O9  UNL     1      -3.810  50.008 -17.401  1.00  0.00    -0.294 OA
ENDROOT
BRANCH  26  29
HETATM   29  C28 UNL     1      -3.628  51.352 -20.074  1.00  0.00     0.077 C 
BRANCH  29  30
HETATM   30  C29 UNL     1      -3.790  51.707 -21.532  1.00  0.00    -0.010 C 
HETATM   31  C30 UNL     1      -4.760  51.294 -22.372  1.00  0.00     0.008 C 
HETATM   32  C31 UNL     1      -4.849  51.738 -23.800  1.00  0.00     0.055 C 
BRANCH  31  33
HETATM   33  C32 UNL     1      -5.830  50.378 -21.926  1.00  0.00     0.171 C 
HETATM   34  O7  UNL     1      -6.164  49.334 -22.456  1.00  0.00    -0.646 OA
BRANCH  33  35
HETATM   35  O8  UNL     1      -6.414  50.824 -20.803  1.00  0.00    -0.773 OA
HETATM   36  H38 UNL     1      -7.129  50.172 -20.650  1.00  0.00     0.167 HD
ENDBRANCH  33  35
ENDBRANCH  31  33
ENDBRANCH  29  30
ENDBRANCH  26  29
BRANCH  18  37
HETATM   37  O5  UNL     1      -0.877  51.585 -17.917  1.00  0.00    -0.394 OA
HETATM   38  H21 UNL     1      -0.205  52.217 -18.256  1.00  0.00     0.210 HD
ENDBRANCH  18  37
BRANCH   1  39
HETATM   39  C5  UNL     1      -2.009  49.141 -24.637  1.00  0.00     0.072 C 
BRANCH  39  40
HETATM   40  C4  UNL     1      -2.449  49.387 -26.054  1.00  0.00    -0.020 C 
HETATM   41  C2  UNL     1      -3.613  49.046 -26.639  1.00  0.00    -0.091 C 
HETATM   42  C1  UNL     1      -4.727  48.274 -25.985  1.00  0.00     0.042 C 
HETATM   43  C3  UNL     1      -3.902  49.445 -28.063  1.00  0.00     0.042 C 
ENDBRANCH  39  40
ENDBRANCH   1  39
BRANCH   9  44
HETATM   44  O3  UNL     1       0.697  53.577 -22.296  1.00  0.00    -0.359 OA
HETATM   45  H11 UNL     1       0.761  53.462 -21.323  1.00  0.00     0.217 HD
ENDBRANCH   9  44
TORSDOF 8
ENDMDL
MODEL 3
REMARK minimizedAffinity -8.81386089
REMARK CNNscore 0.508801103
REMARK CNNaffinity 6.93536806
REMARK  8 active torsions:
REMARK  status: ('A' for Active; 'I' for Inactive)
REMARK    1  A    between atoms: C4_4  and  C5_5 
REMARK    2  A    between atoms: C5_5  and  C6_6 
REMARK    3  A    between atoms: C12_14  and  O3_15 
REMARK    4  A    between atoms: C20_24  and  O5_25 
REMARK    5  A    between atoms: C27_33  and  C28_34 
REMARK    6  A    between atoms: C28_34  and  C29_35 
REMARK    7  A    between atoms: C30_36  and  C32_38 
REMARK    8  A    between atoms: C32_38  and  O8_40 
ROOT
HETATM    1  C6  UNL     1     -11.399  44.516 -29.674  1.00  0.00     0.014 A 
HETATM    2  C7  UNL     1     -10.510  45.508 -30.136  1.00  0.00     0.096 A 
HETATM    3  O1  UNL     1      -9.389  45.080 -30.790  1.00  0.00    -0.333 OA
HETATM    4  C8  UNL     1      -8.369  46.015 -31.171  1.00  0.00     0.126 C 
HETATM    5  C9  UNL     1      -8.962  47.377 -31.564  1.00  0.00     0.129 C 
HETATM    6  C10 UNL     1      -9.955  47.866 -30.546  1.00  0.00     0.174 C 
HETATM    7  O2  UNL     1     -10.145  49.060 -30.316  1.00  0.00    -0.292 OA
HETATM    8  C11 UNL     1     -10.801  46.851 -29.906  1.00  0.00     0.078 A 
HETATM    9  C12 UNL     1     -11.916  47.223 -29.139  1.00  0.00     0.095 A 
HETATM   10  C13 UNL     1     -12.775  46.246 -28.620  1.00  0.00     0.032 A 
HETATM   11  C14 UNL     1     -12.519  44.898 -28.901  1.00  0.00     0.092 A 
HETATM   12  O4  UNL     1     -13.328  43.883 -28.463  1.00  0.00    -0.335 OA
HETATM   13  C15 UNL     1     -14.495  44.174 -27.670  1.00  0.00     0.078 A 
HETATM   14  C16 UNL     1     -15.692  43.606 -28.441  1.00  0.00     0.051 C 
HETATM   15  C17 UNL     1     -14.325  43.414 -26.349  1.00  0.00     0.051 C 
HETATM   16  C18 UNL     1     -14.737  45.632 -27.377  1.00  0.00     0.012 A 
HETATM   17  C19 UNL     1     -13.938  46.606 -27.818  1.00  0.00     0.016 A 
HETATM   18  C20 UNL     1      -7.855  48.394 -31.879  1.00  0.00     0.144 C 
HETATM   19  C21 UNL     1      -6.564  47.640 -32.202  1.00  0.00     0.089 C 
HETATM   20  C22 UNL     1      -6.872  46.481 -33.157  1.00  0.00     0.025 C 
HETATM   21  C23 UNL     1      -7.641  45.361 -32.399  1.00  0.00     0.060 C 
HETATM   22  C24 UNL     1      -6.725  44.290 -31.716  1.00  0.00     0.062 C 
HETATM   23  C25 UNL     1      -7.402  42.915 -31.631  1.00  0.00     0.046 C 
HETATM   24  C26 UNL     1      -5.347  44.073 -32.355  1.00  0.00     0.046 C 
HETATM   25  O6  UNL     1      -6.513  44.759 -30.365  1.00  0.00    -0.358 OA
HETATM   26  C27 UNL     1      -7.123  46.068 -30.235  1.00  0.00     0.158 C 
HETATM   27  C33 UNL     1      -6.091  47.029 -30.894  1.00  0.00     0.171 C 
HETATM   28  O9  UNL     1      -4.949  47.214 -30.475  1.00  0.00    -0.294 OA
ENDROOT
BRANCH  26  29
HETATM   29  C28 UNL     1      -7.288  46.459 -28.759  1.00  0.00     0.077 C 
BRANCH  29  30
HETATM   30  C29 UNL     1      -6.139  47.199 -28.117  1.00  0.00    -0.010 C 
HETATM   31  C30 UNL     1      -6.079  47.686 -26.862  1.00  0.00     0.008 C 
HETATM   32  C31 UNL     1      -4.870  48.377 -26.310  1.00  0.00     0.055 C 
BRANCH  31  33
HETATM   33  C32 UNL     1      -7.212  47.549 -25.924  1.00  0.00     0.171 C 
HETATM   34  O7  UNL     1      -7.480  46.579 -25.240  1.00  0.00    -0.646 OA
BRANCH  33  35
HETATM   35  O8  UNL     1      -7.945  48.673 -25.883  1.00  0.00    -0.773 OA
HETATM   36  H38 UNL     1      -8.683  48.436 -25.282  1.00  0.00     0.167 HD
ENDBRANCH  33  35
ENDBRANCH  31  33
ENDBRANCH  29  30
ENDBRANCH  26  29
BRANCH  18  37
HETATM   37  O5  UNL     1      -7.586  49.286 -30.806  1.00  0.00    -0.394 OA
HETATM   38  H21 UNL     1      -8.408  49.789 -30.610  1.00  0.00     0.210 HD
ENDBRANCH  18  37
BRANCH   1  39
HETATM   39  C5  UNL     1     -11.181  43.052 -30.014  1.00  0.00     0.072 C 
BRANCH  39  40
HETATM   40  C4  UNL     1     -12.006  42.107 -29.184  1.00  0.00    -0.020 C 
HETATM   41  C2  UNL     1     -12.170  40.780 -29.344  1.00  0.00    -0.091 C 
HETATM   42  C1  UNL     1     -11.583  39.953 -30.455  1.00  0.00     0.042 C 
HETATM   43  C3  UNL     1     -12.988  39.985 -28.359  1.00  0.00     0.042 C 
ENDBRANCH  39  40
ENDBRANCH   1  39
BRANCH   9  44
HETATM   44  O3  UNL     1     -12.211  48.543 -28.888  1.00  0.00    -0.359 OA
HETATM   45  H11 UNL     1     -11.525  49.111 -29.303  1.00  0.00     0.217 HD
ENDBRANCH   9  44
TORSDOF 8
ENDMDL
MODEL 4
REMARK minimizedAffinity -7.34852648
REMARK CNNscore 0.412971139
REMARK CNNaffinity 6.27658844
REMARK  8 active torsions:
REMARK  status: ('A' for Active; 'I' for Inactive)
REMARK    1  A    between atoms: C4_4  and  C5_5 
REMARK    2  A    between atoms: C5_5  and  C6_6 
REMARK    3  A    between atoms: C12_14  and  O3_15 
REMARK    4  A    between atoms: C20_24  and  O5_25 
REMARK    5  A    between atoms: C27_33  and  C28_34 
REMARK    6  A    between atoms: C28_34  and  C29_35 
REMARK    7  A    between atoms: C30_36  and  C32_38 
REMARK    8  A    between atoms: C32_38  and  O8_40 
ROOT
HETATM    1  C6  UNL     1     -14.048  46.020 -26.570  1.00  0.00     0.014 A 
HETATM    2  C7  UNL     1     -12.654  46.230 -26.507  1.00  0.00     0.096 A 
HETATM    3  O1  UNL     1     -11.940  45.987 -27.647  1.00  0.00    -0.333 OA
HETATM    4  C8  UNL     1     -10.506  46.045 -27.630  1.00  0.00     0.126 C 
HETATM    5  C9  UNL     1      -9.989  47.125 -26.668  1.00  0.00     0.129 C 
HETATM    6  C10 UNL     1     -10.659  47.039 -25.324  1.00  0.00     0.174 C 
HETATM    7  O2  UNL     1     -10.102  47.365 -24.276  1.00  0.00    -0.292 OA
HETATM    8  C11 UNL     1     -12.077  46.660 -25.314  1.00  0.00     0.078 A 
HETATM    9  C12 UNL     1     -12.851  46.795 -24.151  1.00  0.00     0.095 A 
HETATM   10  C13 UNL     1     -14.225  46.530 -24.181  1.00  0.00     0.032 A 
HETATM   11  C14 UNL     1     -14.820  46.156 -25.393  1.00  0.00     0.092 A 
HETATM   12  O4  UNL     1     -16.161  45.914 -25.518  1.00  0.00    -0.335 OA
HETATM   13  C15 UNL     1     -17.030  46.029 -24.374  1.00  0.00     0.078 A 
HETATM   14  C16 UNL     1     -18.086  47.079 -24.740  1.00  0.00     0.051 C 
HETATM   15  C17 UNL     1     -17.703  44.663 -24.198  1.00  0.00     0.051 C 
HETATM   16  C18 UNL     1     -16.360  46.422 -23.084  1.00  0.00     0.012 A 
HETATM   17  C19 UNL     1     -15.050  46.658 -22.986  1.00  0.00     0.016 A 
HETATM   18  C20 UNL     1      -8.455  47.113 -26.590  1.00  0.00     0.144 C 
HETATM   19  C21 UNL     1      -7.900  46.412 -27.832  1.00  0.00     0.089 C 
HETATM   20  C22 UNL     1      -8.628  46.927 -29.079  1.00  0.00     0.025 C 
HETATM   21  C23 UNL     1     -10.084  46.380 -29.105  1.00  0.00     0.060 C 
HETATM   22  C24 UNL     1     -10.248  44.999 -29.825  1.00  0.00     0.062 C 
HETATM   23  C25 UNL     1     -11.635  44.837 -30.463  1.00  0.00     0.046 C 
HETATM   24  C26 UNL     1      -9.215  44.676 -30.912  1.00  0.00     0.046 C 
HETATM   25  O6  UNL     1     -10.123  43.999 -28.789  1.00  0.00    -0.358 OA
HETATM   26  C27 UNL     1      -9.779  44.667 -27.549  1.00  0.00     0.158 C 
HETATM   27  C33 UNL     1      -8.253  44.942 -27.682  1.00  0.00     0.171 C 
HETATM   28  O9  UNL     1      -7.395  44.065 -27.770  1.00  0.00    -0.294 OA
ENDROOT
BRANCH  26  29
HETATM   29  C28 UNL     1     -10.010  43.748 -26.340  1.00  0.00     0.077 C 
BRANCH  29  30
HETATM   30  C29 UNL     1      -8.952  43.758 -25.263  1.00  0.00    -0.010 C 
HETATM   31  C30 UNL     1      -8.421  42.693 -24.629  1.00  0.00     0.008 C 
HETATM   32  C31 UNL     1      -7.343  42.813 -23.595  1.00  0.00     0.055 C 
BRANCH  31  33
HETATM   33  C32 UNL     1      -8.859  41.315 -24.931  1.00  0.00     0.171 C 
HETATM   34  O7  UNL     1      -9.953  40.969 -25.335  1.00  0.00    -0.646 OA
BRANCH  33  35
HETATM   35  O8  UNL     1      -7.866  40.436 -24.724  1.00  0.00    -0.773 OA
HETATM   36  H38 UNL     1      -8.294  39.572 -24.900  1.00  0.00     0.167 HD
ENDBRANCH  33  35
ENDBRANCH  31  33
ENDBRANCH  29  30
ENDBRANCH  26  29
BRANCH  18  37
HETATM   37  O5  UNL     1      -7.953  46.438 -25.444  1.00  0.00    -0.394 OA
HETATM   38  H21 UNL     1      -8.290  46.900 -24.644  1.00  0.00     0.210 HD
ENDBRANCH  18  37
BRANCH   1  39
HETATM   39  C5  UNL     1     -14.727  45.674 -27.883  1.00  0.00     0.072 C 
BRANCH  39  40
HETATM   40  C4  UNL     1     -14.932  44.198 -28.088  1.00  0.00    -0.020 C 
HETATM   41  C2  UNL     1     -16.092  43.518 -28.162  1.00  0.00    -0.091 C 
HETATM   42  C1  UNL     1     -17.465  44.109 -27.994  1.00  0.00     0.042 C 
HETATM   43  C3  UNL     1     -16.096  42.038 -28.445  1.00  0.00     0.042 C 
ENDBRANCH  39  40
ENDBRANCH   1  39
BRANCH   9  44
HETATM   44  O3  UNL     1     -12.297  47.204 -22.960  1.00  0.00    -0.359 OA
HETATM   45  H11 UNL     1     -11.333  47.345 -23.085  1.00  0.00     0.217 HD
ENDBRANCH   9  44
TORSDOF 8
ENDMDL
MODEL 5
REMARK minimizedAffinity -7.05487871
REMARK CNNscore 0.358403146
REMARK CNNaffinity 6.40703583
REMARK  8 active torsions:
REMARK  status: ('A' for Active; 'I' for Inactive)
REMARK    1  A    between atoms: C4_4  and  C5_5 
REMARK    2  A    between atoms: C5_5  and  C6_6 
REMARK    3  A    between atoms: C12_14  and  O3_15 
REMARK    4  A    between atoms: C20_24  and  O5_25 
REMARK    5  A    between atoms: C27_33  and  C28_34 
REMARK    6  A    between atoms: C28_34  and  C29_35 
REMARK    7  A    between atoms: C30_36  and  C32_38 
REMARK    8  A    between atoms: C32_38  and  O8_40 
ROOT
HETATM    1  C6  UNL     1     -11.119  43.604 -29.222  1.00  0.00     0.014 A 
HETATM    2  C7  UNL     1     -10.580  44.869 -29.536  1.00  0.00     0.096 A 
HETATM    3  O1  UNL     1      -9.402  44.885 -30.228  1.00  0.00    -0.333 OA
HETATM    4  C8  UNL     1      -8.718  46.124 -30.468  1.00  0.00     0.126 C 
HETATM    5  C9  UNL     1      -9.700  47.286 -30.683  1.00  0.00     0.129 C 
HETATM    6  C10 UNL     1     -10.765  47.317 -29.620  1.00  0.00     0.174 C 
HETATM    7  O2  UNL     1     -11.295  48.358 -29.236  1.00  0.00    -0.292 OA
HETATM    8  C11 UNL     1     -11.251  46.021 -29.132  1.00  0.00     0.078 A 
HETATM    9  C12 UNL     1     -12.404  45.939 -28.336  1.00  0.00     0.095 A 
HETATM   10  C13 UNL     1     -12.918  44.690 -27.964  1.00  0.00     0.032 A 
HETATM   11  C14 UNL     1     -12.280  43.529 -28.419  1.00  0.00     0.092 A 
HETATM   12  O4  UNL     1     -12.737  42.271 -28.131  1.00  0.00    -0.335 OA
HETATM   13  C15 UNL     1     -13.915  42.093 -27.320  1.00  0.00     0.078 A 
HETATM   14  C16 UNL     1     -14.909  41.299 -28.175  1.00  0.00     0.051 C 
HETATM   15  C17 UNL     1     -13.489  41.252 -26.111  1.00  0.00     0.051 C 
HETATM   16  C18 UNL     1     -14.572  43.359 -26.838  1.00  0.00     0.012 A 
HETATM   17  C19 UNL     1     -14.112  44.577 -27.134  1.00  0.00     0.016 A 
HETATM   18  C20 UNL     1      -8.956  48.619 -30.845  1.00  0.00     0.144 C 
HETATM   19  C21 UNL     1      -7.509  48.335 -31.251  1.00  0.00     0.089 C 
HETATM   20  C22 UNL     1      -7.485  47.273 -32.356  1.00  0.00     0.025 C 
HETATM   21  C23 UNL     1      -7.863  45.885 -31.764  1.00  0.00     0.060 C 
HETATM   22  C24 UNL     1      -6.650  45.057 -31.219  1.00  0.00     0.062 C 
HETATM   23  C25 UNL     1      -6.884  43.544 -31.327  1.00  0.00     0.046 C 
HETATM   24  C26 UNL     1      -5.289  45.347 -31.864  1.00  0.00     0.046 C 
HETATM   25  O6  UNL     1      -6.549  45.386 -29.815  1.00  0.00    -0.358 OA
HETATM   26  C27 UNL     1      -7.518  46.424 -29.519  1.00  0.00     0.158 C 
HETATM   27  C33 UNL     1      -6.839  47.727 -30.030  1.00  0.00     0.171 C 
HETATM   28  O9  UNL     1      -5.792  48.189 -29.577  1.00  0.00    -0.294 OA
ENDROOT
BRANCH  26  29
HETATM   29  C28 UNL     1      -7.750  46.550 -28.005  1.00  0.00     0.077 C 
BRANCH  29  30
HETATM   30  C29 UNL     1      -8.326  47.855 -27.511  1.00  0.00    -0.010 C 
HETATM   31  C30 UNL     1      -8.983  48.073 -26.354  1.00  0.00     0.008 C 
HETATM   32  C31 UNL     1      -9.485  49.423 -25.941  1.00  0.00     0.055 C 
BRANCH  31  33
HETATM   33  C32 UNL     1      -9.237  46.981 -25.392  1.00  0.00     0.171 C 
HETATM   34  O7  UNL     1      -8.483  46.586 -24.522  1.00  0.00    -0.646 OA
BRANCH  33  35
HETATM   35  O8  UNL     1     -10.459  46.455 -25.567  1.00  0.00    -0.773 OA
HETATM   36  H38 UNL     1     -10.480  45.719 -24.921  1.00  0.00     0.167 HD
ENDBRANCH  33  35
ENDBRANCH  31  33
ENDBRANCH  29  30
ENDBRANCH  26  29
BRANCH  18  37
HETATM   37  O5  UNL     1      -8.935  49.402 -29.659  1.00  0.00    -0.394 OA
HETATM   38  H21 UNL     1      -9.863  49.606 -29.409  1.00  0.00     0.210 HD
ENDBRANCH  18  37
BRANCH   1  39
HETATM   39  C5  UNL     1     -10.485  42.331 -29.753  1.00  0.00     0.072 C 
BRANCH  39  40
HETATM   40  C4  UNL     1     -10.927  41.968 -31.144  1.00  0.00    -0.020 C 
HETATM   41  C2  UNL     1     -10.333  41.134 -32.019  1.00  0.00    -0.091 C 
HETATM   42  C1  UNL     1      -9.033  40.411 -31.794  1.00  0.00     0.042 C 
HETATM   43  C3  UNL     1     -10.971  40.840 -33.352  1.00  0.00     0.042 C 
ENDBRANCH  39  40
ENDBRANCH   1  39
BRANCH   9  44
HETATM   44  O3  UNL     1     -13.072  47.065 -27.915  1.00  0.00    -0.359 OA
HETATM   45  H11 UNL     1     -12.599  47.861 -28.242  1.00  0.00     0.217 HD
ENDBRANCH   9  44
TORSDOF 8
ENDMDL
MODEL 6
REMARK minimizedAffinity -7.54993773
REMARK CNNscore 0.300783038
REMARK CNNaffinity 6.43616629
REMARK  8 active torsions:
REMARK  status: ('A' for Active; 'I' for Inactive)
REMARK    1  A    between atoms: C4_4  and  C5_5 
REMARK    2  A    between atoms: C5_5  and  C6_6 
REMARK    3  A    between atoms: C12_14  and  O3_15 
REMARK    4  A    between atoms: C20_24  and  O5_25 
REMARK    5  A    between atoms: C27_33  and  C28_34 
REMARK    6  A    between atoms: C28_34  and  C29_35 
REMARK    7  A    between atoms: C30_36  and  C32_38 
REMARK    8  A    between atoms: C32_38  and  O8_40 
ROOT
HETATM    1  C6  UNL     1     -13.303  44.155 -27.304  1.00  0.00     0.014 A 
HETATM    2  C7  UNL     1     -12.597  44.913 -28.261  1.00  0.00     0.096 A 
HETATM    3  O1  UNL     1     -12.019  44.225 -29.291  1.00  0.00    -0.333 OA
HETATM    4  C8  UNL     1     -11.171  44.903 -30.230  1.00  0.00     0.126 C 
HETATM    5  C9  UNL     1     -11.645  46.340 -30.494  1.00  0.00     0.129 C 
HETATM    6  C10 UNL     1     -11.928  47.077 -29.213  1.00  0.00     0.174 C 
HETATM    7  O2  UNL     1     -11.783  48.292 -29.095  1.00  0.00    -0.292 OA
HETATM    8  C11 UNL     1     -12.514  46.296 -28.117  1.00  0.00     0.078 A 
HETATM    9  C12 UNL     1     -13.043  46.933 -26.983  1.00  0.00     0.095 A 
HETATM   10  C13 UNL     1     -13.693  46.186 -25.993  1.00  0.00     0.032 A 
HETATM   11  C14 UNL     1     -13.831  44.803 -26.164  1.00  0.00     0.092 A 
HETATM   12  O4  UNL     1     -14.483  44.005 -25.262  1.00  0.00    -0.335 OA
HETATM   13  C15 UNL     1     -15.057  44.575 -24.070  1.00  0.00     0.078 A 
HETATM   14  C16 UNL     1     -16.553  44.240 -24.109  1.00  0.00     0.051 C 
HETATM   15  C17 UNL     1     -14.400  43.858 -22.884  1.00  0.00     0.051 C 
HETATM   16  C18 UNL     1     -14.883  46.062 -23.909  1.00  0.00     0.012 A 
HETATM   17  C19 UNL     1     -14.247  46.822 -24.803  1.00  0.00     0.016 A 
HETATM   18  C20 UNL     1     -10.677  47.082 -31.427  1.00  0.00     0.144 C 
HETATM   19  C21 UNL     1      -9.846  46.056 -32.200  1.00  0.00     0.089 C 
HETATM   20  C22 UNL     1     -10.764  44.946 -32.727  1.00  0.00     0.025 C 
HETATM   21  C23 UNL     1     -11.244  44.053 -31.549  1.00  0.00     0.060 C 
HETATM   22  C24 UNL     1     -10.304  42.844 -31.223  1.00  0.00     0.062 C 
HETATM   23  C25 UNL     1     -11.073  41.650 -30.639  1.00  0.00     0.046 C 
HETATM   24  C26 UNL     1      -9.462  42.308 -32.388  1.00  0.00     0.046 C 
HETATM   25  O6  UNL     1      -9.392  43.318 -30.206  1.00  0.00    -0.358 OA
HETATM   26  C27 UNL     1      -9.638  44.732 -29.997  1.00  0.00     0.158 C 
HETATM   27  C33 UNL     1      -8.910  45.420 -31.187  1.00  0.00     0.171 C 
HETATM   28  O9  UNL     1      -7.695  45.376 -31.376  1.00  0.00    -0.294 OA
ENDROOT
BRANCH  26  29
HETATM   29  C28 UNL     1      -9.004  45.217 -28.684  1.00  0.00     0.077 C 
BRANCH  29  30
HETATM   30  C29 UNL     1      -7.700  45.969 -28.795  1.00  0.00    -0.010 C 
HETATM   31  C30 UNL     1      -7.401  47.170 -28.261  1.00  0.00     0.008 C 
HETATM   32  C31 UNL     1      -6.055  47.814 -28.402  1.00  0.00     0.055 C 
BRANCH  31  33
HETATM   33  C32 UNL     1      -8.388  47.933 -27.471  1.00  0.00     0.171 C 
HETATM   34  O7  UNL     1      -8.708  47.734 -26.314  1.00  0.00    -0.646 OA
BRANCH  33  35
HETATM   35  O8  UNL     1      -8.910  48.940 -28.190  1.00  0.00    -0.773 OA
HETATM   36  H38 UNL     1      -9.579  49.323 -27.585  1.00  0.00     0.167 HD
ENDBRANCH  33  35
ENDBRANCH  31  33
ENDBRANCH  29  30
ENDBRANCH  26  29
BRANCH  18  37
HETATM   37  O5  UNL     1      -9.781  47.945 -30.740  1.00  0.00    -0.394 OA
HETATM   38  H21 UNL     1     -10.310  48.620 -30.260  1.00  0.00     0.210 HD
ENDBRANCH  18  37
BRANCH   1  39
HETATM   39  C5  UNL     1     -13.522  42.664 -27.495  1.00  0.00     0.072 C 
BRANCH  39  40
HETATM   40  C4  UNL     1     -14.941  42.299 -27.832  1.00  0.00    -0.020 C 
HETATM   41  C2  UNL     1     -15.901  43.080 -28.365  1.00  0.00    -0.091 C 
HETATM   42  C1  UNL     1     -15.758  44.541 -28.693  1.00  0.00     0.042 C 
HETATM   43  C3  UNL     1     -17.255  42.510 -28.699  1.00  0.00     0.042 C 
ENDBRANCH  39  40
ENDBRANCH   1  39
BRANCH   9  44
HETATM   44  O3  UNL     1     -12.958  48.295 -26.815  1.00  0.00    -0.359 OA
HETATM   45  H11 UNL     1     -12.474  48.683 -27.577  1.00  0.00     0.217 HD
ENDBRANCH   9  44
TORSDOF 8
ENDMDL
MODEL 7
REMARK minimizedAffinity -7.27514267
REMARK CNNscore 0.278912842
REMARK CNNaffinity 5.84455252
REMARK  8 active torsions:
REMARK  status: ('A' for Active; 'I' for Inactive)
REMARK    1  A    between atoms: C4_4  and  C5_5 
REMARK    2  A    between atoms: C5_5  and  C6_6 
REMARK    3  A    between atoms: C12_14  and  O3_15 
REMARK    4  A    between atoms: C20_24  and  O5_25 
REMARK    5  A    between atoms: C27_33  and  C28_34 
REMARK    6  A    between atoms: C28_34  and  C29_35 
REMARK    7  A    between atoms: C30_36  and  C32_38 
REMARK    8  A    between atoms: C32_38  and  O8_40 
ROOT
HETATM    1  C6  UNL     1       4.160  57.342  -6.839  1.00  0.00     0.014 A 
HETATM    2  C7  UNL     1       5.101  57.292  -5.788  1.00  0.00     0.096 A 
HETATM    3  O1  UNL     1       4.911  58.156  -4.746  1.00  0.00    -0.333 OA
HETATM    4  C8  UNL     1       5.893  58.263  -3.706  1.00  0.00     0.126 C 
HETATM    5  C9  UNL     1       6.568  56.914  -3.415  1.00  0.00     0.129 C 
HETATM    6  C10 UNL     1       7.021  56.235  -4.679  1.00  0.00     0.174 C 
HETATM    7  O2  UNL     1       8.002  55.495  -4.726  1.00  0.00    -0.292 OA
HETATM    8  C11 UNL     1       6.161  56.391  -5.858  1.00  0.00     0.078 A 
HETATM    9  C12 UNL     1       6.358  55.601  -7.002  1.00  0.00     0.095 A 
HETATM   10  C13 UNL     1       5.468  55.685  -8.080  1.00  0.00     0.032 A 
HETATM   11  C14 UNL     1       4.366  56.546  -7.988  1.00  0.00     0.092 A 
HETATM   12  O4  UNL     1       3.430  56.661  -8.981  1.00  0.00    -0.335 OA
HETATM   13  C15 UNL     1       3.554  55.887 -10.190  1.00  0.00     0.078 A 
HETATM   14  C16 UNL     1       2.275  55.048 -10.297  1.00  0.00     0.051 C 
HETATM   15  C17 UNL     1       3.609  56.892 -11.347  1.00  0.00     0.051 C 
HETATM   16  C18 UNL     1       4.753  54.979 -10.263  1.00  0.00     0.012 A 
HETATM   17  C19 UNL     1       5.652  54.879  -9.281  1.00  0.00     0.016 A 
HETATM   18  C20 UNL     1       7.681  57.063  -2.367  1.00  0.00     0.144 C 
HETATM   19  C21 UNL     1       7.448  58.351  -1.575  1.00  0.00     0.089 C 
HETATM   20  C22 UNL     1       5.969  58.452  -1.183  1.00  0.00     0.025 C 
HETATM   21  C23 UNL     1       5.110  58.765  -2.441  1.00  0.00     0.060 C 
HETATM   22  C24 UNL     1       4.927  60.291  -2.741  1.00  0.00     0.062 C 
HETATM   23  C25 UNL     1       3.596  60.590  -3.446  1.00  0.00     0.046 C 
HETATM   24  C26 UNL     1       5.015  61.234  -1.534  1.00  0.00     0.046 C 
HETATM   25  O6  UNL     1       5.994  60.643  -3.651  1.00  0.00    -0.358 OA
HETATM   26  C27 UNL     1       6.854  59.487  -3.813  1.00  0.00     0.158 C 
HETATM   27  C33 UNL     1       7.738  59.495  -2.532  1.00  0.00     0.171 C 
HETATM   28  O9  UNL     1       8.529  60.390  -2.240  1.00  0.00    -0.294 OA
ENDROOT
BRANCH  26  29
HETATM   29  C28 UNL     1       7.765  59.641  -5.041  1.00  0.00     0.077 C 
BRANCH  29  30
HETATM   30  C29 UNL     1       9.251  59.722  -4.781  1.00  0.00    -0.010 C 
HETATM   31  C30 UNL     1      10.101  60.684  -5.190  1.00  0.00     0.008 C 
HETATM   32  C31 UNL     1      11.559  60.686  -4.845  1.00  0.00     0.055 C 
BRANCH  31  33
HETATM   33  C32 UNL     1       9.641  61.830  -6.000  1.00  0.00     0.171 C 
HETATM   34  O7  UNL     1       9.179  62.877  -5.587  1.00  0.00    -0.646 OA
BRANCH  33  35
HETATM   35  O8  UNL     1       9.813  61.597  -7.311  1.00  0.00    -0.773 OA
HETATM   36  H38 UNL     1       9.423  62.391  -7.732  1.00  0.00     0.167 HD
ENDBRANCH  33  35
ENDBRANCH  31  33
ENDBRANCH  29  30
ENDBRANCH  26  29
BRANCH  18  37
HETATM   37  O5  UNL     1       8.984  57.123  -2.931  1.00  0.00    -0.394 OA
HETATM   38  H21 UNL     1       9.145  56.287  -3.422  1.00  0.00     0.210 HD
ENDBRANCH  18  37
BRANCH   1  39
HETATM   39  C5  UNL     1       2.925  58.220  -6.740  1.00  0.00     0.072 C 
BRANCH  39  40
HETATM   40  C4  UNL     1       1.878  57.687  -5.801  1.00  0.00    -0.020 C 
HETATM   41  C2  UNL     1       0.749  57.015  -6.102  1.00  0.00    -0.091 C 
HETATM   42  C1  UNL     1       0.265  56.697  -7.490  1.00  0.00     0.042 C 
HETATM   43  C3  UNL     1      -0.149  56.496  -5.009  1.00  0.00     0.042 C 
ENDBRANCH  39  40
ENDBRANCH   1  39
BRANCH   9  44
HETATM   44  O3  UNL     1       7.407  54.717  -7.096  1.00  0.00    -0.359 OA
HETATM   45  H11 UNL     1       7.947  54.771  -6.278  1.00  0.00     0.217 HD
ENDBRANCH   9  44
TORSDOF 8
ENDMDL
MODEL 8
REMARK minimizedAffinity -7.16938591
REMARK CNNscore 0.204374388
REMARK CNNaffinity 6.33841085
REMARK  8 active torsions:
REMARK  status: ('A' for Active; 'I' for Inactive)
REMARK    1  A    between atoms: C4_4  and  C5_5 
REMARK    2  A    between atoms: C5_5  and  C6_6 
REMARK    3  A    between atoms: C12_14  and  O3_15 
REMARK    4  A    between atoms: C20_24  and  O5_25 
REMARK    5  A    between atoms: C27_33  and  C28_34 
REMARK    6  A    between atoms: C28_34  and  C29_35 
REMARK    7  A    between atoms: C30_36  and  C32_38 
REMARK    8  A    between atoms: C32_38  and  O8_40 
ROOT
HETATM    1  C6  UNL     1     -12.155  44.275 -28.559  1.00  0.00     0.014 A 
HETATM    2  C7  UNL     1     -11.274  44.834 -29.509  1.00  0.00     0.096 A 
HETATM    3  O1  UNL     1     -10.584  43.960 -30.301  1.00  0.00    -0.333 OA
HETATM    4  C8  UNL     1      -9.570  44.440 -31.197  1.00  0.00     0.126 C 
HETATM    5  C9  UNL     1      -9.924  45.818 -31.776  1.00  0.00     0.129 C 
HETATM    6  C10 UNL     1     -10.359  46.777 -30.701  1.00  0.00     0.174 C 
HETATM    7  O2  UNL     1     -10.172  47.990 -30.772  1.00  0.00    -0.292 OA
HETATM    8  C11 UNL     1     -11.144  46.218 -29.593  1.00  0.00     0.078 A 
HETATM    9  C12 UNL     1     -11.804  47.059 -28.684  1.00  0.00     0.095 A 
HETATM   10  C13 UNL     1     -12.634  46.516 -27.695  1.00  0.00     0.032 A 
HETATM   11  C14 UNL     1     -12.816  45.128 -27.645  1.00  0.00     0.092 A 
HETATM   12  O4  UNL     1     -13.637  44.520 -26.734  1.00  0.00    -0.335 OA
HETATM   13  C15 UNL     1     -14.354  45.306 -25.763  1.00  0.00     0.078 A 
HETATM   14  C16 UNL     1     -15.842  45.005 -25.980  1.00  0.00     0.051 C 
HETATM   15  C17 UNL     1     -13.922  44.796 -24.383  1.00  0.00     0.051 C 
HETATM   16  C18 UNL     1     -14.130  46.794 -25.835  1.00  0.00     0.012 A 
HETATM   17  C19 UNL     1     -13.328  47.366 -26.735  1.00  0.00     0.016 A 
HETATM   18  C20 UNL     1      -8.789  46.359 -32.657  1.00  0.00     0.144 C 
HETATM   19  C21 UNL     1      -7.905  45.192 -33.101  1.00  0.00     0.089 C 
HETATM   20  C22 UNL     1      -8.788  44.028 -33.568  1.00  0.00     0.025 C 
HETATM   21  C23 UNL     1      -9.486  43.371 -32.344  1.00  0.00     0.060 C 
HETATM   22  C24 UNL     1      -8.669  42.217 -31.671  1.00  0.00     0.062 C 
HETATM   23  C25 UNL     1      -9.578  41.165 -31.019  1.00  0.00     0.046 C 
HETATM   24  C26 UNL     1      -7.690  41.462 -32.579  1.00  0.00     0.046 C 
HETATM   25  O6  UNL     1      -7.899  42.842 -30.620  1.00  0.00    -0.358 OA
HETATM   26  C27 UNL     1      -8.101  44.276 -30.698  1.00  0.00     0.158 C 
HETATM   27  C33 UNL     1      -7.166  44.723 -31.859  1.00  0.00     0.171 C 
HETATM   28  O9  UNL     1      -5.941  44.618 -31.843  1.00  0.00    -0.294 OA
ENDROOT
BRANCH  26  29
HETATM   29  C28 UNL     1      -7.648  44.972 -29.405  1.00  0.00     0.077 C 
BRANCH  29  30
HETATM   30  C29 UNL     1      -6.592  46.042 -29.541  1.00  0.00    -0.010 C 
HETATM   31  C30 UNL     1      -6.507  47.198 -28.854  1.00  0.00     0.008 C 
HETATM   32  C31 UNL     1      -5.391  48.180 -29.042  1.00  0.00     0.055 C 
BRANCH  31  33
HETATM   33  C32 UNL     1      -7.513  47.571 -27.838  1.00  0.00     0.171 C 
HETATM   34  O7  UNL     1      -8.527  48.218 -28.020  1.00  0.00    -0.646 OA
BRANCH  33  35
HETATM   35  O8  UNL     1      -7.190  47.077 -26.633  1.00  0.00    -0.773 OA
HETATM   36  H38 UNL     1      -7.890  47.437 -26.050  1.00  0.00     0.167 HD
ENDBRANCH  33  35
ENDBRANCH  31  33
ENDBRANCH  29  30
ENDBRANCH  26  29
BRANCH  18  37
HETATM   37  O5  UNL     1      -7.964  47.308 -31.996  1.00  0.00    -0.394 OA
HETATM   38  H21 UNL     1      -8.525  48.070 -31.729  1.00  0.00     0.210 HD
ENDBRANCH  18  37
BRANCH   1  39
HETATM   39  C5  UNL     1     -12.419  42.780 -28.523  1.00  0.00     0.072 C 
BRANCH  39  40
HETATM   40  C4  UNL     1     -13.878  42.425 -28.434  1.00  0.00    -0.020 C 
HETATM   41  C2  UNL     1     -14.431  41.245 -28.090  1.00  0.00    -0.091 C 
HETATM   42  C1  UNL     1     -13.674  39.986 -27.766  1.00  0.00     0.042 C 
HETATM   43  C3  UNL     1     -15.927  41.101 -27.989  1.00  0.00     0.042 C 
ENDBRANCH  39  40
ENDBRANCH   1  39
BRANCH   9  44
HETATM   44  O3  UNL     1     -11.676  48.427 -28.741  1.00  0.00    -0.359 OA
HETATM   45  H11 UNL     1     -11.063  48.662 -29.472  1.00  0.00     0.217 HD
ENDBRANCH   9  44
TORSDOF 8
ENDMDL
MODEL 9
REMARK minimizedAffinity -9.43834496
REMARK CNNscore 0.180296972
REMARK CNNaffinity 6.04789162
REMARK  8 active torsions:
REMARK  status: ('A' for Active; 'I' for Inactive)
REMARK    1  A    between atoms: C4_4  and  C5_5 
REMARK    2  A    between atoms: C5_5  and  C6_6 
REMARK    3  A    between atoms: C12_14  and  O3_15 
REMARK    4  A    between atoms: C20_24  and  O5_25 
REMARK    5  A    between atoms: C27_33  and  C28_34 
REMARK    6  A    between atoms: C28_34  and  C29_35 
REMARK    7  A    between atoms: C30_36  and  C32_38 
REMARK    8  A    between atoms: C32_38  and  O8_40 
ROOT
HETATM    1  C6  UNL     1      -5.352  48.113 -26.919  1.00  0.00     0.014 A 
HETATM    2  C7  UNL     1      -6.350  47.308 -27.508  1.00  0.00     0.096 A 
HETATM    3  O1  UNL     1      -6.323  47.188 -28.869  1.00  0.00    -0.333 OA
HETATM    4  C8  UNL     1      -7.379  46.501 -29.557  1.00  0.00     0.126 C 
HETATM    5  C9  UNL     1      -7.924  45.322 -28.736  1.00  0.00     0.129 C 
HETATM    6  C10 UNL     1      -8.216  45.722 -27.315  1.00  0.00     0.174 C 
HETATM    7  O2  UNL     1      -9.107  45.204 -26.644  1.00  0.00    -0.292 OA
HETATM    8  C11 UNL     1      -7.301  46.690 -26.699  1.00  0.00     0.078 A 
HETATM    9  C12 UNL     1      -7.335  46.935 -25.317  1.00  0.00     0.095 A 
HETATM   10  C13 UNL     1      -6.390  47.781 -24.725  1.00  0.00     0.032 A 
HETATM   11  C14 UNL     1      -5.395  48.356 -25.526  1.00  0.00     0.092 A 
HETATM   12  O4  UNL     1      -4.412  49.165 -25.022  1.00  0.00    -0.335 OA
HETATM   13  C15 UNL     1      -4.372  49.469 -23.615  1.00  0.00     0.078 A 
HETATM   14  C16 UNL     1      -3.006  48.988 -23.110  1.00  0.00     0.051 C 
HETATM   15  C17 UNL     1      -4.456  50.995 -23.495  1.00  0.00     0.051 C 
HETATM   16  C18 UNL     1      -5.460  48.845 -22.781  1.00  0.00     0.012 A 
HETATM   17  C19 UNL     1      -6.406  48.055 -23.293  1.00  0.00     0.016 A 
HETATM   18  C20 UNL     1      -9.114  44.655 -29.442  1.00  0.00     0.144 C 
HETATM   19  C21 UNL     1      -9.073  45.013 -30.929  1.00  0.00     0.089 C 
HETATM   20  C22 UNL     1      -7.643  44.850 -31.457  1.00  0.00     0.025 C 
HETATM   21  C23 UNL     1      -6.740  45.984 -30.895  1.00  0.00     0.060 C 
HETATM   22  C24 UNL     1      -6.701  47.281 -31.773  1.00  0.00     0.062 C 
HETATM   23  C25 UNL     1      -5.366  48.028 -31.648  1.00  0.00     0.046 C 
HETATM   24  C26 UNL     1      -6.970  47.092 -33.271  1.00  0.00     0.046 C 
HETATM   25  O6  UNL     1      -7.736  48.142 -31.246  1.00  0.00    -0.358 OA
HETATM   26  C27 UNL     1      -8.456  47.414 -30.219  1.00  0.00     0.158 C 
HETATM   27  C33 UNL     1      -9.419  46.490 -31.019  1.00  0.00     0.171 C 
HETATM   28  O9  UNL     1     -10.319  46.894 -31.753  1.00  0.00    -0.294 OA
ENDROOT
BRANCH  26  29
HETATM   29  C28 UNL     1      -9.294  48.365 -29.350  1.00  0.00     0.077 C 
BRANCH  29  30
HETATM   30  C29 UNL     1     -10.696  47.919 -29.010  1.00  0.00    -0.010 C 
HETATM   31  C30 UNL     1     -11.285  47.930 -27.797  1.00  0.00     0.008 C 
HETATM   32  C31 UNL     1     -12.702  47.497 -27.575  1.00  0.00     0.055 C 
BRANCH  31  33
HETATM   33  C32 UNL     1     -10.569  48.395 -26.593  1.00  0.00     0.171 C 
HETATM   34  O7  UNL     1     -10.673  47.951 -25.465  1.00  0.00    -0.646 OA
BRANCH  33  35
HETATM   35  O8  UNL     1      -9.727  49.399 -26.888  1.00  0.00    -0.773 OA
HETATM   36  H38 UNL     1      -9.366  49.651 -26.012  1.00  0.00     0.167 HD
ENDBRANCH  33  35
ENDBRANCH  31  33
ENDBRANCH  29  30
ENDBRANCH  26  29
BRANCH  18  37
HETATM   37  O5  UNL     1     -10.375  45.060 -28.927  1.00  0.00    -0.394 OA
HETATM   38  H21 UNL     1     -10.413  44.811 -27.977  1.00  0.00     0.210 HD
ENDBRANCH  18  37
BRANCH   1  39
HETATM   39  C5  UNL     1      -4.227  48.698 -27.753  1.00  0.00     0.072 C 
BRANCH  39  40
HETATM   40  C4  UNL     1      -2.983  49.003 -26.964  1.00  0.00    -0.020 C 
HETATM   41  C2  UNL     1      -2.321  50.172 -26.866  1.00  0.00    -0.091 C 
HETATM   42  C1  UNL     1      -2.674  51.441 -27.593  1.00  0.00     0.042 C 
HETATM   43  C3  UNL     1      -1.123  50.301 -25.961  1.00  0.00     0.042 C 
ENDBRANCH  39  40
ENDBRANCH   1  39
BRANCH   9  44
HETATM   44  O3  UNL     1      -8.276  46.346 -24.504  1.00  0.00    -0.359 OA
HETATM   45  H11 UNL     1      -8.872  45.791 -25.052  1.00  0.00     0.217 HD
ENDBRANCH   9  44
TORSDOF 8
ENDMDL
