MODEL 1
REMARK minimizedAffinity -8.6492691
REMARK  10 active torsions:
REMARK  status: ('A' for Active; 'I' for Inactive)
REMARK    1  A    between atoms: C5_5  and  C6_6 
REMARK    2  A    between atoms: C6_6  and  C8_8 
REMARK    3  A    between atoms: C8_8  and  O1_9 
REMARK    4  A    between atoms: O1_9  and  C9_10 
REMARK    5  A    between atoms: C17_20  and  O4_21 
REMARK    6  A    between atoms: C19_23  and  O5_24 
REMARK    7  A    between atoms: O5_24  and  C20_25 
REMARK    8  A    between atoms: C20_25  and  C21_27 
REMARK    9  A    between atoms: C21_27  and  C22_28 
REMARK   10  A    between atoms: C24_30  and  O7_32 
ROOT
HETATM    1  C1  UNL     1      -3.775  51.355 -19.537  1.00  0.00     0.015 C 
HETATM    2  C2  UNL     1      -2.701  50.808 -20.130  1.00  0.00    -0.082 C 
HETATM    3  C3  UNL     1      -1.844  49.793 -19.416  1.00  0.00     0.034 C 
HETATM    4  C4  UNL     1      -0.412  49.738 -19.957  1.00  0.00     0.010 C 
HETATM    5  C5  UNL     1       0.124  51.105 -20.428  1.00  0.00    -0.001 C 
HETATM    6  C11 UNL     1      -0.797  51.705 -21.559  1.00  0.00     0.033 C 
HETATM    7  C12 UNL     1      -0.361  51.304 -22.988  1.00  0.00     0.163 C 
HETATM    8  O3  UNL     1      -1.103  50.119 -23.310  1.00  0.00    -0.376 OA
HETATM    9  C13 UNL     1      -2.298  50.059 -22.530  1.00  0.00     0.134 C 
HETATM   10  C14 UNL     1      -3.545  49.956 -23.426  1.00  0.00     0.068 C 
HETATM   11  C15 UNL     1      -3.923  51.178 -24.239  1.00  0.00    -0.058 C 
HETATM   12  C16 UNL     1      -4.902  51.987 -23.780  1.00  0.00     0.017 C 
HETATM   13  C17 UNL     1      -3.295  51.381 -25.614  1.00  0.00     0.149 C 
HETATM   14  C18 UNL     1      -1.856  50.920 -25.895  1.00  0.00     0.072 C 
HETATM   15  C19 UNL     1      -0.679  51.856 -25.535  1.00  0.00     0.171 C 
HETATM   16  C24 UNL     1      -0.577  52.419 -24.081  1.00  0.00     0.107 C 
HETATM   17  C25 UNL     1       0.613  53.402 -24.000  1.00  0.00     0.051 C 
HETATM   18  C26 UNL     1      -2.256  51.213 -21.516  1.00  0.00     0.050 C 
ENDROOT
BRANCH   5  19
HETATM   19  C6  UNL     1       0.314  52.134 -19.253  1.00  0.00     0.010 C 
HETATM   20  C7  UNL     1      -0.470  53.442 -19.445  1.00  0.00     0.012 C 
BRANCH  19  21
HETATM   21  C8  UNL     1      -0.057  51.531 -17.876  1.00  0.00     0.183 C 
BRANCH  21  22
HETATM   22  O1  UNL     1       1.114  51.224 -17.096  1.00  0.00    -0.321 OA
BRANCH  22  23
HETATM   23  C9  UNL     1       1.537  52.160 -16.209  1.00  0.00     0.254 C 
HETATM   24  C10 UNL     1       2.925  52.603 -16.558  1.00  0.00     0.126 C 
HETATM   25  O2  UNL     1       0.894  52.592 -15.264  1.00  0.00    -0.266 OA
ENDBRANCH  22  23
ENDBRANCH  21  22
ENDBRANCH  19  21
ENDBRANCH   5  19
BRANCH  16  26
HETATM   26  O7  UNL     1      -1.756  53.206 -23.813  1.00  0.00    -0.385 OA
HETATM   27  H39 UNL     1      -1.542  54.142 -23.980  1.00  0.00     0.210 HD
ENDBRANCH  16  26
BRANCH  15  28
HETATM   28  O5  UNL     1       0.527  51.114 -25.856  1.00  0.00    -0.313 OA
BRANCH  28  29
HETATM   29  C20 UNL     1       1.356  51.630 -26.801  1.00  0.00     0.259 C 
HETATM   30  O6  UNL     1       2.489  52.045 -26.607  1.00  0.00    -0.265 OA
BRANCH  29  31
HETATM   31  C21 UNL     1       0.684  51.610 -28.152  1.00  0.00     0.111 C 
BRANCH  31  32
HETATM   32  C22 UNL     1       0.529  53.008 -28.743  1.00  0.00     0.005 C 
HETATM   33  C23 UNL     1      -0.305  53.927 -27.859  1.00  0.00     0.005 C 
ENDBRANCH  31  32
ENDBRANCH  29  31
ENDBRANCH  28  29
ENDBRANCH  15  28
BRANCH  13  34
HETATM   34  O4  UNL     1      -3.407  52.753 -25.998  1.00  0.00    -0.391 OA
HETATM   35  H25 UNL     1      -3.080  53.243 -25.219  1.00  0.00     0.210 HD
ENDBRANCH  13  34
TORSDOF 10
ENDMDL
MODEL 2
REMARK minimizedAffinity -8.55662823
REMARK  10 active torsions:
REMARK  status: ('A' for Active; 'I' for Inactive)
REMARK    1  A    between atoms: C5_5  and  C6_6 
REMARK    2  A    between atoms: C6_6  and  C8_8 
REMARK    3  A    between atoms: C8_8  and  O1_9 
REMARK    4  A    between atoms: O1_9  and  C9_10 
REMARK    5  A    between atoms: C17_20  and  O4_21 
REMARK    6  A    between atoms: C19_23  and  O5_24 
REMARK    7  A    between atoms: O5_24  and  C20_25 
REMARK    8  A    between atoms: C20_25  and  C21_27 
REMARK    9  A    between atoms: C21_27  and  C22_28 
REMARK   10  A    between atoms: C24_30  and  O7_32 
ROOT
HETATM    1  C1  UNL     1      -2.645  51.559 -18.909  1.00  0.00     0.015 C 
HETATM    2  C2  UNL     1      -2.051  50.941 -19.943  1.00  0.00    -0.082 C 
HETATM    3  C3  UNL     1      -0.646  50.404 -19.834  1.00  0.00     0.034 C 
HETATM    4  C4  UNL     1       0.056  50.294 -21.191  1.00  0.00     0.010 C 
HETATM    5  C5  UNL     1      -0.342  51.403 -22.185  1.00  0.00    -0.001 C 
HETATM    6  C11 UNL     1      -1.898  51.387 -22.444  1.00  0.00     0.033 C 
HETATM    7  C12 UNL     1      -2.318  50.493 -23.633  1.00  0.00     0.163 C 
HETATM    8  O3  UNL     1      -2.614  49.205 -23.076  1.00  0.00    -0.376 OA
HETATM    9  C13 UNL     1      -2.961  49.334 -21.696  1.00  0.00     0.134 C 
HETATM   10  C14 UNL     1      -4.352  48.739 -21.414  1.00  0.00     0.068 C 
HETATM   11  C15 UNL     1      -5.553  49.477 -21.970  1.00  0.00    -0.058 C 
HETATM   12  C16 UNL     1      -6.255  50.290 -21.151  1.00  0.00     0.017 C 
HETATM   13  C17 UNL     1      -6.020  49.174 -23.391  1.00  0.00     0.149 C 
HETATM   14  C18 UNL     1      -5.009  48.802 -24.486  1.00  0.00     0.072 C 
HETATM   15  C19 UNL     1      -4.293  49.928 -25.268  1.00  0.00     0.171 C 
HETATM   16  C24 UNL     1      -3.536  51.038 -24.472  1.00  0.00     0.107 C 
HETATM   17  C25 UNL     1      -2.998  52.095 -25.463  1.00  0.00     0.051 C 
HETATM   18  C26 UNL     1      -2.727  50.797 -21.288  1.00  0.00     0.050 C 
ENDROOT
BRANCH   5  19
HETATM   19  C6  UNL     1       0.140  52.834 -21.743  1.00  0.00     0.010 C 
HETATM   20  C7  UNL     1       1.169  52.813 -20.601  1.00  0.00     0.012 C 
BRANCH  19  21
HETATM   21  C8  UNL     1       0.725  53.649 -22.922  1.00  0.00     0.183 C 
BRANCH  21  22
HETATM   22  O1  UNL     1       0.535  52.975 -24.181  1.00  0.00    -0.321 OA
BRANCH  22  23
HETATM   23  C9  UNL     1       0.380  53.747 -25.286  1.00  0.00     0.254 C 
HETATM   24  C10 UNL     1       0.468  52.898 -26.517  1.00  0.00     0.126 C 
HETATM   25  O2  UNL     1       0.191  54.954 -25.295  1.00  0.00    -0.266 OA
ENDBRANCH  22  23
ENDBRANCH  21  22
ENDBRANCH  19  21
ENDBRANCH   5  19
BRANCH  16  26
HETATM   26  O7  UNL     1      -4.488  51.731 -23.637  1.00  0.00    -0.385 OA
HETATM   27  H39 UNL     1      -4.774  52.536 -24.106  1.00  0.00     0.210 HD
ENDBRANCH  16  26
BRANCH  15  28
HETATM   28  O5  UNL     1      -3.371  49.257 -26.167  1.00  0.00    -0.313 OA
BRANCH  28  29
HETATM   29  C20 UNL     1      -3.666  49.256 -27.493  1.00  0.00     0.259 C 
HETATM   30  O6  UNL     1      -3.253  50.058 -28.318  1.00  0.00    -0.265 OA
BRANCH  29  31
HETATM   31  C21 UNL     1      -4.579  48.101 -27.823  1.00  0.00     0.111 C 
BRANCH  31  32
HETATM   32  C22 UNL     1      -5.202  48.231 -29.208  1.00  0.00     0.005 C 
HETATM   33  C23 UNL     1      -6.233  47.146 -29.490  1.00  0.00     0.005 C 
ENDBRANCH  31  32
ENDBRANCH  29  31
ENDBRANCH  28  29
ENDBRANCH  15  28
BRANCH  13  34
HETATM   34  O4  UNL     1      -6.825  50.252 -23.874  1.00  0.00    -0.391 OA
HETATM   35  H25 UNL     1      -6.294  51.049 -23.679  1.00  0.00     0.210 HD
ENDBRANCH  13  34
TORSDOF 10
ENDMDL
MODEL 3
REMARK minimizedAffinity -8.39606762
REMARK  10 active torsions:
REMARK  status: ('A' for Active; 'I' for Inactive)
REMARK    1  A    between atoms: C5_5  and  C6_6 
REMARK    2  A    between atoms: C6_6  and  C8_8 
REMARK    3  A    between atoms: C8_8  and  O1_9 
REMARK    4  A    between atoms: O1_9  and  C9_10 
REMARK    5  A    between atoms: C17_20  and  O4_21 
REMARK    6  A    between atoms: C19_23  and  O5_24 
REMARK    7  A    between atoms: O5_24  and  C20_25 
REMARK    8  A    between atoms: C20_25  and  C21_27 
REMARK    9  A    between atoms: C21_27  and  C22_28 
REMARK   10  A    between atoms: C24_30  and  O7_32 
ROOT
HETATM    1  C1  UNL     1      -3.856  48.764 -25.849  1.00  0.00     0.015 C 
HETATM    2  C2  UNL     1      -3.628  49.882 -25.140  1.00  0.00    -0.082 C 
HETATM    3  C3  UNL     1      -3.777  51.248 -25.761  1.00  0.00     0.034 C 
HETATM    4  C4  UNL     1      -2.941  52.318 -25.052  1.00  0.00     0.010 C 
HETATM    5  C5  UNL     1      -1.601  51.791 -24.500  1.00  0.00    -0.001 C 
HETATM    6  C11 UNL     1      -1.845  50.614 -23.478  1.00  0.00     0.033 C 
HETATM    7  C12 UNL     1      -1.995  51.087 -22.014  1.00  0.00     0.163 C 
HETATM    8  O3  UNL     1      -3.401  51.277 -21.801  1.00  0.00    -0.376 OA
HETATM    9  C13 UNL     1      -4.150  50.480 -22.720  1.00  0.00     0.134 C 
HETATM   10  C14 UNL     1      -5.116  49.536 -21.982  1.00  0.00     0.068 C 
HETATM   11  C15 UNL     1      -4.509  48.387 -21.202  1.00  0.00    -0.058 C 
HETATM   12  C16 UNL     1      -4.488  47.159 -21.763  1.00  0.00     0.017 C 
HETATM   13  C17 UNL     1      -4.072  48.616 -19.758  1.00  0.00     0.149 C 
HETATM   14  C18 UNL     1      -3.515  49.977 -19.314  1.00  0.00     0.072 C 
HETATM   15  C19 UNL     1      -2.012  50.281 -19.515  1.00  0.00     0.171 C 
HETATM   16  C24 UNL     1      -1.389  50.108 -20.938  1.00  0.00     0.107 C 
HETATM   17  C25 UNL     1       0.132  50.368 -20.860  1.00  0.00     0.051 C 
HETATM   18  C26 UNL     1      -3.158  49.840 -23.704  1.00  0.00     0.050 C 
ENDROOT
BRANCH   5  19
HETATM   19  C6  UNL     1      -0.594  51.356 -25.627  1.00  0.00     0.010 C 
HETATM   20  C7  UNL     1      -1.238  50.517 -26.742  1.00  0.00     0.012 C 
BRANCH  19  21
HETATM   21  C8  UNL     1       0.125  52.567 -26.272  1.00  0.00     0.183 C 
BRANCH  21  22
HETATM   22  O1  UNL     1       1.542  52.542 -26.017  1.00  0.00    -0.321 OA
BRANCH  22  23
HETATM   23  C9  UNL     1       2.270  51.569 -26.619  1.00  0.00     0.254 C 
HETATM   24  C10 UNL     1       2.150  51.687 -28.107  1.00  0.00     0.126 C 
HETATM   25  O2  UNL     1       2.935  50.717 -26.048  1.00  0.00    -0.266 OA
ENDBRANCH  22  23
ENDBRANCH  21  22
ENDBRANCH  19  21
ENDBRANCH   5  19
BRANCH  16  26
HETATM   26  O7  UNL     1      -1.532  48.728 -21.334  1.00  0.00    -0.385 OA
HETATM   27  H39 UNL     1      -0.700  48.264 -21.127  1.00  0.00     0.210 HD
ENDBRANCH  16  26
BRANCH  15  28
HETATM   28  O5  UNL     1      -1.822  51.647 -19.063  1.00  0.00    -0.313 OA
BRANCH  28  29
HETATM   29  C20 UNL     1      -0.642  51.959 -18.465  1.00  0.00     0.259 C 
HETATM   30  O6  UNL     1      -0.035  51.253 -17.673  1.00  0.00    -0.265 OA
BRANCH  29  31
HETATM   31  C21 UNL     1      -0.164  53.313 -18.927  1.00  0.00     0.111 C 
BRANCH  31  32
HETATM   32  C22 UNL     1       1.292  53.290 -19.380  1.00  0.00     0.005 C 
HETATM   33  C23 UNL     1       1.480  53.871 -20.776  1.00  0.00     0.005 C 
ENDBRANCH  31  32
ENDBRANCH  29  31
ENDBRANCH  28  29
ENDBRANCH  15  28
BRANCH  13  34
HETATM   34  O4  UNL     1      -3.140  47.604 -19.370  1.00  0.00    -0.391 OA
HETATM   35  H25 UNL     1      -2.487  47.593 -20.097  1.00  0.00     0.210 HD
ENDBRANCH  13  34
TORSDOF 10
ENDMDL
MODEL 4
REMARK minimizedAffinity -8.36057377
REMARK  10 active torsions:
REMARK  status: ('A' for Active; 'I' for Inactive)
REMARK    1  A    between atoms: C5_5  and  C6_6 
REMARK    2  A    between atoms: C6_6  and  C8_8 
REMARK    3  A    between atoms: C8_8  and  O1_9 
REMARK    4  A    between atoms: O1_9  and  C9_10 
REMARK    5  A    between atoms: C17_20  and  O4_21 
REMARK    6  A    between atoms: C19_23  and  O5_24 
REMARK    7  A    between atoms: O5_24  and  C20_25 
REMARK    8  A    between atoms: C20_25  and  C21_27 
REMARK    9  A    between atoms: C21_27  and  C22_28 
REMARK   10  A    between atoms: C24_30  and  O7_32 
ROOT
HETATM    1  C1  UNL     1      -3.480  48.544 -25.459  1.00  0.00     0.015 C 
HETATM    2  C2  UNL     1      -3.500  49.696 -24.770  1.00  0.00    -0.082 C 
HETATM    3  C3  UNL     1      -4.188  50.922 -25.314  1.00  0.00     0.034 C 
HETATM    4  C4  UNL     1      -3.627  52.225 -24.735  1.00  0.00     0.010 C 
HETATM    5  C5  UNL     1      -2.113  52.172 -24.447  1.00  0.00    -0.001 C 
HETATM    6  C11 UNL     1      -1.779  51.011 -23.434  1.00  0.00     0.033 C 
HETATM    7  C12 UNL     1      -1.809  51.455 -21.953  1.00  0.00     0.163 C 
HETATM    8  O3  UNL     1      -3.140  51.190 -21.486  1.00  0.00    -0.376 OA
HETATM    9  C13 UNL     1      -3.745  50.167 -22.279  1.00  0.00     0.134 C 
HETATM   10  C14 UNL     1      -4.208  48.986 -21.408  1.00  0.00     0.068 C 
HETATM   11  C15 UNL     1      -3.135  48.117 -20.784  1.00  0.00    -0.058 C 
HETATM   12  C16 UNL     1      -2.822  46.944 -21.375  1.00  0.00     0.017 C 
HETATM   13  C17 UNL     1      -2.544  48.517 -19.435  1.00  0.00     0.149 C 
HETATM   14  C18 UNL     1      -2.383  49.998 -19.058  1.00  0.00     0.072 C 
HETATM   15  C19 UNL     1      -1.119  50.761 -19.516  1.00  0.00     0.171 C 
HETATM   16  C24 UNL     1      -0.739  50.754 -21.031  1.00  0.00     0.107 C 
HETATM   17  C25 UNL     1       0.606  51.491 -21.220  1.00  0.00     0.051 C 
HETATM   18  C26 UNL     1      -2.793  49.850 -23.443  1.00  0.00     0.050 C 
ENDROOT
BRANCH   5  19
HETATM   19  C6  UNL     1      -1.238  52.051 -25.749  1.00  0.00     0.010 C 
HETATM   20  C7  UNL     1      -0.468  50.725 -25.854  1.00  0.00     0.012 C 
BRANCH  19  21
HETATM   21  C8  UNL     1      -2.074  52.242 -27.039  1.00  0.00     0.183 C 
BRANCH  21  22
HETATM   22  O1  UNL     1      -1.878  53.550 -27.611  1.00  0.00    -0.321 OA
BRANCH  22  23
HETATM   23  C9  UNL     1      -0.603  54.001 -27.719  1.00  0.00     0.254 C 
HETATM   24  C10 UNL     1       0.190  53.086 -28.600  1.00  0.00     0.126 C 
HETATM   25  O2  UNL     1      -0.153  55.006 -27.188  1.00  0.00    -0.266 OA
ENDBRANCH  22  23
ENDBRANCH  21  22
ENDBRANCH  19  21
ENDBRANCH   5  19
BRANCH  16  26
HETATM   26  O7  UNL     1      -0.500  49.390 -21.436  1.00  0.00    -0.385 OA
HETATM   27  H39 UNL     1       0.460  49.225 -21.396  1.00  0.00     0.210 HD
ENDBRANCH  16  26
BRANCH  15  28
HETATM   28  O5  UNL     1      -1.300  52.129 -19.065  1.00  0.00    -0.313 OA
BRANCH  28  29
HETATM   29  C20 UNL     1      -0.209  52.794 -18.601  1.00  0.00     0.259 C 
HETATM   30  O6  UNL     1       0.129  53.923 -18.924  1.00  0.00    -0.265 OA
BRANCH  29  31
HETATM   31  C21 UNL     1       0.538  51.941 -17.606  1.00  0.00     0.111 C 
BRANCH  31  32
HETATM   32  C22 UNL     1       1.873  52.556 -17.201  1.00  0.00     0.005 C 
HETATM   33  C23 UNL     1       2.332  52.101 -15.822  1.00  0.00     0.005 C 
ENDBRANCH  31  32
ENDBRANCH  29  31
ENDBRANCH  28  29
ENDBRANCH  15  28
BRANCH  13  34
HETATM   34  O4  UNL     1      -1.283  47.870 -19.250  1.00  0.00    -0.391 OA
HETATM   35  H25 UNL     1      -0.803  48.047 -20.082  1.00  0.00     0.210 HD
ENDBRANCH  13  34
TORSDOF 10
ENDMDL
MODEL 5
REMARK minimizedAffinity -8.28759575
REMARK  10 active torsions:
REMARK  status: ('A' for Active; 'I' for Inactive)
REMARK    1  A    between atoms: C5_5  and  C6_6 
REMARK    2  A    between atoms: C6_6  and  C8_8 
REMARK    3  A    between atoms: C8_8  and  O1_9 
REMARK    4  A    between atoms: O1_9  and  C9_10 
REMARK    5  A    between atoms: C17_20  and  O4_21 
REMARK    6  A    between atoms: C19_23  and  O5_24 
REMARK    7  A    between atoms: O5_24  and  C20_25 
REMARK    8  A    between atoms: C20_25  and  C21_27 
REMARK    9  A    between atoms: C21_27  and  C22_28 
REMARK   10  A    between atoms: C24_30  and  O7_32 
ROOT
HETATM    1  C1  UNL     1      -4.108  49.077 -18.280  1.00  0.00     0.015 C 
HETATM    2  C2  UNL     1      -3.146  49.004 -19.213  1.00  0.00    -0.082 C 
HETATM    3  C3  UNL     1      -1.769  48.486 -18.881  1.00  0.00     0.034 C 
HETATM    4  C4  UNL     1      -0.690  49.012 -19.833  1.00  0.00     0.010 C 
HETATM    5  C5  UNL     1      -0.947  50.450 -20.325  1.00  0.00    -0.001 C 
HETATM    6  C11 UNL     1      -2.335  50.544 -21.070  1.00  0.00     0.033 C 
HETATM    7  C12 UNL     1      -2.238  50.289 -22.592  1.00  0.00     0.163 C 
HETATM    8  O3  UNL     1      -2.477  48.886 -22.775  1.00  0.00    -0.376 OA
HETATM    9  C13 UNL     1      -3.232  48.368 -21.678  1.00  0.00     0.134 C 
HETATM   10  C14 UNL     1      -4.532  47.701 -22.161  1.00  0.00     0.068 C 
HETATM   11  C15 UNL     1      -5.616  48.604 -22.714  1.00  0.00    -0.058 C 
HETATM   12  C16 UNL     1      -6.648  48.948 -21.914  1.00  0.00     0.017 C 
HETATM   13  C17 UNL     1      -5.589  48.980 -24.193  1.00  0.00     0.149 C 
HETATM   14  C18 UNL     1      -4.254  49.156 -24.933  1.00  0.00     0.072 C 
HETATM   15  C19 UNL     1      -3.528  50.519 -24.867  1.00  0.00     0.171 C 
HETATM   16  C24 UNL     1      -3.225  51.149 -23.470  1.00  0.00     0.107 C 
HETATM   17  C25 UNL     1      -2.593  52.545 -23.669  1.00  0.00     0.051 C 
HETATM   18  C26 UNL     1      -3.363  49.485 -20.630  1.00  0.00     0.050 C 
ENDROOT
BRANCH   5  19
HETATM   19  C6  UNL     1      -0.850  51.524 -19.180  1.00  0.00     0.010 C 
HETATM   20  C7  UNL     1       0.024  51.085 -17.994  1.00  0.00     0.012 C 
BRANCH  19  21
HETATM   21  C8  UNL     1      -0.336  52.890 -19.695  1.00  0.00     0.183 C 
BRANCH  21  22
HETATM   22  O1  UNL     1       1.003  52.792 -20.218  1.00  0.00    -0.321 OA
BRANCH  22  23
HETATM   23  C9  UNL     1       1.312  53.556 -21.295  1.00  0.00     0.254 C 
HETATM   24  C10 UNL     1       0.815  52.899 -22.546  1.00  0.00     0.126 C 
HETATM   25  O2  UNL     1       1.902  54.626 -21.268  1.00  0.00    -0.266 OA
ENDBRANCH  22  23
ENDBRANCH  21  22
ENDBRANCH  19  21
ENDBRANCH   5  19
BRANCH  16  26
HETATM   26  O7  UNL     1      -4.478  51.378 -22.791  1.00  0.00    -0.385 OA
HETATM   27  H39 UNL     1      -4.737  52.306 -22.936  1.00  0.00     0.210 HD
ENDBRANCH  16  26
BRANCH  15  28
HETATM   28  O5  UNL     1      -2.287  50.340 -25.600  1.00  0.00    -0.313 OA
BRANCH  28  29
HETATM   29  C20 UNL     1      -2.158  50.975 -26.794  1.00  0.00     0.259 C 
HETATM   30  O6  UNL     1      -3.076  51.414 -27.471  1.00  0.00    -0.265 OA
BRANCH  29  31
HETATM   31  C21 UNL     1      -0.702  51.082 -27.175  1.00  0.00     0.111 C 
BRANCH  31  32
HETATM   32  C22 UNL     1       0.214  51.120 -25.956  1.00  0.00     0.005 C 
HETATM   33  C23 UNL     1       1.670  51.372 -26.327  1.00  0.00     0.005 C 
ENDBRANCH  31  32
ENDBRANCH  29  31
ENDBRANCH  28  29
ENDBRANCH  15  28
BRANCH  13  34
HETATM   34  O4  UNL     1      -6.376  50.155 -24.406  1.00  0.00    -0.391 OA
HETATM   35  H25 UNL     1      -6.060  50.778 -23.723  1.00  0.00     0.210 HD
ENDBRANCH  13  34
TORSDOF 10
ENDMDL
MODEL 6
REMARK minimizedAffinity -8.1715498
REMARK  10 active torsions:
REMARK  status: ('A' for Active; 'I' for Inactive)
REMARK    1  A    between atoms: C5_5  and  C6_6 
REMARK    2  A    between atoms: C6_6  and  C8_8 
REMARK    3  A    between atoms: C8_8  and  O1_9 
REMARK    4  A    between atoms: O1_9  and  C9_10 
REMARK    5  A    between atoms: C17_20  and  O4_21 
REMARK    6  A    between atoms: C19_23  and  O5_24 
REMARK    7  A    between atoms: O5_24  and  C20_25 
REMARK    8  A    between atoms: C20_25  and  C21_27 
REMARK    9  A    between atoms: C21_27  and  C22_28 
REMARK   10  A    between atoms: C24_30  and  O7_32 
ROOT
HETATM    1  C1  UNL     1      -4.014  49.477 -25.987  1.00  0.00     0.015 C 
HETATM    2  C2  UNL     1      -3.676  50.414 -25.087  1.00  0.00    -0.082 C 
HETATM    3  C3  UNL     1      -3.535  51.863 -25.480  1.00  0.00     0.034 C 
HETATM    4  C4  UNL     1      -2.607  52.646 -24.546  1.00  0.00     0.010 C 
HETATM    5  C5  UNL     1      -1.433  51.809 -23.997  1.00  0.00    -0.001 C 
HETATM    6  C11 UNL     1      -1.967  50.553 -23.206  1.00  0.00     0.033 C 
HETATM    7  C12 UNL     1      -2.179  50.817 -21.697  1.00  0.00     0.163 C 
HETATM    8  O3  UNL     1      -3.549  51.221 -21.555  1.00  0.00    -0.376 OA
HETATM    9  C13 UNL     1      -4.326  50.720 -22.644  1.00  0.00     0.134 C 
HETATM   10  C14 UNL     1      -5.502  49.863 -22.143  1.00  0.00     0.068 C 
HETATM   11  C15 UNL     1      -5.172  48.519 -21.526  1.00  0.00    -0.058 C 
HETATM   12  C16 UNL     1      -5.300  47.407 -22.281  1.00  0.00     0.017 C 
HETATM   13  C17 UNL     1      -4.847  48.443 -20.037  1.00  0.00     0.149 C 
HETATM   14  C18 UNL     1      -4.118  49.599 -19.333  1.00  0.00     0.072 C 
HETATM   15  C19 UNL     1      -2.574  49.655 -19.376  1.00  0.00     0.171 C 
HETATM   16  C24 UNL     1      -1.852  49.593 -20.760  1.00  0.00     0.107 C 
HETATM   17  C25 UNL     1      -0.324  49.562 -20.534  1.00  0.00     0.051 C 
HETATM   18  C26 UNL     1      -3.362  50.070 -23.649  1.00  0.00     0.050 C 
ENDROOT
BRANCH   5  19
HETATM   19  C6  UNL     1      -0.406  51.379 -25.108  1.00  0.00     0.010 C 
HETATM   20  C7  UNL     1      -0.925  50.264 -26.030  1.00  0.00     0.012 C 
BRANCH  19  21
HETATM   21  C8  UNL     1       0.050  52.573 -25.982  1.00  0.00     0.183 C 
BRANCH  21  22
HETATM   22  O1  UNL     1       1.485  52.677 -26.034  1.00  0.00    -0.321 OA
BRANCH  22  23
HETATM   23  C9  UNL     1       2.156  51.738 -26.746  1.00  0.00     0.254 C 
HETATM   24  C10 UNL     1       1.751  51.802 -28.186  1.00  0.00     0.126 C 
HETATM   25  O2  UNL     1       2.977  50.951 -26.297  1.00  0.00    -0.266 OA
ENDBRANCH  22  23
ENDBRANCH  21  22
ENDBRANCH  19  21
ENDBRANCH   5  19
BRANCH  16  26
HETATM   26  O7  UNL     1      -2.182  48.337 -21.391  1.00  0.00    -0.385 OA
HETATM   27  H39 UNL     1      -1.462  47.707 -21.207  1.00  0.00     0.210 HD
ENDBRANCH  16  26
BRANCH  15  28
HETATM   28  O5  UNL     1      -2.205  50.881 -18.689  1.00  0.00    -0.313 OA
BRANCH  28  29
HETATM   29  C20 UNL     1      -2.075  50.835 -17.337  1.00  0.00     0.259 C 
HETATM   30  O6  UNL     1      -2.916  51.195 -16.527  1.00  0.00    -0.265 OA
BRANCH  29  31
HETATM   31  C21 UNL     1      -0.733  50.258 -16.962  1.00  0.00     0.111 C 
BRANCH  31  32
HETATM   32  C22 UNL     1       0.420  51.193 -17.315  1.00  0.00     0.005 C 
HETATM   33  C23 UNL     1       1.324  51.481 -16.124  1.00  0.00     0.005 C 
ENDBRANCH  31  32
ENDBRANCH  29  31
ENDBRANCH  28  29
ENDBRANCH  15  28
BRANCH  13  34
HETATM   34  O4  UNL     1      -4.137  47.233 -19.759  1.00  0.00    -0.391 OA
HETATM   35  H25 UNL     1      -3.428  47.217 -20.430  1.00  0.00     0.210 HD
ENDBRANCH  13  34
TORSDOF 10
ENDMDL
MODEL 7
REMARK minimizedAffinity -7.92372179
REMARK  10 active torsions:
REMARK  status: ('A' for Active; 'I' for Inactive)
REMARK    1  A    between atoms: C5_5  and  C6_6 
REMARK    2  A    between atoms: C6_6  and  C8_8 
REMARK    3  A    between atoms: C8_8  and  O1_9 
REMARK    4  A    between atoms: O1_9  and  C9_10 
REMARK    5  A    between atoms: C17_20  and  O4_21 
REMARK    6  A    between atoms: C19_23  and  O5_24 
REMARK    7  A    between atoms: O5_24  and  C20_25 
REMARK    8  A    between atoms: C20_25  and  C21_27 
REMARK    9  A    between atoms: C21_27  and  C22_28 
REMARK   10  A    between atoms: C24_30  and  O7_32 
ROOT
HETATM    1  C1  UNL     1       0.212  53.409 -19.937  1.00  0.00     0.015 C 
HETATM    2  C2  UNL     1       0.207  52.557 -20.975  1.00  0.00    -0.082 C 
HETATM    3  C3  UNL     1       1.461  52.272 -21.761  1.00  0.00     0.034 C 
HETATM    4  C4  UNL     1       1.173  51.796 -23.189  1.00  0.00     0.010 C 
HETATM    5  C5  UNL     1      -0.080  52.442 -23.815  1.00  0.00    -0.001 C 
HETATM    6  C11 UNL     1      -1.357  52.142 -22.940  1.00  0.00     0.033 C 
HETATM    7  C12 UNL     1      -2.101  50.852 -23.353  1.00  0.00     0.163 C 
HETATM    8  O3  UNL     1      -1.560  49.803 -22.537  1.00  0.00    -0.376 OA
HETATM    9  C13 UNL     1      -1.008  50.348 -21.337  1.00  0.00     0.134 C 
HETATM   10  C14 UNL     1      -1.649  49.714 -20.090  1.00  0.00     0.068 C 
HETATM   11  C15 UNL     1      -3.094  50.061 -19.795  1.00  0.00    -0.058 C 
HETATM   12  C16 UNL     1      -3.361  51.008 -18.870  1.00  0.00     0.017 C 
HETATM   13  C17 UNL     1      -4.204  49.237 -20.441  1.00  0.00     0.149 C 
HETATM   14  C18 UNL     1      -4.024  48.645 -21.848  1.00  0.00     0.072 C 
HETATM   15  C19 UNL     1      -4.347  49.519 -23.082  1.00  0.00     0.171 C 
HETATM   16  C24 UNL     1      -3.670  50.920 -23.215  1.00  0.00     0.107 C 
HETATM   17  C25 UNL     1      -4.227  51.636 -24.466  1.00  0.00     0.051 C 
HETATM   18  C26 UNL     1      -1.059  51.880 -21.451  1.00  0.00     0.050 C 
ENDROOT
BRANCH   5  19
HETATM   19  C6  UNL     1       0.080  53.986 -24.067  1.00  0.00     0.010 C 
HETATM   20  C7  UNL     1       1.311  54.600 -23.382  1.00  0.00     0.012 C 
BRANCH  19  21
HETATM   21  C8  UNL     1       0.127  54.335 -25.575  1.00  0.00     0.183 C 
BRANCH  21  22
HETATM   22  O1  UNL     1       0.851  53.343 -26.328  1.00  0.00    -0.321 OA
BRANCH  22  23
HETATM   23  C9  UNL     1       0.242  52.819 -27.421  1.00  0.00     0.254 C 
HETATM   24  C10 UNL     1      -0.671  53.836 -28.034  1.00  0.00     0.126 C 
HETATM   25  O2  UNL     1       0.406  51.690 -27.858  1.00  0.00    -0.266 OA
ENDBRANCH  22  23
ENDBRANCH  21  22
ENDBRANCH  19  21
ENDBRANCH   5  19
BRANCH  16  26
HETATM   26  O7  UNL     1      -4.070  51.730 -22.089  1.00  0.00    -0.385 OA
HETATM   27  H39 UNL     1      -4.822  52.284 -22.364  1.00  0.00     0.210 HD
ENDBRANCH  16  26
BRANCH  15  28
HETATM   28  O5  UNL     1      -4.016  48.706 -24.238  1.00  0.00    -0.313 OA
BRANCH  28  29
HETATM   29  C20 UNL     1      -5.022  48.372 -25.088  1.00  0.00     0.259 C 
HETATM   30  O6  UNL     1      -6.183  48.159 -24.771  1.00  0.00    -0.265 OA
BRANCH  29  31
HETATM   31  C21 UNL     1      -4.509  48.312 -26.506  1.00  0.00     0.111 C 
BRANCH  31  32
HETATM   32  C22 UNL     1      -3.022  48.634 -26.598  1.00  0.00     0.005 C 
HETATM   33  C23 UNL     1      -2.750  49.941 -27.332  1.00  0.00     0.005 C 
ENDBRANCH  31  32
ENDBRANCH  29  31
ENDBRANCH  28  29
ENDBRANCH  15  28
BRANCH  13  34
HETATM   34  O4  UNL     1      -5.428  49.975 -20.420  1.00  0.00    -0.391 OA
HETATM   35  H25 UNL     1      -5.181  50.851 -20.776  1.00  0.00     0.210 HD
ENDBRANCH  13  34
TORSDOF 10
ENDMDL
MODEL 8
REMARK minimizedAffinity -7.87310505
REMARK  10 active torsions:
REMARK  status: ('A' for Active; 'I' for Inactive)
REMARK    1  A    between atoms: C5_5  and  C6_6 
REMARK    2  A    between atoms: C6_6  and  C8_8 
REMARK    3  A    between atoms: C8_8  and  O1_9 
REMARK    4  A    between atoms: O1_9  and  C9_10 
REMARK    5  A    between atoms: C17_20  and  O4_21 
REMARK    6  A    between atoms: C19_23  and  O5_24 
REMARK    7  A    between atoms: O5_24  and  C20_25 
REMARK    8  A    between atoms: C20_25  and  C21_27 
REMARK    9  A    between atoms: C21_27  and  C22_28 
REMARK   10  A    between atoms: C24_30  and  O7_32 
ROOT
HETATM    1  C1  UNL     1      -4.307  48.267 -25.157  1.00  0.00     0.015 C 
HETATM    2  C2  UNL     1      -4.154  49.401 -24.454  1.00  0.00    -0.082 C 
HETATM    3  C3  UNL     1      -4.697  50.715 -24.958  1.00  0.00     0.034 C 
HETATM    4  C4  UNL     1      -3.953  51.925 -24.385  1.00  0.00     0.010 C 
HETATM    5  C5  UNL     1      -2.449  51.674 -24.153  1.00  0.00    -0.001 C 
HETATM    6  C11 UNL     1      -2.233  50.463 -23.166  1.00  0.00     0.033 C 
HETATM    7  C12 UNL     1      -2.154  50.883 -21.680  1.00  0.00     0.163 C 
HETATM    8  O3  UNL     1      -3.490  50.783 -21.169  1.00  0.00    -0.376 OA
HETATM    9  C13 UNL     1      -4.249  49.860 -21.951  1.00  0.00     0.134 C 
HETATM   10  C14 UNL     1      -4.830  48.734 -21.077  1.00  0.00     0.068 C 
HETATM   11  C15 UNL     1      -3.857  47.724 -20.503  1.00  0.00    -0.058 C 
HETATM   12  C16 UNL     1      -3.719  46.531 -21.118  1.00  0.00     0.017 C 
HETATM   13  C17 UNL     1      -3.173  48.024 -19.172  1.00  0.00     0.149 C 
HETATM   14  C18 UNL     1      -2.810  49.465 -18.783  1.00  0.00     0.072 C 
HETATM   15  C19 UNL     1      -1.474  50.067 -19.279  1.00  0.00     0.171 C 
HETATM   16  C24 UNL     1      -1.151  50.036 -20.807  1.00  0.00     0.107 C 
HETATM   17  C25 UNL     1       0.271  50.597 -21.036  1.00  0.00     0.051 C 
HETATM   18  C26 UNL     1      -3.387  49.442 -23.152  1.00  0.00     0.050 C 
ENDROOT
BRANCH   5  19
HETATM   19  C6  UNL     1      -1.643  51.462 -25.488  1.00  0.00     0.010 C 
HETATM   20  C7  UNL     1      -2.158  52.310 -26.662  1.00  0.00     0.012 C 
BRANCH  19  21
HETATM   21  C8  UNL     1      -0.129  51.731 -25.310  1.00  0.00     0.183 C 
BRANCH  21  22
HETATM   22  O1  UNL     1       0.420  52.448 -26.432  1.00  0.00    -0.321 OA
BRANCH  22  23
HETATM   23  C9  UNL     1       1.269  51.777 -27.250  1.00  0.00     0.254 C 
HETATM   24  C10 UNL     1       2.507  51.394 -26.499  1.00  0.00     0.126 C 
HETATM   25  O2  UNL     1       1.067  51.511 -28.426  1.00  0.00    -0.266 OA
ENDBRANCH  22  23
ENDBRANCH  21  22
ENDBRANCH  19  21
ENDBRANCH   5  19
BRANCH  16  26
HETATM   26  O7  UNL     1      -1.104  48.659 -21.236  1.00  0.00    -0.385 OA
HETATM   27  H39 UNL     1      -0.173  48.371 -21.232  1.00  0.00     0.210 HD
ENDBRANCH  16  26
BRANCH  15  28
HETATM   28  O5  UNL     1      -1.462  51.440 -18.805  1.00  0.00    -0.313 OA
BRANCH  28  29
HETATM   29  C20 UNL     1      -0.275  51.957 -18.393  1.00  0.00     0.259 C 
HETATM   30  O6  UNL     1       0.515  51.415 -17.634  1.00  0.00    -0.265 OA
BRANCH  29  31
HETATM   31  C21 UNL     1      -0.050  53.311 -19.019  1.00  0.00     0.111 C 
BRANCH  31  32
HETATM   32  C22 UNL     1       1.351  53.455 -19.604  1.00  0.00     0.005 C 
HETATM   33  C23 UNL     1       1.347  54.121 -20.974  1.00  0.00     0.005 C 
ENDBRANCH  31  32
ENDBRANCH  29  31
ENDBRANCH  28  29
ENDBRANCH  15  28
BRANCH  13  34
HETATM   34  O4  UNL     1      -2.001  47.217 -19.040  1.00  0.00    -0.391 OA
HETATM   35  H25 UNL     1      -1.530  47.344 -19.887  1.00  0.00     0.210 HD
ENDBRANCH  13  34
TORSDOF 10
ENDMDL
MODEL 9
REMARK minimizedAffinity -7.68603086
REMARK  10 active torsions:
REMARK  status: ('A' for Active; 'I' for Inactive)
REMARK    1  A    between atoms: C5_5  and  C6_6 
REMARK    2  A    between atoms: C6_6  and  C8_8 
REMARK    3  A    between atoms: C8_8  and  O1_9 
REMARK    4  A    between atoms: O1_9  and  C9_10 
REMARK    5  A    between atoms: C17_20  and  O4_21 
REMARK    6  A    between atoms: C19_23  and  O5_24 
REMARK    7  A    between atoms: O5_24  and  C20_25 
REMARK    8  A    between atoms: C20_25  and  C21_27 
REMARK    9  A    between atoms: C21_27  and  C22_28 
REMARK   10  A    between atoms: C24_30  and  O7_32 
ROOT
HETATM    1  C1  UNL     1      -2.834  50.494 -17.859  1.00  0.00     0.015 C 
HETATM    2  C2  UNL     1      -2.325  50.210 -19.069  1.00  0.00    -0.082 C 
HETATM    3  C3  UNL     1      -0.917  49.693 -19.225  1.00  0.00     0.034 C 
HETATM    4  C4  UNL     1      -0.323  49.990 -20.605  1.00  0.00     0.010 C 
HETATM    5  C5  UNL     1      -0.795  51.329 -21.206  1.00  0.00    -0.001 C 
HETATM    6  C11 UNL     1      -2.366  51.357 -21.340  1.00  0.00     0.033 C 
HETATM    7  C12 UNL     1      -2.880  50.832 -22.701  1.00  0.00     0.163 C 
HETATM    8  O3  UNL     1      -3.135  49.433 -22.516  1.00  0.00    -0.376 OA
HETATM    9  C13 UNL     1      -3.373  49.154 -21.136  1.00  0.00     0.134 C 
HETATM   10  C14 UNL     1      -4.739  48.475 -20.931  1.00  0.00     0.068 C 
HETATM   11  C15 UNL     1      -5.978  49.317 -21.160  1.00  0.00    -0.058 C 
HETATM   12  C16 UNL     1      -6.612  49.846 -20.091  1.00  0.00     0.017 C 
HETATM   13  C17 UNL     1      -6.555  49.424 -22.568  1.00  0.00     0.149 C 
HETATM   14  C18 UNL     1      -5.634  49.402 -23.797  1.00  0.00     0.072 C 
HETATM   15  C19 UNL     1      -4.979  50.719 -24.275  1.00  0.00     0.171 C 
HETATM   16  C24 UNL     1      -4.159  51.570 -23.253  1.00  0.00     0.107 C 
HETATM   17  C25 UNL     1      -3.698  52.877 -23.937  1.00  0.00     0.051 C 
HETATM   18  C26 UNL     1      -3.104  50.443 -20.343  1.00  0.00     0.050 C 
ENDROOT
BRANCH   5  19
HETATM   19  C6  UNL     1      -0.277  52.583 -20.409  1.00  0.00     0.010 C 
HETATM   20  C7  UNL     1       0.605  52.226 -19.202  1.00  0.00     0.012 C 
BRANCH  19  21
HETATM   21  C8  UNL     1       0.497  53.575 -21.311  1.00  0.00     0.183 C 
BRANCH  21  22
HETATM   22  O1  UNL     1       0.878  52.972 -22.562  1.00  0.00    -0.321 OA
BRANCH  22  23
HETATM   23  C9  UNL     1       0.807  53.742 -23.677  1.00  0.00     0.254 C 
HETATM   24  C10 UNL     1      -0.251  53.215 -24.596  1.00  0.00     0.126 C 
HETATM   25  O2  UNL     1       1.493  54.727 -23.910  1.00  0.00    -0.266 OA
ENDBRANCH  22  23
ENDBRANCH  21  22
ENDBRANCH  19  21
ENDBRANCH   5  19
BRANCH  16  26
HETATM   26  O7  UNL     1      -5.042  51.975 -22.185  1.00  0.00    -0.385 OA
HETATM   27  H39 UNL     1      -5.362  52.875 -22.380  1.00  0.00     0.210 HD
ENDBRANCH  16  26
BRANCH  15  28
HETATM   28  O5  UNL     1      -4.131  50.353 -25.396  1.00  0.00    -0.313 OA
BRANCH  28  29
HETATM   29  C20 UNL     1      -4.045  49.037 -25.723  1.00  0.00     0.259 C 
HETATM   30  O6  UNL     1      -4.961  48.229 -25.677  1.00  0.00    -0.265 OA
BRANCH  29  31
HETATM   31  C21 UNL     1      -2.644  48.701 -26.171  1.00  0.00     0.111 C 
BRANCH  31  32
HETATM   32  C22 UNL     1      -1.946  49.887 -26.828  1.00  0.00     0.005 C 
HETATM   33  C23 UNL     1      -0.615  50.221 -26.167  1.00  0.00     0.005 C 
ENDBRANCH  31  32
ENDBRANCH  29  31
ENDBRANCH  28  29
ENDBRANCH  15  28
BRANCH  13  34
HETATM   34  O4  UNL     1      -7.393  50.579 -22.659  1.00  0.00    -0.391 OA
HETATM   35  H25 UNL     1      -6.847  51.297 -22.284  1.00  0.00     0.210 HD
ENDBRANCH  13  34
TORSDOF 10
ENDMDL
