MODEL 1
REMARK minimizedAffinity -8.30621433
REMARK  8 active torsions:
REMARK  status: ('A' for Active; 'I' for Inactive)
REMARK    1  A    between atoms: C4_4  and  C5_5 
REMARK    2  A    between atoms: C5_5  and  O2_7 
REMARK    3  A    between atoms: O2_7  and  C6_8 
REMARK    4  A    between atoms: C15_17  and  C16_18 
REMARK    5  A    between atoms: C16_18  and  O4_20 
REMARK    6  A    between atoms: O4_20  and  C17_21 
REMARK    7  A    between atoms: C17_21  and  C18_22 
REMARK    8  A    between atoms: C18_22  and  N1_23 
ROOT
HETATM    1  C6  UNL     1      -2.066  51.071 -24.709  1.00  0.00     0.140 C 
HETATM    2  C7  UNL     1      -2.195  52.321 -23.836  1.00  0.00     0.034 C 
HETATM    3  C8  UNL     1      -1.999  51.985 -22.365  1.00  0.00     0.012 C 
HETATM    4  C9  UNL     1      -2.991  50.919 -21.823  1.00  0.00    -0.035 C 
HETATM    5  C10 UNL     1      -4.377  51.589 -21.647  1.00  0.00     0.016 C 
HETATM    6  C11 UNL     1      -2.438  50.412 -20.419  1.00  0.00     0.006 C 
HETATM    7  C12 UNL     1      -2.737  51.354 -19.242  1.00  0.00     0.010 C 
HETATM    8  C13 UNL     1      -1.911  50.974 -18.010  1.00  0.00     0.035 C 
HETATM    9  C14 UNL     1      -1.838  49.480 -17.762  1.00  0.00    -0.070 C 
HETATM   10  C15 UNL     1      -0.914  48.917 -16.952  1.00  0.00     0.085 C 
HETATM   11  C21 UNL     1      -2.903  48.675 -18.524  1.00  0.00     0.022 C 
HETATM   12  C22 UNL     1      -2.883  47.159 -18.251  1.00  0.00     0.015 C 
HETATM   13  C23 UNL     1      -2.811  48.944 -20.055  1.00  0.00     0.068 C 
HETATM   14  C24 UNL     1      -4.087  48.554 -20.786  1.00  0.00     0.132 C 
HETATM   15  O5  UNL     1      -5.100  48.154 -20.212  1.00  0.00    -0.298 OA
HETATM   16  C25 UNL     1      -4.054  48.639 -22.298  1.00  0.00     0.085 C 
HETATM   17  C26 UNL     1      -3.032  49.683 -22.792  1.00  0.00     0.011 C 
HETATM   18  C27 UNL     1      -3.121  49.982 -24.339  1.00  0.00    -0.016 C 
HETATM   19  C28 UNL     1      -4.523  50.391 -24.850  1.00  0.00     0.018 C 
HETATM   20  C29 UNL     1      -2.757  48.689 -25.118  1.00  0.00     0.018 C 
ENDROOT
BRANCH  10  21
HETATM   21  C16 UNL     1       0.156  49.533 -16.125  1.00  0.00     0.283 C 
HETATM   22  O3  UNL     1       0.372  49.156 -14.982  1.00  0.00    -0.260 OA
BRANCH  21  23
HETATM   23  O4  UNL     1       0.799  50.535 -16.765  1.00  0.00    -0.316 OA
BRANCH  23  24
HETATM   24  C17 UNL     1       0.932  51.770 -16.038  1.00  0.00     0.209 C 
BRANCH  24  25
HETATM   25  C18 UNL     1       2.141  52.564 -16.562  1.00  0.00     0.298 C 
BRANCH  25  26
HETATM   26  N1  UNL     1       3.281  52.612 -15.626  1.00  0.00     0.082 N 
HETATM   27  C19 UNL     1       4.509  52.200 -16.313  1.00  0.00     0.309 C 
HETATM   28  C20 UNL     1       3.064  51.763 -14.454  1.00  0.00     0.309 C 
ENDBRANCH  25  26
ENDBRANCH  24  25
ENDBRANCH  23  24
ENDBRANCH  21  23
ENDBRANCH  10  21
BRANCH   1  29
HETATM   29  O2  UNL     1      -2.230  51.447 -26.090  1.00  0.00    -0.312 OA
BRANCH  29  30
HETATM   30  C5  UNL     1      -1.340  52.335 -26.590  1.00  0.00     0.283 C 
HETATM   31  O1  UNL     1      -1.605  53.347 -27.220  1.00  0.00    -0.260 OA
BRANCH  30  32
HETATM   32  C4  UNL     1       0.044  51.983 -26.206  1.00  0.00     0.084 C 
HETATM   33  C2  UNL     1       1.085  51.686 -27.010  1.00  0.00    -0.082 C 
HETATM   34  C1  UNL     1       1.066  51.713 -28.513  1.00  0.00     0.043 C 
HETATM   35  C3  UNL     1       2.419  51.311 -26.414  1.00  0.00     0.043 C 
ENDBRANCH  30  32
ENDBRANCH  29  30
ENDBRANCH   1  29
TORSDOF 8
ENDMDL
MODEL 2
REMARK minimizedAffinity -8.20555401
REMARK  8 active torsions:
REMARK  status: ('A' for Active; 'I' for Inactive)
REMARK    1  A    between atoms: C4_4  and  C5_5 
REMARK    2  A    between atoms: C5_5  and  O2_7 
REMARK    3  A    between atoms: O2_7  and  C6_8 
REMARK    4  A    between atoms: C15_17  and  C16_18 
REMARK    5  A    between atoms: C16_18  and  O4_20 
REMARK    6  A    between atoms: O4_20  and  C17_21 
REMARK    7  A    between atoms: C17_21  and  C18_22 
REMARK    8  A    between atoms: C18_22  and  N1_23 
ROOT
HETATM    1  C6  UNL     1      -2.084  51.224 -25.402  1.00  0.00     0.140 C 
HETATM    2  C7  UNL     1      -2.614  52.395 -24.573  1.00  0.00     0.034 C 
HETATM    3  C8  UNL     1      -2.512  52.102 -23.083  1.00  0.00     0.012 C 
HETATM    4  C9  UNL     1      -3.268  50.819 -22.638  1.00  0.00    -0.035 C 
HETATM    5  C10 UNL     1      -4.786  51.128 -22.633  1.00  0.00     0.016 C 
HETATM    6  C11 UNL     1      -2.772  50.449 -21.172  1.00  0.00     0.006 C 
HETATM    7  C12 UNL     1      -3.425  51.277 -20.053  1.00  0.00     0.010 C 
HETATM    8  C13 UNL     1      -2.677  51.098 -18.729  1.00  0.00     0.035 C 
HETATM    9  C14 UNL     1      -2.269  49.665 -18.447  1.00  0.00    -0.070 C 
HETATM   10  C15 UNL     1      -1.335  49.337 -17.527  1.00  0.00     0.085 C 
HETATM   11  C21 UNL     1      -3.011  48.632 -19.311  1.00  0.00     0.022 C 
HETATM   12  C22 UNL     1      -2.652  47.164 -19.010  1.00  0.00     0.015 C 
HETATM   13  C23 UNL     1      -2.813  48.931 -20.825  1.00  0.00     0.068 C 
HETATM   14  C24 UNL     1      -3.862  48.248 -21.689  1.00  0.00     0.132 C 
HETATM   15  O5  UNL     1      -4.806  47.605 -21.227  1.00  0.00    -0.298 OA
HETATM   16  C25 UNL     1      -3.678  48.354 -23.189  1.00  0.00     0.085 C 
HETATM   17  C26 UNL     1      -2.894  49.622 -23.583  1.00  0.00     0.011 C 
HETATM   18  C27 UNL     1      -2.876  49.906 -25.135  1.00  0.00    -0.016 C 
HETATM   19  C28 UNL     1      -4.267  49.964 -25.809  1.00  0.00     0.018 C 
HETATM   20  C29 UNL     1      -2.119  48.750 -25.845  1.00  0.00     0.018 C 
ENDROOT
BRANCH  10  21
HETATM   21  C16 UNL     1      -0.550  50.188 -16.596  1.00  0.00     0.283 C 
HETATM   22  O3  UNL     1      -1.011  50.544 -15.520  1.00  0.00    -0.260 OA
BRANCH  21  23
HETATM   23  O4  UNL     1       0.661  50.524 -17.090  1.00  0.00    -0.316 OA
BRANCH  23  24
HETATM   24  C17 UNL     1       0.860  51.918 -17.392  1.00  0.00     0.209 C 
BRANCH  24  25
HETATM   25  C18 UNL     1       1.570  52.617 -16.220  1.00  0.00     0.298 C 
BRANCH  25  26
HETATM   26  N1  UNL     1       2.762  51.900 -15.725  1.00  0.00     0.082 N 
HETATM   27  C19 UNL     1       2.655  51.695 -14.276  1.00  0.00     0.309 C 
HETATM   28  C20 UNL     1       3.999  52.619 -16.030  1.00  0.00     0.309 C 
ENDBRANCH  25  26
ENDBRANCH  24  25
ENDBRANCH  23  24
ENDBRANCH  21  23
ENDBRANCH  10  21
BRANCH   1  29
HETATM   29  O2  UNL     1      -2.176  51.563 -26.800  1.00  0.00    -0.312 OA
BRANCH  29  30
HETATM   30  C5  UNL     1      -1.242  52.414 -27.283  1.00  0.00     0.283 C 
HETATM   31  O1  UNL     1      -1.433  53.564 -27.648  1.00  0.00    -0.260 OA
BRANCH  30  32
HETATM   32  C4  UNL     1       0.107  51.812 -27.244  1.00  0.00     0.084 C 
HETATM   33  C2  UNL     1       1.068  51.972 -26.312  1.00  0.00    -0.082 C 
HETATM   34  C1  UNL     1       0.936  52.774 -25.047  1.00  0.00     0.043 C 
HETATM   35  C3  UNL     1       2.405  51.294 -26.478  1.00  0.00     0.043 C 
ENDBRANCH  30  32
ENDBRANCH  29  30
ENDBRANCH   1  29
TORSDOF 8
ENDMDL
MODEL 3
REMARK minimizedAffinity -8.1129961
REMARK  8 active torsions:
REMARK  status: ('A' for Active; 'I' for Inactive)
REMARK    1  A    between atoms: C4_4  and  C5_5 
REMARK    2  A    between atoms: C5_5  and  O2_7 
REMARK    3  A    between atoms: O2_7  and  C6_8 
REMARK    4  A    between atoms: C15_17  and  C16_18 
REMARK    5  A    between atoms: C16_18  and  O4_20 
REMARK    6  A    between atoms: O4_20  and  C17_21 
REMARK    7  A    between atoms: C17_21  and  C18_22 
REMARK    8  A    between atoms: C18_22  and  N1_23 
ROOT
HETATM    1  C6  UNL     1      -2.089  51.671 -25.802  1.00  0.00     0.140 C 
HETATM    2  C7  UNL     1      -3.012  52.639 -25.060  1.00  0.00     0.034 C 
HETATM    3  C8  UNL     1      -3.054  52.324 -23.572  1.00  0.00     0.012 C 
HETATM    4  C9  UNL     1      -3.517  50.878 -23.245  1.00  0.00    -0.035 C 
HETATM    5  C10 UNL     1      -5.048  50.796 -23.466  1.00  0.00     0.016 C 
HETATM    6  C11 UNL     1      -3.160  50.587 -21.722  1.00  0.00     0.006 C 
HETATM    7  C12 UNL     1      -4.155  51.182 -20.712  1.00  0.00     0.010 C 
HETATM    8  C13 UNL     1      -3.586  51.145 -19.292  1.00  0.00     0.035 C 
HETATM    9  C14 UNL     1      -2.873  49.850 -18.953  1.00  0.00    -0.070 C 
HETATM   10  C15 UNL     1      -2.029  49.731 -17.905  1.00  0.00     0.085 C 
HETATM   11  C21 UNL     1      -3.197  48.698 -19.918  1.00  0.00     0.022 C 
HETATM   12  C22 UNL     1      -2.526  47.356 -19.568  1.00  0.00     0.015 C 
HETATM   13  C23 UNL     1      -2.866  49.094 -21.386  1.00  0.00     0.068 C 
HETATM   14  C24 UNL     1      -3.573  48.205 -22.397  1.00  0.00     0.132 C 
HETATM   15  O5  UNL     1      -4.379  47.329 -22.081  1.00  0.00    -0.298 OA
HETATM   16  C25 UNL     1      -3.207  48.411 -23.853  1.00  0.00     0.085 C 
HETATM   17  C26 UNL     1      -2.721  49.848 -24.125  1.00  0.00     0.011 C 
HETATM   18  C27 UNL     1      -2.552  50.187 -25.657  1.00  0.00    -0.016 C 
HETATM   19  C28 UNL     1      -3.801  49.921 -26.530  1.00  0.00     0.018 C 
HETATM   20  C29 UNL     1      -1.433  49.285 -26.246  1.00  0.00     0.018 C 
ENDROOT
BRANCH  10  21
HETATM   21  C16 UNL     1      -1.627  50.715 -16.866  1.00  0.00     0.283 C 
HETATM   22  O3  UNL     1      -2.320  50.913 -15.878  1.00  0.00    -0.260 OA
BRANCH  21  23
HETATM   23  O4  UNL     1      -0.474  51.350 -17.167  1.00  0.00    -0.316 OA
BRANCH  23  24
HETATM   24  C17 UNL     1      -0.057  51.293 -18.543  1.00  0.00     0.209 C 
BRANCH  24  25
HETATM   25  C18 UNL     1       0.556  52.639 -18.966  1.00  0.00     0.298 C 
BRANCH  25  26
HETATM   26  N1  UNL     1       0.360  52.968 -20.392  1.00  0.00     0.082 N 
HETATM   27  C19 UNL     1       0.335  51.738 -21.190  1.00  0.00     0.309 C 
HETATM   28  C20 UNL     1       1.404  53.862 -20.896  1.00  0.00     0.309 C 
ENDBRANCH  25  26
ENDBRANCH  24  25
ENDBRANCH  23  24
ENDBRANCH  21  23
ENDBRANCH  10  21
BRANCH   1  29
HETATM   29  O2  UNL     1      -2.062  52.028 -27.198  1.00  0.00    -0.312 OA
BRANCH  29  30
HETATM   30  C5  UNL     1      -1.118  52.921 -27.579  1.00  0.00     0.283 C 
HETATM   31  O1  UNL     1      -1.293  54.112 -27.787  1.00  0.00    -0.260 OA
BRANCH  30  32
HETATM   32  C4  UNL     1       0.220  52.296 -27.640  1.00  0.00     0.084 C 
HETATM   33  C2  UNL     1       1.148  52.211 -26.665  1.00  0.00    -0.082 C 
HETATM   34  C1  UNL     1       0.980  52.695 -25.251  1.00  0.00     0.043 C 
HETATM   35  C3  UNL     1       2.481  51.562 -26.944  1.00  0.00     0.043 C 
ENDBRANCH  30  32
ENDBRANCH  29  30
ENDBRANCH   1  29
TORSDOF 8
ENDMDL
MODEL 4
REMARK minimizedAffinity -8.05518055
REMARK  8 active torsions:
REMARK  status: ('A' for Active; 'I' for Inactive)
REMARK    1  A    between atoms: C4_4  and  C5_5 
REMARK    2  A    between atoms: C5_5  and  O2_7 
REMARK    3  A    between atoms: O2_7  and  C6_8 
REMARK    4  A    between atoms: C15_17  and  C16_18 
REMARK    5  A    between atoms: C16_18  and  O4_20 
REMARK    6  A    between atoms: O4_20  and  C17_21 
REMARK    7  A    between atoms: C17_21  and  C18_22 
REMARK    8  A    between atoms: C18_22  and  N1_23 
ROOT
HETATM    1  C6  UNL     1      -1.584  52.143 -24.762  1.00  0.00     0.140 C 
HETATM    2  C7  UNL     1      -2.309  52.959 -23.690  1.00  0.00     0.034 C 
HETATM    3  C8  UNL     1      -2.638  52.102 -22.477  1.00  0.00     0.012 C 
HETATM    4  C9  UNL     1      -3.509  50.856 -22.800  1.00  0.00    -0.035 C 
HETATM    5  C10 UNL     1      -4.962  51.333 -23.054  1.00  0.00     0.016 C 
HETATM    6  C11 UNL     1      -3.456  49.887 -21.539  1.00  0.00     0.006 C 
HETATM    7  C12 UNL     1      -4.386  50.294 -20.385  1.00  0.00     0.010 C 
HETATM    8  C13 UNL     1      -4.047  49.521 -19.108  1.00  0.00     0.035 C 
HETATM    9  C14 UNL     1      -3.759  48.051 -19.342  1.00  0.00    -0.070 C 
HETATM   10  C15 UNL     1      -3.129  47.275 -18.432  1.00  0.00     0.085 C 
HETATM   11  C21 UNL     1      -4.241  47.538 -20.708  1.00  0.00     0.022 C 
HETATM   12  C22 UNL     1      -4.006  46.035 -20.952  1.00  0.00     0.015 C 
HETATM   13  C23 UNL     1      -3.618  48.372 -21.865  1.00  0.00     0.068 C 
HETATM   14  C24 UNL     1      -4.390  48.219 -23.167  1.00  0.00     0.132 C 
HETATM   15  O5  UNL     1      -5.435  47.575 -23.262  1.00  0.00    -0.298 OA
HETATM   16  C25 UNL     1      -3.786  48.873 -24.393  1.00  0.00     0.085 C 
HETATM   17  C26 UNL     1      -2.902  50.081 -24.024  1.00  0.00     0.011 C 
HETATM   18  C27 UNL     1      -2.440  50.939 -25.265  1.00  0.00    -0.016 C 
HETATM   19  C28 UNL     1      -3.583  51.432 -26.184  1.00  0.00     0.018 C 
HETATM   20  C29 UNL     1      -1.532  50.059 -26.168  1.00  0.00     0.018 C 
ENDROOT
BRANCH  10  21
HETATM   21  C16 UNL     1      -2.627  47.590 -17.070  1.00  0.00     0.283 C 
HETATM   22  O3  UNL     1      -2.774  46.807 -16.142  1.00  0.00    -0.260 OA
BRANCH  21  23
HETATM   23  O4  UNL     1      -2.048  48.808 -16.995  1.00  0.00    -0.316 OA
BRANCH  23  24
HETATM   24  C17 UNL     1      -0.950  48.934 -16.073  1.00  0.00     0.209 C 
BRANCH  24  25
HETATM   25  C18 UNL     1       0.241  49.625 -16.760  1.00  0.00     0.298 C 
BRANCH  25  26
HETATM   26  N1  UNL     1       0.040  51.066 -17.007  1.00  0.00     0.082 N 
HETATM   27  C19 UNL     1      -0.182  51.302 -18.437  1.00  0.00     0.309 C 
HETATM   28  C20 UNL     1       1.177  51.864 -16.546  1.00  0.00     0.309 C 
ENDBRANCH  25  26
ENDBRANCH  24  25
ENDBRANCH  23  24
ENDBRANCH  21  23
ENDBRANCH  10  21
BRANCH   1  29
HETATM   29  O2  UNL     1      -1.271  53.004 -25.873  1.00  0.00    -0.312 OA
BRANCH  29  30
HETATM   30  C5  UNL     1      -0.089  53.661 -25.820  1.00  0.00     0.283 C 
HETATM   31  O1  UNL     1       0.063  54.872 -25.770  1.00  0.00    -0.260 OA
BRANCH  30  32
HETATM   32  C4  UNL     1       1.047  52.719 -25.742  1.00  0.00     0.084 C 
HETATM   33  C2  UNL     1       1.544  51.925 -26.712  1.00  0.00    -0.082 C 
HETATM   34  C1  UNL     1       1.069  51.883 -28.138  1.00  0.00     0.043 C 
HETATM   35  C3  UNL     1       2.695  50.997 -26.415  1.00  0.00     0.043 C 
ENDBRANCH  30  32
ENDBRANCH  29  30
ENDBRANCH   1  29
TORSDOF 8
ENDMDL
MODEL 5
REMARK minimizedAffinity -8.04791355
REMARK  8 active torsions:
REMARK  status: ('A' for Active; 'I' for Inactive)
REMARK    1  A    between atoms: C4_4  and  C5_5 
REMARK    2  A    between atoms: C5_5  and  O2_7 
REMARK    3  A    between atoms: O2_7  and  C6_8 
REMARK    4  A    between atoms: C15_17  and  C16_18 
REMARK    5  A    between atoms: C16_18  and  O4_20 
REMARK    6  A    between atoms: O4_20  and  C17_21 
REMARK    7  A    between atoms: C17_21  and  C18_22 
REMARK    8  A    between atoms: C18_22  and  N1_23 
ROOT
HETATM    1  C6  UNL     1      -2.503  52.341 -25.280  1.00  0.00     0.140 C 
HETATM    2  C7  UNL     1      -2.252  51.470 -26.512  1.00  0.00     0.034 C 
HETATM    3  C8  UNL     1      -3.431  50.546 -26.779  1.00  0.00     0.012 C 
HETATM    4  C9  UNL     1      -3.779  49.606 -25.593  1.00  0.00    -0.035 C 
HETATM    5  C10 UNL     1      -2.712  48.484 -25.533  1.00  0.00     0.016 C 
HETATM    6  C11 UNL     1      -5.219  48.987 -25.870  1.00  0.00     0.006 C 
HETATM    7  C12 UNL     1      -5.225  47.812 -26.861  1.00  0.00     0.010 C 
HETATM    8  C13 UNL     1      -6.649  47.488 -27.322  1.00  0.00     0.035 C 
HETATM    9  C14 UNL     1      -7.673  47.518 -26.204  1.00  0.00    -0.070 C 
HETATM   10  C15 UNL     1      -9.003  47.591 -26.431  1.00  0.00     0.085 C 
HETATM   11  C21 UNL     1      -7.053  47.467 -24.798  1.00  0.00     0.022 C 
HETATM   12  C22 UNL     1      -8.074  47.445 -23.644  1.00  0.00     0.015 C 
HETATM   13  C23 UNL     1      -6.041  48.632 -24.595  1.00  0.00     0.068 C 
HETATM   14  C24 UNL     1      -5.087  48.373 -23.439  1.00  0.00     0.132 C 
HETATM   15  O5  UNL     1      -5.070  47.321 -22.799  1.00  0.00    -0.298 OA
HETATM   16  C25 UNL     1      -4.155  49.507 -23.063  1.00  0.00     0.085 C 
HETATM   17  C26 UNL     1      -3.866  50.434 -24.260  1.00  0.00     0.011 C 
HETATM   18  C27 UNL     1      -2.723  51.488 -23.991  1.00  0.00    -0.016 C 
HETATM   19  C28 UNL     1      -1.383  50.893 -23.498  1.00  0.00     0.018 C 
HETATM   20  C29 UNL     1      -3.190  52.450 -22.864  1.00  0.00     0.018 C 
ENDROOT
BRANCH  10  21
HETATM   21  C16 UNL     1      -9.769  47.619 -27.704  1.00  0.00     0.283 C 
HETATM   22  O3  UNL     1     -10.920  48.032 -27.744  1.00  0.00    -0.260 OA
BRANCH  21  23
HETATM   23  O4  UNL     1      -9.070  47.120 -28.747  1.00  0.00    -0.316 OA
BRANCH  23  24
HETATM   24  C17 UNL     1      -9.057  47.919 -29.944  1.00  0.00     0.209 C 
BRANCH  24  25
HETATM   25  C18 UNL     1      -8.407  47.135 -31.096  1.00  0.00     0.298 C 
BRANCH  25  26
HETATM   26  N1  UNL     1      -7.766  47.986 -32.118  1.00  0.00     0.082 N 
HETATM   27  C19 UNL     1      -8.264  47.627 -33.451  1.00  0.00     0.309 C 
HETATM   28  C20 UNL     1      -6.307  47.872 -32.090  1.00  0.00     0.309 C 
ENDBRANCH  25  26
ENDBRANCH  24  25
ENDBRANCH  23  24
ENDBRANCH  21  23
ENDBRANCH  10  21
BRANCH   1  29
HETATM   29  O2  UNL     1      -1.373  53.214 -25.087  1.00  0.00    -0.312 OA
BRANCH  29  30
HETATM   30  C5  UNL     1      -0.554  53.393 -26.150  1.00  0.00     0.283 C 
HETATM   31  O1  UNL     1      -0.771  54.105 -27.118  1.00  0.00    -0.260 OA
BRANCH  30  32
HETATM   32  C4  UNL     1       0.724  52.672 -25.971  1.00  0.00     0.084 C 
HETATM   33  C2  UNL     1       1.387  51.911 -26.866  1.00  0.00    -0.082 C 
HETATM   34  C1  UNL     1       0.981  51.686 -28.296  1.00  0.00     0.043 C 
HETATM   35  C3  UNL     1       2.669  51.222 -26.471  1.00  0.00     0.043 C 
ENDBRANCH  30  32
ENDBRANCH  29  30
ENDBRANCH   1  29
TORSDOF 8
ENDMDL
MODEL 6
REMARK minimizedAffinity -7.94284248
REMARK  8 active torsions:
REMARK  status: ('A' for Active; 'I' for Inactive)
REMARK    1  A    between atoms: C4_4  and  C5_5 
REMARK    2  A    between atoms: C5_5  and  O2_7 
REMARK    3  A    between atoms: O2_7  and  C6_8 
REMARK    4  A    between atoms: C15_17  and  C16_18 
REMARK    5  A    between atoms: C16_18  and  O4_20 
REMARK    6  A    between atoms: O4_20  and  C17_21 
REMARK    7  A    between atoms: C17_21  and  C18_22 
REMARK    8  A    between atoms: C18_22  and  N1_23 
ROOT
HETATM    1  C6  UNL     1      -0.702  50.222 -21.709  1.00  0.00     0.140 C 
HETATM    2  C7  UNL     1      -0.627  51.623 -21.098  1.00  0.00     0.034 C 
HETATM    3  C8  UNL     1      -0.056  51.576 -19.689  1.00  0.00     0.012 C 
HETATM    4  C9  UNL     1      -0.856  50.670 -18.712  1.00  0.00    -0.035 C 
HETATM    5  C10 UNL     1      -2.163  51.408 -18.327  1.00  0.00     0.016 C 
HETATM    6  C11 UNL     1       0.046  50.431 -17.423  1.00  0.00     0.006 C 
HETATM    7  C12 UNL     1       0.040  51.595 -16.419  1.00  0.00     0.010 C 
HETATM    8  C13 UNL     1       1.161  51.437 -15.388  1.00  0.00     0.035 C 
HETATM    9  C14 UNL     1       1.322  50.019 -14.875  1.00  0.00    -0.070 C 
HETATM   10  C15 UNL     1       2.432  49.596 -14.231  1.00  0.00     0.085 C 
HETATM   11  C21 UNL     1       0.113  49.116 -15.167  1.00  0.00     0.022 C 
HETATM   12  C22 UNL     1       0.230  47.684 -14.612  1.00  0.00     0.015 C 
HETATM   13  C23 UNL     1      -0.195  49.076 -16.692  1.00  0.00     0.068 C 
HETATM   14  C24 UNL     1      -1.607  48.593 -16.983  1.00  0.00     0.132 C 
HETATM   15  O5  UNL     1      -2.433  48.347 -16.103  1.00  0.00    -0.298 OA
HETATM   16  C25 UNL     1      -1.963  48.378 -18.440  1.00  0.00     0.085 C 
HETATM   17  C26 UNL     1      -1.121  49.270 -19.374  1.00  0.00     0.011 C 
HETATM   18  C27 UNL     1      -1.608  49.263 -20.875  1.00  0.00    -0.016 C 
HETATM   19  C28 UNL     1      -3.101  49.610 -21.083  1.00  0.00     0.018 C 
HETATM   20  C29 UNL     1      -1.431  47.830 -21.449  1.00  0.00     0.018 C 
ENDROOT
BRANCH  10  21
HETATM   21  C16 UNL     1       3.667  50.326 -13.843  1.00  0.00     0.283 C 
HETATM   22  O3  UNL     1       4.776  49.850 -14.042  1.00  0.00    -0.260 OA
BRANCH  21  23
HETATM   23  O4  UNL     1       3.408  51.507 -13.241  1.00  0.00    -0.316 OA
BRANCH  23  24
HETATM   24  C17 UNL     1       2.766  51.438 -11.954  1.00  0.00     0.209 C 
BRANCH  24  25
HETATM   25  C18 UNL     1       2.630  52.848 -11.354  1.00  0.00     0.298 C 
BRANCH  25  26
HETATM   26  N1  UNL     1       1.247  53.219 -10.997  1.00  0.00     0.082 N 
HETATM   27  C19 UNL     1       0.337  52.866 -12.092  1.00  0.00     0.309 C 
HETATM   28  C20 UNL     1       1.124  54.646 -10.696  1.00  0.00     0.309 C 
ENDBRANCH  25  26
ENDBRANCH  24  25
ENDBRANCH  23  24
ENDBRANCH  21  23
ENDBRANCH  10  21
BRANCH   1  29
HETATM   29  O2  UNL     1      -1.221  50.324 -23.049  1.00  0.00    -0.312 OA
BRANCH  29  30
HETATM   30  C5  UNL     1      -1.196  51.552 -23.620  1.00  0.00     0.283 C 
HETATM   31  O1  UNL     1      -2.056  52.413 -23.517  1.00  0.00    -0.260 OA
BRANCH  30  32
HETATM   32  C4  UNL     1       0.072  51.783 -24.343  1.00  0.00     0.084 C 
HETATM   33  C2  UNL     1       0.404  51.399 -25.592  1.00  0.00    -0.082 C 
HETATM   34  C1  UNL     1      -0.500  50.687 -26.559  1.00  0.00     0.043 C 
HETATM   35  C3  UNL     1       1.778  51.703 -26.136  1.00  0.00     0.043 C 
ENDBRANCH  30  32
ENDBRANCH  29  30
ENDBRANCH   1  29
TORSDOF 8
ENDMDL
MODEL 7
REMARK minimizedAffinity -7.85435486
REMARK  8 active torsions:
REMARK  status: ('A' for Active; 'I' for Inactive)
REMARK    1  A    between atoms: C4_4  and  C5_5 
REMARK    2  A    between atoms: C5_5  and  O2_7 
REMARK    3  A    between atoms: O2_7  and  C6_8 
REMARK    4  A    between atoms: C15_17  and  C16_18 
REMARK    5  A    between atoms: C16_18  and  O4_20 
REMARK    6  A    between atoms: O4_20  and  C17_21 
REMARK    7  A    between atoms: C17_21  and  C18_22 
REMARK    8  A    between atoms: C18_22  and  N1_23 
ROOT
HETATM    1  C6  UNL     1      -2.384  51.137 -25.087  1.00  0.00     0.140 C 
HETATM    2  C7  UNL     1      -2.694  52.360 -24.221  1.00  0.00     0.034 C 
HETATM    3  C8  UNL     1      -2.410  52.078 -22.753  1.00  0.00     0.012 C 
HETATM    4  C9  UNL     1      -3.200  50.870 -22.176  1.00  0.00    -0.035 C 
HETATM    5  C10 UNL     1      -4.672  51.307 -21.970  1.00  0.00     0.016 C 
HETATM    6  C11 UNL     1      -2.538  50.478 -20.784  1.00  0.00     0.006 C 
HETATM    7  C12 UNL     1      -2.958  51.372 -19.606  1.00  0.00     0.010 C 
HETATM    8  C13 UNL     1      -2.051  51.147 -18.393  1.00  0.00     0.035 C 
HETATM    9  C14 UNL     1      -1.728  49.688 -18.136  1.00  0.00    -0.070 C 
HETATM   10  C15 UNL     1      -0.705  49.293 -17.345  1.00  0.00     0.085 C 
HETATM   11  C21 UNL     1      -2.665  48.711 -18.864  1.00  0.00     0.022 C 
HETATM   12  C22 UNL     1      -2.390  47.222 -18.579  1.00  0.00     0.015 C 
HETATM   13  C23 UNL     1      -2.656  48.972 -20.398  1.00  0.00     0.068 C 
HETATM   14  C24 UNL     1      -3.868  48.371 -21.092  1.00  0.00     0.132 C 
HETATM   15  O5  UNL     1      -4.788  47.817 -20.489  1.00  0.00    -0.298 OA
HETATM   16  C25 UNL     1      -3.886  48.442 -22.606  1.00  0.00     0.085 C 
HETATM   17  C26 UNL     1      -3.063  49.633 -23.135  1.00  0.00     0.011 C 
HETATM   18  C27 UNL     1      -3.237  49.895 -24.681  1.00  0.00    -0.016 C 
HETATM   19  C28 UNL     1      -4.699  50.063 -25.158  1.00  0.00     0.018 C 
HETATM   20  C29 UNL     1      -2.685  48.669 -25.459  1.00  0.00     0.018 C 
ENDROOT
BRANCH  10  21
HETATM   21  C16 UNL     1       0.270  50.086 -16.552  1.00  0.00     0.283 C 
HETATM   22  O3  UNL     1       0.957  50.953 -17.074  1.00  0.00    -0.260 OA
BRANCH  21  23
HETATM   23  O4  UNL     1       0.314  49.714 -15.255  1.00  0.00    -0.316 OA
BRANCH  23  24
HETATM   24  C17 UNL     1      -0.879  49.953 -14.484  1.00  0.00     0.209 C 
BRANCH  24  25
HETATM   25  C18 UNL     1      -0.924  51.419 -14.021  1.00  0.00     0.298 C 
BRANCH  25  26
HETATM   26  N1  UNL     1      -1.831  51.663 -12.882  1.00  0.00     0.082 N 
HETATM   27  C19 UNL     1      -3.105  52.206 -13.365  1.00  0.00     0.309 C 
HETATM   28  C20 UNL     1      -1.245  52.579 -11.902  1.00  0.00     0.309 C 
ENDBRANCH  25  26
ENDBRANCH  24  25
ENDBRANCH  23  24
ENDBRANCH  21  23
ENDBRANCH  10  21
BRANCH   1  29
HETATM   29  O2  UNL     1      -2.641  51.464 -26.466  1.00  0.00    -0.312 OA
BRANCH  29  30
HETATM   30  C5  UNL     1      -1.769  52.309 -27.064  1.00  0.00     0.283 C 
HETATM   31  O1  UNL     1      -2.021  53.428 -27.485  1.00  0.00    -0.260 OA
BRANCH  30  32
HETATM   32  C4  UNL     1      -0.402  51.748 -27.082  1.00  0.00     0.084 C 
HETATM   33  C2  UNL     1       0.661  52.112 -26.338  1.00  0.00    -0.082 C 
HETATM   34  C1  UNL     1       0.657  53.156 -25.255  1.00  0.00     0.043 C 
HETATM   35  C3  UNL     1       1.993  51.434 -26.538  1.00  0.00     0.043 C 
ENDBRANCH  30  32
ENDBRANCH  29  30
ENDBRANCH   1  29
TORSDOF 8
ENDMDL
MODEL 8
REMARK minimizedAffinity -7.80851269
REMARK  8 active torsions:
REMARK  status: ('A' for Active; 'I' for Inactive)
REMARK    1  A    between atoms: C4_4  and  C5_5 
REMARK    2  A    between atoms: C5_5  and  O2_7 
REMARK    3  A    between atoms: O2_7  and  C6_8 
REMARK    4  A    between atoms: C15_17  and  C16_18 
REMARK    5  A    between atoms: C16_18  and  O4_20 
REMARK    6  A    between atoms: O4_20  and  C17_21 
REMARK    7  A    between atoms: C17_21  and  C18_22 
REMARK    8  A    between atoms: C18_22  and  N1_23 
ROOT
HETATM    1  C6  UNL     1      -0.624  50.193 -21.538  1.00  0.00     0.140 C 
HETATM    2  C7  UNL     1      -0.477  51.571 -20.890  1.00  0.00     0.034 C 
HETATM    3  C8  UNL     1       0.089  51.458 -19.482  1.00  0.00     0.012 C 
HETATM    4  C9  UNL     1      -0.759  50.570 -18.530  1.00  0.00    -0.035 C 
HETATM    5  C10 UNL     1      -2.027  51.365 -18.126  1.00  0.00     0.016 C 
HETATM    6  C11 UNL     1       0.127  50.251 -17.248  1.00  0.00     0.006 C 
HETATM    7  C12 UNL     1       0.181  51.387 -16.213  1.00  0.00     0.010 C 
HETATM    8  C13 UNL     1       1.289  51.144 -15.186  1.00  0.00     0.035 C 
HETATM    9  C14 UNL     1       1.376  49.706 -14.711  1.00  0.00    -0.070 C 
HETATM   10  C15 UNL     1       2.461  49.209 -14.077  1.00  0.00     0.085 C 
HETATM   11  C21 UNL     1       0.122  48.876 -15.026  1.00  0.00     0.022 C 
HETATM   12  C22 UNL     1       0.163  47.425 -14.509  1.00  0.00     0.015 C 
HETATM   13  C23 UNL     1      -0.185  48.892 -16.552  1.00  0.00     0.068 C 
HETATM   14  C24 UNL     1      -1.621  48.491 -16.856  1.00  0.00     0.132 C 
HETATM   15  O5  UNL     1      -2.459  48.266 -15.983  1.00  0.00    -0.298 OA
HETATM   16  C25 UNL     1      -1.985  48.333 -18.318  1.00  0.00     0.085 C 
HETATM   17  C26 UNL     1      -1.096  49.204 -19.229  1.00  0.00     0.011 C 
HETATM   18  C27 UNL     1      -1.580  49.261 -20.730  1.00  0.00    -0.016 C 
HETATM   19  C28 UNL     1      -3.052  49.691 -20.929  1.00  0.00     0.018 C 
HETATM   20  C29 UNL     1      -1.477  47.836 -21.340  1.00  0.00     0.018 C 
ENDROOT
BRANCH  10  21
HETATM   21  C16 UNL     1       3.731  49.864 -13.670  1.00  0.00     0.283 C 
HETATM   22  O3  UNL     1       4.807  49.501 -14.126  1.00  0.00    -0.260 OA
BRANCH  21  23
HETATM   23  O4  UNL     1       3.547  50.837 -12.752  1.00  0.00    -0.316 OA
BRANCH  23  24
HETATM   24  C17 UNL     1       3.328  50.400 -11.398  1.00  0.00     0.209 C 
BRANCH  24  25
HETATM   25  C18 UNL     1       4.511  50.821 -10.509  1.00  0.00     0.298 C 
BRANCH  25  26
HETATM   26  N1  UNL     1       5.611  49.838 -10.465  1.00  0.00     0.082 N 
HETATM   27  C19 UNL     1       5.331  48.820  -9.446  1.00  0.00     0.309 C 
HETATM   28  C20 UNL     1       6.901  50.471 -10.187  1.00  0.00     0.309 C 
ENDBRANCH  25  26
ENDBRANCH  24  25
ENDBRANCH  23  24
ENDBRANCH  21  23
ENDBRANCH  10  21
BRANCH   1  29
HETATM   29  O2  UNL     1      -1.134  50.357 -22.875  1.00  0.00    -0.312 OA
BRANCH  29  30
HETATM   30  C5  UNL     1      -1.101  51.608 -23.390  1.00  0.00     0.283 C 
HETATM   31  O1  UNL     1      -1.915  52.496 -23.185  1.00  0.00    -0.260 OA
BRANCH  30  32
HETATM   32  C4  UNL     1       0.119  51.827 -24.194  1.00  0.00     0.084 C 
HETATM   33  C2  UNL     1       0.365  51.444 -25.464  1.00  0.00    -0.082 C 
HETATM   34  C1  UNL     1      -0.610  50.747 -26.372  1.00  0.00     0.043 C 
HETATM   35  C3  UNL     1       1.703  51.732 -26.096  1.00  0.00     0.043 C 
ENDBRANCH  30  32
ENDBRANCH  29  30
ENDBRANCH   1  29
TORSDOF 8
ENDMDL
MODEL 9
REMARK minimizedAffinity -7.71545792
REMARK  8 active torsions:
REMARK  status: ('A' for Active; 'I' for Inactive)
REMARK    1  A    between atoms: C4_4  and  C5_5 
REMARK    2  A    between atoms: C5_5  and  O2_7 
REMARK    3  A    between atoms: O2_7  and  C6_8 
REMARK    4  A    between atoms: C15_17  and  C16_18 
REMARK    5  A    between atoms: C16_18  and  O4_20 
REMARK    6  A    between atoms: O4_20  and  C17_21 
REMARK    7  A    between atoms: C17_21  and  C18_22 
REMARK    8  A    between atoms: C18_22  and  N1_23 
ROOT
HETATM    1  C6  UNL     1      -0.751  50.701 -16.423  1.00  0.00     0.140 C 
HETATM    2  C7  UNL     1       0.215  50.040 -17.407  1.00  0.00     0.034 C 
HETATM    3  C8  UNL     1      -0.278  50.184 -18.839  1.00  0.00     0.012 C 
HETATM    4  C9  UNL     1      -1.692  49.589 -19.084  1.00  0.00    -0.035 C 
HETATM    5  C10 UNL     1      -1.570  48.044 -19.116  1.00  0.00     0.016 C 
HETATM    6  C11 UNL     1      -2.210  50.133 -20.487  1.00  0.00     0.006 C 
HETATM    7  C12 UNL     1      -1.638  49.391 -21.707  1.00  0.00     0.010 C 
HETATM    8  C13 UNL     1      -1.918  50.162 -22.999  1.00  0.00     0.035 C 
HETATM    9  C14 UNL     1      -3.318  50.739 -23.075  1.00  0.00    -0.070 C 
HETATM   10  C15 UNL     1      -3.664  51.711 -23.948  1.00  0.00     0.085 C 
HETATM   11  C21 UNL     1      -4.295  50.122 -22.061  1.00  0.00     0.022 C 
HETATM   12  C22 UNL     1      -5.738  50.654 -22.150  1.00  0.00     0.015 C 
HETATM   13  C23 UNL     1      -3.757  50.274 -20.608  1.00  0.00     0.068 C 
HETATM   14  C24 UNL     1      -4.427  49.309 -19.642  1.00  0.00     0.132 C 
HETATM   15  O5  UNL     1      -5.237  48.451 -19.994  1.00  0.00    -0.298 OA
HETATM   16  C25 UNL     1      -4.081  49.471 -18.175  1.00  0.00     0.085 C 
HETATM   17  C26 UNL     1      -2.686  50.097 -17.980  1.00  0.00     0.011 C 
HETATM   18  C27 UNL     1      -2.178  50.073 -16.486  1.00  0.00    -0.016 C 
HETATM   19  C28 UNL     1      -2.188  48.681 -15.811  1.00  0.00     0.018 C 
HETATM   20  C29 UNL     1      -3.121  50.959 -15.625  1.00  0.00     0.018 C 
ENDROOT
BRANCH  10  21
HETATM   21  C16 UNL     1      -2.870  52.394 -25.003  1.00  0.00     0.283 C 
HETATM   22  O3  UNL     1      -2.016  53.221 -24.718  1.00  0.00    -0.260 OA
BRANCH  21  23
HETATM   23  O4  UNL     1      -3.228  52.020 -26.251  1.00  0.00    -0.316 OA
BRANCH  23  24
HETATM   24  C17 UNL     1      -2.500  50.915 -26.817  1.00  0.00     0.209 C 
BRANCH  24  25
HETATM   25  C18 UNL     1      -3.397  50.135 -27.793  1.00  0.00     0.298 C 
BRANCH  25  26
HETATM   26  N1  UNL     1      -3.527  48.699 -27.475  1.00  0.00     0.082 N 
HETATM   27  C19 UNL     1      -4.764  48.168 -28.058  1.00  0.00     0.309 C 
HETATM   28  C20 UNL     1      -3.518  48.455 -26.032  1.00  0.00     0.309 C 
ENDBRANCH  25  26
ENDBRANCH  24  25
ENDBRANCH  23  24
ENDBRANCH  21  23
ENDBRANCH  10  21
BRANCH   1  29
HETATM   29  O2  UNL     1      -0.226  50.562 -15.088  1.00  0.00    -0.312 OA
BRANCH  29  30
HETATM   30  C5  UNL     1       0.383  51.648 -14.557  1.00  0.00     0.283 C 
HETATM   31  O1  UNL     1      -0.167  52.580 -13.991  1.00  0.00    -0.260 OA
BRANCH  30  32
HETATM   32  C4  UNL     1       1.854  51.545 -14.663  1.00  0.00     0.084 C 
HETATM   33  C2  UNL     1       2.662  52.062 -15.610  1.00  0.00    -0.082 C 
HETATM   34  C1  UNL     1       2.225  52.932 -16.756  1.00  0.00     0.043 C 
HETATM   35  C3  UNL     1       4.148  51.807 -15.559  1.00  0.00     0.043 C 
ENDBRANCH  30  32
ENDBRANCH  29  30
ENDBRANCH   1  29
TORSDOF 8
ENDMDL
