MODEL 1
REMARK minimizedAffinity -8.99201965
REMARK CNNscore 0.430859566
REMARK CNNaffinity 7.09414339
REMARK  12 active torsions:
REMARK  status: ('A' for Active; 'I' for Inactive)
REMARK    1  A    between atoms: C3_3  and  O1_4 
REMARK    2  A    between atoms: N1_14  and  O2_16 
REMARK    3  A    between atoms: O2_16  and  C13_17 
REMARK    4  A    between atoms: C13_17  and  C14_18 
REMARK       I    between atoms: C14_18  and  N2_20 
REMARK    5  A    between atoms: N2_20  and  C15_21 
REMARK    6  A    between atoms: C15_21  and  C16_22 
REMARK    7  A    between atoms: C15_21  and  C23_33 
REMARK       I    between atoms: C16_22  and  N3_24 
REMARK    8  A    between atoms: N3_24  and  C17_25 
REMARK    9  A    between atoms: C17_25  and  C18_26 
REMARK   10  A    between atoms: C17_25  and  C19_29 
REMARK   11  A    between atoms: C18_26  and  O6_28 
REMARK   12  A    between atoms: C19_29  and  C21_31 
ROOT
HETATM    1  C1  UNL     1      -7.701  49.844 -23.306  1.00  0.00     0.015 C 
HETATM    2  C2  UNL     1      -6.515  49.658 -23.209  1.00  0.00    -0.078 C 
HETATM    3  C3  UNL     1      -5.064  49.431 -23.079  1.00  0.00     0.128 C 
HETATM    4  C4  UNL     1      -4.548  48.550 -24.227  1.00  0.00     0.052 C 
HETATM    5  C5  UNL     1      -3.050  48.855 -24.343  1.00  0.00     0.010 C 
HETATM    6  C6  UNL     1      -2.783  50.157 -23.555  1.00  0.00     0.002 C 
HETATM    7  C7  UNL     1      -1.693  50.074 -22.442  1.00  0.00    -0.004 C 
HETATM    8  C8  UNL     1      -1.609  48.772 -21.609  1.00  0.00     0.010 C 
HETATM    9  C9  UNL     1      -0.428  48.781 -20.638  1.00  0.00     0.035 C 
HETATM   10  C10 UNL     1      -0.396  50.008 -19.763  1.00  0.00    -0.069 C 
HETATM   11  C11 UNL     1      -0.210  49.880 -18.433  1.00  0.00     0.030 C 
HETATM   12  C12 UNL     1      -0.092  51.067 -17.548  1.00  0.00     0.032 C 
HETATM   13  N1  UNL     1      -0.225  50.884 -16.266  1.00  0.00    -0.271 N 
ATOM     14  H1  UNL     1      -0.364  49.971 -15.832  1.00  0.00     0.194 HD
HETATM   15  C26 UNL     1       0.185  52.394 -18.224  1.00  0.00     0.060 C 
HETATM   16  C27 UNL     1      -0.740  52.506 -19.435  1.00  0.00     0.020 C 
HETATM   17  C28 UNL     1      -0.555  51.353 -20.471  1.00  0.00    -0.016 C 
HETATM   18  C29 UNL     1       0.760  51.640 -21.247  1.00  0.00     0.020 C 
HETATM   19  C30 UNL     1      -1.756  51.316 -21.503  1.00  0.00     0.002 C 
HETATM   20  C31 UNL     1      -3.170  51.366 -20.883  1.00  0.00     0.007 C 
HETATM   21  C32 UNL     1      -4.226  51.628 -21.951  1.00  0.00     0.014 C 
HETATM   22  C33 UNL     1      -4.195  50.721 -23.196  1.00  0.00     0.003 C 
HETATM   23  C34 UNL     1      -4.678  51.602 -24.394  1.00  0.00     0.020 C 
ENDROOT
BRANCH   3  24
HETATM   24  O1  UNL     1      -4.858  48.789 -21.827  1.00  0.00    -0.377 OA
HETATM   25  H2  UNL     1      -4.271  48.020 -21.955  1.00  0.00     0.211 HD
ENDBRANCH   3  24
BRANCH  13  26
HETATM   26  O2  UNL     1      -0.156  52.089 -15.554  1.00  0.00    -0.271 OA
BRANCH  26  27
HETATM   27  C13 UNL     1       0.730  51.912 -14.454  1.00  0.00     0.303 C 
BRANCH  27  28
HETATM   28  C14 UNL     1      -0.024  51.775 -13.137  1.00  0.00     0.244 C 
HETATM   29  O3  UNL     1      -0.128  50.697 -12.551  1.00  0.00    -0.271 OA
HETATM   30  N2  UNL     1      -0.550  52.951 -12.637  1.00  0.00    -0.346 N 
HETATM   31  H16 UNL     1      -0.121  53.800 -12.992  1.00  0.00     0.163 HD
BRANCH  30  32
HETATM   32  C15 UNL     1      -1.089  53.001 -11.278  1.00  0.00     0.180 C 
BRANCH  32  33
HETATM   33  C16 UNL     1      -0.570  54.297 -10.610  1.00  0.00     0.241 C 
HETATM   34  O4  UNL     1      -1.168  55.370 -10.695  1.00  0.00    -0.271 OA
HETATM   35  N3  UNL     1       0.609  54.156  -9.904  1.00  0.00    -0.344 N 
HETATM   36  H18 UNL     1       0.861  53.216  -9.621  1.00  0.00     0.163 HD
BRANCH  35  37
HETATM   37  C17 UNL     1       1.150  55.253  -9.097  1.00  0.00     0.186 C 
BRANCH  37  38
HETATM   38  C18 UNL     1       0.472  55.234  -7.722  1.00  0.00     0.163 C 
HETATM   39  O5  UNL     1      -0.403  55.994  -7.327  1.00  0.00    -0.648 OA
BRANCH  38  40
HETATM   40  O6  UNL     1       0.908  54.231  -6.933  1.00  0.00    -0.775 OA
HETATM   41  H20 UNL     1       0.421  54.354  -6.095  1.00  0.00     0.167 HD
ENDBRANCH  38  40
ENDBRANCH  37  38
BRANCH  37  42
HETATM   42  C19 UNL     1       2.692  55.177  -8.964  1.00  0.00     0.014 C 
HETATM   43  C20 UNL     1       3.309  54.078  -9.847  1.00  0.00     0.012 C 
BRANCH  42  44
HETATM   44  C21 UNL     1       3.377  56.525  -9.276  1.00  0.00     0.002 C 
HETATM   45  C22 UNL     1       3.840  57.270  -8.035  1.00  0.00     0.005 C 
ENDBRANCH  42  44
ENDBRANCH  37  42
ENDBRANCH  35  37
ENDBRANCH  32  33
BRANCH  32  46
HETATM   46  C23 UNL     1      -2.630  52.884 -11.305  1.00  0.00     0.009 C 
HETATM   47  C24 UNL     1      -3.111  51.524 -10.794  1.00  0.00     0.012 C 
HETATM   48  C25 UNL     1      -3.344  54.009 -10.550  1.00  0.00     0.012 C 
ENDBRANCH  32  46
ENDBRANCH  30  32
ENDBRANCH  27  28
ENDBRANCH  26  27
ENDBRANCH  13  26
TORSDOF 12
ENDMDL
MODEL 2
REMARK minimizedAffinity -8.92585468
REMARK CNNscore 0.387921542
REMARK CNNaffinity 7.65091705
REMARK  12 active torsions:
REMARK  status: ('A' for Active; 'I' for Inactive)
REMARK    1  A    between atoms: C3_3  and  O1_4 
REMARK    2  A    between atoms: N1_14  and  O2_16 
REMARK    3  A    between atoms: O2_16  and  C13_17 
REMARK    4  A    between atoms: C13_17  and  C14_18 
REMARK       I    between atoms: C14_18  and  N2_20 
REMARK    5  A    between atoms: N2_20  and  C15_21 
REMARK    6  A    between atoms: C15_21  and  C16_22 
REMARK    7  A    between atoms: C15_21  and  C23_33 
REMARK       I    between atoms: C16_22  and  N3_24 
REMARK    8  A    between atoms: N3_24  and  C17_25 
REMARK    9  A    between atoms: C17_25  and  C18_26 
REMARK   10  A    between atoms: C17_25  and  C19_29 
REMARK   11  A    between atoms: C18_26  and  O6_28 
REMARK   12  A    between atoms: C19_29  and  C21_31 
ROOT
HETATM    1  C1  UNL     1       0.212  55.165  -8.467  1.00  0.00     0.015 C 
HETATM    2  C2  UNL     1       0.750  54.362  -9.184  1.00  0.00    -0.078 C 
HETATM    3  C3  UNL     1       1.408  53.386 -10.072  1.00  0.00     0.128 C 
HETATM    4  C4  UNL     1       2.444  52.559  -9.296  1.00  0.00     0.052 C 
HETATM    5  C5  UNL     1       2.619  51.260 -10.091  1.00  0.00     0.010 C 
HETATM    6  C6  UNL     1       1.436  51.163 -11.079  1.00  0.00     0.002 C 
HETATM    7  C7  UNL     1       1.811  50.998 -12.585  1.00  0.00    -0.004 C 
HETATM    8  C8  UNL     1       3.046  51.769 -13.111  1.00  0.00     0.010 C 
HETATM    9  C9  UNL     1       3.367  51.425 -14.566  1.00  0.00     0.035 C 
HETATM   10  C10 UNL     1       2.180  51.579 -15.482  1.00  0.00    -0.069 C 
HETATM   11  C11 UNL     1       2.313  52.245 -16.647  1.00  0.00     0.030 C 
HETATM   12  C12 UNL     1       1.189  52.349 -17.614  1.00  0.00     0.032 C 
HETATM   13  N1  UNL     1       1.278  53.247 -18.552  1.00  0.00    -0.271 N 
ATOM     14  H1  UNL     1       2.088  53.852 -18.688  1.00  0.00     0.194 HD
HETATM   15  C26 UNL     1       0.037  51.386 -17.423  1.00  0.00     0.060 C 
HETATM   16  C27 UNL     1      -0.312  51.360 -15.935  1.00  0.00     0.020 C 
HETATM   17  C28 UNL     1       0.876  50.926 -15.021  1.00  0.00    -0.016 C 
HETATM   18  C29 UNL     1       1.035  49.388 -15.175  1.00  0.00     0.020 C 
HETATM   19  C30 UNL     1       0.578  51.257 -13.501  1.00  0.00     0.002 C 
HETATM   20  C31 UNL     1       0.074  52.689 -13.217  1.00  0.00     0.007 C 
HETATM   21  C32 UNL     1      -0.463  52.808 -11.795  1.00  0.00     0.014 C 
HETATM   22  C33 UNL     1       0.453  52.304 -10.663  1.00  0.00     0.003 C 
HETATM   23  C34 UNL     1      -0.492  51.739  -9.552  1.00  0.00     0.020 C 
ENDROOT
BRANCH   3  24
HETATM   24  O1  UNL     1       2.039  54.130 -11.108  1.00  0.00    -0.377 OA
HETATM   25  H2  UNL     1       2.954  53.812 -11.217  1.00  0.00     0.211 HD
ENDBRANCH   3  24
BRANCH  13  26
HETATM   26  O2  UNL     1       0.128  53.284 -19.353  1.00  0.00    -0.271 OA
BRANCH  26  27
HETATM   27  C13 UNL     1       0.510  53.665 -20.671  1.00  0.00     0.303 C 
BRANCH  27  28
HETATM   28  C14 UNL     1       0.496  52.479 -21.628  1.00  0.00     0.244 C 
HETATM   29  O3  UNL     1       0.833  51.349 -21.275  1.00  0.00    -0.271 OA
HETATM   30  N2  UNL     1       0.045  52.760 -22.903  1.00  0.00    -0.346 N 
HETATM   31  H16 UNL     1      -0.522  53.598 -22.985  1.00  0.00     0.163 HD
BRANCH  30  32
HETATM   32  C15 UNL     1      -0.239  51.676 -23.843  1.00  0.00     0.180 C 
BRANCH  32  33
HETATM   33  C16 UNL     1      -1.775  51.490 -23.901  1.00  0.00     0.241 C 
HETATM   34  O4  UNL     1      -2.467  51.989 -24.789  1.00  0.00    -0.271 OA
HETATM   35  N3  UNL     1      -2.307  50.716 -22.889  1.00  0.00    -0.344 N 
HETATM   36  H18 UNL     1      -1.667  50.101 -22.402  1.00  0.00     0.163 HD
BRANCH  35  37
HETATM   37  C17 UNL     1      -3.721  50.329 -22.889  1.00  0.00     0.186 C 
BRANCH  37  38
HETATM   38  C18 UNL     1      -4.554  51.506 -23.409  1.00  0.00     0.163 C 
HETATM   39  O5  UNL     1      -5.050  51.617 -24.523  1.00  0.00    -0.648 OA
BRANCH  38  40
HETATM   40  O6  UNL     1      -4.750  52.465 -22.480  1.00  0.00    -0.775 OA
HETATM   41  H20 UNL     1      -5.262  53.153 -22.947  1.00  0.00     0.167 HD
ENDBRANCH  38  40
ENDBRANCH  37  38
BRANCH  37  42
HETATM   42  C19 UNL     1      -3.978  49.048 -23.723  1.00  0.00     0.014 C 
HETATM   43  C20 UNL     1      -5.193  48.249 -23.221  1.00  0.00     0.012 C 
BRANCH  42  44
HETATM   44  C21 UNL     1      -4.154  49.350 -25.226  1.00  0.00     0.002 C 
HETATM   45  C22 UNL     1      -3.213  48.555 -26.117  1.00  0.00     0.005 C 
ENDBRANCH  42  44
ENDBRANCH  37  42
ENDBRANCH  35  37
ENDBRANCH  32  33
BRANCH  32  46
HETATM   46  C23 UNL     1       0.410  51.966 -25.215  1.00  0.00     0.009 C 
HETATM   47  C24 UNL     1       0.048  50.906 -26.256  1.00  0.00     0.012 C 
HETATM   48  C25 UNL     1       0.095  53.363 -25.759  1.00  0.00     0.012 C 
ENDBRANCH  32  46
ENDBRANCH  30  32
ENDBRANCH  27  28
ENDBRANCH  26  27
ENDBRANCH  13  26
TORSDOF 12
ENDMDL
MODEL 3
REMARK minimizedAffinity -7.71243334
REMARK CNNscore 0.352460951
REMARK CNNaffinity 6.28150177
REMARK  12 active torsions:
REMARK  status: ('A' for Active; 'I' for Inactive)
REMARK    1  A    between atoms: C3_3  and  O1_4 
REMARK    2  A    between atoms: N1_14  and  O2_16 
REMARK    3  A    between atoms: O2_16  and  C13_17 
REMARK    4  A    between atoms: C13_17  and  C14_18 
REMARK       I    between atoms: C14_18  and  N2_20 
REMARK    5  A    between atoms: N2_20  and  C15_21 
REMARK    6  A    between atoms: C15_21  and  C16_22 
REMARK    7  A    between atoms: C15_21  and  C23_33 
REMARK       I    between atoms: C16_22  and  N3_24 
REMARK    8  A    between atoms: N3_24  and  C17_25 
REMARK    9  A    between atoms: C17_25  and  C18_26 
REMARK   10  A    between atoms: C17_25  and  C19_29 
REMARK   11  A    between atoms: C18_26  and  O6_28 
REMARK   12  A    between atoms: C19_29  and  C21_31 
ROOT
HETATM    1  C1  UNL     1       0.061  50.321 -17.411  1.00  0.00     0.015 C 
HETATM    2  C2  UNL     1      -0.588  50.472 -18.414  1.00  0.00    -0.078 C 
HETATM    3  C3  UNL     1      -1.392  50.655 -19.636  1.00  0.00     0.128 C 
HETATM    4  C4  UNL     1      -0.755  51.714 -20.550  1.00  0.00     0.052 C 
HETATM    5  C5  UNL     1      -1.280  51.415 -21.959  1.00  0.00     0.010 C 
HETATM    6  C6  UNL     1      -1.885  49.994 -21.933  1.00  0.00     0.002 C 
HETATM    7  C7  UNL     1      -3.367  49.871 -22.404  1.00  0.00    -0.004 C 
HETATM    8  C8  UNL     1      -4.344  51.009 -22.022  1.00  0.00     0.010 C 
HETATM    9  C9  UNL     1      -5.727  50.819 -22.645  1.00  0.00     0.035 C 
HETATM   10  C10 UNL     1      -6.316  49.460 -22.365  1.00  0.00    -0.069 C 
HETATM   11  C11 UNL     1      -7.588  49.355 -21.930  1.00  0.00     0.030 C 
HETATM   12  C12 UNL     1      -8.231  48.032 -21.721  1.00  0.00     0.032 C 
HETATM   13  N1  UNL     1      -9.326  47.994 -21.018  1.00  0.00    -0.271 N 
ATOM     14  H1  UNL     1      -9.790  48.821 -20.641  1.00  0.00     0.194 HD
HETATM   15  C26 UNL     1      -7.551  46.838 -22.357  1.00  0.00     0.060 C 
HETATM   16  C27 UNL     1      -6.052  46.947 -22.078  1.00  0.00     0.020 C 
HETATM   17  C28 UNL     1      -5.408  48.258 -22.628  1.00  0.00    -0.016 C 
HETATM   18  C29 UNL     1      -5.272  48.093 -24.167  1.00  0.00     0.020 C 
HETATM   19  C30 UNL     1      -3.966  48.487 -22.013  1.00  0.00     0.002 C 
HETATM   20  C31 UNL     1      -3.866  48.349 -20.477  1.00  0.00     0.007 C 
HETATM   21  C32 UNL     1      -2.412  48.287 -20.028  1.00  0.00     0.014 C 
HETATM   22  C33 UNL     1      -1.475  49.394 -20.549  1.00  0.00     0.003 C 
HETATM   23  C34 UNL     1      -0.065  48.737 -20.711  1.00  0.00     0.020 C 
ENDROOT
BRANCH   3  24
HETATM   24  O1  UNL     1      -2.687  51.071 -19.220  1.00  0.00    -0.377 OA
HETATM   25  H2  UNL     1      -2.961  51.842 -19.750  1.00  0.00     0.211 HD
ENDBRANCH   3  24
BRANCH  13  26
HETATM   26  O2  UNL     1      -9.791  46.684 -20.842  1.00  0.00    -0.271 OA
BRANCH  26  27
HETATM   27  C13 UNL     1     -10.479  46.614 -19.597  1.00  0.00     0.303 C 
BRANCH  27  28
HETATM   28  C14 UNL     1     -11.621  47.620 -19.526  1.00  0.00     0.244 C 
HETATM   29  O3  UNL     1     -11.421  48.831 -19.432  1.00  0.00    -0.271 OA
HETATM   30  N2  UNL     1     -12.888  47.076 -19.610  1.00  0.00    -0.346 N 
HETATM   31  H16 UNL     1     -12.934  46.152 -20.028  1.00  0.00     0.163 HD
BRANCH  30  32
HETATM   32  C15 UNL     1     -14.054  47.941 -19.788  1.00  0.00     0.180 C 
BRANCH  32  33
HETATM   33  C16 UNL     1     -14.777  47.499 -21.083  1.00  0.00     0.241 C 
HETATM   34  O4  UNL     1     -14.322  47.727 -22.205  1.00  0.00    -0.271 OA
HETATM   35  N3  UNL     1     -15.964  46.822 -20.885  1.00  0.00    -0.344 N 
HETATM   36  H18 UNL     1     -16.105  46.407 -19.972  1.00  0.00     0.163 HD
BRANCH  35  37
HETATM   37  C17 UNL     1     -16.691  46.213 -22.004  1.00  0.00     0.186 C 
BRANCH  37  38
HETATM   38  C18 UNL     1     -16.447  44.699 -21.983  1.00  0.00     0.163 C 
HETATM   39  O5  UNL     1     -15.951  44.050 -21.072  1.00  0.00    -0.648 OA
BRANCH  38  40
HETATM   40  O6  UNL     1     -16.879  44.080 -23.101  1.00  0.00    -0.775 OA
HETATM   41  H20 UNL     1     -16.640  43.143 -22.966  1.00  0.00     0.167 HD
ENDBRANCH  38  40
ENDBRANCH  37  38
BRANCH  37  42
HETATM   42  C19 UNL     1     -18.205  46.539 -21.965  1.00  0.00     0.014 C 
HETATM   43  C20 UNL     1     -18.842  46.557 -23.366  1.00  0.00     0.012 C 
BRANCH  42  44
HETATM   44  C21 UNL     1     -18.993  45.567 -21.061  1.00  0.00     0.002 C 
HETATM   45  C22 UNL     1     -19.312  46.141 -19.690  1.00  0.00     0.005 C 
ENDBRANCH  42  44
ENDBRANCH  37  42
ENDBRANCH  35  37
ENDBRANCH  32  33
BRANCH  32  46
HETATM   46  C23 UNL     1     -14.949  47.908 -18.529  1.00  0.00     0.009 C 
HETATM   47  C24 UNL     1     -14.314  47.099 -17.396  1.00  0.00     0.012 C 
HETATM   48  C25 UNL     1     -15.346  49.298 -18.021  1.00  0.00     0.012 C 
ENDBRANCH  32  46
ENDBRANCH  30  32
ENDBRANCH  27  28
ENDBRANCH  26  27
ENDBRANCH  13  26
TORSDOF 12
ENDMDL
MODEL 4
REMARK minimizedAffinity -8.57503414
REMARK CNNscore 0.350457668
REMARK CNNaffinity 7.44148493
REMARK  12 active torsions:
REMARK  status: ('A' for Active; 'I' for Inactive)
REMARK    1  A    between atoms: C3_3  and  O1_4 
REMARK    2  A    between atoms: N1_14  and  O2_16 
REMARK    3  A    between atoms: O2_16  and  C13_17 
REMARK    4  A    between atoms: C13_17  and  C14_18 
REMARK       I    between atoms: C14_18  and  N2_20 
REMARK    5  A    between atoms: N2_20  and  C15_21 
REMARK    6  A    between atoms: C15_21  and  C16_22 
REMARK    7  A    between atoms: C15_21  and  C23_33 
REMARK       I    between atoms: C16_22  and  N3_24 
REMARK    8  A    between atoms: N3_24  and  C17_25 
REMARK    9  A    between atoms: C17_25  and  C18_26 
REMARK   10  A    between atoms: C17_25  and  C19_29 
REMARK   11  A    between atoms: C18_26  and  O6_28 
REMARK   12  A    between atoms: C19_29  and  C21_31 
ROOT
HETATM    1  C1  UNL     1       0.785  55.935  -8.371  1.00  0.00     0.015 C 
HETATM    2  C2  UNL     1       1.237  55.018  -9.008  1.00  0.00    -0.078 C 
HETATM    3  C3  UNL     1       1.789  53.903  -9.798  1.00  0.00     0.128 C 
HETATM    4  C4  UNL     1       2.803  53.100  -8.967  1.00  0.00     0.052 C 
HETATM    5  C5  UNL     1       2.857  51.709  -9.610  1.00  0.00     0.010 C 
HETATM    6  C6  UNL     1       1.628  51.582 -10.536  1.00  0.00     0.002 C 
HETATM    7  C7  UNL     1       1.925  51.218 -12.024  1.00  0.00    -0.004 C 
HETATM    8  C8  UNL     1       3.183  51.835 -12.681  1.00  0.00     0.010 C 
HETATM    9  C9  UNL     1       3.416  51.304 -14.096  1.00  0.00     0.035 C 
HETATM   10  C10 UNL     1       2.203  51.434 -14.981  1.00  0.00    -0.069 C 
HETATM   11  C11 UNL     1       2.327  51.950 -16.220  1.00  0.00     0.030 C 
HETATM   12  C12 UNL     1       1.171  52.021 -17.152  1.00  0.00     0.032 C 
HETATM   13  N1  UNL     1       1.277  52.796 -18.191  1.00  0.00    -0.271 N 
ATOM     14  H1  UNL     1       2.118  53.323 -18.427  1.00  0.00     0.194 HD
HETATM   15  C26 UNL     1      -0.033  51.170 -16.806  1.00  0.00     0.060 C 
HETATM   16  C27 UNL     1      -0.316  51.340 -15.314  1.00  0.00     0.020 C 
HETATM   17  C28 UNL     1       0.880  50.932 -14.400  1.00  0.00    -0.016 C 
HETATM   18  C29 UNL     1       0.931  49.379 -14.376  1.00  0.00     0.020 C 
HETATM   19  C30 UNL     1       0.672  51.456 -12.919  1.00  0.00     0.002 C 
HETATM   20  C31 UNL     1       0.276  52.943 -12.788  1.00  0.00     0.007 C 
HETATM   21  C32 UNL     1      -0.189  53.262 -11.372  1.00  0.00     0.014 C 
HETATM   22  C33 UNL     1       0.741  52.829 -10.221  1.00  0.00     0.003 C 
HETATM   23  C34 UNL     1      -0.189  52.464  -9.018  1.00  0.00     0.020 C 
ENDROOT
BRANCH   3  24
HETATM   24  O1  UNL     1       2.422  54.476 -10.936  1.00  0.00    -0.377 OA
HETATM   25  H2  UNL     1       3.308  54.084 -11.040  1.00  0.00     0.211 HD
ENDBRANCH   3  24
BRANCH  13  26
HETATM   26  O2  UNL     1       0.098  52.821 -18.949  1.00  0.00    -0.271 OA
BRANCH  26  27
HETATM   27  C13 UNL     1       0.362  53.504 -20.171  1.00  0.00     0.303 C 
BRANCH  27  28
HETATM   28  C14 UNL     1       0.014  52.649 -21.382  1.00  0.00     0.244 C 
HETATM   29  O3  UNL     1       0.861  52.309 -22.209  1.00  0.00    -0.271 OA
HETATM   30  N2  UNL     1      -1.308  52.257 -21.463  1.00  0.00    -0.346 N 
HETATM   31  H16 UNL     1      -1.820  52.284 -20.588  1.00  0.00     0.163 HD
BRANCH  30  32
HETATM   32  C15 UNL     1      -1.722  51.249 -22.440  1.00  0.00     0.180 C 
BRANCH  32  33
HETATM   33  C16 UNL     1      -1.161  51.669 -23.820  1.00  0.00     0.241 C 
HETATM   34  O4  UNL     1      -0.259  51.049 -24.384  1.00  0.00    -0.271 OA
HETATM   35  N3  UNL     1      -1.756  52.785 -24.375  1.00  0.00    -0.344 N 
HETATM   36  H18 UNL     1      -2.669  53.040 -24.017  1.00  0.00     0.163 HD
BRANCH  35  37
HETATM   37  C17 UNL     1      -1.438  53.221 -25.738  1.00  0.00     0.186 C 
BRANCH  37  38
HETATM   38  C18 UNL     1       0.038  53.632 -25.791  1.00  0.00     0.163 C 
HETATM   39  O5  UNL     1       0.997  52.971 -25.413  1.00  0.00    -0.648 OA
BRANCH  38  40
HETATM   40  O6  UNL     1       0.228  54.842 -26.357  1.00  0.00    -0.775 OA
HETATM   41  H20 UNL     1       1.193  54.986 -26.301  1.00  0.00     0.167 HD
ENDBRANCH  38  40
ENDBRANCH  37  38
BRANCH  37  42
HETATM   42  C19 UNL     1      -1.755  52.129 -26.791  1.00  0.00     0.014 C 
HETATM   43  C20 UNL     1      -0.487  51.454 -27.344  1.00  0.00     0.012 C 
BRANCH  42  44
HETATM   44  C21 UNL     1      -2.710  51.045 -26.245  1.00  0.00     0.002 C 
HETATM   45  C22 UNL     1      -3.175  50.060 -27.304  1.00  0.00     0.005 C 
ENDBRANCH  42  44
ENDBRANCH  37  42
ENDBRANCH  35  37
ENDBRANCH  32  33
BRANCH  32  46
HETATM   46  C23 UNL     1      -1.275  49.841 -21.985  1.00  0.00     0.009 C 
HETATM   47  C24 UNL     1      -1.180  49.734 -20.462  1.00  0.00     0.012 C 
HETATM   48  C25 UNL     1      -2.150  48.712 -22.535  1.00  0.00     0.012 C 
ENDBRANCH  32  46
ENDBRANCH  30  32
ENDBRANCH  27  28
ENDBRANCH  26  27
ENDBRANCH  13  26
TORSDOF 12
ENDMDL
MODEL 5
REMARK minimizedAffinity -7.33111858
REMARK CNNscore 0.301266104
REMARK CNNaffinity 6.5451684
REMARK  12 active torsions:
REMARK  status: ('A' for Active; 'I' for Inactive)
REMARK    1  A    between atoms: C3_3  and  O1_4 
REMARK    2  A    between atoms: N1_14  and  O2_16 
REMARK    3  A    between atoms: O2_16  and  C13_17 
REMARK    4  A    between atoms: C13_17  and  C14_18 
REMARK       I    between atoms: C14_18  and  N2_20 
REMARK    5  A    between atoms: N2_20  and  C15_21 
REMARK    6  A    between atoms: C15_21  and  C16_22 
REMARK    7  A    between atoms: C15_21  and  C23_33 
REMARK       I    between atoms: C16_22  and  N3_24 
REMARK    8  A    between atoms: N3_24  and  C17_25 
REMARK    9  A    between atoms: C17_25  and  C18_26 
REMARK   10  A    between atoms: C17_25  and  C19_29 
REMARK   11  A    between atoms: C18_26  and  O6_28 
REMARK   12  A    between atoms: C19_29  and  C21_31 
ROOT
HETATM    1  C1  UNL     1      -2.237  50.857 -15.556  1.00  0.00     0.015 C 
HETATM    2  C2  UNL     1      -2.099  50.971 -16.747  1.00  0.00    -0.078 C 
HETATM    3  C3  UNL     1      -1.942  51.111 -18.206  1.00  0.00     0.128 C 
HETATM    4  C4  UNL     1      -0.662  51.892 -18.541  1.00  0.00     0.052 C 
HETATM    5  C5  UNL     1      -0.291  51.486 -19.971  1.00  0.00     0.010 C 
HETATM    6  C6  UNL     1      -1.099  50.216 -20.313  1.00  0.00     0.002 C 
HETATM    7  C7  UNL     1      -1.983  50.290 -21.597  1.00  0.00    -0.004 C 
HETATM    8  C8  UNL     1      -2.697  51.627 -21.906  1.00  0.00     0.010 C 
HETATM    9  C9  UNL     1      -3.430  51.596 -23.248  1.00  0.00     0.035 C 
HETATM   10  C10 UNL     1      -4.363  50.420 -23.381  1.00  0.00    -0.069 C 
HETATM   11  C11 UNL     1      -5.624  50.609 -23.822  1.00  0.00     0.030 C 
HETATM   12  C12 UNL     1      -6.548  49.467 -24.043  1.00  0.00     0.032 C 
HETATM   13  N1  UNL     1      -7.817  49.729 -24.165  1.00  0.00    -0.271 N 
ATOM     14  H1  UNL     1      -8.208  50.672 -24.159  1.00  0.00     0.194 HD
HETATM   15  C26 UNL     1      -5.922  48.091 -24.116  1.00  0.00     0.060 C 
HETATM   16  C27 UNL     1      -4.914  47.972 -22.974  1.00  0.00     0.020 C 
HETATM   17  C28 UNL     1      -3.788  49.050 -23.020  1.00  0.00    -0.016 C 
HETATM   18  C29 UNL     1      -2.801  48.637 -24.147  1.00  0.00     0.020 C 
HETATM   19  C30 UNL     1      -2.997  49.108 -21.648  1.00  0.00     0.002 C 
HETATM   20  C31 UNL     1      -3.871  49.184 -20.377  1.00  0.00     0.007 C 
HETATM   21  C32 UNL     1      -3.038  48.931 -19.126  1.00  0.00     0.014 C 
HETATM   22  C33 UNL     1      -1.751  49.764 -18.967  1.00  0.00     0.003 C 
HETATM   23  C34 UNL     1      -0.725  48.851 -18.221  1.00  0.00     0.020 C 
ENDROOT
BRANCH   3  24
HETATM   24  O1  UNL     1      -3.089  51.808 -18.679  1.00  0.00    -0.377 OA
HETATM   25  H2  UNL     1      -2.803  52.528 -19.271  1.00  0.00     0.211 HD
ENDBRANCH   3  24
BRANCH  13  26
HETATM   26  O2  UNL     1      -8.583  48.564 -24.304  1.00  0.00    -0.271 OA
BRANCH  26  27
HETATM   27  C13 UNL     1      -9.322  48.652 -25.518  1.00  0.00     0.303 C 
BRANCH  27  28
HETATM   28  C14 UNL     1      -9.068  47.452 -26.422  1.00  0.00     0.244 C 
HETATM   29  O3  UNL     1      -8.635  46.385 -25.987  1.00  0.00    -0.271 OA
HETATM   30  N2  UNL     1      -9.393  47.641 -27.751  1.00  0.00    -0.346 N 
HETATM   31  H16 UNL     1     -10.048  48.394 -27.933  1.00  0.00     0.163 HD
BRANCH  30  32
HETATM   32  C15 UNL     1      -9.419  46.506 -28.674  1.00  0.00     0.180 C 
BRANCH  32  33
HETATM   33  C16 UNL     1     -10.746  45.742 -28.447  1.00  0.00     0.241 C 
HETATM   34  O4  UNL     1     -11.835  46.185 -28.813  1.00  0.00    -0.271 OA
HETATM   35  N3  UNL     1     -10.615  44.523 -27.812  1.00  0.00    -0.344 N 
HETATM   36  H18 UNL     1      -9.696  44.097 -27.830  1.00  0.00     0.163 HD
BRANCH  35  37
HETATM   37  C17 UNL     1     -11.758  43.618 -27.656  1.00  0.00     0.186 C 
BRANCH  37  38
HETATM   38  C18 UNL     1     -12.966  44.429 -27.173  1.00  0.00     0.163 C 
HETATM   39  O5  UNL     1     -14.037  44.560 -27.750  1.00  0.00    -0.648 OA
BRANCH  38  40
HETATM   40  O6  UNL     1     -12.769  44.999 -25.966  1.00  0.00    -0.775 OA
HETATM   41  H20 UNL     1     -13.593  45.497 -25.798  1.00  0.00     0.167 HD
ENDBRANCH  38  40
ENDBRANCH  37  38
BRANCH  37  42
HETATM   42  C19 UNL     1     -12.081  42.853 -28.964  1.00  0.00     0.014 C 
HETATM   43  C20 UNL     1     -10.912  42.869 -29.964  1.00  0.00     0.012 C 
BRANCH  42  44
HETATM   44  C21 UNL     1     -12.505  41.392 -28.702  1.00  0.00     0.002 C 
HETATM   45  C22 UNL     1     -13.950  41.253 -28.250  1.00  0.00     0.005 C 
ENDBRANCH  42  44
ENDBRANCH  37  42
ENDBRANCH  35  37
ENDBRANCH  32  33
BRANCH  32  46
HETATM   46  C23 UNL     1      -9.215  46.988 -30.129  1.00  0.00     0.009 C 
HETATM   47  C24 UNL     1      -9.430  45.861 -31.141  1.00  0.00     0.012 C 
HETATM   48  C25 UNL     1     -10.076  48.198 -30.501  1.00  0.00     0.012 C 
ENDBRANCH  32  46
ENDBRANCH  30  32
ENDBRANCH  27  28
ENDBRANCH  26  27
ENDBRANCH  13  26
TORSDOF 12
ENDMDL
MODEL 6
REMARK minimizedAffinity -7.44030237
REMARK CNNscore 0.294255435
REMARK CNNaffinity 5.74408388
REMARK  12 active torsions:
REMARK  status: ('A' for Active; 'I' for Inactive)
REMARK    1  A    between atoms: C3_3  and  O1_4 
REMARK    2  A    between atoms: N1_14  and  O2_16 
REMARK    3  A    between atoms: O2_16  and  C13_17 
REMARK    4  A    between atoms: C13_17  and  C14_18 
REMARK       I    between atoms: C14_18  and  N2_20 
REMARK    5  A    between atoms: N2_20  and  C15_21 
REMARK    6  A    between atoms: C15_21  and  C16_22 
REMARK    7  A    between atoms: C15_21  and  C23_33 
REMARK       I    between atoms: C16_22  and  N3_24 
REMARK    8  A    between atoms: N3_24  and  C17_25 
REMARK    9  A    between atoms: C17_25  and  C18_26 
REMARK   10  A    between atoms: C17_25  and  C19_29 
REMARK   11  A    between atoms: C18_26  and  O6_28 
REMARK   12  A    between atoms: C19_29  and  C21_31 
ROOT
HETATM    1  C1  UNL     1      -4.705  48.335 -28.571  1.00  0.00     0.015 C 
HETATM    2  C2  UNL     1      -5.810  48.138 -29.008  1.00  0.00    -0.078 C 
HETATM    3  C3  UNL     1      -7.167  47.902 -29.533  1.00  0.00     0.128 C 
HETATM    4  C4  UNL     1      -7.206  48.121 -31.053  1.00  0.00     0.052 C 
HETATM    5  C5  UNL     1      -8.410  47.317 -31.557  1.00  0.00     0.010 C 
HETATM    6  C6  UNL     1      -8.820  46.347 -30.429  1.00  0.00     0.002 C 
HETATM    7  C7  UNL     1     -10.305  46.433 -29.955  1.00  0.00    -0.004 C 
HETATM    8  C8  UNL     1     -10.961  47.833 -29.890  1.00  0.00     0.010 C 
HETATM    9  C9  UNL     1     -12.445  47.760 -29.525  1.00  0.00     0.035 C 
HETATM   10  C10 UNL     1     -12.703  46.963 -28.273  1.00  0.00    -0.069 C 
HETATM   11  C11 UNL     1     -13.509  47.462 -27.313  1.00  0.00     0.030 C 
HETATM   12  C12 UNL     1     -13.854  46.673 -26.101  1.00  0.00     0.032 C 
HETATM   13  N1  UNL     1     -14.367  47.310 -25.090  1.00  0.00    -0.271 N 
ATOM     14  H1  UNL     1     -14.586  48.307 -25.094  1.00  0.00     0.194 HD
HETATM   15  C26 UNL     1     -13.581  45.185 -26.159  1.00  0.00     0.060 C 
HETATM   16  C27 UNL     1     -12.190  44.985 -26.760  1.00  0.00     0.020 C 
HETATM   17  C28 UNL     1     -12.033  45.591 -28.189  1.00  0.00    -0.016 C 
HETATM   18  C29 UNL     1     -12.770  44.642 -29.174  1.00  0.00     0.020 C 
HETATM   19  C30 UNL     1     -10.508  45.675 -28.609  1.00  0.00     0.002 C 
HETATM   20  C31 UNL     1      -9.562  46.308 -27.565  1.00  0.00     0.007 C 
HETATM   21  C32 UNL     1      -8.103  46.068 -27.933  1.00  0.00     0.014 C 
HETATM   22  C33 UNL     1      -7.677  46.438 -29.367  1.00  0.00     0.003 C 
HETATM   23  C34 UNL     1      -6.564  45.418 -29.773  1.00  0.00     0.020 C 
ENDROOT
BRANCH   3  24
HETATM   24  O1  UNL     1      -8.030  48.822 -28.875  1.00  0.00    -0.377 OA
HETATM   25  H2  UNL     1      -8.594  49.261 -29.538  1.00  0.00     0.211 HD
ENDBRANCH   3  24
BRANCH  13  26
HETATM   26  O2  UNL     1     -14.584  46.465 -23.993  1.00  0.00    -0.271 OA
BRANCH  26  27
HETATM   27  C13 UNL     1     -15.580  47.053 -23.161  1.00  0.00     0.303 C 
BRANCH  27  28
HETATM   28  C14 UNL     1     -15.768  46.272 -21.867  1.00  0.00     0.244 C 
HETATM   29  O3  UNL     1     -15.026  45.343 -21.550  1.00  0.00    -0.271 OA
HETATM   30  N2  UNL     1     -16.805  46.707 -21.065  1.00  0.00    -0.346 N 
HETATM   31  H16 UNL     1     -17.112  47.660 -21.235  1.00  0.00     0.163 HD
BRANCH  30  32
HETATM   32  C15 UNL     1     -16.946  46.202 -19.700  1.00  0.00     0.180 C 
BRANCH  32  33
HETATM   33  C16 UNL     1     -15.921  46.946 -18.811  1.00  0.00     0.241 C 
HETATM   34  O4  UNL     1     -16.073  48.118 -18.466  1.00  0.00    -0.271 OA
HETATM   35  N3  UNL     1     -14.828  46.193 -18.426  1.00  0.00    -0.344 N 
HETATM   36  H18 UNL     1     -14.928  45.187 -18.478  1.00  0.00     0.163 HD
BRANCH  35  37
HETATM   37  C17 UNL     1     -13.846  46.709 -17.468  1.00  0.00     0.186 C 
BRANCH  37  38
HETATM   38  C18 UNL     1     -13.981  45.928 -16.156  1.00  0.00     0.163 C 
HETATM   39  O5  UNL     1     -14.184  46.395 -15.043  1.00  0.00    -0.648 OA
BRANCH  38  40
HETATM   40  O6  UNL     1     -13.892  44.592 -16.326  1.00  0.00    -0.775 OA
HETATM   41  H20 UNL     1     -13.966  44.228 -15.422  1.00  0.00     0.167 HD
ENDBRANCH  38  40
ENDBRANCH  37  38
BRANCH  37  42
HETATM   42  C19 UNL     1     -12.399  46.639 -18.017  1.00  0.00     0.014 C 
HETATM   43  C20 UNL     1     -11.343  46.970 -16.948  1.00  0.00     0.012 C 
BRANCH  42  44
HETATM   44  C21 UNL     1     -12.074  45.266 -18.644  1.00  0.00     0.002 C 
HETATM   45  C22 UNL     1     -10.629  45.135 -19.098  1.00  0.00     0.005 C 
ENDBRANCH  42  44
ENDBRANCH  37  42
ENDBRANCH  35  37
ENDBRANCH  32  33
BRANCH  32  46
HETATM   46  C23 UNL     1     -18.409  46.342 -19.220  1.00  0.00     0.009 C 
HETATM   47  C24 UNL     1     -19.100  47.559 -19.837  1.00  0.00     0.012 C 
HETATM   48  C25 UNL     1     -19.254  45.086 -19.453  1.00  0.00     0.012 C 
ENDBRANCH  32  46
ENDBRANCH  30  32
ENDBRANCH  27  28
ENDBRANCH  26  27
ENDBRANCH  13  26
TORSDOF 12
ENDMDL
MODEL 7
REMARK minimizedAffinity -7.7891984
REMARK CNNscore 0.172943696
REMARK CNNaffinity 6.03013802
REMARK  12 active torsions:
REMARK  status: ('A' for Active; 'I' for Inactive)
REMARK    1  A    between atoms: C3_3  and  O1_4 
REMARK    2  A    between atoms: N1_14  and  O2_16 
REMARK    3  A    between atoms: O2_16  and  C13_17 
REMARK    4  A    between atoms: C13_17  and  C14_18 
REMARK       I    between atoms: C14_18  and  N2_20 
REMARK    5  A    between atoms: N2_20  and  C15_21 
REMARK    6  A    between atoms: C15_21  and  C16_22 
REMARK    7  A    between atoms: C15_21  and  C23_33 
REMARK       I    between atoms: C16_22  and  N3_24 
REMARK    8  A    between atoms: N3_24  and  C17_25 
REMARK    9  A    between atoms: C17_25  and  C18_26 
REMARK   10  A    between atoms: C17_25  and  C19_29 
REMARK   11  A    between atoms: C18_26  and  O6_28 
REMARK   12  A    between atoms: C19_29  and  C21_31 
ROOT
HETATM    1  C1  UNL     1      -8.793  47.762 -20.379  1.00  0.00     0.015 C 
HETATM    2  C2  UNL     1      -7.659  47.861 -20.770  1.00  0.00    -0.078 C 
HETATM    3  C3  UNL     1      -6.266  47.981 -21.237  1.00  0.00     0.128 C 
HETATM    4  C4  UNL     1      -6.077  47.249 -22.575  1.00  0.00     0.052 C 
HETATM    5  C5  UNL     1      -4.855  47.898 -23.234  1.00  0.00     0.010 C 
HETATM    6  C6  UNL     1      -4.582  49.225 -22.492  1.00  0.00     0.002 C 
HETATM    7  C7  UNL     1      -3.147  49.398 -21.904  1.00  0.00    -0.004 C 
HETATM    8  C8  UNL     1      -2.458  48.152 -21.299  1.00  0.00     0.010 C 
HETATM    9  C9  UNL     1      -1.019  48.437 -20.869  1.00  0.00     0.035 C 
HETATM   10  C10 UNL     1      -0.903  49.635 -19.962  1.00  0.00    -0.069 C 
HETATM   11  C11 UNL     1      -0.177  49.552 -18.828  1.00  0.00     0.030 C 
HETATM   12  C12 UNL     1       0.029  50.732 -17.949  1.00  0.00     0.032 C 
HETATM   13  N1  UNL     1       0.463  50.520 -16.741  1.00  0.00    -0.271 N 
ATOM     14  H1  UNL     1       0.710  49.600 -16.377  1.00  0.00     0.194 HD
HETATM   15  C26 UNL     1      -0.281  52.088 -18.549  1.00  0.00     0.060 C 
HETATM   16  C27 UNL     1      -1.615  51.981 -19.287  1.00  0.00     0.020 C 
HETATM   17  C28 UNL     1      -1.618  50.907 -20.419  1.00  0.00    -0.016 C 
HETATM   18  C29 UNL     1      -0.820  51.496 -21.615  1.00  0.00     0.020 C 
HETATM   19  C30 UNL     1      -3.094  50.590 -20.900  1.00  0.00     0.002 C 
HETATM   20  C31 UNL     1      -4.115  50.303 -19.777  1.00  0.00     0.007 C 
HETATM   21  C32 UNL     1      -5.539  50.312 -20.319  1.00  0.00     0.014 C 
HETATM   22  C33 UNL     1      -5.816  49.440 -21.559  1.00  0.00     0.003 C 
HETATM   23  C34 UNL     1      -6.916  50.185 -22.384  1.00  0.00     0.020 C 
ENDROOT
BRANCH   3  24
HETATM   24  O1  UNL     1      -5.442  47.403 -20.232  1.00  0.00    -0.377 OA
HETATM   25  H2  UNL     1      -4.806  46.795 -20.652  1.00  0.00     0.211 HD
ENDBRANCH   3  24
BRANCH  13  26
HETATM   26  O2  UNL     1       0.551  51.707 -15.999  1.00  0.00    -0.271 OA
BRANCH  26  27
HETATM   27  C13 UNL     1       1.623  51.578 -15.071  1.00  0.00     0.303 C 
BRANCH  27  28
HETATM   28  C14 UNL     1       1.140  51.701 -13.631  1.00  0.00     0.244 C 
HETATM   29  O3  UNL     1       1.326  50.811 -12.800  1.00  0.00    -0.271 OA
HETATM   30  N2  UNL     1       0.514  52.893 -13.322  1.00  0.00    -0.346 N 
HETATM   31  H16 UNL     1       0.723  53.665 -13.946  1.00  0.00     0.163 HD
BRANCH  30  32
HETATM   32  C15 UNL     1       0.216  53.232 -11.930  1.00  0.00     0.180 C 
BRANCH  32  33
HETATM   33  C16 UNL     1      -0.802  52.194 -11.398  1.00  0.00     0.241 C 
HETATM   34  O4  UNL     1      -0.911  51.930 -10.201  1.00  0.00    -0.271 OA
HETATM   35  N3  UNL     1      -1.584  51.596 -12.367  1.00  0.00    -0.344 N 
HETATM   36  H18 UNL     1      -1.658  52.078 -13.254  1.00  0.00     0.163 HD
BRANCH  35  37
HETATM   37  C17 UNL     1      -2.690  50.703 -12.009  1.00  0.00     0.186 C 
BRANCH  37  38
HETATM   38  C18 UNL     1      -2.270  49.859 -10.800  1.00  0.00     0.163 C 
HETATM   39  O5  UNL     1      -1.569  48.856 -10.815  1.00  0.00    -0.648 OA
BRANCH  38  40
HETATM   40  O6  UNL     1      -2.727  50.351  -9.629  1.00  0.00    -0.775 OA
HETATM   41  H20 UNL     1      -2.413  49.711  -8.960  1.00  0.00     0.167 HD
ENDBRANCH  38  40
ENDBRANCH  37  38
BRANCH  37  42
HETATM   42  C19 UNL     1      -4.001  51.479 -11.724  1.00  0.00     0.014 C 
HETATM   43  C20 UNL     1      -4.628  51.105 -10.370  1.00  0.00     0.012 C 
BRANCH  42  44
HETATM   44  C21 UNL     1      -3.805  53.009 -11.788  1.00  0.00     0.002 C 
HETATM   45  C22 UNL     1      -3.941  53.693 -10.438  1.00  0.00     0.005 C 
ENDBRANCH  42  44
ENDBRANCH  37  42
ENDBRANCH  35  37
ENDBRANCH  32  33
BRANCH  32  46
HETATM   46  C23 UNL     1       1.519  53.313 -11.103  1.00  0.00     0.009 C 
HETATM   47  C24 UNL     1       1.775  54.725 -10.573  1.00  0.00     0.012 C 
HETATM   48  C25 UNL     1       1.579  52.303  -9.953  1.00  0.00     0.012 C 
ENDBRANCH  32  46
ENDBRANCH  30  32
ENDBRANCH  27  28
ENDBRANCH  26  27
ENDBRANCH  13  26
TORSDOF 12
ENDMDL
MODEL 8
REMARK minimizedAffinity -7.61041451
REMARK CNNscore 0.160892636
REMARK CNNaffinity 5.94479609
REMARK  12 active torsions:
REMARK  status: ('A' for Active; 'I' for Inactive)
REMARK    1  A    between atoms: C3_3  and  O1_4 
REMARK    2  A    between atoms: N1_14  and  O2_16 
REMARK    3  A    between atoms: O2_16  and  C13_17 
REMARK    4  A    between atoms: C13_17  and  C14_18 
REMARK       I    between atoms: C14_18  and  N2_20 
REMARK    5  A    between atoms: N2_20  and  C15_21 
REMARK    6  A    between atoms: C15_21  and  C16_22 
REMARK    7  A    between atoms: C15_21  and  C23_33 
REMARK       I    between atoms: C16_22  and  N3_24 
REMARK    8  A    between atoms: N3_24  and  C17_25 
REMARK    9  A    between atoms: C17_25  and  C18_26 
REMARK   10  A    between atoms: C17_25  and  C19_29 
REMARK   11  A    between atoms: C18_26  and  O6_28 
REMARK   12  A    between atoms: C19_29  and  C21_31 
ROOT
HETATM    1  C1  UNL     1      -0.645  51.729 -23.050  1.00  0.00     0.015 C 
HETATM    2  C2  UNL     1      -1.169  50.786 -22.516  1.00  0.00    -0.078 C 
HETATM    3  C3  UNL     1      -1.818  49.629 -21.871  1.00  0.00     0.128 C 
HETATM    4  C4  UNL     1      -0.800  48.826 -21.047  1.00  0.00     0.052 C 
HETATM    5  C5  UNL     1      -1.622  48.064 -20.002  1.00  0.00     0.010 C 
HETATM    6  C6  UNL     1      -3.026  48.706 -19.962  1.00  0.00     0.002 C 
HETATM    7  C7  UNL     1      -4.228  47.740 -20.198  1.00  0.00    -0.004 C 
HETATM    8  C8  UNL     1      -4.052  46.607 -21.237  1.00  0.00     0.010 C 
HETATM    9  C9  UNL     1      -5.259  45.669 -21.282  1.00  0.00     0.035 C 
HETATM   10  C10 UNL     1      -6.564  46.400 -21.468  1.00  0.00    -0.069 C 
HETATM   11  C11 UNL     1      -7.448  45.972 -22.393  1.00  0.00     0.030 C 
HETATM   12  C12 UNL     1      -8.778  46.615 -22.551  1.00  0.00     0.032 C 
HETATM   13  N1  UNL     1      -9.445  46.368 -23.641  1.00  0.00    -0.271 N 
ATOM     14  H1  UNL     1      -9.128  45.729 -24.371  1.00  0.00     0.194 HD
HETATM   15  C26 UNL     1      -9.245  47.500 -21.415  1.00  0.00     0.060 C 
HETATM   16  C27 UNL     1      -8.074  48.392 -21.003  1.00  0.00     0.020 C 
HETATM   17  C28 UNL     1      -6.812  47.596 -20.548  1.00  0.00    -0.016 C 
HETATM   18  C29 UNL     1      -7.103  47.047 -19.124  1.00  0.00     0.020 C 
HETATM   19  C30 UNL     1      -5.539  48.536 -20.479  1.00  0.00     0.002 C 
HETATM   20  C31 UNL     1      -5.294  49.419 -21.722  1.00  0.00     0.007 C 
HETATM   21  C32 UNL     1      -4.243  50.485 -21.437  1.00  0.00     0.014 C 
HETATM   22  C33 UNL     1      -2.913  50.003 -20.826  1.00  0.00     0.003 C 
HETATM   23  C34 UNL     1      -2.413  51.156 -19.895  1.00  0.00     0.020 C 
ENDROOT
BRANCH   3  24
HETATM   24  O1  UNL     1      -2.360  48.826 -22.913  1.00  0.00    -0.377 OA
HETATM   25  H2  UNL     1      -2.108  47.896 -22.763  1.00  0.00     0.211 HD
ENDBRANCH   3  24
BRANCH  13  26
HETATM   26  O2  UNL     1     -10.648  47.084 -23.694  1.00  0.00    -0.271 OA
BRANCH  26  27
HETATM   27  C13 UNL     1     -11.727  46.156 -23.642  1.00  0.00     0.303 C 
BRANCH  27  28
HETATM   28  C14 UNL     1     -13.062  46.853 -23.413  1.00  0.00     0.244 C 
HETATM   29  O3  UNL     1     -13.711  47.346 -24.336  1.00  0.00    -0.271 OA
HETATM   30  N2  UNL     1     -13.503  46.860 -22.104  1.00  0.00    -0.346 N 
HETATM   31  H16 UNL     1     -13.093  46.148 -21.507  1.00  0.00     0.163 HD
BRANCH  30  32
HETATM   32  C15 UNL     1     -14.865  47.285 -21.784  1.00  0.00     0.180 C 
BRANCH  32  33
HETATM   33  C16 UNL     1     -15.810  46.088 -22.052  1.00  0.00     0.241 C 
HETATM   34  O4  UNL     1     -15.409  44.925 -22.085  1.00  0.00    -0.271 OA
HETATM   35  N3  UNL     1     -17.136  46.424 -22.241  1.00  0.00    -0.344 N 
HETATM   36  H18 UNL     1     -17.431  47.329 -21.894  1.00  0.00     0.163 HD
BRANCH  35  37
HETATM   37  C17 UNL     1     -18.173  45.395 -22.360  1.00  0.00     0.186 C 
BRANCH  37  38
HETATM   38  C18 UNL     1     -19.057  45.440 -21.108  1.00  0.00     0.163 C 
HETATM   39  O5  UNL     1     -19.896  44.614 -20.773  1.00  0.00    -0.648 OA
BRANCH  38  40
HETATM   40  O6  UNL     1     -18.806  46.509 -20.324  1.00  0.00    -0.775 OA
HETATM   41  H20 UNL     1     -19.448  46.427 -19.591  1.00  0.00     0.167 HD
ENDBRANCH  38  40
ENDBRANCH  37  38
BRANCH  37  42
HETATM   42  C19 UNL     1     -19.017  45.560 -23.649  1.00  0.00     0.014 C 
HETATM   43  C20 UNL     1     -18.743  46.892 -24.369  1.00  0.00     0.012 C 
BRANCH  42  44
HETATM   44  C21 UNL     1     -18.810  44.394 -24.641  1.00  0.00     0.002 C 
HETATM   45  C22 UNL     1     -19.824  43.274 -24.477  1.00  0.00     0.005 C 
ENDBRANCH  42  44
ENDBRANCH  37  42
ENDBRANCH  35  37
ENDBRANCH  32  33
BRANCH  32  46
HETATM   46  C23 UNL     1     -14.937  47.828 -20.339  1.00  0.00     0.009 C 
HETATM   47  C24 UNL     1     -15.184  46.715 -19.319  1.00  0.00     0.012 C 
HETATM   48  C25 UNL     1     -13.710  48.650 -19.931  1.00  0.00     0.012 C 
ENDBRANCH  32  46
ENDBRANCH  30  32
ENDBRANCH  27  28
ENDBRANCH  26  27
ENDBRANCH  13  26
TORSDOF 12
ENDMDL
MODEL 9
REMARK minimizedAffinity -8.36346912
REMARK CNNscore 0.145997614
REMARK CNNaffinity 5.99856997
REMARK  12 active torsions:
REMARK  status: ('A' for Active; 'I' for Inactive)
REMARK    1  A    between atoms: C3_3  and  O1_4 
REMARK    2  A    between atoms: N1_14  and  O2_16 
REMARK    3  A    between atoms: O2_16  and  C13_17 
REMARK    4  A    between atoms: C13_17  and  C14_18 
REMARK       I    between atoms: C14_18  and  N2_20 
REMARK    5  A    between atoms: N2_20  and  C15_21 
REMARK    6  A    between atoms: C15_21  and  C16_22 
REMARK    7  A    between atoms: C15_21  and  C23_33 
REMARK       I    between atoms: C16_22  and  N3_24 
REMARK    8  A    between atoms: N3_24  and  C17_25 
REMARK    9  A    between atoms: C17_25  and  C18_26 
REMARK   10  A    between atoms: C17_25  and  C19_29 
REMARK   11  A    between atoms: C18_26  and  O6_28 
REMARK   12  A    between atoms: C19_29  and  C21_31 
ROOT
HETATM    1  C1  UNL     1      -2.094  50.809 -15.473  1.00  0.00     0.015 C 
HETATM    2  C2  UNL     1      -1.951  50.967 -16.658  1.00  0.00    -0.078 C 
HETATM    3  C3  UNL     1      -1.787  51.161 -18.110  1.00  0.00     0.128 C 
HETATM    4  C4  UNL     1      -0.513  51.968 -18.409  1.00  0.00     0.052 C 
HETATM    5  C5  UNL     1      -0.130  51.617 -19.851  1.00  0.00     0.010 C 
HETATM    6  C6  UNL     1      -0.922  50.351 -20.244  1.00  0.00     0.002 C 
HETATM    7  C7  UNL     1      -1.799  50.462 -21.530  1.00  0.00    -0.004 C 
HETATM    8  C8  UNL     1      -2.527  51.802 -21.795  1.00  0.00     0.010 C 
HETATM    9  C9  UNL     1      -3.251  51.811 -23.141  1.00  0.00     0.035 C 
HETATM   10  C10 UNL     1      -4.171  50.631 -23.322  1.00  0.00    -0.069 C 
HETATM   11  C11 UNL     1      -5.431  50.822 -23.763  1.00  0.00     0.030 C 
HETATM   12  C12 UNL     1      -6.342  49.679 -24.031  1.00  0.00     0.032 C 
HETATM   13  N1  UNL     1      -7.613  49.931 -24.151  1.00  0.00    -0.271 N 
ATOM     14  H1  UNL     1      -8.014  50.869 -24.114  1.00  0.00     0.194 HD
HETATM   15  C26 UNL     1      -5.700  48.312 -24.150  1.00  0.00     0.060 C 
HETATM   16  C27 UNL     1      -4.697  48.163 -23.007  1.00  0.00     0.020 C 
HETATM   17  C28 UNL     1      -3.582  49.255 -23.006  1.00  0.00    -0.016 C 
HETATM   18  C29 UNL     1      -2.585  48.894 -24.142  1.00  0.00     0.020 C 
HETATM   19  C30 UNL     1      -2.800  49.272 -21.629  1.00  0.00     0.002 C 
HETATM   20  C31 UNL     1      -3.682  49.292 -20.361  1.00  0.00     0.007 C 
HETATM   21  C32 UNL     1      -2.854  49.004 -19.115  1.00  0.00     0.014 C 
HETATM   22  C33 UNL     1      -1.577  49.845 -18.919  1.00  0.00     0.003 C 
HETATM   23  C34 UNL     1      -0.545  48.916 -18.199  1.00  0.00     0.020 C 
ENDROOT
BRANCH   3  24
HETATM   24  O1  UNL     1      -2.939  51.862 -18.566  1.00  0.00    -0.377 OA
HETATM   25  H2  UNL     1      -2.657  52.606 -19.129  1.00  0.00     0.211 HD
ENDBRANCH   3  24
BRANCH  13  26
HETATM   26  O2  UNL     1      -8.365  48.763 -24.336  1.00  0.00    -0.271 OA
BRANCH  26  27
HETATM   27  C13 UNL     1      -9.159  48.920 -25.508  1.00  0.00     0.303 C 
BRANCH  27  28
HETATM   28  C14 UNL     1      -8.975  47.758 -26.475  1.00  0.00     0.244 C 
HETATM   29  O3  UNL     1      -8.983  46.585 -26.098  1.00  0.00    -0.271 OA
HETATM   30  N2  UNL     1      -8.835  48.115 -27.802  1.00  0.00    -0.346 N 
HETATM   31  H16 UNL     1      -9.187  49.036 -28.040  1.00  0.00     0.163 HD
BRANCH  30  32
HETATM   32  C15 UNL     1      -8.886  47.097 -28.851  1.00  0.00     0.180 C 
BRANCH  32  33
HETATM   33  C16 UNL     1      -7.594  47.221 -29.694  1.00  0.00     0.241 C 
HETATM   34  O4  UNL     1      -6.572  46.585 -29.435  1.00  0.00    -0.271 OA
HETATM   35  N3  UNL     1      -7.678  48.090 -30.764  1.00  0.00    -0.344 N 
HETATM   36  H18 UNL     1      -8.608  48.321 -31.091  1.00  0.00     0.163 HD
BRANCH  35  37
HETATM   37  C17 UNL     1      -6.589  48.206 -31.740  1.00  0.00     0.186 C 
BRANCH  37  38
HETATM   38  C18 UNL     1      -5.252  48.197 -30.989  1.00  0.00     0.163 C 
HETATM   39  O5  UNL     1      -4.377  47.345 -31.063  1.00  0.00    -0.648 OA
BRANCH  38  40
HETATM   40  O6  UNL     1      -5.076  49.287 -30.213  1.00  0.00    -0.775 OA
HETATM   41  H20 UNL     1      -4.213  49.138 -29.781  1.00  0.00     0.167 HD
ENDBRANCH  38  40
ENDBRANCH  37  38
BRANCH  37  42
HETATM   42  C19 UNL     1      -6.640  47.085 -32.809  1.00  0.00     0.014 C 
HETATM   43  C20 UNL     1      -7.967  46.306 -32.787  1.00  0.00     0.012 C 
BRANCH  42  44
HETATM   44  C21 UNL     1      -6.388  47.621 -34.235  1.00  0.00     0.002 C 
HETATM   45  C22 UNL     1      -4.952  48.055 -34.473  1.00  0.00     0.005 C 
ENDBRANCH  42  44
ENDBRANCH  37  42
ENDBRANCH  35  37
ENDBRANCH  32  33
BRANCH  32  46
HETATM   46  C23 UNL     1      -9.099  45.696 -28.234  1.00  0.00     0.009 C 
HETATM   47  C24 UNL     1     -10.151  44.888 -28.996  1.00  0.00     0.012 C 
HETATM   48  C25 UNL     1      -7.809  44.882 -28.099  1.00  0.00     0.012 C 
ENDBRANCH  32  46
ENDBRANCH  30  32
ENDBRANCH  27  28
ENDBRANCH  26  27
ENDBRANCH  13  26
TORSDOF 12
ENDMDL
