MODEL 1
REMARK minimizedAffinity -6.60628605
REMARK CNNscore 0.2976771
REMARK CNNaffinity 5.46916389
REMARK  8 active torsions:
REMARK  status: ('A' for Active; 'I' for Inactive)
REMARK    1  A    between atoms: C12_14  and  C13_15 
REMARK    2  A    between atoms: C13_15  and  C15_17 
REMARK    3  A    between atoms: C15_17  and  C16_18 
REMARK    4  A    between atoms: C16_18  and  C17_19 
REMARK    5  A    between atoms: C26_28  and  C27_29 
REMARK    6  A    between atoms: C27_29  and  C28_30 
REMARK    7  A    between atoms: C28_30  and  C29_31 
REMARK    8  A    between atoms: C29_31  and  O4_33 
ROOT
HETATM    1  C1  UNL     1       5.108  16.358  23.888  1.00  0.00     0.025 C 
HETATM    2  C2  UNL     1       4.261  15.440  23.407  1.00  0.00     0.015 C 
HETATM    3  C3  UNL     1       2.833  15.775  23.210  1.00  0.00     0.289 C 
HETATM    4  O1  UNL     1       2.349  16.890  23.159  1.00  0.00    -0.260 OA
HETATM    5  O2  UNL     1       2.148  14.609  23.107  1.00  0.00    -0.311 OA
HETATM    6  C4  UNL     1       3.027  13.508  23.379  1.00  0.00     0.142 C 
HETATM    7  C5  UNL     1       2.598  12.301  22.564  1.00  0.00     0.039 C 
HETATM    8  C6  UNL     1       2.669  12.595  21.059  1.00  0.00     0.006 C 
HETATM    9  C7  UNL     1       4.130  12.913  20.654  1.00  0.00    -0.027 A 
HETATM   10  C8  UNL     1       4.770  11.964  19.624  1.00  0.00     0.011 C 
HETATM   11  C9  UNL     1       3.880  11.450  18.477  1.00  0.00     0.011 C 
HETATM   12  C10 UNL     1       2.386  11.725  18.668  1.00  0.00    -0.032 C 
HETATM   13  C11 UNL     1       2.096  13.172  18.188  1.00  0.00     0.016 C 
HETATM   14  C12 UNL     1       1.433  10.716  17.955  1.00  0.00    -0.002 C 
HETATM   15  C21 UNL     1       0.133  10.783  18.791  1.00  0.00     0.006 C 
HETATM   16  C22 UNL     1       0.490  11.501  20.112  1.00  0.00     0.011 C 
HETATM   17  C23 UNL     1       2.032  11.477  20.179  1.00  0.00    -0.032 C 
HETATM   18  C24 UNL     1       2.430  10.066  20.728  1.00  0.00     0.016 C 
HETATM   19  C25 UNL     1       4.534  14.368  20.517  1.00  0.00     0.022 A 
HETATM   20  C26 UNL     1       5.036  13.615  21.727  1.00  0.00    -0.021 A 
HETATM   21  C30 UNL     1       4.453  13.984  23.116  1.00  0.00     0.063 C 
ENDROOT
BRANCH  14  22
HETATM   22  C13 UNL     1       1.301  10.646  16.406  1.00  0.00    -0.014 C 
HETATM   23  C14 UNL     1       2.404   9.730  15.844  1.00  0.00     0.010 C 
BRANCH  22  24
HETATM   24  C15 UNL     1      -0.050  10.360  15.705  1.00  0.00     0.008 C 
BRANCH  24  25
HETATM   25  C16 UNL     1      -0.372   8.970  15.139  1.00  0.00     0.028 C 
BRANCH  25  26
HETATM   26  C17 UNL     1      -1.784   8.813  14.646  1.00  0.00    -0.025 C 
HETATM   27  C18 UNL     1      -2.224   8.816  13.372  1.00  0.00    -0.091 C 
HETATM   28  C19 UNL     1      -3.693   8.665  13.072  1.00  0.00     0.042 C 
HETATM   29  C20 UNL     1      -1.357   8.945  12.151  1.00  0.00     0.042 C 
ENDBRANCH  25  26
ENDBRANCH  24  25
ENDBRANCH  22  24
ENDBRANCH  14  22
BRANCH  20  30
HETATM   30  C27 UNL     1       6.505  13.153  21.767  1.00  0.00     0.021 C 
BRANCH  30  31
HETATM   31  C28 UNL     1       6.897  12.196  22.885  1.00  0.00     0.111 C 
BRANCH  31  32
HETATM   32  C29 UNL     1       8.348  12.293  23.270  1.00  0.00     0.139 C 
HETATM   33  O3  UNL     1       8.997  13.302  23.482  1.00  0.00    -0.650 OA
BRANCH  32  34
HETATM   34  O4  UNL     1       8.939  11.082  23.301  1.00  0.00    -0.776 OA
HETATM   35  H43 UNL     1       9.870  11.280  23.539  1.00  0.00     0.167 HD
ENDBRANCH  32  34
ENDBRANCH  31  32
ENDBRANCH  30  31
ENDBRANCH  20  30
TORSDOF 8
ENDMDL
MODEL 2
REMARK minimizedAffinity -6.93856907
REMARK CNNscore 0.283485442
REMARK CNNaffinity 6.0755887
REMARK  8 active torsions:
REMARK  status: ('A' for Active; 'I' for Inactive)
REMARK    1  A    between atoms: C12_14  and  C13_15 
REMARK    2  A    between atoms: C13_15  and  C15_17 
REMARK    3  A    between atoms: C15_17  and  C16_18 
REMARK    4  A    between atoms: C16_18  and  C17_19 
REMARK    5  A    between atoms: C26_28  and  C27_29 
REMARK    6  A    between atoms: C27_29  and  C28_30 
REMARK    7  A    between atoms: C28_30  and  C29_31 
REMARK    8  A    between atoms: C29_31  and  O4_33 
ROOT
HETATM    1  C1  UNL     1      -2.148   5.265  13.252  1.00  0.00     0.025 C 
HETATM    2  C2  UNL     1      -2.313   6.580  13.442  1.00  0.00     0.015 C 
HETATM    3  C3  UNL     1      -3.620   7.213  13.159  1.00  0.00     0.289 C 
HETATM    4  O1  UNL     1      -4.690   6.647  13.037  1.00  0.00    -0.260 OA
HETATM    5  O2  UNL     1      -3.413   8.549  13.047  1.00  0.00    -0.311 OA
HETATM    6  C4  UNL     1      -2.005   8.824  13.088  1.00  0.00     0.142 C 
HETATM    7  C5  UNL     1      -1.770  10.178  13.733  1.00  0.00     0.039 C 
HETATM    8  C6  UNL     1      -2.293  10.203  15.176  1.00  0.00     0.006 C 
HETATM    9  C7  UNL     1      -1.529   9.161  16.030  1.00  0.00    -0.027 A 
HETATM   10  C8  UNL     1      -0.730   9.717  17.223  1.00  0.00     0.011 C 
HETATM   11  C9  UNL     1      -1.354  10.875  18.023  1.00  0.00     0.011 C 
HETATM   12  C10 UNL     1      -2.571  11.519  17.354  1.00  0.00    -0.032 C 
HETATM   13  C11 UNL     1      -3.820  10.664  17.697  1.00  0.00     0.016 C 
HETATM   14  C12 UNL     1      -2.817  13.013  17.729  1.00  0.00    -0.002 C 
HETATM   15  C21 UNL     1      -3.594  13.575  16.515  1.00  0.00     0.006 C 
HETATM   16  C22 UNL     1      -3.442  12.544  15.374  1.00  0.00     0.011 C 
HETATM   17  C23 UNL     1      -2.282  11.626  15.813  1.00  0.00    -0.032 C 
HETATM   18  C24 UNL     1      -0.959  12.374  15.440  1.00  0.00     0.016 C 
HETATM   19  C25 UNL     1      -2.186   7.817  16.274  1.00  0.00     0.022 A 
HETATM   20  C26 UNL     1      -1.031   7.862  15.303  1.00  0.00    -0.021 A 
HETATM   21  C30 UNL     1      -1.330   7.651  13.795  1.00  0.00     0.063 C 
ENDROOT
BRANCH  14  22
HETATM   22  C13 UNL     1      -3.271  13.451  19.152  1.00  0.00    -0.014 C 
HETATM   23  C14 UNL     1      -2.365  14.596  19.644  1.00  0.00     0.010 C 
BRANCH  22  24
HETATM   24  C15 UNL     1      -4.753  13.750  19.490  1.00  0.00     0.008 C 
BRANCH  24  25
HETATM   25  C16 UNL     1      -5.154  14.332  20.853  1.00  0.00     0.028 C 
BRANCH  25  26
HETATM   26  C17 UNL     1      -6.213  13.545  21.575  1.00  0.00    -0.025 C 
HETATM   27  C18 UNL     1      -6.815  13.841  22.744  1.00  0.00    -0.091 C 
HETATM   28  C19 UNL     1      -7.848  12.912  23.327  1.00  0.00     0.042 C 
HETATM   29  C20 UNL     1      -6.565  15.076  23.565  1.00  0.00     0.042 C 
ENDBRANCH  25  26
ENDBRANCH  24  25
ENDBRANCH  22  24
ENDBRANCH  14  22
BRANCH  20  30
HETATM   30  C27 UNL     1       0.346   7.334  15.748  1.00  0.00     0.021 C 
BRANCH  30  31
HETATM   31  C28 UNL     1       1.550   7.765  14.922  1.00  0.00     0.111 C 
BRANCH  31  32
HETATM   32  C29 UNL     1       2.837   7.770  15.704  1.00  0.00     0.139 C 
HETATM   33  O3  UNL     1       3.421   8.730  16.173  1.00  0.00    -0.650 OA
BRANCH  32  34
HETATM   34  O4  UNL     1       3.370   6.534  15.795  1.00  0.00    -0.776 OA
HETATM   35  H43 UNL     1       4.200   6.673  16.299  1.00  0.00     0.167 HD
ENDBRANCH  32  34
ENDBRANCH  31  32
ENDBRANCH  30  31
ENDBRANCH  20  30
TORSDOF 8
ENDMDL
MODEL 3
REMARK minimizedAffinity -6.18566561
REMARK CNNscore 0.270149142
REMARK CNNaffinity 6.25449038
REMARK  8 active torsions:
REMARK  status: ('A' for Active; 'I' for Inactive)
REMARK    1  A    between atoms: C12_14  and  C13_15 
REMARK    2  A    between atoms: C13_15  and  C15_17 
REMARK    3  A    between atoms: C15_17  and  C16_18 
REMARK    4  A    between atoms: C16_18  and  C17_19 
REMARK    5  A    between atoms: C26_28  and  C27_29 
REMARK    6  A    between atoms: C27_29  and  C28_30 
REMARK    7  A    between atoms: C28_30  and  C29_31 
REMARK    8  A    between atoms: C29_31  and  O4_33 
ROOT
HETATM    1  C1  UNL     1       6.884  15.996  -0.419  1.00  0.00     0.025 C 
HETATM    2  C2  UNL     1       5.960  15.666   0.493  1.00  0.00     0.015 C 
HETATM    3  C3  UNL     1       5.955  16.325   1.818  1.00  0.00     0.289 C 
HETATM    4  O1  UNL     1       6.518  17.361   2.115  1.00  0.00    -0.260 OA
HETATM    5  O2  UNL     1       5.213  15.557   2.655  1.00  0.00    -0.311 OA
HETATM    6  C4  UNL     1       4.850  14.336   1.995  1.00  0.00     0.142 C 
HETATM    7  C5  UNL     1       3.497  13.868   2.500  1.00  0.00     0.039 C 
HETATM    8  C6  UNL     1       2.405  14.905   2.200  1.00  0.00     0.006 C 
HETATM    9  C7  UNL     1       2.269  15.098   0.670  1.00  0.00    -0.027 A 
HETATM   10  C8  UNL     1       0.899  14.749   0.060  1.00  0.00     0.011 C 
HETATM   11  C9  UNL     1      -0.358  15.117   0.871  1.00  0.00     0.011 C 
HETATM   12  C10 UNL     1      -0.075  15.532   2.317  1.00  0.00    -0.032 C 
HETATM   13  C11 UNL     1       0.317  17.033   2.322  1.00  0.00     0.016 C 
HETATM   14  C12 UNL     1      -1.242  15.273   3.318  1.00  0.00    -0.002 C 
HETATM   15  C21 UNL     1      -0.533  15.132   4.686  1.00  0.00     0.006 C 
HETATM   16  C22 UNL     1       0.972  14.940   4.388  1.00  0.00     0.011 C 
HETATM   17  C23 UNL     1       1.043  14.585   2.888  1.00  0.00    -0.032 C 
HETATM   18  C24 UNL     1       0.730  13.055   2.780  1.00  0.00     0.016 C 
HETATM   19  C25 UNL     1       2.965  16.287   0.035  1.00  0.00     0.022 A 
HETATM   20  C26 UNL     1       3.568  14.921  -0.195  1.00  0.00    -0.021 A 
HETATM   21  C30 UNL     1       4.919  14.590   0.491  1.00  0.00     0.063 C 
ENDROOT
BRANCH  14  22
HETATM   22  C13 UNL     1      -2.576  16.074   3.269  1.00  0.00    -0.014 C 
HETATM   23  C14 UNL     1      -3.489  15.474   2.183  1.00  0.00     0.010 C 
BRANCH  22  24
HETATM   24  C15 UNL     1      -3.392  16.398   4.545  1.00  0.00     0.008 C 
BRANCH  24  25
HETATM   25  C16 UNL     1      -3.312  17.779   5.209  1.00  0.00     0.028 C 
BRANCH  25  26
HETATM   26  C17 UNL     1      -4.419  18.063   6.187  1.00  0.00    -0.025 C 
HETATM   27  C18 UNL     1      -4.353  18.083   7.532  1.00  0.00    -0.091 C 
HETATM   28  C19 UNL     1      -5.585  18.369   8.352  1.00  0.00     0.042 C 
HETATM   29  C20 UNL     1      -3.111  17.855   8.348  1.00  0.00     0.042 C 
ENDBRANCH  25  26
ENDBRANCH  24  25
ENDBRANCH  22  24
ENDBRANCH  14  22
BRANCH  20  30
HETATM   30  C27 UNL     1       3.373  14.234  -1.559  1.00  0.00     0.021 C 
BRANCH  30  31
HETATM   31  C28 UNL     1       4.632  13.802  -2.301  1.00  0.00     0.111 C 
BRANCH  31  32
HETATM   32  C29 UNL     1       4.709  12.316  -2.527  1.00  0.00     0.139 C 
HETATM   33  O3  UNL     1       5.620  11.564  -2.233  1.00  0.00    -0.650 OA
BRANCH  32  34
HETATM   34  O4  UNL     1       3.631  11.856  -3.195  1.00  0.00    -0.776 OA
HETATM   35  H43 UNL     1       3.809  10.896  -3.296  1.00  0.00     0.167 HD
ENDBRANCH  32  34
ENDBRANCH  31  32
ENDBRANCH  30  31
ENDBRANCH  20  30
TORSDOF 8
ENDMDL
MODEL 4
REMARK minimizedAffinity -8.44762802
REMARK CNNscore 0.227561116
REMARK CNNaffinity 6.64576912
REMARK  8 active torsions:
REMARK  status: ('A' for Active; 'I' for Inactive)
REMARK    1  A    between atoms: C12_14  and  C13_15 
REMARK    2  A    between atoms: C13_15  and  C15_17 
REMARK    3  A    between atoms: C15_17  and  C16_18 
REMARK    4  A    between atoms: C16_18  and  C17_19 
REMARK    5  A    between atoms: C26_28  and  C27_29 
REMARK    6  A    between atoms: C27_29  and  C28_30 
REMARK    7  A    between atoms: C28_30  and  C29_31 
REMARK    8  A    between atoms: C29_31  and  O4_33 
ROOT
HETATM    1  C1  UNL     1       2.803   5.588   8.729  1.00  0.00     0.025 C 
HETATM    2  C2  UNL     1       2.465   6.284   9.821  1.00  0.00     0.015 C 
HETATM    3  C3  UNL     1       2.517   7.763   9.807  1.00  0.00     0.289 C 
HETATM    4  O1  UNL     1       2.560   8.479   8.824  1.00  0.00    -0.260 OA
HETATM    5  O2  UNL     1       2.521   8.186  11.096  1.00  0.00    -0.311 OA
HETATM    6  C4  UNL     1       2.630   7.056  11.973  1.00  0.00     0.142 C 
HETATM    7  C5  UNL     1       1.888   7.343  13.267  1.00  0.00     0.039 C 
HETATM    8  C6  UNL     1       0.396   7.592  13.006  1.00  0.00     0.006 C 
HETATM    9  C7  UNL     1      -0.249   6.324  12.393  1.00  0.00    -0.027 A 
HETATM   10  C8  UNL     1      -1.381   5.675  13.210  1.00  0.00     0.011 C 
HETATM   11  C9  UNL     1      -2.365   6.612  13.936  1.00  0.00     0.011 C 
HETATM   12  C10 UNL     1      -1.921   8.076  13.984  1.00  0.00    -0.032 C 
HETATM   13  C11 UNL     1      -2.330   8.750  12.647  1.00  0.00     0.016 C 
HETATM   14  C12 UNL     1      -2.470   8.893  15.194  1.00  0.00    -0.002 C 
HETATM   15  C21 UNL     1      -1.424  10.017  15.386  1.00  0.00     0.006 C 
HETATM   16  C22 UNL     1      -0.177   9.608  14.571  1.00  0.00     0.011 C 
HETATM   17  C23 UNL     1      -0.373   8.109  14.260  1.00  0.00    -0.032 C 
HETATM   18  C24 UNL     1       0.086   7.327  15.536  1.00  0.00     0.016 C 
HETATM   19  C25 UNL     1      -0.438   6.274  10.889  1.00  0.00     0.022 A 
HETATM   20  C26 UNL     1       0.661   5.425  11.482  1.00  0.00    -0.021 A 
HETATM   21  C30 UNL     1       2.132   5.832  11.209  1.00  0.00     0.063 C 
ENDROOT
BRANCH  14  22
HETATM   22  C13 UNL     1      -3.974   9.265  15.334  1.00  0.00    -0.014 C 
HETATM   23  C14 UNL     1      -4.097  10.759  15.692  1.00  0.00     0.010 C 
BRANCH  22  24
HETATM   24  C15 UNL     1      -5.024   8.877  14.263  1.00  0.00     0.008 C 
BRANCH  24  25
HETATM   25  C16 UNL     1      -5.960   7.679  14.467  1.00  0.00     0.028 C 
BRANCH  25  26
HETATM   26  C17 UNL     1      -5.541   6.433  13.737  1.00  0.00    -0.025 C 
HETATM   27  C18 UNL     1      -6.266   5.320  13.509  1.00  0.00    -0.091 C 
HETATM   28  C19 UNL     1      -5.663   4.154  12.770  1.00  0.00     0.042 C 
HETATM   29  C20 UNL     1      -7.697   5.111  13.924  1.00  0.00     0.042 C 
ENDBRANCH  25  26
ENDBRANCH  24  25
ENDBRANCH  22  24
ENDBRANCH  14  22
BRANCH  20  30
HETATM   30  C27 UNL     1       0.446   3.905  11.616  1.00  0.00     0.021 C 
BRANCH  30  31
HETATM   31  C28 UNL     1      -0.994   3.410  11.630  1.00  0.00     0.111 C 
BRANCH  31  32
HETATM   32  C29 UNL     1      -1.173   2.080  10.950  1.00  0.00     0.139 C 
HETATM   33  O3  UNL     1      -0.316   1.385  10.434  1.00  0.00    -0.650 OA
BRANCH  32  34
HETATM   34  O4  UNL     1      -2.471   1.717  10.895  1.00  0.00    -0.776 OA
HETATM   35  H43 UNL     1      -2.456   0.859  10.419  1.00  0.00     0.167 HD
ENDBRANCH  32  34
ENDBRANCH  31  32
ENDBRANCH  30  31
ENDBRANCH  20  30
TORSDOF 8
ENDMDL
MODEL 5
REMARK minimizedAffinity -6.79528999
REMARK CNNscore 0.208325908
REMARK CNNaffinity 6.33843946
REMARK  8 active torsions:
REMARK  status: ('A' for Active; 'I' for Inactive)
REMARK    1  A    between atoms: C12_14  and  C13_15 
REMARK    2  A    between atoms: C13_15  and  C15_17 
REMARK    3  A    between atoms: C15_17  and  C16_18 
REMARK    4  A    between atoms: C16_18  and  C17_19 
REMARK    5  A    between atoms: C26_28  and  C27_29 
REMARK    6  A    between atoms: C27_29  and  C28_30 
REMARK    7  A    between atoms: C28_30  and  C29_31 
REMARK    8  A    between atoms: C29_31  and  O4_33 
ROOT
HETATM    1  C1  UNL     1       5.026   6.187  10.288  1.00  0.00     0.025 C 
HETATM    2  C2  UNL     1       3.699   6.336  10.387  1.00  0.00     0.015 C 
HETATM    3  C3  UNL     1       2.799   5.195  10.106  1.00  0.00     0.289 C 
HETATM    4  O1  UNL     1       3.109   4.019  10.063  1.00  0.00    -0.260 OA
HETATM    5  O2  UNL     1       1.557   5.695   9.889  1.00  0.00    -0.311 OA
HETATM    6  C4  UNL     1       1.613   7.128   9.860  1.00  0.00     0.142 C 
HETATM    7  C5  UNL     1       0.313   7.699  10.396  1.00  0.00     0.039 C 
HETATM    8  C6  UNL     1       0.076   7.269  11.851  1.00  0.00     0.006 C 
HETATM    9  C7  UNL     1       1.211   7.818  12.752  1.00  0.00    -0.027 A 
HETATM   10  C8  UNL     1       0.782   8.783  13.872  1.00  0.00     0.011 C 
HETATM   11  C9  UNL     1      -0.537   8.481  14.608  1.00  0.00     0.011 C 
HETATM   12  C10 UNL     1      -1.402   7.410  13.937  1.00  0.00    -0.032 C 
HETATM   13  C11 UNL     1      -0.882   6.018  14.384  1.00  0.00     0.016 C 
HETATM   14  C12 UNL     1      -2.932   7.530  14.211  1.00  0.00    -0.002 C 
HETATM   15  C21 UNL     1      -3.582   6.842  12.987  1.00  0.00     0.006 C 
HETATM   16  C22 UNL     1      -2.474   6.696  11.919  1.00  0.00     0.011 C 
HETATM   17  C23 UNL     1      -1.342   7.637  12.382  1.00  0.00    -0.032 C 
HETATM   18  C24 UNL     1      -1.740   9.075  11.910  1.00  0.00     0.016 C 
HETATM   19  C25 UNL     1       2.349   6.885  13.116  1.00  0.00     0.022 A 
HETATM   20  C26 UNL     1       2.633   7.969  12.104  1.00  0.00    -0.021 A 
HETATM   21  C30 UNL     1       2.863   7.554  10.627  1.00  0.00     0.063 C 
ENDROOT
BRANCH  14  22
HETATM   22  C13 UNL     1      -3.552   7.261  15.612  1.00  0.00    -0.014 C 
HETATM   23  C14 UNL     1      -2.829   8.127  16.662  1.00  0.00     0.010 C 
BRANCH  22  24
HETATM   24  C15 UNL     1      -5.082   7.279  15.856  1.00  0.00     0.008 C 
BRANCH  24  25
HETATM   25  C16 UNL     1      -5.923   6.004  15.714  1.00  0.00     0.028 C 
BRANCH  25  26
HETATM   26  C17 UNL     1      -7.008   6.089  14.676  1.00  0.00    -0.025 C 
HETATM   27  C18 UNL     1      -7.145   5.353  13.555  1.00  0.00    -0.091 C 
HETATM   28  C19 UNL     1      -8.298   5.600  12.616  1.00  0.00     0.042 C 
HETATM   29  C20 UNL     1      -6.230   4.240  13.125  1.00  0.00     0.042 C 
ENDBRANCH  25  26
ENDBRANCH  24  25
ENDBRANCH  22  24
ENDBRANCH  14  22
BRANCH  20  30
HETATM   30  C27 UNL     1       3.436   9.210  12.538  1.00  0.00     0.021 C 
BRANCH  30  31
HETATM   31  C28 UNL     1       4.811   9.397  11.909  1.00  0.00     0.111 C 
BRANCH  31  32
HETATM   32  C29 UNL     1       5.501  10.658  12.353  1.00  0.00     0.139 C 
HETATM   33  O3  UNL     1       5.769  11.001  13.490  1.00  0.00    -0.650 OA
BRANCH  32  34
HETATM   34  O4  UNL     1       5.764  11.476  11.313  1.00  0.00    -0.776 OA
HETATM   35  H43 UNL     1       6.188  12.257  11.729  1.00  0.00     0.167 HD
ENDBRANCH  32  34
ENDBRANCH  31  32
ENDBRANCH  30  31
ENDBRANCH  20  30
TORSDOF 8
ENDMDL
MODEL 6
REMARK minimizedAffinity -7.05636311
REMARK CNNscore 0.152376413
REMARK CNNaffinity 5.05640173
REMARK  8 active torsions:
REMARK  status: ('A' for Active; 'I' for Inactive)
REMARK    1  A    between atoms: C12_14  and  C13_15 
REMARK    2  A    between atoms: C13_15  and  C15_17 
REMARK    3  A    between atoms: C15_17  and  C16_18 
REMARK    4  A    between atoms: C16_18  and  C17_19 
REMARK    5  A    between atoms: C26_28  and  C27_29 
REMARK    6  A    between atoms: C27_29  and  C28_30 
REMARK    7  A    between atoms: C28_30  and  C29_31 
REMARK    8  A    between atoms: C29_31  and  O4_33 
ROOT
HETATM    1  C1  UNL     1      10.691  16.847  20.312  1.00  0.00     0.025 C 
HETATM    2  C2  UNL     1       9.664  16.286  20.963  1.00  0.00     0.015 C 
HETATM    3  C3  UNL     1       8.558  17.126  21.473  1.00  0.00     0.289 C 
HETATM    4  O1  UNL     1       8.296  18.265  21.135  1.00  0.00    -0.260 OA
HETATM    5  O2  UNL     1       7.887  16.401  22.402  1.00  0.00    -0.311 OA
HETATM    6  C4  UNL     1       8.583  15.172  22.650  1.00  0.00     0.142 C 
HETATM    7  C5  UNL     1       7.585  14.083  23.000  1.00  0.00     0.039 C 
HETATM    8  C6  UNL     1       6.602  13.840  21.846  1.00  0.00     0.006 C 
HETATM    9  C7  UNL     1       7.374  13.354  20.594  1.00  0.00    -0.027 A 
HETATM   10  C8  UNL     1       7.000  11.957  20.066  1.00  0.00     0.011 C 
HETATM   11  C9  UNL     1       5.515  11.552  20.106  1.00  0.00     0.011 C 
HETATM   12  C10 UNL     1       4.629  12.489  20.932  1.00  0.00    -0.032 C 
HETATM   13  C11 UNL     1       4.234  13.694  20.038  1.00  0.00     0.016 C 
HETATM   14  C12 UNL     1       3.356  11.826  21.542  1.00  0.00    -0.002 C 
HETATM   15  C21 UNL     1       3.040  12.701  22.779  1.00  0.00     0.006 C 
HETATM   16  C22 UNL     1       4.296  13.561  23.046  1.00  0.00     0.011 C 
HETATM   17  C23 UNL     1       5.422  12.896  22.227  1.00  0.00    -0.032 C 
HETATM   18  C24 UNL     1       5.945  11.696  23.085  1.00  0.00     0.016 C 
HETATM   19  C25 UNL     1       7.708  14.372  19.521  1.00  0.00     0.022 A 
HETATM   20  C26 UNL     1       8.838  13.888  20.399  1.00  0.00    -0.021 A 
HETATM   21  C30 UNL     1       9.447  14.879  21.425  1.00  0.00     0.063 C 
ENDROOT
BRANCH  14  22
HETATM   22  C13 UNL     1       2.163  11.348  20.664  1.00  0.00    -0.014 C 
HETATM   23  C14 UNL     1       1.694   9.965  21.155  1.00  0.00     0.010 C 
BRANCH  22  24
HETATM   24  C15 UNL     1       0.946  12.256  20.359  1.00  0.00     0.008 C 
BRANCH  24  25
HETATM   25  C16 UNL     1       0.285  12.259  18.974  1.00  0.00     0.028 C 
BRANCH  25  26
HETATM   26  C17 UNL     1      -0.834  11.265  18.819  1.00  0.00    -0.025 C 
HETATM   27  C18 UNL     1      -2.158  11.507  18.769  1.00  0.00    -0.091 C 
HETATM   28  C19 UNL     1      -3.137  10.370  18.630  1.00  0.00     0.042 C 
HETATM   29  C20 UNL     1      -2.799  12.866  18.825  1.00  0.00     0.042 C 
ENDBRANCH  25  26
ENDBRANCH  24  25
ENDBRANCH  22  24
ENDBRANCH  14  22
BRANCH  20  30
HETATM   30  C27 UNL     1       9.849  12.874  19.833  1.00  0.00     0.021 C 
BRANCH  30  31
HETATM   31  C28 UNL     1      10.719  12.131  20.838  1.00  0.00     0.111 C 
BRANCH  31  32
HETATM   32  C29 UNL     1      12.051  11.713  20.277  1.00  0.00     0.139 C 
HETATM   33  O3  UNL     1      13.094  12.343  20.282  1.00  0.00    -0.650 OA
BRANCH  32  34
HETATM   34  O4  UNL     1      11.980  10.516  19.660  1.00  0.00    -0.776 OA
HETATM   35  H43 UNL     1      12.890  10.368  19.326  1.00  0.00     0.167 HD
ENDBRANCH  32  34
ENDBRANCH  31  32
ENDBRANCH  30  31
ENDBRANCH  20  30
TORSDOF 8
ENDMDL
MODEL 7
REMARK minimizedAffinity -8.63331413
REMARK CNNscore 0.143770114
REMARK CNNaffinity 6.72200203
REMARK  8 active torsions:
REMARK  status: ('A' for Active; 'I' for Inactive)
REMARK    1  A    between atoms: C12_14  and  C13_15 
REMARK    2  A    between atoms: C13_15  and  C15_17 
REMARK    3  A    between atoms: C15_17  and  C16_18 
REMARK    4  A    between atoms: C16_18  and  C17_19 
REMARK    5  A    between atoms: C26_28  and  C27_29 
REMARK    6  A    between atoms: C27_29  and  C28_30 
REMARK    7  A    between atoms: C28_30  and  C29_31 
REMARK    8  A    between atoms: C29_31  and  O4_33 
ROOT
HETATM    1  C1  UNL     1       1.217   6.545   9.634  1.00  0.00     0.025 C 
HETATM    2  C2  UNL     1       0.550   7.186  10.601  1.00  0.00     0.015 C 
HETATM    3  C3  UNL     1      -0.105   8.483  10.318  1.00  0.00     0.289 C 
HETATM    4  O1  UNL     1      -0.370   8.939   9.222  1.00  0.00    -0.260 OA
HETATM    5  O2  UNL     1      -0.349   9.088  11.508  1.00  0.00    -0.311 OA
HETATM    6  C4  UNL     1       0.250   8.327  12.566  1.00  0.00     0.142 C 
HETATM    7  C5  UNL     1      -0.586   8.464  13.826  1.00  0.00     0.039 C 
HETATM    8  C6  UNL     1      -2.007   7.925  13.610  1.00  0.00     0.006 C 
HETATM    9  C7  UNL     1      -1.951   6.415  13.271  1.00  0.00    -0.027 A 
HETATM   10  C8  UNL     1      -2.669   5.472  14.253  1.00  0.00     0.011 C 
HETATM   11  C9  UNL     1      -4.005   5.949  14.853  1.00  0.00     0.011 C 
HETATM   12  C10 UNL     1      -4.310   7.430  14.612  1.00  0.00    -0.032 C 
HETATM   13  C11 UNL     1      -4.941   7.571  13.201  1.00  0.00     0.016 C 
HETATM   14  C12 UNL     1      -5.225   8.099  15.684  1.00  0.00    -0.002 C 
HETATM   15  C21 UNL     1      -4.845   9.597  15.612  1.00  0.00     0.006 C 
HETATM   16  C22 UNL     1      -3.523   9.682  14.816  1.00  0.00     0.011 C 
HETATM   17  C23 UNL     1      -2.974   8.240  14.791  1.00  0.00    -0.032 C 
HETATM   18  C24 UNL     1      -2.247   8.019  16.159  1.00  0.00     0.016 C 
HETATM   19  C25 UNL     1      -2.039   6.005  11.814  1.00  0.00     0.022 A 
HETATM   20  C26 UNL     1      -0.691   5.901  12.487  1.00  0.00    -0.021 A 
HETATM   21  C30 UNL     1       0.421   6.896  12.063  1.00  0.00     0.063 C 
ENDROOT
BRANCH  14  22
HETATM   22  C13 UNL     1      -6.730   7.735  15.839  1.00  0.00    -0.014 C 
HETATM   23  C14 UNL     1      -7.588   8.829  15.175  1.00  0.00     0.010 C 
BRANCH  22  24
HETATM   24  C15 UNL     1      -7.280   6.330  15.491  1.00  0.00     0.008 C 
BRANCH  24  25
HETATM   25  C16 UNL     1      -8.747   6.129  15.088  1.00  0.00     0.028 C 
BRANCH  25  26
HETATM   26  C17 UNL     1      -9.022   6.334  13.624  1.00  0.00    -0.025 C 
HETATM   27  C18 UNL     1      -8.665   5.542  12.593  1.00  0.00    -0.091 C 
HETATM   28  C19 UNL     1      -9.014   5.927  11.179  1.00  0.00     0.042 C 
HETATM   29  C20 UNL     1      -7.929   4.236  12.711  1.00  0.00     0.042 C 
ENDBRANCH  25  26
ENDBRANCH  24  25
ENDBRANCH  22  24
ENDBRANCH  14  22
BRANCH  20  30
HETATM   30  C27 UNL     1      -0.165   4.515  12.904  1.00  0.00     0.021 C 
BRANCH  30  31
HETATM   31  C28 UNL     1       0.336   3.603  11.792  1.00  0.00     0.111 C 
BRANCH  31  32
HETATM   32  C29 UNL     1      -0.649   2.531  11.412  1.00  0.00     0.139 C 
HETATM   33  O3  UNL     1      -1.851   2.520  11.609  1.00  0.00    -0.650 OA
BRANCH  32  34
HETATM   34  O4  UNL     1      -0.039   1.468  10.849  1.00  0.00    -0.776 OA
HETATM   35  H43 UNL     1      -0.774   0.843  10.670  1.00  0.00     0.167 HD
ENDBRANCH  32  34
ENDBRANCH  31  32
ENDBRANCH  30  31
ENDBRANCH  20  30
TORSDOF 8
ENDMDL
MODEL 8
REMARK minimizedAffinity -6.80370569
REMARK CNNscore 0.143748015
REMARK CNNaffinity 5.02772903
REMARK  8 active torsions:
REMARK  status: ('A' for Active; 'I' for Inactive)
REMARK    1  A    between atoms: C12_14  and  C13_15 
REMARK    2  A    between atoms: C13_15  and  C15_17 
REMARK    3  A    between atoms: C15_17  and  C16_18 
REMARK    4  A    between atoms: C16_18  and  C17_19 
REMARK    5  A    between atoms: C26_28  and  C27_29 
REMARK    6  A    between atoms: C27_29  and  C28_30 
REMARK    7  A    between atoms: C28_30  and  C29_31 
REMARK    8  A    between atoms: C29_31  and  O4_33 
ROOT
HETATM    1  C1  UNL     1       1.026  10.829  20.497  1.00  0.00     0.025 C 
HETATM    2  C2  UNL     1       2.212  11.369  20.193  1.00  0.00     0.015 C 
HETATM    3  C3  UNL     1       2.288  12.527  19.274  1.00  0.00     0.289 C 
HETATM    4  O1  UNL     1       1.374  13.264  18.957  1.00  0.00    -0.260 OA
HETATM    5  O2  UNL     1       3.568  12.617  18.833  1.00  0.00    -0.311 OA
HETATM    6  C4  UNL     1       4.317  11.483  19.291  1.00  0.00     0.142 C 
HETATM    7  C5  UNL     1       5.763  11.887  19.519  1.00  0.00     0.039 C 
HETATM    8  C6  UNL     1       5.870  12.982  20.590  1.00  0.00     0.006 C 
HETATM    9  C7  UNL     1       5.335  12.449  21.942  1.00  0.00    -0.027 A 
HETATM   10  C8  UNL     1       6.343  12.416  23.105  1.00  0.00     0.011 C 
HETATM   11  C9  UNL     1       7.338  13.585  23.221  1.00  0.00     0.011 C 
HETATM   12  C10 UNL     1       7.384  14.497  21.992  1.00  0.00    -0.032 C 
HETATM   13  C11 UNL     1       6.227  15.524  22.109  1.00  0.00     0.016 C 
HETATM   14  C12 UNL     1       8.741  15.232  21.765  1.00  0.00    -0.002 C 
HETATM   15  C21 UNL     1       8.765  15.503  20.242  1.00  0.00     0.006 C 
HETATM   16  C22 UNL     1       7.659  14.623  19.617  1.00  0.00     0.011 C 
HETATM   17  C23 UNL     1       7.299  13.593  20.708  1.00  0.00    -0.032 C 
HETATM   18  C24 UNL     1       8.378  12.463  20.625  1.00  0.00     0.016 C 
HETATM   19  C25 UNL     1       3.916  12.804  22.340  1.00  0.00     0.022 A 
HETATM   20  C26 UNL     1       4.179  11.387  21.890  1.00  0.00    -0.021 A 
HETATM   21  C30 UNL     1       3.604  10.930  20.523  1.00  0.00     0.063 C 
ENDROOT
BRANCH  14  22
HETATM   22  C13 UNL     1       9.248  16.357  22.714  1.00  0.00    -0.014 C 
HETATM   23  C14 UNL     1       9.123  17.717  22.001  1.00  0.00     0.010 C 
BRANCH  22  24
HETATM   24  C15 UNL     1       8.778  16.471  24.185  1.00  0.00     0.008 C 
BRANCH  24  25
HETATM   25  C16 UNL     1       7.921  17.654  24.655  1.00  0.00     0.028 C 
BRANCH  25  26
HETATM   26  C17 UNL     1       6.733  17.266  25.492  1.00  0.00    -0.025 C 
HETATM   27  C18 UNL     1       5.438  17.579  25.293  1.00  0.00    -0.091 C 
HETATM   28  C19 UNL     1       4.382  17.113  26.262  1.00  0.00     0.042 C 
HETATM   29  C20 UNL     1       4.902  18.376  24.136  1.00  0.00     0.042 C 
ENDBRANCH  25  26
ENDBRANCH  24  25
ENDBRANCH  22  24
ENDBRANCH  14  22
BRANCH  20  30
HETATM   30  C27 UNL     1       4.254  10.266  22.943  1.00  0.00     0.021 C 
BRANCH  30  31
HETATM   31  C28 UNL     1       3.730   8.896  22.533  1.00  0.00     0.111 C 
BRANCH  31  32
HETATM   32  C29 UNL     1       2.445   8.521  23.219  1.00  0.00     0.139 C 
HETATM   33  O3  UNL     1       2.130   8.726  24.377  1.00  0.00    -0.650 OA
BRANCH  32  34
HETATM   34  O4  UNL     1       1.628   7.824  22.403  1.00  0.00    -0.776 OA
HETATM   35  H43 UNL     1       0.848   7.625  22.964  1.00  0.00     0.167 HD
ENDBRANCH  32  34
ENDBRANCH  31  32
ENDBRANCH  30  31
ENDBRANCH  20  30
TORSDOF 8
ENDMDL
MODEL 9
REMARK minimizedAffinity -6.24891806
REMARK CNNscore 0.138615847
REMARK CNNaffinity 4.34124565
REMARK  8 active torsions:
REMARK  status: ('A' for Active; 'I' for Inactive)
REMARK    1  A    between atoms: C12_14  and  C13_15 
REMARK    2  A    between atoms: C13_15  and  C15_17 
REMARK    3  A    between atoms: C15_17  and  C16_18 
REMARK    4  A    between atoms: C16_18  and  C17_19 
REMARK    5  A    between atoms: C26_28  and  C27_29 
REMARK    6  A    between atoms: C27_29  and  C28_30 
REMARK    7  A    between atoms: C28_30  and  C29_31 
REMARK    8  A    between atoms: C29_31  and  O4_33 
ROOT
HETATM    1  C1  UNL     1       0.563  11.012  15.938  1.00  0.00     0.025 C 
HETATM    2  C2  UNL     1       1.157  10.938  17.135  1.00  0.00     0.015 C 
HETATM    3  C3  UNL     1       1.986   9.763  17.483  1.00  0.00     0.289 C 
HETATM    4  O1  UNL     1       2.451   8.948  16.709  1.00  0.00    -0.260 OA
HETATM    5  O2  UNL     1       2.128   9.746  18.832  1.00  0.00    -0.311 OA
HETATM    6  C4  UNL     1       1.306  10.765  19.416  1.00  0.00     0.142 C 
HETATM    7  C5  UNL     1       1.968  11.293  20.677  1.00  0.00     0.039 C 
HETATM    8  C6  UNL     1       3.336  11.916  20.365  1.00  0.00     0.006 C 
HETATM    9  C7  UNL     1       3.158  13.125  19.414  1.00  0.00    -0.027 A 
HETATM   10  C8  UNL     1       3.622  14.489  19.956  1.00  0.00     0.011 C 
HETATM   11  C9  UNL     1       4.906  14.521  20.805  1.00  0.00     0.011 C 
HETATM   12  C10 UNL     1       5.407  13.141  21.241  1.00  0.00    -0.032 C 
HETATM   13  C11 UNL     1       6.240  12.539  20.079  1.00  0.00     0.016 C 
HETATM   14  C12 UNL     1       6.232  13.125  22.564  1.00  0.00    -0.002 C 
HETATM   15  C21 UNL     1       6.037  11.689  23.106  1.00  0.00     0.006 C 
HETATM   16  C22 UNL     1       4.857  11.075  22.319  1.00  0.00     0.011 C 
HETATM   17  C23 UNL     1       4.159  12.272  21.640  1.00  0.00    -0.032 C 
HETATM   18  C24 UNL     1       3.227  12.913  22.722  1.00  0.00     0.016 C 
HETATM   19  C25 UNL     1       3.402  12.911  17.933  1.00  0.00     0.022 A 
HETATM   20  C26 UNL     1       1.970  13.064  18.388  1.00  0.00    -0.021 A 
HETATM   21  C30 UNL     1       1.047  11.818  18.341  1.00  0.00     0.063 C 
ENDROOT
BRANCH  14  22
HETATM   22  C13 UNL     1       7.651  13.757  22.669  1.00  0.00    -0.014 C 
HETATM   23  C14 UNL     1       7.610  14.935  23.661  1.00  0.00     0.010 C 
BRANCH  22  24
HETATM   24  C15 UNL     1       8.921  12.901  22.896  1.00  0.00     0.008 C 
BRANCH  24  25
HETATM   25  C16 UNL     1       9.924  12.651  21.761  1.00  0.00     0.028 C 
BRANCH  25  26
HETATM   26  C17 UNL     1       9.345  11.944  20.567  1.00  0.00    -0.025 C 
HETATM   27  C18 UNL     1      10.004  11.310  19.577  1.00  0.00    -0.091 C 
HETATM   28  C19 UNL     1       9.246  10.673  18.441  1.00  0.00     0.042 C 
HETATM   29  C20 UNL     1      11.496  11.148  19.487  1.00  0.00     0.042 C 
ENDBRANCH  25  26
ENDBRANCH  24  25
ENDBRANCH  22  24
ENDBRANCH  14  22
BRANCH  20  30
HETATM   30  C27 UNL     1       1.238  14.395  18.134  1.00  0.00     0.021 C 
BRANCH  30  31
HETATM   31  C28 UNL     1      -0.248  14.440  18.462  1.00  0.00     0.111 C 
BRANCH  31  32
HETATM   32  C29 UNL     1      -0.529  14.729  19.912  1.00  0.00     0.139 C 
HETATM   33  O3  UNL     1       0.270  14.786  20.829  1.00  0.00    -0.650 OA
BRANCH  32  34
HETATM   34  O4  UNL     1      -1.850  14.866  20.147  1.00  0.00    -0.776 OA
HETATM   35  H43 UNL     1      -1.902  15.027  21.113  1.00  0.00     0.167 HD
ENDBRANCH  32  34
ENDBRANCH  31  32
ENDBRANCH  30  31
ENDBRANCH  20  30
TORSDOF 8
ENDMDL
