MODEL 1
REMARK minimizedAffinity -9.05668449
REMARK CNNscore 0.690716505
REMARK CNNaffinity 7.04216766
REMARK  5 active torsions:
REMARK  status: ('A' for Active; 'I' for Inactive)
REMARK    1  A    between atoms: C5_5  and  C6_6 
REMARK    2  A    between atoms: C6_6  and  C7_8 
REMARK    3  A    between atoms: C7_8  and  O2_9 
REMARK    4  A    between atoms: O2_9  and  C8_10 
REMARK    5  A    between atoms: C14_17  and  C15_18 
ROOT
HETATM    1  C8  UNL     1      -1.526  49.488 -21.831  1.00  0.00     0.093 A 
HETATM    2  C9  UNL     1      -0.982  50.735 -22.132  1.00  0.00     0.076 A 
HETATM    3  C10 UNL     1      -0.357  51.472 -21.122  1.00  0.00     0.093 A 
HETATM    4  C11 UNL     1      -0.247  51.001 -19.814  1.00  0.00     0.011 A 
HETATM    5  C12 UNL     1      -0.786  49.744 -19.520  1.00  0.00     0.042 A 
HETATM    6  C13 UNL     1      -1.414  48.993 -20.521  1.00  0.00     0.068 A 
HETATM    7 CL1  UNL     1      -2.074  47.453 -20.090  1.00  0.00    -0.081 Cl
HETATM    8  C14 UNL     1       0.425  51.833 -18.806  1.00  0.00    -0.007 A 
HETATM    9  C21 UNL     1       0.911  53.023 -19.192  1.00  0.00     0.095 A 
HETATM   10  C22 UNL     1       0.805  53.535 -20.567  1.00  0.00     0.289 A 
HETATM   11  O3  UNL     1       1.264  54.630 -20.864  1.00  0.00    -0.260 OA
HETATM   12  O4  UNL     1       0.166  52.725 -21.491  1.00  0.00    -0.275 OA
ENDROOT
BRANCH   1  13
HETATM   13  O2  UNL     1      -2.135  48.682 -22.755  1.00  0.00    -0.342 OA
BRANCH  13  14
HETATM   14  C7  UNL     1      -3.183  49.269 -23.515  1.00  0.00     0.254 C 
BRANCH  14  15
HETATM   15  C6  UNL     1      -2.720  49.531 -24.945  1.00  0.00     0.155 C 
HETATM   16  O1  UNL     1      -2.769  48.630 -25.786  1.00  0.00    -0.295 OA
BRANCH  15  17
HETATM   17  C5  UNL     1      -2.100  50.897 -25.256  1.00  0.00     0.062 C 
HETATM   18  C4  UNL     1      -0.824  50.684 -26.082  1.00  0.00     0.049 C 
HETATM   19  C2  UNL     1      -0.418  51.927 -26.894  1.00  0.00     0.054 C 
HETATM   20  C1  UNL     1       0.701  51.555 -27.874  1.00  0.00     0.045 C 
HETATM   21  C3  UNL     1       0.084  53.049 -25.975  1.00  0.00     0.045 C 
HETATM   22  O5  UNL     1      -1.489  52.462 -27.682  1.00  0.00    -0.381 OA
HETATM   23  C24 UNL     1      -2.782  51.904 -27.456  1.00  0.00     0.169 C 
HETATM   24  C23 UNL     1      -3.093  51.826 -25.972  1.00  0.00     0.038 C 
ENDBRANCH  15  17
ENDBRANCH  14  15
ENDBRANCH  13  14
ENDBRANCH   1  13
BRANCH   8  25
HETATM   25  C15 UNL     1       0.623  51.477 -17.388  1.00  0.00    -0.025 A 
HETATM   26  C16 UNL     1       1.670  52.052 -16.657  1.00  0.00     0.012 A 
HETATM   27  C17 UNL     1       1.859  51.711 -15.316  1.00  0.00     0.001 A 
HETATM   28  C18 UNL     1       1.003  50.797 -14.701  1.00  0.00     0.000 A 
HETATM   29  C19 UNL     1      -0.042  50.222 -15.424  1.00  0.00     0.001 A 
HETATM   30  C20 UNL     1      -0.234  50.561 -16.765  1.00  0.00     0.012 A 
ENDBRANCH   8  25
TORSDOF 5
ENDMDL
MODEL 2
REMARK minimizedAffinity -8.55342674
REMARK CNNscore 0.535254955
REMARK CNNaffinity 6.72747183
REMARK  5 active torsions:
REMARK  status: ('A' for Active; 'I' for Inactive)
REMARK    1  A    between atoms: C5_5  and  C6_6 
REMARK    2  A    between atoms: C6_6  and  C7_8 
REMARK    3  A    between atoms: C7_8  and  O2_9 
REMARK    4  A    between atoms: O2_9  and  C8_10 
REMARK    5  A    between atoms: C14_17  and  C15_18 
ROOT
HETATM    1  C8  UNL     1      -3.012  49.791 -22.581  1.00  0.00     0.093 A 
HETATM    2  C9  UNL     1      -2.290  50.715 -21.826  1.00  0.00     0.076 A 
HETATM    3  C10 UNL     1      -1.259  51.438 -22.433  1.00  0.00     0.093 A 
HETATM    4  C11 UNL     1      -0.925  51.278 -23.776  1.00  0.00     0.011 A 
HETATM    5  C12 UNL     1      -1.660  50.357 -24.531  1.00  0.00     0.042 A 
HETATM    6  C13 UNL     1      -2.696  49.625 -23.939  1.00  0.00     0.068 A 
HETATM    7 CL1  UNL     1      -3.556  48.491 -24.923  1.00  0.00    -0.081 Cl
HETATM    8  C14 UNL     1       0.172  52.075 -24.343  1.00  0.00    -0.007 A 
HETATM    9  C21 UNL     1       0.811  52.934 -23.534  1.00  0.00     0.095 A 
HETATM   10  C22 UNL     1       0.471  53.117 -22.115  1.00  0.00     0.289 A 
HETATM   11  O3  UNL     1       1.090  53.913 -21.421  1.00  0.00    -0.260 OA
HETATM   12  O4  UNL     1      -0.568  52.350 -21.614  1.00  0.00    -0.275 OA
ENDROOT
BRANCH   1  13
HETATM   13  O2  UNL     1      -4.054  49.054 -22.084  1.00  0.00    -0.342 OA
BRANCH  13  14
HETATM   14  C7  UNL     1      -3.782  47.690 -21.792  1.00  0.00     0.254 C 
BRANCH  14  15
HETATM   15  C6  UNL     1      -2.484  47.567 -20.998  1.00  0.00     0.155 C 
HETATM   16  O1  UNL     1      -1.434  47.269 -21.573  1.00  0.00    -0.295 OA
BRANCH  15  17
HETATM   17  C5  UNL     1      -2.561  47.715 -19.476  1.00  0.00     0.062 C 
HETATM   18  C4  UNL     1      -1.368  48.556 -19.001  1.00  0.00     0.049 C 
HETATM   19  C2  UNL     1      -1.603  49.216 -17.631  1.00  0.00     0.054 C 
HETATM   20  C1  UNL     1      -0.486  50.228 -17.351  1.00  0.00     0.045 C 
HETATM   21  C3  UNL     1      -1.613  48.171 -16.507  1.00  0.00     0.045 C 
HETATM   22  O5  UNL     1      -2.838  49.940 -17.558  1.00  0.00    -0.381 OA
HETATM   23  C24 UNL     1      -3.729  49.785 -18.660  1.00  0.00     0.169 C 
HETATM   24  C23 UNL     1      -3.898  48.321 -19.025  1.00  0.00     0.038 C 
ENDBRANCH  15  17
ENDBRANCH  14  15
ENDBRANCH  13  14
ENDBRANCH   1  13
BRANCH   8  25
HETATM   25  C15 UNL     1       0.642  52.023 -25.741  1.00  0.00    -0.025 A 
HETATM   26  C16 UNL     1      -0.232  52.333 -26.790  1.00  0.00     0.012 A 
HETATM   27  C17 UNL     1       0.212  52.278 -28.113  1.00  0.00     0.001 A 
HETATM   28  C18 UNL     1       1.530  51.915 -28.392  1.00  0.00     0.000 A 
HETATM   29  C19 UNL     1       2.405  51.607 -27.351  1.00  0.00     0.001 A 
HETATM   30  C20 UNL     1       1.964  51.660 -26.028  1.00  0.00     0.012 A 
ENDBRANCH   8  25
TORSDOF 5
ENDMDL
MODEL 3
REMARK minimizedAffinity -9.08861542
REMARK CNNscore 0.529674947
REMARK CNNaffinity 6.42379999
REMARK  5 active torsions:
REMARK  status: ('A' for Active; 'I' for Inactive)
REMARK    1  A    between atoms: C5_5  and  C6_6 
REMARK    2  A    between atoms: C6_6  and  C7_8 
REMARK    3  A    between atoms: C7_8  and  O2_9 
REMARK    4  A    between atoms: O2_9  and  C8_10 
REMARK    5  A    between atoms: C14_17  and  C15_18 
ROOT
HETATM    1  C8  UNL     1      -1.636  50.229 -21.307  1.00  0.00     0.093 A 
HETATM    2  C9  UNL     1      -0.856  51.293 -20.858  1.00  0.00     0.076 A 
HETATM    3  C10 UNL     1      -0.191  52.096 -21.790  1.00  0.00     0.093 A 
HETATM    4  C11 UNL     1      -0.284  51.879 -23.163  1.00  0.00     0.011 A 
HETATM    5  C12 UNL     1      -1.077  50.816 -23.609  1.00  0.00     0.042 A 
HETATM    6  C13 UNL     1      -1.750  50.003 -22.689  1.00  0.00     0.068 A 
HETATM    7 CL1  UNL     1      -2.702  48.696 -23.303  1.00  0.00    -0.081 Cl
HETATM    8  C14 UNL     1       0.444  52.767 -24.081  1.00  0.00    -0.007 A 
HETATM    9  C21 UNL     1       1.175  53.760 -23.552  1.00  0.00     0.095 A 
HETATM   10  C22 UNL     1       1.283  54.004 -22.106  1.00  0.00     0.289 A 
HETATM   11  O3  UNL     1       1.967  54.924 -21.676  1.00  0.00    -0.260 OA
HETATM   12  O4  UNL     1       0.584  53.150 -21.270  1.00  0.00    -0.275 OA
ENDROOT
BRANCH   1  13
HETATM   13  O2  UNL     1      -2.344  49.403 -20.476  1.00  0.00    -0.342 OA
BRANCH  13  14
HETATM   14  C7  UNL     1      -3.409  49.998 -19.748  1.00  0.00     0.254 C 
BRANCH  14  15
HETATM   15  C6  UNL     1      -2.871  50.720 -18.516  1.00  0.00     0.155 C 
HETATM   16  O1  UNL     1      -2.996  51.943 -18.412  1.00  0.00    -0.295 OA
BRANCH  15  17
HETATM   17  C5  UNL     1      -2.088  49.895 -17.489  1.00  0.00     0.062 C 
HETATM   18  C4  UNL     1      -0.704  50.529 -17.299  1.00  0.00     0.049 C 
HETATM   19  C2  UNL     1      -0.046  50.149 -15.961  1.00  0.00     0.054 C 
HETATM   20  C1  UNL     1       1.200  51.014 -15.738  1.00  0.00     0.045 C 
HETATM   21  C3  UNL     1       0.371  48.673 -15.948  1.00  0.00     0.045 C 
HETATM   22  O5  UNL     1      -0.900  50.366 -14.829  1.00  0.00    -0.381 OA
HETATM   23  C24 UNL     1      -2.256  50.704 -15.116  1.00  0.00     0.169 C 
HETATM   24  C23 UNL     1      -2.844  49.770 -16.158  1.00  0.00     0.038 C 
ENDBRANCH  15  17
ENDBRANCH  14  15
ENDBRANCH  13  14
ENDBRANCH   1  13
BRANCH   8  25
HETATM   25  C15 UNL     1       0.445  52.669 -25.553  1.00  0.00    -0.025 A 
HETATM   26  C16 UNL     1      -0.320  53.558 -26.318  1.00  0.00     0.012 A 
HETATM   27  C17 UNL     1      -0.322  53.463 -27.712  1.00  0.00     0.001 A 
HETATM   28  C18 UNL     1       0.441  52.481 -28.345  1.00  0.00     0.000 A 
HETATM   29  C19 UNL     1       1.206  51.594 -27.588  1.00  0.00     0.001 A 
HETATM   30  C20 UNL     1       1.209  51.687 -26.195  1.00  0.00     0.012 A 
ENDBRANCH   8  25
TORSDOF 5
ENDMDL
MODEL 4
REMARK minimizedAffinity -8.29458618
REMARK CNNscore 0.492409587
REMARK CNNaffinity 6.57246017
REMARK  5 active torsions:
REMARK  status: ('A' for Active; 'I' for Inactive)
REMARK    1  A    between atoms: C5_5  and  C6_6 
REMARK    2  A    between atoms: C6_6  and  C7_8 
REMARK    3  A    between atoms: C7_8  and  O2_9 
REMARK    4  A    between atoms: O2_9  and  C8_10 
REMARK    5  A    between atoms: C14_17  and  C15_18 
ROOT
HETATM    1  C8  UNL     1      -2.018  50.339 -21.344  1.00  0.00     0.093 A 
HETATM    2  C9  UNL     1      -1.233  51.386 -20.864  1.00  0.00     0.076 A 
HETATM    3  C10 UNL     1      -0.447  52.118 -21.759  1.00  0.00     0.093 A 
HETATM    4  C11 UNL     1      -0.422  51.847 -23.126  1.00  0.00     0.011 A 
HETATM    5  C12 UNL     1      -1.220  50.803 -23.603  1.00  0.00     0.042 A 
HETATM    6  C13 UNL     1      -2.014  50.060 -22.721  1.00  0.00     0.068 A 
HETATM    7 CL1  UNL     1      -2.966  48.770 -23.372  1.00  0.00    -0.081 Cl
HETATM    8  C14 UNL     1       0.430  52.662 -24.004  1.00  0.00    -0.007 A 
HETATM    9  C21 UNL     1       1.154  53.644 -23.446  1.00  0.00     0.095 A 
HETATM   10  C22 UNL     1       1.140  53.945 -22.006  1.00  0.00     0.289 A 
HETATM   11  O3  UNL     1       1.824  54.851 -21.549  1.00  0.00    -0.260 OA
HETATM   12  O4  UNL     1       0.326  53.158 -21.208  1.00  0.00    -0.275 OA
ENDROOT
BRANCH   1  13
HETATM   13  O2  UNL     1      -2.838  49.581 -20.553  1.00  0.00    -0.342 OA
BRANCH  13  14
HETATM   14  C7  UNL     1      -3.833  50.280 -19.818  1.00  0.00     0.254 C 
BRANCH  14  15
HETATM   15  C6  UNL     1      -3.544  50.198 -18.322  1.00  0.00     0.155 C 
HETATM   16  O1  UNL     1      -2.942  51.115 -17.757  1.00  0.00    -0.295 OA
BRANCH  15  17
HETATM   17  C5  UNL     1      -3.926  48.907 -17.591  1.00  0.00     0.062 C 
HETATM   18  C4  UNL     1      -5.128  48.272 -18.303  1.00  0.00     0.049 C 
HETATM   19  C2  UNL     1      -5.267  46.766 -18.024  1.00  0.00     0.054 C 
HETATM   20  C1  UNL     1      -6.321  46.166 -18.962  1.00  0.00     0.045 C 
HETATM   21  C3  UNL     1      -5.694  46.508 -16.573  1.00  0.00     0.045 C 
HETATM   22  O5  UNL     1      -4.054  46.034 -18.253  1.00  0.00    -0.381 OA
HETATM   23  C24 UNL     1      -2.885  46.810 -18.506  1.00  0.00     0.169 C 
HETATM   24  C23 UNL     1      -2.743  47.932 -17.493  1.00  0.00     0.038 C 
ENDBRANCH  15  17
ENDBRANCH  14  15
ENDBRANCH  13  14
ENDBRANCH   1  13
BRANCH   8  25
HETATM   25  C15 UNL     1       0.563  52.503 -25.464  1.00  0.00    -0.025 A 
HETATM   26  C16 UNL     1      -0.383  53.074 -26.324  1.00  0.00     0.012 A 
HETATM   27  C17 UNL     1      -0.259  52.918 -27.706  1.00  0.00     0.001 A 
HETATM   28  C18 UNL     1       0.810  52.194 -28.234  1.00  0.00     0.000 A 
HETATM   29  C19 UNL     1       1.756  51.624 -27.383  1.00  0.00     0.001 A 
HETATM   30  C20 UNL     1       1.634  51.777 -26.000  1.00  0.00     0.012 A 
ENDBRANCH   8  25
TORSDOF 5
ENDMDL
MODEL 5
REMARK minimizedAffinity -8.16485405
REMARK CNNscore 0.459088832
REMARK CNNaffinity 6.38677359
REMARK  5 active torsions:
REMARK  status: ('A' for Active; 'I' for Inactive)
REMARK    1  A    between atoms: C5_5  and  C6_6 
REMARK    2  A    between atoms: C6_6  and  C7_8 
REMARK    3  A    between atoms: C7_8  and  O2_9 
REMARK    4  A    between atoms: O2_9  and  C8_10 
REMARK    5  A    between atoms: C14_17  and  C15_18 
ROOT
HETATM    1  C8  UNL     1      -1.388  49.672 -20.506  1.00  0.00     0.093 A 
HETATM    2  C9  UNL     1      -0.634  50.789 -20.149  1.00  0.00     0.076 A 
HETATM    3  C10 UNL     1      -0.138  51.628 -21.150  1.00  0.00     0.093 A 
HETATM    4  C11 UNL     1      -0.376  51.398 -22.504  1.00  0.00     0.011 A 
HETATM    5  C12 UNL     1      -1.143  50.282 -22.856  1.00  0.00     0.042 A 
HETATM    6  C13 UNL     1      -1.648  49.431 -21.865  1.00  0.00     0.068 A 
HETATM    7 CL1  UNL     1      -2.575  48.059 -22.366  1.00  0.00    -0.081 Cl
HETATM    8  C14 UNL     1       0.178  52.327 -23.499  1.00  0.00    -0.007 A 
HETATM    9  C21 UNL     1       0.897  53.370 -23.057  1.00  0.00     0.095 A 
HETATM   10  C22 UNL     1       1.157  53.629 -21.633  1.00  0.00     0.289 A 
HETATM   11  O3  UNL     1       1.824  54.596 -21.284  1.00  0.00    -0.260 OA
HETATM   12  O4  UNL     1       0.620  52.735 -20.722  1.00  0.00    -0.275 OA
ENDROOT
BRANCH   1  13
HETATM   13  O2  UNL     1      -1.937  48.805 -19.600  1.00  0.00    -0.342 OA
BRANCH  13  14
HETATM   14  C7  UNL     1      -2.817  49.368 -18.638  1.00  0.00     0.254 C 
BRANCH  14  15
HETATM   15  C6  UNL     1      -4.058  49.934 -19.322  1.00  0.00     0.155 C 
HETATM   16  O1  UNL     1      -4.053  51.089 -19.755  1.00  0.00    -0.295 OA
BRANCH  15  17
HETATM   17  C5  UNL     1      -5.320  49.065 -19.347  1.00  0.00     0.062 C 
HETATM   18  C4  UNL     1      -5.610  48.658 -20.798  1.00  0.00     0.049 C 
HETATM   19  C2  UNL     1      -6.485  47.397 -20.906  1.00  0.00     0.054 C 
HETATM   20  C1  UNL     1      -6.515  46.917 -22.362  1.00  0.00     0.045 C 
HETATM   21  C3  UNL     1      -7.923  47.679 -20.451  1.00  0.00     0.045 C 
HETATM   22  O5  UNL     1      -5.993  46.299 -20.125  1.00  0.00    -0.381 OA
HETATM   23  C24 UNL     1      -4.914  46.587 -19.238  1.00  0.00     0.169 C 
HETATM   24  C23 UNL     1      -5.190  47.841 -18.428  1.00  0.00     0.038 C 
ENDBRANCH  15  17
ENDBRANCH  14  15
ENDBRANCH  13  14
ENDBRANCH   1  13
BRANCH   8  25
HETATM   25  C15 UNL     1       0.013  52.222 -24.961  1.00  0.00    -0.025 A 
HETATM   26  C16 UNL     1       1.030  51.665 -25.746  1.00  0.00     0.012 A 
HETATM   27  C17 UNL     1       0.876  51.570 -27.131  1.00  0.00     0.001 A 
HETATM   28  C18 UNL     1      -0.294  52.030 -27.736  1.00  0.00     0.000 A 
HETATM   29  C19 UNL     1      -1.311  52.584 -26.959  1.00  0.00     0.001 A 
HETATM   30  C20 UNL     1      -1.159  52.681 -25.575  1.00  0.00     0.012 A 
ENDBRANCH   8  25
TORSDOF 5
ENDMDL
MODEL 6
REMARK minimizedAffinity -8.66916561
REMARK CNNscore 0.451957732
REMARK CNNaffinity 6.52102327
REMARK  5 active torsions:
REMARK  status: ('A' for Active; 'I' for Inactive)
REMARK    1  A    between atoms: C5_5  and  C6_6 
REMARK    2  A    between atoms: C6_6  and  C7_8 
REMARK    3  A    between atoms: C7_8  and  O2_9 
REMARK    4  A    between atoms: O2_9  and  C8_10 
REMARK    5  A    between atoms: C14_17  and  C15_18 
ROOT
HETATM    1  C8  UNL     1      -0.666  52.271 -20.905  1.00  0.00     0.093 A 
HETATM    2  C9  UNL     1      -1.656  51.390 -21.337  1.00  0.00     0.076 A 
HETATM    3  C10 UNL     1      -1.670  50.975 -22.671  1.00  0.00     0.093 A 
HETATM    4  C11 UNL     1      -0.720  51.404 -23.596  1.00  0.00     0.011 A 
HETATM    5  C12 UNL     1       0.278  52.280 -23.156  1.00  0.00     0.042 A 
HETATM    6  C13 UNL     1       0.307  52.705 -21.822  1.00  0.00     0.068 A 
HETATM    7 CL1  UNL     1       1.557  53.801 -21.343  1.00  0.00    -0.081 Cl
HETATM    8  C14 UNL     1      -0.799  50.923 -24.983  1.00  0.00    -0.007 A 
HETATM    9  C21 UNL     1      -1.794  50.081 -25.302  1.00  0.00     0.095 A 
HETATM   10  C22 UNL     1      -2.804  49.617 -24.339  1.00  0.00     0.289 A 
HETATM   11  O3  UNL     1      -3.693  48.850 -24.686  1.00  0.00    -0.260 OA
HETATM   12  O4  UNL     1      -2.698  50.089 -23.042  1.00  0.00    -0.275 OA
ENDROOT
BRANCH   1  13
HETATM   13  O2  UNL     1      -0.554  52.715 -19.615  1.00  0.00    -0.342 OA
BRANCH  13  14
HETATM   14  C7  UNL     1       0.423  52.074 -18.807  1.00  0.00     0.254 C 
BRANCH  14  15
HETATM   15  C6  UNL     1      -0.251  51.278 -17.693  1.00  0.00     0.155 C 
HETATM   16  O1  UNL     1       0.391  50.953 -16.690  1.00  0.00    -0.295 OA
BRANCH  15  17
HETATM   17  C5  UNL     1      -1.693  50.814 -17.917  1.00  0.00     0.062 C 
HETATM   18  C4  UNL     1      -1.672  49.381 -18.466  1.00  0.00     0.049 C 
HETATM   19  C2  UNL     1      -2.992  48.626 -18.232  1.00  0.00     0.054 C 
HETATM   20  C1  UNL     1      -2.802  47.144 -18.575  1.00  0.00     0.045 C 
HETATM   21  C3  UNL     1      -4.117  49.193 -19.106  1.00  0.00     0.045 C 
HETATM   22  O5  UNL     1      -3.437  48.676 -16.870  1.00  0.00    -0.381 OA
HETATM   23  C24 UNL     1      -2.721  49.552 -16.002  1.00  0.00     0.169 C 
HETATM   24  C23 UNL     1      -2.535  50.919 -16.636  1.00  0.00     0.038 C 
ENDBRANCH  15  17
ENDBRANCH  14  15
ENDBRANCH  13  14
ENDBRANCH   1  13
BRANCH   8  25
HETATM   25  C15 UNL     1       0.128  51.282 -26.073  1.00  0.00    -0.025 A 
HETATM   26  C16 UNL     1       1.510  51.288 -25.849  1.00  0.00     0.012 A 
HETATM   27  C17 UNL     1       2.386  51.632 -26.881  1.00  0.00     0.001 A 
HETATM   28  C18 UNL     1       1.885  51.969 -28.139  1.00  0.00     0.000 A 
HETATM   29  C19 UNL     1       0.510  51.963 -28.368  1.00  0.00     0.001 A 
HETATM   30  C20 UNL     1      -0.369  51.620 -27.339  1.00  0.00     0.012 A 
ENDBRANCH   8  25
TORSDOF 5
ENDMDL
MODEL 7
REMARK minimizedAffinity -7.87095642
REMARK CNNscore 0.430209786
REMARK CNNaffinity 6.10372925
REMARK  5 active torsions:
REMARK  status: ('A' for Active; 'I' for Inactive)
REMARK    1  A    between atoms: C5_5  and  C6_6 
REMARK    2  A    between atoms: C6_6  and  C7_8 
REMARK    3  A    between atoms: C7_8  and  O2_9 
REMARK    4  A    between atoms: O2_9  and  C8_10 
REMARK    5  A    between atoms: C14_17  and  C15_18 
ROOT
HETATM    1  C8  UNL     1      -1.650  50.072 -20.945  1.00  0.00     0.093 A 
HETATM    2  C9  UNL     1      -0.818  51.105 -20.514  1.00  0.00     0.076 A 
HETATM    3  C10 UNL     1      -0.190  51.919 -21.460  1.00  0.00     0.093 A 
HETATM    4  C11 UNL     1      -0.368  51.744 -22.831  1.00  0.00     0.011 A 
HETATM    5  C12 UNL     1      -1.212  50.714 -23.258  1.00  0.00     0.042 A 
HETATM    6  C13 UNL     1      -1.850  49.890 -22.323  1.00  0.00     0.068 A 
HETATM    7 CL1  UNL     1      -2.869  48.623 -22.916  1.00  0.00    -0.081 Cl
HETATM    8  C14 UNL     1       0.326  52.642 -23.766  1.00  0.00    -0.007 A 
HETATM    9  C21 UNL     1       1.111  53.602 -23.253  1.00  0.00     0.095 A 
HETATM   10  C22 UNL     1       1.310  53.801 -21.810  1.00  0.00     0.289 A 
HETATM   11  O3  UNL     1       2.040  54.693 -21.395  1.00  0.00    -0.260 OA
HETATM   12  O4  UNL     1       0.640  52.939 -20.958  1.00  0.00    -0.275 OA
ENDROOT
BRANCH   1  13
HETATM   13  O2  UNL     1      -2.327  49.239 -20.097  1.00  0.00    -0.342 OA
BRANCH  13  14
HETATM   14  C7  UNL     1      -1.536  48.392 -19.275  1.00  0.00     0.254 C 
BRANCH  14  15
HETATM   15  C6  UNL     1      -1.982  48.498 -17.819  1.00  0.00     0.155 C 
HETATM   16  O1  UNL     1      -1.303  49.135 -17.009  1.00  0.00    -0.295 OA
BRANCH  15  17
HETATM   17  C5  UNL     1      -3.221  47.706 -17.391  1.00  0.00     0.062 C 
HETATM   18  C4  UNL     1      -3.335  46.454 -18.273  1.00  0.00     0.049 C 
HETATM   19  C2  UNL     1      -4.176  45.338 -17.629  1.00  0.00     0.054 C 
HETATM   20  C1  UNL     1      -4.030  44.049 -18.446  1.00  0.00     0.045 C 
HETATM   21  C3  UNL     1      -5.660  45.723 -17.576  1.00  0.00     0.045 C 
HETATM   22  O5  UNL     1      -3.766  45.022 -16.291  1.00  0.00    -0.381 OA
HETATM   23  C24 UNL     1      -2.801  45.892 -15.703  1.00  0.00     0.169 C 
HETATM   24  C23 UNL     1      -3.185  47.348 -15.898  1.00  0.00     0.038 C 
ENDBRANCH  15  17
ENDBRANCH  14  15
ENDBRANCH  13  14
ENDBRANCH   1  13
BRANCH   8  25
HETATM   25  C15 UNL     1       0.238  52.588 -25.237  1.00  0.00    -0.025 A 
HETATM   26  C16 UNL     1       0.557  51.407 -25.919  1.00  0.00     0.012 A 
HETATM   27  C17 UNL     1       0.478  51.358 -27.312  1.00  0.00     0.001 A 
HETATM   28  C18 UNL     1       0.080  52.487 -28.029  1.00  0.00     0.000 A 
HETATM   29  C19 UNL     1      -0.240  53.665 -27.356  1.00  0.00     0.001 A 
HETATM   30  C20 UNL     1      -0.162  53.718 -25.962  1.00  0.00     0.012 A 
ENDBRANCH   8  25
TORSDOF 5
ENDMDL
MODEL 8
REMARK minimizedAffinity -8.376688
REMARK CNNscore 0.349874735
REMARK CNNaffinity 5.62370729
REMARK  5 active torsions:
REMARK  status: ('A' for Active; 'I' for Inactive)
REMARK    1  A    between atoms: C5_5  and  C6_6 
REMARK    2  A    between atoms: C6_6  and  C7_8 
REMARK    3  A    between atoms: C7_8  and  O2_9 
REMARK    4  A    between atoms: O2_9  and  C8_10 
REMARK    5  A    between atoms: C14_17  and  C15_18 
ROOT
HETATM    1  C8  UNL     1      -0.619  50.731 -17.677  1.00  0.00     0.093 A 
HETATM    2  C9  UNL     1       0.173  51.822 -18.034  1.00  0.00     0.076 A 
HETATM    3  C10 UNL     1       0.283  52.176 -19.381  1.00  0.00     0.093 A 
HETATM    4  C11 UNL     1      -0.381  51.483 -20.392  1.00  0.00     0.011 A 
HETATM    5  C12 UNL     1      -1.183  50.397 -20.027  1.00  0.00     0.042 A 
HETATM    6  C13 UNL     1      -1.304  50.029 -18.682  1.00  0.00     0.068 A 
HETATM    7 CL1  UNL     1      -2.299  48.666 -18.297  1.00  0.00    -0.081 Cl
HETATM    8  C14 UNL     1      -0.217  51.917 -21.787  1.00  0.00    -0.007 A 
HETATM    9  C21 UNL     1       0.573  52.974 -22.030  1.00  0.00     0.095 A 
HETATM   10  C22 UNL     1       1.279  53.718 -20.976  1.00  0.00     0.289 A 
HETATM   11  O3  UNL     1       1.991  54.675 -21.254  1.00  0.00    -0.260 OA
HETATM   12  O4  UNL     1       1.102  53.283 -19.673  1.00  0.00    -0.275 OA
ENDROOT
BRANCH   1  13
HETATM   13  O2  UNL     1      -0.809  50.322 -16.384  1.00  0.00    -0.342 OA
BRANCH  13  14
HETATM   14  C7  UNL     1       0.301  50.455 -15.508  1.00  0.00     0.254 C 
BRANCH  14  15
HETATM   15  C6  UNL     1       0.057  51.583 -14.510  1.00  0.00     0.155 C 
HETATM   16  O1  UNL     1       0.637  52.664 -14.643  1.00  0.00    -0.295 OA
BRANCH  15  17
HETATM   17  C5  UNL     1      -0.835  51.286 -13.300  1.00  0.00     0.062 C 
HETATM   18  C4  UNL     1      -0.732  52.456 -12.312  1.00  0.00     0.049 C 
HETATM   19  C2  UNL     1      -1.935  52.544 -11.356  1.00  0.00     0.054 C 
HETATM   20  C1  UNL     1      -1.882  53.869 -10.586  1.00  0.00     0.045 C 
HETATM   21  C3  UNL     1      -1.928  51.388 -10.348  1.00  0.00     0.045 C 
HETATM   22  O5  UNL     1      -3.199  52.518 -12.034  1.00  0.00    -0.381 OA
HETATM   23  C24 UNL     1      -3.162  52.225 -13.429  1.00  0.00     0.169 C 
HETATM   24  C23 UNL     1      -2.289  51.015 -13.712  1.00  0.00     0.038 C 
ENDBRANCH  15  17
ENDBRANCH  14  15
ENDBRANCH  13  14
ENDBRANCH   1  13
BRANCH   8  25
HETATM   25  C15 UNL     1      -0.850  51.292 -22.963  1.00  0.00    -0.025 A 
HETATM   26  C16 UNL     1      -1.917  50.400 -22.798  1.00  0.00     0.012 A 
HETATM   27  C17 UNL     1      -2.514  49.806 -23.912  1.00  0.00     0.001 A 
HETATM   28  C18 UNL     1      -2.048  50.100 -25.194  1.00  0.00     0.000 A 
HETATM   29  C19 UNL     1      -0.987  50.989 -25.364  1.00  0.00     0.001 A 
HETATM   30  C20 UNL     1      -0.388  51.584 -24.253  1.00  0.00     0.012 A 
ENDBRANCH   8  25
TORSDOF 5
ENDMDL
MODEL 9
REMARK minimizedAffinity -8.51350498
REMARK CNNscore 0.338480115
REMARK CNNaffinity 6.32360315
REMARK  5 active torsions:
REMARK  status: ('A' for Active; 'I' for Inactive)
REMARK    1  A    between atoms: C5_5  and  C6_6 
REMARK    2  A    between atoms: C6_6  and  C7_8 
REMARK    3  A    between atoms: C7_8  and  O2_9 
REMARK    4  A    between atoms: O2_9  and  C8_10 
REMARK    5  A    between atoms: C14_17  and  C15_18 
ROOT
HETATM    1  C8  UNL     1      -2.091  49.872 -21.557  1.00  0.00     0.093 A 
HETATM    2  C9  UNL     1      -1.354  50.903 -20.978  1.00  0.00     0.076 A 
HETATM    3  C10 UNL     1      -0.588  51.740 -21.794  1.00  0.00     0.093 A 
HETATM    4  C11 UNL     1      -0.538  51.590 -23.179  1.00  0.00     0.011 A 
HETATM    5  C12 UNL     1      -1.289  50.560 -23.756  1.00  0.00     0.042 A 
HETATM    6  C13 UNL     1      -2.061  49.713 -22.952  1.00  0.00     0.068 A 
HETATM    7 CL1  UNL     1      -2.954  48.449 -23.725  1.00  0.00    -0.081 Cl
HETATM    8  C14 UNL     1       0.289  52.510 -23.972  1.00  0.00    -0.007 A 
HETATM    9  C21 UNL     1       0.968  53.468 -23.321  1.00  0.00     0.095 A 
HETATM   10  C22 UNL     1       0.926  53.642 -21.862  1.00  0.00     0.289 A 
HETATM   11  O3  UNL     1       1.569  54.532 -21.319  1.00  0.00    -0.260 OA
HETATM   12  O4  UNL     1       0.136  52.758 -21.146  1.00  0.00    -0.275 OA
ENDROOT
BRANCH   1  13
HETATM   13  O2  UNL     1      -2.889  49.017 -20.845  1.00  0.00    -0.342 OA
BRANCH  13  14
HETATM   14  C7  UNL     1      -4.228  48.876 -21.298  1.00  0.00     0.254 C 
BRANCH  14  15
HETATM   15  C6  UNL     1      -5.187  49.588 -20.349  1.00  0.00     0.155 C 
HETATM   16  O1  UNL     1      -5.243  50.821 -20.336  1.00  0.00    -0.295 OA
BRANCH  15  17
HETATM   17  C5  UNL     1      -5.979  48.731 -19.356  1.00  0.00     0.062 C 
HETATM   18  C4  UNL     1      -7.459  49.130 -19.431  1.00  0.00     0.049 C 
HETATM   19  C2  UNL     1      -8.406  48.031 -18.916  1.00  0.00     0.054 C 
HETATM   20  C1  UNL     1      -9.854  48.401 -19.258  1.00  0.00     0.045 C 
HETATM   21  C3  UNL     1      -8.286  47.864 -17.396  1.00  0.00     0.045 C 
HETATM   22  O5  UNL     1      -8.161  46.750 -19.511  1.00  0.00    -0.381 OA
HETATM   23  C24 UNL     1      -6.989  46.640 -20.317  1.00  0.00     0.169 C 
HETATM   24  C23 UNL     1      -5.782  47.229 -19.611  1.00  0.00     0.038 C 
ENDBRANCH  15  17
ENDBRANCH  14  15
ENDBRANCH  13  14
ENDBRANCH   1  13
BRANCH   8  25
HETATM   25  C15 UNL     1       0.445  52.483 -25.439  1.00  0.00    -0.025 A 
HETATM   26  C16 UNL     1      -0.237  53.410 -26.236  1.00  0.00     0.012 A 
HETATM   27  C17 UNL     1      -0.093  53.380 -27.625  1.00  0.00     0.001 A 
HETATM   28  C18 UNL     1       0.732  52.426 -28.221  1.00  0.00     0.000 A 
HETATM   29  C19 UNL     1       1.415  51.502 -27.432  1.00  0.00     0.001 A 
HETATM   30  C20 UNL     1       1.272  51.528 -26.043  1.00  0.00     0.012 A 
ENDBRANCH   8  25
TORSDOF 5
ENDMDL
