MODEL 1
REMARK minimizedAffinity -9.24782467
REMARK CNNscore 0.496630311
REMARK CNNaffinity 7.15079641
REMARK  13 active torsions:
REMARK  status: ('A' for Active; 'I' for Inactive)
REMARK    1  A    between atoms: O1_2  and  C2_3 
REMARK    2  A    between atoms: C4_5  and  O2_6 
REMARK    3  A    between atoms: O2_6  and  C5_7 
REMARK    4  A    between atoms: C10_12  and  C11_13 
REMARK    5  A    between atoms: C11_13  and  C12_14 
REMARK    6  A    between atoms: C12_14  and  O3_15 
REMARK    7  A    between atoms: C12_14  and  C22_26 
REMARK    8  A    between atoms: O3_15  and  C13_16 
REMARK    9  A    between atoms: C13_16  and  C14_18 
REMARK   10  A    between atoms: C15_19  and  C16_20 
REMARK   11  A    between atoms: C27_32  and  C28_33 
REMARK   12  A    between atoms: C33_40  and  O8_41 
REMARK   13  A    between atoms: C37_46  and  O10_47 
ROOT
HETATM    1  C5  UNL     1      -3.690   7.389  14.305  1.00  0.00     0.128 C 
HETATM    2  C6  UNL     1      -3.258   8.548  13.412  1.00  0.00     0.033 C 
HETATM    3  C7  UNL     1      -2.045   8.188  12.555  1.00  0.00     0.016 C 
HETATM    4  C8  UNL     1      -0.817   7.656  13.369  1.00  0.00     0.002 C 
HETATM    5  C9  UNL     1      -0.238   8.857  14.165  1.00  0.00     0.019 C 
HETATM    6  C10 UNL     1       0.268   7.129  12.343  1.00  0.00     0.073 C 
HETATM    7  C30 UNL     1      -0.247   5.887  11.635  1.00  0.00     0.154 C 
HETATM    8  O7  UNL     1       0.034   5.636  10.465  1.00  0.00    -0.293 OA
HETATM    9  C31 UNL     1      -1.076   4.920  12.388  1.00  0.00     0.049 C 
HETATM   10  C32 UNL     1      -1.516   5.205  13.618  1.00  0.00     0.015 C 
HETATM   11  C33 UNL     1      -1.275   6.509  14.338  1.00  0.00     0.086 C 
HETATM   12  C34 UNL     1      -2.517   6.906  15.156  1.00  0.00     0.075 C 
ENDROOT
BRANCH   6  13
HETATM   13  C11 UNL     1       1.670   6.848  12.945  1.00  0.00     0.047 C 
BRANCH  13  14
HETATM   14  C12 UNL     1       2.814   7.809  12.516  1.00  0.00     0.149 C 
BRANCH  14  15
HETATM   15  O3  UNL     1       3.951   7.482  13.344  1.00  0.00    -0.311 OA
BRANCH  15  16
HETATM   16  C13 UNL     1       4.022   8.118  14.548  1.00  0.00     0.283 C 
HETATM   17  O4  UNL     1       3.778   7.619  15.630  1.00  0.00    -0.260 OA
BRANCH  16  18
HETATM   18  C14 UNL     1       4.402   9.523  14.290  1.00  0.00     0.083 C 
HETATM   19  C15 UNL     1       5.645  10.029  14.361  1.00  0.00     0.017 C 
BRANCH  19  20
HETATM   20  C16 UNL     1       6.887   9.306  14.661  1.00  0.00    -0.036 A 
HETATM   21  C17 UNL     1       7.386   9.215  15.967  1.00  0.00     0.011 A 
HETATM   22  C18 UNL     1       8.563   8.503  16.230  1.00  0.00     0.001 A 
HETATM   23  C19 UNL     1       9.241   7.872  15.188  1.00  0.00     0.000 A 
HETATM   24  C20 UNL     1       8.740   7.939  13.888  1.00  0.00     0.001 A 
HETATM   25  C21 UNL     1       7.564   8.650  13.625  1.00  0.00     0.011 A 
ENDBRANCH  19  20
ENDBRANCH  16  18
ENDBRANCH  15  16
ENDBRANCH  14  15
BRANCH  14  26
HETATM   26  C22 UNL     1       3.188   7.704  10.988  1.00  0.00     0.054 C 
HETATM   27  C23 UNL     1       2.139   8.357  10.075  1.00  0.00     0.027 C 
HETATM   28  C24 UNL     1       4.548   8.371  10.812  1.00  0.00     0.138 C 
HETATM   29  O5  UNL     1       4.721   9.578  10.718  1.00  0.00    -0.297 OA
HETATM   30  C25 UNL     1       5.691   7.391  10.749  1.00  0.00     0.080 C 
HETATM   31  C26 UNL     1       5.012   6.047  10.948  1.00  0.00     0.021 C 
HETATM   32  C27 UNL     1       3.548   6.250  10.550  1.00  0.00     0.073 C 
BRANCH  32  33
HETATM   33  C28 UNL     1       3.242   5.902   9.086  1.00  0.00     0.128 C 
HETATM   34  C29 UNL     1       2.628   6.940   8.184  1.00  0.00     0.091 C 
HETATM   35  O6  UNL     1       3.448   4.758   8.668  1.00  0.00    -0.298 OA
ENDBRANCH  32  33
ENDBRANCH  14  26
ENDBRANCH  13  14
ENDBRANCH   6  13
BRANCH  11  36
HETATM   36  O8  UNL     1      -0.231   6.234  15.272  1.00  0.00    -0.385 OA
HETATM   37  H40 UNL     1      -0.544   5.576  15.914  1.00  0.00     0.211 HD
ENDBRANCH  11  36
BRANCH   1  38
HETATM   38  O2  UNL     1      -4.718   7.869  15.177  1.00  0.00    -0.356 OA
BRANCH  38  39
HETATM   39  C4  UNL     1      -5.985   8.040  14.538  1.00  0.00     0.263 C 
HETATM   40  C3  UNL     1      -6.149   6.888  13.546  1.00  0.00     0.095 C 
HETATM   41  C2  UNL     1      -6.877   5.733  14.227  1.00  0.00     0.156 C 
HETATM   42  C37 UNL     1      -8.288   6.210  14.640  1.00  0.00     0.175 C 
HETATM   43  C35 UNL     1      -8.276   7.684  15.095  1.00  0.00     0.151 C 
HETATM   44  O9  UNL     1      -6.979   8.059  15.565  1.00  0.00    -0.354 OA
HETATM   45  C36 UNL     1      -9.280   7.924  16.216  1.00  0.00     0.042 C 
BRANCH  41  46
HETATM   46  O1  UNL     1      -7.047   4.599  13.358  1.00  0.00    -0.388 OA
HETATM   47  C1  UNL     1      -7.428   3.415  14.055  1.00  0.00     0.202 C 
ENDBRANCH  41  46
BRANCH  42  48
HETATM   48  O10 UNL     1      -9.186   6.089  13.526  1.00  0.00    -0.390 OA
HETATM   49  H48 UNL     1      -8.862   5.306  13.025  1.00  0.00     0.210 HD
ENDBRANCH  42  48
ENDBRANCH  38  39
ENDBRANCH   1  38
TORSDOF 13
ENDMDL
MODEL 2
REMARK minimizedAffinity -8.78707504
REMARK CNNscore 0.445815414
REMARK CNNaffinity 7.14281082
REMARK  13 active torsions:
REMARK  status: ('A' for Active; 'I' for Inactive)
REMARK    1  A    between atoms: O1_2  and  C2_3 
REMARK    2  A    between atoms: C4_5  and  O2_6 
REMARK    3  A    between atoms: O2_6  and  C5_7 
REMARK    4  A    between atoms: C10_12  and  C11_13 
REMARK    5  A    between atoms: C11_13  and  C12_14 
REMARK    6  A    between atoms: C12_14  and  O3_15 
REMARK    7  A    between atoms: C12_14  and  C22_26 
REMARK    8  A    between atoms: O3_15  and  C13_16 
REMARK    9  A    between atoms: C13_16  and  C14_18 
REMARK   10  A    between atoms: C15_19  and  C16_20 
REMARK   11  A    between atoms: C27_32  and  C28_33 
REMARK   12  A    between atoms: C33_40  and  O8_41 
REMARK   13  A    between atoms: C37_46  and  O10_47 
ROOT
HETATM    1  C5  UNL     1      -2.428  10.403  16.686  1.00  0.00     0.128 C 
HETATM    2  C6  UNL     1      -3.341   9.185  16.576  1.00  0.00     0.033 C 
HETATM    3  C7  UNL     1      -2.717   8.077  15.730  1.00  0.00     0.016 C 
HETATM    4  C8  UNL     1      -2.265   8.536  14.301  1.00  0.00     0.002 C 
HETATM    5  C9  UNL     1      -3.553   8.810  13.478  1.00  0.00     0.019 C 
HETATM    6  C10 UNL     1      -1.454   7.351  13.634  1.00  0.00     0.073 C 
HETATM    7  C30 UNL     1      -0.138   7.145  14.367  1.00  0.00     0.154 C 
HETATM    8  O7  UNL     1       0.369   6.033  14.502  1.00  0.00    -0.293 OA
HETATM    9  C31 UNL     1       0.584   8.322  14.896  1.00  0.00     0.049 C 
HETATM   10  C32 UNL     1       0.019   9.535  14.889  1.00  0.00     0.015 C 
HETATM   11  C33 UNL     1      -1.381   9.828  14.410  1.00  0.00     0.086 C 
HETATM   12  C34 UNL     1      -2.037  10.902  15.296  1.00  0.00     0.075 C 
ENDROOT
BRANCH   6  13
HETATM   13  C11 UNL     1      -1.190   7.502  12.112  1.00  0.00     0.047 C 
BRANCH  13  14
HETATM   14  C12 UNL     1      -0.203   6.483  11.476  1.00  0.00     0.149 C 
BRANCH  14  15
HETATM   15  O3  UNL     1      -1.015   5.523  10.763  1.00  0.00    -0.311 OA
BRANCH  15  16
HETATM   16  C13 UNL     1      -1.203   4.321  11.376  1.00  0.00     0.283 C 
HETATM   17  O4  UNL     1      -0.708   3.978  12.434  1.00  0.00    -0.260 OA
BRANCH  16  18
HETATM   18  C14 UNL     1      -2.072   3.503  10.503  1.00  0.00     0.083 C 
HETATM   19  C15 UNL     1      -3.389   3.298  10.674  1.00  0.00     0.017 C 
BRANCH  19  20
HETATM   20  C16 UNL     1      -4.253   3.864  11.717  1.00  0.00    -0.036 A 
HETATM   21  C17 UNL     1      -3.798   4.870  12.581  1.00  0.00     0.011 A 
HETATM   22  C18 UNL     1      -4.648   5.408  13.555  1.00  0.00     0.001 A 
HETATM   23  C19 UNL     1      -5.960   4.947  13.664  1.00  0.00     0.000 A 
HETATM   24  C20 UNL     1      -6.429   3.962  12.794  1.00  0.00     0.001 A 
HETATM   25  C21 UNL     1      -5.579   3.424  11.820  1.00  0.00     0.011 A 
ENDBRANCH  19  20
ENDBRANCH  16  18
ENDBRANCH  15  16
ENDBRANCH  14  15
BRANCH  14  26
HETATM   26  C22 UNL     1       0.854   7.144  10.512  1.00  0.00     0.054 C 
HETATM   27  C23 UNL     1       0.201   7.933   9.368  1.00  0.00     0.027 C 
HETATM   28  C24 UNL     1       1.731   8.055  11.366  1.00  0.00     0.138 C 
HETATM   29  O5  UNL     1       1.420   9.185  11.716  1.00  0.00    -0.297 OA
HETATM   30  C25 UNL     1       3.052   7.435  11.740  1.00  0.00     0.080 C 
HETATM   31  C26 UNL     1       2.973   6.046  11.131  1.00  0.00     0.021 C 
HETATM   32  C27 UNL     1       1.933   6.134  10.010  1.00  0.00     0.073 C 
BRANCH  32  33
HETATM   33  C28 UNL     1       2.528   6.431   8.626  1.00  0.00     0.128 C 
HETATM   34  C29 UNL     1       2.846   7.852   8.238  1.00  0.00     0.091 C 
HETATM   35  O6  UNL     1       2.692   5.514   7.815  1.00  0.00    -0.298 OA
ENDBRANCH  32  33
ENDBRANCH  14  26
ENDBRANCH  13  14
ENDBRANCH   6  13
BRANCH  11  36
HETATM   36  O8  UNL     1      -1.220  10.401  13.111  1.00  0.00    -0.385 OA
HETATM   37  H40 UNL     1      -0.735  11.238  13.191  1.00  0.00     0.211 HD
ENDBRANCH  11  36
BRANCH   1  38
HETATM   38  O2  UNL     1      -3.157  11.438  17.352  1.00  0.00    -0.356 OA
BRANCH  38  39
HETATM   39  C4  UNL     1      -3.388  12.595  16.546  1.00  0.00     0.263 C 
HETATM   40  C3  UNL     1      -4.903  12.786  16.457  1.00  0.00     0.095 C 
HETATM   41  C2  UNL     1      -5.361  13.722  17.572  1.00  0.00     0.156 C 
HETATM   42  C37 UNL     1      -4.694  15.101  17.368  1.00  0.00     0.175 C 
HETATM   43  C35 UNL     1      -3.260  14.960  16.820  1.00  0.00     0.151 C 
HETATM   44  O9  UNL     1      -2.707  13.688  17.166  1.00  0.00    -0.354 OA
HETATM   45  C36 UNL     1      -2.346  16.046  17.375  1.00  0.00     0.042 C 
BRANCH  41  46
HETATM   46  O1  UNL     1      -6.785  13.931  17.565  1.00  0.00    -0.388 OA
HETATM   47  C1  UNL     1      -7.334  14.070  18.874  1.00  0.00     0.202 C 
ENDBRANCH  41  46
BRANCH  42  48
HETATM   48  O10 UNL     1      -5.461  15.877  16.433  1.00  0.00    -0.390 OA
HETATM   49  H48 UNL     1      -6.393  15.596  16.578  1.00  0.00     0.210 HD
ENDBRANCH  42  48
ENDBRANCH  38  39
ENDBRANCH   1  38
TORSDOF 13
ENDMDL
MODEL 3
REMARK minimizedAffinity -9.02199554
REMARK CNNscore 0.434335083
REMARK CNNaffinity 6.72655487
REMARK  13 active torsions:
REMARK  status: ('A' for Active; 'I' for Inactive)
REMARK    1  A    between atoms: O1_2  and  C2_3 
REMARK    2  A    between atoms: C4_5  and  O2_6 
REMARK    3  A    between atoms: O2_6  and  C5_7 
REMARK    4  A    between atoms: C10_12  and  C11_13 
REMARK    5  A    between atoms: C11_13  and  C12_14 
REMARK    6  A    between atoms: C12_14  and  O3_15 
REMARK    7  A    between atoms: C12_14  and  C22_26 
REMARK    8  A    between atoms: O3_15  and  C13_16 
REMARK    9  A    between atoms: C13_16  and  C14_18 
REMARK   10  A    between atoms: C15_19  and  C16_20 
REMARK   11  A    between atoms: C27_32  and  C28_33 
REMARK   12  A    between atoms: C33_40  and  O8_41 
REMARK   13  A    between atoms: C37_46  and  O10_47 
ROOT
HETATM    1  C5  UNL     1      -3.856   7.304  13.462  1.00  0.00     0.128 C 
HETATM    2  C6  UNL     1      -3.470   8.727  13.067  1.00  0.00     0.033 C 
HETATM    3  C7  UNL     1      -1.971   8.978  13.224  1.00  0.00     0.016 C 
HETATM    4  C8  UNL     1      -1.410   8.650  14.651  1.00  0.00     0.002 C 
HETATM    5  C9  UNL     1      -1.967   9.725  15.622  1.00  0.00     0.019 C 
HETATM    6  C10 UNL     1       0.169   8.752  14.598  1.00  0.00     0.073 C 
HETATM    7  C30 UNL     1       0.733   7.635  13.734  1.00  0.00     0.154 C 
HETATM    8  O7  UNL     1       1.737   7.787  13.042  1.00  0.00    -0.293 OA
HETATM    9  C31 UNL     1       0.084   6.307  13.761  1.00  0.00     0.049 C 
HETATM   10  C32 UNL     1      -1.080   6.123  14.394  1.00  0.00     0.015 C 
HETATM   11  C33 UNL     1      -1.864   7.211  15.085  1.00  0.00     0.086 C 
HETATM   12  C34 UNL     1      -3.374   6.996  14.879  1.00  0.00     0.075 C 
ENDROOT
BRANCH   6  13
HETATM   13  C11 UNL     1       0.880   8.762  15.977  1.00  0.00     0.047 C 
BRANCH  13  14
HETATM   14  C12 UNL     1       1.464  10.124  16.446  1.00  0.00     0.149 C 
BRANCH  14  15
HETATM   15  O3  UNL     1       2.594   9.811  17.290  1.00  0.00    -0.311 OA
BRANCH  15  16
HETATM   16  C13 UNL     1       2.736  10.572  18.412  1.00  0.00     0.283 C 
HETATM   17  O4  UNL     1       3.790  10.973  18.870  1.00  0.00    -0.260 OA
BRANCH  16  18
HETATM   18  C14 UNL     1       1.390  10.779  18.987  1.00  0.00     0.083 C 
HETATM   19  C15 UNL     1       1.071  10.702  20.290  1.00  0.00     0.017 C 
BRANCH  19  20
HETATM   20  C16 UNL     1       1.975  10.446  21.418  1.00  0.00    -0.036 A 
HETATM   21  C17 UNL     1       2.647  11.488  22.071  1.00  0.00     0.011 A 
HETATM   22  C18 UNL     1       3.490  11.220  23.156  1.00  0.00     0.001 A 
HETATM   23  C19 UNL     1       3.658   9.909  23.598  1.00  0.00     0.000 A 
HETATM   24  C20 UNL     1       2.977   8.866  22.969  1.00  0.00     0.001 A 
HETATM   25  C21 UNL     1       2.134   9.134  21.883  1.00  0.00     0.011 A 
ENDBRANCH  19  20
ENDBRANCH  16  18
ENDBRANCH  15  16
ENDBRANCH  14  15
BRANCH  14  26
HETATM   26  C22 UNL     1       1.896  11.068  15.261  1.00  0.00     0.054 C 
HETATM   27  C23 UNL     1       2.047  10.318  13.930  1.00  0.00     0.027 C 
HETATM   28  C24 UNL     1       0.837  12.161  15.149  1.00  0.00     0.138 C 
HETATM   29  O5  UNL     1      -0.239  12.028  14.582  1.00  0.00    -0.297 OA
HETATM   30  C25 UNL     1       1.244  13.457  15.802  1.00  0.00     0.080 C 
HETATM   31  C26 UNL     1       2.605  13.139  16.396  1.00  0.00     0.021 C 
HETATM   32  C27 UNL     1       3.142  11.943  15.606  1.00  0.00     0.073 C 
BRANCH  32  33
HETATM   33  C28 UNL     1       4.033  12.328  14.416  1.00  0.00     0.128 C 
HETATM   34  C29 UNL     1       3.555  13.359  13.427  1.00  0.00     0.091 C 
HETATM   35  O6  UNL     1       5.112  11.753  14.241  1.00  0.00    -0.298 OA
ENDBRANCH  32  33
ENDBRANCH  14  26
ENDBRANCH  13  14
ENDBRANCH   6  13
BRANCH  11  36
HETATM   36  O8  UNL     1      -1.604   7.034  16.478  1.00  0.00    -0.385 OA
HETATM   37  H40 UNL     1      -1.951   6.172  16.759  1.00  0.00     0.211 HD
ENDBRANCH  11  36
BRANCH   1  38
HETATM   38  O2  UNL     1      -5.283   7.215  13.437  1.00  0.00    -0.356 OA
BRANCH  38  39
HETATM   39  C4  UNL     1      -5.791   5.950  13.866  1.00  0.00     0.263 C 
HETATM   40  C3  UNL     1      -7.284   6.135  14.143  1.00  0.00     0.095 C 
HETATM   41  C2  UNL     1      -8.077   5.797  12.884  1.00  0.00     0.156 C 
HETATM   42  C37 UNL     1      -7.839   4.312  12.530  1.00  0.00     0.175 C 
HETATM   43  C35 UNL     1      -6.393   3.880  12.847  1.00  0.00     0.151 C 
HETATM   44  O9  UNL     1      -5.512   5.005  12.829  1.00  0.00    -0.354 OA
HETATM   45  C36 UNL     1      -5.886   2.860  11.834  1.00  0.00     0.042 C 
BRANCH  41  46
HETATM   46  O1  UNL     1      -9.495   5.972  13.062  1.00  0.00    -0.388 OA
HETATM   47  C1  UNL     1      -9.816   6.946  14.052  1.00  0.00     0.202 C 
ENDBRANCH  41  46
BRANCH  42  48
HETATM   48  O10 UNL     1      -8.735   3.483  13.288  1.00  0.00    -0.390 OA
HETATM   49  H48 UNL     1      -9.549   4.026  13.397  1.00  0.00     0.210 HD
ENDBRANCH  42  48
ENDBRANCH  38  39
ENDBRANCH   1  38
TORSDOF 13
ENDMDL
MODEL 4
REMARK minimizedAffinity -10.0809622
REMARK CNNscore 0.387043864
REMARK CNNaffinity 7.45418739
REMARK  13 active torsions:
REMARK  status: ('A' for Active; 'I' for Inactive)
REMARK    1  A    between atoms: O1_2  and  C2_3 
REMARK    2  A    between atoms: C4_5  and  O2_6 
REMARK    3  A    between atoms: O2_6  and  C5_7 
REMARK    4  A    between atoms: C10_12  and  C11_13 
REMARK    5  A    between atoms: C11_13  and  C12_14 
REMARK    6  A    between atoms: C12_14  and  O3_15 
REMARK    7  A    between atoms: C12_14  and  C22_26 
REMARK    8  A    between atoms: O3_15  and  C13_16 
REMARK    9  A    between atoms: C13_16  and  C14_18 
REMARK   10  A    between atoms: C15_19  and  C16_20 
REMARK   11  A    between atoms: C27_32  and  C28_33 
REMARK   12  A    between atoms: C33_40  and  O8_41 
REMARK   13  A    between atoms: C37_46  and  O10_47 
ROOT
HETATM    1  C5  UNL     1      -3.980   6.629  13.692  1.00  0.00     0.128 C 
HETATM    2  C6  UNL     1      -3.493   8.054  13.449  1.00  0.00     0.033 C 
HETATM    3  C7  UNL     1      -2.071   8.085  12.890  1.00  0.00     0.016 C 
HETATM    4  C8  UNL     1      -1.023   7.302  13.753  1.00  0.00     0.002 C 
HETATM    5  C9  UNL     1      -0.814   8.107  15.064  1.00  0.00     0.019 C 
HETATM    6  C10 UNL     1       0.338   7.243  12.946  1.00  0.00     0.073 C 
HETATM    7  C30 UNL     1       0.175   6.367  11.714  1.00  0.00     0.154 C 
HETATM    8  O7  UNL     1       0.765   6.602  10.662  1.00  0.00    -0.293 OA
HETATM    9  C31 UNL     1      -0.683   5.166  11.795  1.00  0.00     0.049 C 
HETATM   10  C32 UNL     1      -1.445   4.935  12.870  1.00  0.00     0.015 C 
HETATM   11  C33 UNL     1      -1.556   5.858  14.059  1.00  0.00     0.086 C 
HETATM   12  C34 UNL     1      -3.000   5.876  14.590  1.00  0.00     0.075 C 
ENDROOT
BRANCH   6  13
HETATM   13  C11 UNL     1       1.574   6.779  13.762  1.00  0.00     0.047 C 
BRANCH  13  14
HETATM   14  C12 UNL     1       2.790   7.746  13.789  1.00  0.00     0.149 C 
BRANCH  14  15
HETATM   15  O3  UNL     1       2.724   8.516  12.568  1.00  0.00    -0.311 OA
BRANCH  15  16
HETATM   16  C13 UNL     1       3.860   8.548  11.815  1.00  0.00     0.283 C 
HETATM   17  O4  UNL     1       4.371   9.547  11.344  1.00  0.00    -0.260 OA
BRANCH  16  18
HETATM   18  C14 UNL     1       4.322   7.155  11.641  1.00  0.00     0.083 C 
HETATM   19  C15 UNL     1       4.123   6.390  10.554  1.00  0.00     0.017 C 
BRANCH  19  20
HETATM   20  C16 UNL     1       3.456   6.772   9.303  1.00  0.00    -0.036 A 
HETATM   21  C17 UNL     1       3.328   8.114   8.920  1.00  0.00     0.011 A 
HETATM   22  C18 UNL     1       2.704   8.451   7.712  1.00  0.00     0.001 A 
HETATM   23  C19 UNL     1       2.213   7.447   6.880  1.00  0.00     0.000 A 
HETATM   24  C20 UNL     1       2.354   6.107   7.242  1.00  0.00     0.001 A 
HETATM   25  C21 UNL     1       2.978   5.770   8.450  1.00  0.00     0.011 A 
ENDBRANCH  19  20
ENDBRANCH  16  18
ENDBRANCH  15  16
ENDBRANCH  14  15
BRANCH  14  26
HETATM   26  C22 UNL     1       2.814   8.696  15.047  1.00  0.00     0.054 C 
HETATM   27  C23 UNL     1       2.277   8.015  16.314  1.00  0.00     0.027 C 
HETATM   28  C24 UNL     1       4.259   9.143  15.244  1.00  0.00     0.138 C 
HETATM   29  O5  UNL     1       5.122   8.475  15.797  1.00  0.00    -0.297 OA
HETATM   30  C25 UNL     1       4.539  10.519  14.697  1.00  0.00     0.080 C 
HETATM   31  C26 UNL     1       3.213  10.930  14.082  1.00  0.00     0.021 C 
HETATM   32  C27 UNL     1       2.145  10.080  14.775  1.00  0.00     0.073 C 
BRANCH  32  33
HETATM   33  C28 UNL     1       1.499  10.756  15.993  1.00  0.00     0.128 C 
HETATM   34  C29 UNL     1       2.100  10.561  17.362  1.00  0.00     0.091 C 
HETATM   35  O6  UNL     1       0.461  11.410  15.858  1.00  0.00    -0.298 OA
ENDBRANCH  32  33
ENDBRANCH  14  26
ENDBRANCH  13  14
ENDBRANCH   6  13
BRANCH  11  36
HETATM   36  O8  UNL     1      -0.746   5.261  15.073  1.00  0.00    -0.385 OA
HETATM   37  H40 UNL     1      -1.121   4.397  15.311  1.00  0.00     0.211 HD
ENDBRANCH  11  36
BRANCH   1  38
HETATM   38  O2  UNL     1      -5.243   6.706  14.359  1.00  0.00    -0.356 OA
BRANCH  38  39
HETATM   39  C4  UNL     1      -5.922   5.453  14.460  1.00  0.00     0.263 C 
HETATM   40  C3  UNL     1      -7.418   5.757  14.550  1.00  0.00     0.095 C 
HETATM   41  C2  UNL     1      -8.023   5.741  13.148  1.00  0.00     0.156 C 
HETATM   42  C37 UNL     1      -7.860   4.324  12.553  1.00  0.00     0.175 C 
HETATM   43  C35 UNL     1      -6.528   3.679  12.986  1.00  0.00     0.151 C 
HETATM   44  O9  UNL     1      -5.561   4.680  13.312  1.00  0.00    -0.354 OA
HETATM   45  C36 UNL     1      -5.953   2.802  11.878  1.00  0.00     0.042 C 
BRANCH  41  46
HETATM   46  O1  UNL     1      -9.429   6.045  13.152  1.00  0.00    -0.388 OA
HETATM   47  C1  UNL     1      -9.797   6.970  14.172  1.00  0.00     0.202 C 
ENDBRANCH  41  46
BRANCH  42  48
HETATM   48  O10 UNL     1      -8.935   3.484  13.002  1.00  0.00    -0.390 OA
HETATM   49  H48 UNL     1      -9.706   4.089  13.095  1.00  0.00     0.210 HD
ENDBRANCH  42  48
ENDBRANCH  38  39
ENDBRANCH   1  38
TORSDOF 13
ENDMDL
MODEL 5
REMARK minimizedAffinity -8.42262554
REMARK CNNscore 0.375845462
REMARK CNNaffinity 6.34172964
REMARK  13 active torsions:
REMARK  status: ('A' for Active; 'I' for Inactive)
REMARK    1  A    between atoms: O1_2  and  C2_3 
REMARK    2  A    between atoms: C4_5  and  O2_6 
REMARK    3  A    between atoms: O2_6  and  C5_7 
REMARK    4  A    between atoms: C10_12  and  C11_13 
REMARK    5  A    between atoms: C11_13  and  C12_14 
REMARK    6  A    between atoms: C12_14  and  O3_15 
REMARK    7  A    between atoms: C12_14  and  C22_26 
REMARK    8  A    between atoms: O3_15  and  C13_16 
REMARK    9  A    between atoms: C13_16  and  C14_18 
REMARK   10  A    between atoms: C15_19  and  C16_20 
REMARK   11  A    between atoms: C27_32  and  C28_33 
REMARK   12  A    between atoms: C33_40  and  O8_41 
REMARK   13  A    between atoms: C37_46  and  O10_47 
ROOT
HETATM    1  C5  UNL     1       1.715  11.892  18.649  1.00  0.00     0.128 C 
HETATM    2  C6  UNL     1       2.261  12.731  17.497  1.00  0.00     0.033 C 
HETATM    3  C7  UNL     1       1.668  12.310  16.153  1.00  0.00     0.016 C 
HETATM    4  C8  UNL     1       1.831  10.786  15.827  1.00  0.00     0.002 C 
HETATM    5  C9  UNL     1       3.337  10.534  15.547  1.00  0.00     0.019 C 
HETATM    6  C10 UNL     1       0.991  10.466  14.523  1.00  0.00     0.073 C 
HETATM    7  C30 UNL     1      -0.495  10.605  14.815  1.00  0.00     0.154 C 
HETATM    8  O7  UNL     1      -1.292  11.011  13.972  1.00  0.00    -0.293 OA
HETATM    9  C31 UNL     1      -1.010  10.194  16.139  1.00  0.00     0.049 C 
HETATM   10  C32 UNL     1      -0.174   9.867  17.131  1.00  0.00     0.015 C 
HETATM   11  C33 UNL     1       1.332   9.924  17.040  1.00  0.00     0.086 C 
HETATM   12  C34 UNL     1       1.931  10.404  18.374  1.00  0.00     0.075 C 
ENDROOT
BRANCH   6  13
HETATM   13  C11 UNL     1       1.272   9.085  13.874  1.00  0.00     0.047 C 
BRANCH  13  14
HETATM   14  C12 UNL     1       0.862   8.922  12.384  1.00  0.00     0.149 C 
BRANCH  14  15
HETATM   15  O3  UNL     1       1.998   8.335  11.712  1.00  0.00    -0.311 OA
BRANCH  15  16
HETATM   16  C13 UNL     1       3.119   8.160  12.467  1.00  0.00     0.283 C 
HETATM   17  O4  UNL     1       3.169   7.598  13.546  1.00  0.00    -0.260 OA
BRANCH  16  18
HETATM   18  C14 UNL     1       4.242   8.813  11.761  1.00  0.00     0.083 C 
HETATM   19  C15 UNL     1       4.540   8.673  10.458  1.00  0.00     0.017 C 
BRANCH  19  20
HETATM   20  C16 UNL     1       3.808   7.893   9.453  1.00  0.00    -0.036 A 
HETATM   21  C17 UNL     1       3.704   6.498   9.540  1.00  0.00     0.011 A 
HETATM   22  C18 UNL     1       2.984   5.778   8.579  1.00  0.00     0.001 A 
HETATM   23  C19 UNL     1       2.357   6.452   7.531  1.00  0.00     0.000 A 
HETATM   24  C20 UNL     1       2.437   7.842   7.448  1.00  0.00     0.001 A 
HETATM   25  C21 UNL     1       3.158   8.562   8.409  1.00  0.00     0.011 A 
ENDBRANCH  19  20
ENDBRANCH  16  18
ENDBRANCH  15  16
ENDBRANCH  14  15
BRANCH  14  26
HETATM   26  C22 UNL     1      -0.427   8.040  12.175  1.00  0.00     0.054 C 
HETATM   27  C23 UNL     1      -1.611   8.844  11.617  1.00  0.00     0.027 C 
HETATM   28  C24 UNL     1      -0.047   6.907  11.227  1.00  0.00     0.138 C 
HETATM   29  O5  UNL     1       0.014   7.013  10.010  1.00  0.00    -0.297 OA
HETATM   30  C25 UNL     1       0.242   5.608  11.933  1.00  0.00     0.080 C 
HETATM   31  C26 UNL     1       0.084   5.963  13.401  1.00  0.00     0.021 C 
HETATM   32  C27 UNL     1      -0.805   7.209  13.442  1.00  0.00     0.073 C 
BRANCH  32  33
HETATM   33  C28 UNL     1      -2.300   6.906  13.616  1.00  0.00     0.128 C 
HETATM   34  C29 UNL     1      -2.902   5.700  12.942  1.00  0.00     0.091 C 
HETATM   35  O6  UNL     1      -3.016   7.680  14.259  1.00  0.00    -0.298 OA
ENDBRANCH  32  33
ENDBRANCH  14  26
ENDBRANCH  13  14
ENDBRANCH   6  13
BRANCH  11  36
HETATM   36  O8  UNL     1       1.747   8.570  16.860  1.00  0.00    -0.385 OA
HETATM   37  H40 UNL     1       1.500   8.055  17.645  1.00  0.00     0.211 HD
ENDBRANCH  11  36
BRANCH   1  38
HETATM   38  O2  UNL     1       2.440  12.246  19.829  1.00  0.00    -0.356 OA
BRANCH  38  39
HETATM   39  C4  UNL     1       3.325  11.225  20.294  1.00  0.00     0.263 C 
HETATM   40  C3  UNL     1       4.540  11.925  20.905  1.00  0.00     0.095 C 
HETATM   41  C2  UNL     1       4.310  12.122  22.401  1.00  0.00     0.156 C 
HETATM   42  C37 UNL     1       4.173  10.735  23.069  1.00  0.00     0.175 C 
HETATM   43  C35 UNL     1       3.441   9.735  22.152  1.00  0.00     0.151 C 
HETATM   44  O9  UNL     1       2.596  10.421  21.225  1.00  0.00    -0.354 OA
HETATM   45  C36 UNL     1       2.580   8.771  22.960  1.00  0.00     0.042 C 
BRANCH  41  46
HETATM   46  O1  UNL     1       5.406  12.799  23.043  1.00  0.00    -0.388 OA
HETATM   47  C1  UNL     1       5.320  14.218  22.941  1.00  0.00     0.202 C 
ENDBRANCH  41  46
BRANCH  42  48
HETATM   48  O10 UNL     1       5.477  10.207  23.363  1.00  0.00    -0.390 OA
HETATM   49  H48 UNL     1       6.029  10.997  23.562  1.00  0.00     0.210 HD
ENDBRANCH  42  48
ENDBRANCH  38  39
ENDBRANCH   1  38
TORSDOF 13
ENDMDL
MODEL 6
REMARK minimizedAffinity -9.94925308
REMARK CNNscore 0.356190592
REMARK CNNaffinity 7.10464334
REMARK  13 active torsions:
REMARK  status: ('A' for Active; 'I' for Inactive)
REMARK    1  A    between atoms: O1_2  and  C2_3 
REMARK    2  A    between atoms: C4_5  and  O2_6 
REMARK    3  A    between atoms: O2_6  and  C5_7 
REMARK    4  A    between atoms: C10_12  and  C11_13 
REMARK    5  A    between atoms: C11_13  and  C12_14 
REMARK    6  A    between atoms: C12_14  and  O3_15 
REMARK    7  A    between atoms: C12_14  and  C22_26 
REMARK    8  A    between atoms: O3_15  and  C13_16 
REMARK    9  A    between atoms: C13_16  and  C14_18 
REMARK   10  A    between atoms: C15_19  and  C16_20 
REMARK   11  A    between atoms: C27_32  and  C28_33 
REMARK   12  A    between atoms: C33_40  and  O8_41 
REMARK   13  A    between atoms: C37_46  and  O10_47 
ROOT
HETATM    1  C5  UNL     1      -2.905   6.566  13.533  1.00  0.00     0.128 C 
HETATM    2  C6  UNL     1      -1.860   5.505  13.203  1.00  0.00     0.033 C 
HETATM    3  C7  UNL     1      -0.482   5.868  13.755  1.00  0.00     0.016 C 
HETATM    4  C8  UNL     1       0.035   7.281  13.316  1.00  0.00     0.002 C 
HETATM    5  C9  UNL     1       0.365   7.200  11.801  1.00  0.00     0.019 C 
HETATM    6  C10 UNL     1       1.356   7.600  14.128  1.00  0.00     0.073 C 
HETATM    7  C30 UNL     1       1.028   7.789  15.601  1.00  0.00     0.154 C 
HETATM    8  O7  UNL     1       1.802   7.448  16.492  1.00  0.00    -0.293 OA
HETATM    9  C31 UNL     1      -0.241   8.448  15.976  1.00  0.00     0.049 C 
HETATM   10  C32 UNL     1      -1.172   8.722  15.056  1.00  0.00     0.015 C 
HETATM   11  C33 UNL     1      -1.068   8.363  13.594  1.00  0.00     0.086 C 
HETATM   12  C34 UNL     1      -2.443   7.939  13.047  1.00  0.00     0.075 C 
ENDROOT
BRANCH   6  13
HETATM   13  C11 UNL     1       2.177   8.811  13.613  1.00  0.00     0.047 C 
BRANCH  13  14
HETATM   14  C12 UNL     1       3.643   8.524  13.184  1.00  0.00     0.149 C 
BRANCH  14  15
HETATM   15  O3  UNL     1       3.809   9.123  11.879  1.00  0.00    -0.311 OA
BRANCH  15  16
HETATM   16  C13 UNL     1       4.440   8.360  10.943  1.00  0.00     0.283 C 
HETATM   17  O4  UNL     1       5.138   8.779  10.038  1.00  0.00    -0.260 OA
BRANCH  16  18
HETATM   18  C14 UNL     1       4.085   6.949  11.201  1.00  0.00     0.083 C 
HETATM   19  C15 UNL     1       3.355   6.161  10.393  1.00  0.00     0.017 C 
BRANCH  19  20
HETATM   20  C16 UNL     1       2.795   6.502   9.080  1.00  0.00    -0.036 A 
HETATM   21  C17 UNL     1       2.124   7.713   8.860  1.00  0.00     0.011 A 
HETATM   22  C18 UNL     1       1.617   8.025   7.593  1.00  0.00     0.001 A 
HETATM   23  C19 UNL     1       1.785   7.129   6.538  1.00  0.00     0.000 A 
HETATM   24  C20 UNL     1       2.470   5.931   6.741  1.00  0.00     0.001 A 
HETATM   25  C21 UNL     1       2.977   5.619   8.008  1.00  0.00     0.011 A 
ENDBRANCH  19  20
ENDBRANCH  16  18
ENDBRANCH  15  16
ENDBRANCH  14  15
BRANCH  14  26
HETATM   26  C22 UNL     1       4.717   9.079  14.194  1.00  0.00     0.054 C 
HETATM   27  C23 UNL     1       4.111  10.019  15.246  1.00  0.00     0.027 C 
HETATM   28  C24 UNL     1       5.372   7.873  14.860  1.00  0.00     0.138 C 
HETATM   29  O5  UNL     1       4.889   7.251  15.796  1.00  0.00    -0.297 OA
HETATM   30  C25 UNL     1       6.706   7.510  14.261  1.00  0.00     0.080 C 
HETATM   31  C26 UNL     1       6.867   8.510  13.129  1.00  0.00     0.021 C 
HETATM   32  C27 UNL     1       5.962   9.694  13.480  1.00  0.00     0.073 C 
BRANCH  32  33
HETATM   33  C28 UNL     1       6.673  10.823  14.239  1.00  0.00     0.128 C 
HETATM   34  C29 UNL     1       6.460  12.255  13.821  1.00  0.00     0.091 C 
HETATM   35  O6  UNL     1       7.460  10.553  15.152  1.00  0.00    -0.298 OA
ENDBRANCH  32  33
ENDBRANCH  14  26
ENDBRANCH  13  14
ENDBRANCH   6  13
BRANCH  11  36
HETATM   36  O8  UNL     1      -0.714   9.579  12.934  1.00  0.00    -0.385 OA
HETATM   37  H40 UNL     1      -1.432  10.223  13.048  1.00  0.00     0.211 HD
ENDBRANCH  11  36
BRANCH   1  38
HETATM   38  O2  UNL     1      -4.111   6.222  12.844  1.00  0.00    -0.356 OA
BRANCH  38  39
HETATM   39  C4  UNL     1      -4.795   5.098  13.402  1.00  0.00     0.263 C 
HETATM   40  C3  UNL     1      -6.093   5.622  14.019  1.00  0.00     0.095 C 
HETATM   41  C2  UNL     1      -7.214   5.536  12.987  1.00  0.00     0.156 C 
HETATM   42  C37 UNL     1      -7.431   4.052  12.613  1.00  0.00     0.175 C 
HETATM   43  C35 UNL     1      -6.099   3.275  12.588  1.00  0.00     0.151 C 
HETATM   44  O9  UNL     1      -5.001   4.158  12.345  1.00  0.00    -0.354 OA
HETATM   45  C36 UNL     1      -6.102   2.206  11.501  1.00  0.00     0.042 C 
BRANCH  41  46
HETATM   46  O1  UNL     1      -8.466   6.036  13.491  1.00  0.00    -0.388 OA
HETATM   47  C1  UNL     1      -8.343   6.665  14.765  1.00  0.00     0.202 C 
ENDBRANCH  41  46
BRANCH  42  48
HETATM   48  O10 UNL     1      -8.298   3.431  13.574  1.00  0.00    -0.390 OA
HETATM   49  H48 UNL     1      -8.909   4.147  13.862  1.00  0.00     0.210 HD
ENDBRANCH  42  48
ENDBRANCH  38  39
ENDBRANCH   1  38
TORSDOF 13
ENDMDL
MODEL 7
REMARK minimizedAffinity -8.32453632
REMARK CNNscore 0.345166594
REMARK CNNaffinity 6.9484992
REMARK  13 active torsions:
REMARK  status: ('A' for Active; 'I' for Inactive)
REMARK    1  A    between atoms: O1_2  and  C2_3 
REMARK    2  A    between atoms: C4_5  and  O2_6 
REMARK    3  A    between atoms: O2_6  and  C5_7 
REMARK    4  A    between atoms: C10_12  and  C11_13 
REMARK    5  A    between atoms: C11_13  and  C12_14 
REMARK    6  A    between atoms: C12_14  and  O3_15 
REMARK    7  A    between atoms: C12_14  and  C22_26 
REMARK    8  A    between atoms: O3_15  and  C13_16 
REMARK    9  A    between atoms: C13_16  and  C14_18 
REMARK   10  A    between atoms: C15_19  and  C16_20 
REMARK   11  A    between atoms: C27_32  and  C28_33 
REMARK   12  A    between atoms: C33_40  and  O8_41 
REMARK   13  A    between atoms: C37_46  and  O10_47 
ROOT
HETATM    1  C5  UNL     1      -3.651   7.031  13.995  1.00  0.00     0.128 C 
HETATM    2  C6  UNL     1      -3.574   8.546  13.833  1.00  0.00     0.033 C 
HETATM    3  C7  UNL     1      -2.362   8.972  13.005  1.00  0.00     0.016 C 
HETATM    4  C8  UNL     1      -0.994   8.422  13.538  1.00  0.00     0.002 C 
HETATM    5  C9  UNL     1      -0.687   9.163  14.867  1.00  0.00     0.019 C 
HETATM    6  C10 UNL     1       0.125   8.763  12.471  1.00  0.00     0.073 C 
HETATM    7  C30 UNL     1      -0.105   7.959  11.201  1.00  0.00     0.154 C 
HETATM    8  O7  UNL     1       0.162   8.405  10.088  1.00  0.00    -0.293 OA
HETATM    9  C31 UNL     1      -0.621   6.577  11.308  1.00  0.00     0.049 C 
HETATM   10  C32 UNL     1      -1.045   6.090  12.479  1.00  0.00     0.015 C 
HETATM   11  C33 UNL     1      -1.095   6.873  13.768  1.00  0.00     0.086 C 
HETATM   12  C34 UNL     1      -2.346   6.490  14.579  1.00  0.00     0.075 C 
ENDROOT
BRANCH   6  13
HETATM   13  C11 UNL     1       1.586   8.570  12.958  1.00  0.00     0.047 C 
BRANCH  13  14
HETATM   14  C12 UNL     1       2.700   9.196  12.071  1.00  0.00     0.149 C 
BRANCH  14  15
HETATM   15  O3  UNL     1       3.171  10.365  12.777  1.00  0.00    -0.311 OA
BRANCH  15  16
HETATM   16  C13 UNL     1       4.234  10.177  13.610  1.00  0.00     0.283 C 
HETATM   17  O4  UNL     1       4.254   9.447  14.583  1.00  0.00    -0.260 OA
BRANCH  16  18
HETATM   18  C14 UNL     1       5.330  11.052  13.141  1.00  0.00     0.083 C 
HETATM   19  C15 UNL     1       6.604  11.013  13.567  1.00  0.00     0.017 C 
BRANCH  19  20
HETATM   20  C16 UNL     1       7.193  10.084  14.539  1.00  0.00    -0.036 A 
HETATM   21  C17 UNL     1       7.802   8.888  14.135  1.00  0.00     0.011 A 
HETATM   22  C18 UNL     1       8.374   8.027  15.079  1.00  0.00     0.001 A 
HETATM   23  C19 UNL     1       8.347   8.363  16.432  1.00  0.00     0.000 A 
HETATM   24  C20 UNL     1       7.762   9.562  16.842  1.00  0.00     0.001 A 
HETATM   25  C21 UNL     1       7.190  10.422  15.898  1.00  0.00     0.011 A 
ENDBRANCH  19  20
ENDBRANCH  16  18
ENDBRANCH  15  16
ENDBRANCH  14  15
BRANCH  14  26
HETATM   26  C22 UNL     1       3.891   8.210  11.765  1.00  0.00     0.054 C 
HETATM   27  C23 UNL     1       4.614   7.741  13.037  1.00  0.00     0.027 C 
HETATM   28  C24 UNL     1       3.308   7.023  11.006  1.00  0.00     0.138 C 
HETATM   29  O5  UNL     1       2.731   6.080  11.531  1.00  0.00    -0.297 OA
HETATM   30  C25 UNL     1       3.518   7.104   9.516  1.00  0.00     0.080 C 
HETATM   31  C26 UNL     1       4.224   8.436   9.333  1.00  0.00     0.021 C 
HETATM   32  C27 UNL     1       4.871   8.761  10.682  1.00  0.00     0.073 C 
BRANCH  32  33
HETATM   33  C28 UNL     1       6.329   8.294  10.806  1.00  0.00     0.128 C 
HETATM   34  C29 UNL     1       6.629   6.834  11.028  1.00  0.00     0.091 C 
HETATM   35  O6  UNL     1       7.246   9.120  10.779  1.00  0.00    -0.298 OA
ENDBRANCH  32  33
ENDBRANCH  14  26
ENDBRANCH  13  14
ENDBRANCH   6  13
BRANCH  11  36
HETATM   36  O8  UNL     1       0.038   6.432  14.518  1.00  0.00    -0.385 OA
HETATM   37  H40 UNL     1      -0.064   5.487  14.720  1.00  0.00     0.211 HD
ENDBRANCH  11  36
BRANCH   1  38
HETATM   38  O2  UNL     1      -4.713   6.742  14.908  1.00  0.00    -0.356 OA
BRANCH  38  39
HETATM   39  C4  UNL     1      -5.977   7.278  14.514  1.00  0.00     0.263 C 
HETATM   40  C3  UNL     1      -6.566   6.325  13.473  1.00  0.00     0.095 C 
HETATM   41  C2  UNL     1      -7.450   5.295  14.173  1.00  0.00     0.156 C 
HETATM   42  C37 UNL     1      -8.622   6.032  14.860  1.00  0.00     0.175 C 
HETATM   43  C35 UNL     1      -8.177   7.396  15.426  1.00  0.00     0.151 C 
HETATM   44  O9  UNL     1      -6.774   7.402  15.695  1.00  0.00    -0.354 OA
HETATM   45  C36 UNL     1      -8.914   7.725  16.720  1.00  0.00     0.042 C 
BRANCH  41  46
HETATM   46  O1  UNL     1      -8.022   4.346  13.255  1.00  0.00    -0.388 OA
HETATM   47  C1  UNL     1      -7.402   3.063  13.322  1.00  0.00     0.202 C 
ENDBRANCH  41  46
BRANCH  42  48
HETATM   48  O10 UNL     1      -9.676   6.258  13.911  1.00  0.00    -0.390 OA
HETATM   49  H48 UNL     1      -9.633   5.488  13.299  1.00  0.00     0.210 HD
ENDBRANCH  42  48
ENDBRANCH  38  39
ENDBRANCH   1  38
TORSDOF 13
ENDMDL
MODEL 8
REMARK minimizedAffinity -8.99301243
REMARK CNNscore 0.336161107
REMARK CNNaffinity 6.87185049
REMARK  13 active torsions:
REMARK  status: ('A' for Active; 'I' for Inactive)
REMARK    1  A    between atoms: O1_2  and  C2_3 
REMARK    2  A    between atoms: C4_5  and  O2_6 
REMARK    3  A    between atoms: O2_6  and  C5_7 
REMARK    4  A    between atoms: C10_12  and  C11_13 
REMARK    5  A    between atoms: C11_13  and  C12_14 
REMARK    6  A    between atoms: C12_14  and  O3_15 
REMARK    7  A    between atoms: C12_14  and  C22_26 
REMARK    8  A    between atoms: O3_15  and  C13_16 
REMARK    9  A    between atoms: C13_16  and  C14_18 
REMARK   10  A    between atoms: C15_19  and  C16_20 
REMARK   11  A    between atoms: C27_32  and  C28_33 
REMARK   12  A    between atoms: C33_40  and  O8_41 
REMARK   13  A    between atoms: C37_46  and  O10_47 
ROOT
HETATM    1  C5  UNL     1      -3.049   6.662  13.546  1.00  0.00     0.128 C 
HETATM    2  C6  UNL     1      -2.052   5.570  13.167  1.00  0.00     0.033 C 
HETATM    3  C7  UNL     1      -0.621   5.946  13.549  1.00  0.00     0.016 C 
HETATM    4  C8  UNL     1      -0.144   7.325  12.978  1.00  0.00     0.002 C 
HETATM    5  C9  UNL     1       0.022   7.155  11.444  1.00  0.00     0.019 C 
HETATM    6  C10 UNL     1       1.259   7.671  13.627  1.00  0.00     0.073 C 
HETATM    7  C30 UNL     1       1.091   7.946  15.113  1.00  0.00     0.154 C 
HETATM    8  O7  UNL     1       1.953   7.645  15.935  1.00  0.00    -0.293 OA
HETATM    9  C31 UNL     1      -0.127   8.642  15.582  1.00  0.00     0.049 C 
HETATM   10  C32 UNL     1      -1.148   8.877  14.752  1.00  0.00     0.015 C 
HETATM   11  C33 UNL     1      -1.203   8.435  13.310  1.00  0.00     0.086 C 
HETATM   12  C34 UNL     1      -2.631   8.000  12.937  1.00  0.00     0.075 C 
ENDROOT
BRANCH   6  13
HETATM   13  C11 UNL     1       2.028   8.841  12.959  1.00  0.00     0.047 C 
BRANCH  13  14
HETATM   14  C12 UNL     1       3.579   8.731  12.942  1.00  0.00     0.149 C 
BRANCH  14  15
HETATM   15  O3  UNL     1       3.996   9.079  11.603  1.00  0.00    -0.311 OA
BRANCH  15  16
HETATM   16  C13 UNL     1       4.708   8.132  10.930  1.00  0.00     0.283 C 
HETATM   17  O4  UNL     1       5.636   8.345  10.172  1.00  0.00    -0.260 OA
BRANCH  16  18
HETATM   18  C14 UNL     1       4.119   6.814  11.253  1.00  0.00     0.083 C 
HETATM   19  C15 UNL     1       3.289   6.109  10.466  1.00  0.00     0.017 C 
BRANCH  19  20
HETATM   20  C16 UNL     1       2.824   6.459   9.118  1.00  0.00    -0.036 A 
HETATM   21  C17 UNL     1       2.293   7.724   8.830  1.00  0.00     0.011 A 
HETATM   22  C18 UNL     1       1.875   8.039   7.531  1.00  0.00     0.001 A 
HETATM   23  C19 UNL     1       1.994   7.093   6.514  1.00  0.00     0.000 A 
HETATM   24  C20 UNL     1       2.540   5.839   6.786  1.00  0.00     0.001 A 
HETATM   25  C21 UNL     1       2.958   5.523   8.085  1.00  0.00     0.011 A 
ENDBRANCH  19  20
ENDBRANCH  16  18
ENDBRANCH  15  16
ENDBRANCH  14  15
BRANCH  14  26
HETATM   26  C22 UNL     1       4.289   9.653  14.005  1.00  0.00     0.054 C 
HETATM   27  C23 UNL     1       4.965   8.852  15.128  1.00  0.00     0.027 C 
HETATM   28  C24 UNL     1       5.313  10.498  13.253  1.00  0.00     0.138 C 
HETATM   29  O5  UNL     1       6.425  10.110  12.924  1.00  0.00    -0.297 OA
HETATM   30  C25 UNL     1       4.831  11.895  12.954  1.00  0.00     0.080 C 
HETATM   31  C26 UNL     1       3.415  11.903  13.502  1.00  0.00     0.021 C 
HETATM   32  C27 UNL     1       3.359  10.784  14.546  1.00  0.00     0.073 C 
BRANCH  32  33
HETATM   33  C28 UNL     1       3.646  11.251  15.981  1.00  0.00     0.128 C 
HETATM   34  C29 UNL     1       2.649  10.964  17.074  1.00  0.00     0.091 C 
HETATM   35  O6  UNL     1       4.663  11.908  16.224  1.00  0.00    -0.298 OA
ENDBRANCH  32  33
ENDBRANCH  14  26
ENDBRANCH  13  14
ENDBRANCH   6  13
BRANCH  11  36
HETATM   36  O8  UNL     1      -0.912   9.608  12.548  1.00  0.00    -0.385 OA
HETATM   37  H40 UNL     1      -1.610  10.266  12.700  1.00  0.00     0.211 HD
ENDBRANCH  11  36
BRANCH   1  38
HETATM   38  O2  UNL     1      -4.323   6.296  13.009  1.00  0.00    -0.356 OA
BRANCH  38  39
HETATM   39  C4  UNL     1      -5.050   5.373  13.823  1.00  0.00     0.263 C 
HETATM   40  C3  UNL     1      -5.508   6.135  15.068  1.00  0.00     0.095 C 
HETATM   41  C2  UNL     1      -6.902   6.707  14.827  1.00  0.00     0.156 C 
HETATM   42  C37 UNL     1      -7.886   5.538  14.596  1.00  0.00     0.175 C 
HETATM   43  C35 UNL     1      -7.220   4.384  13.819  1.00  0.00     0.151 C 
HETATM   44  O9  UNL     1      -6.128   4.866  13.032  1.00  0.00    -0.354 OA
HETATM   45  C36 UNL     1      -8.214   3.699  12.888  1.00  0.00     0.042 C 
BRANCH  41  46
HETATM   46  O1  UNL     1      -7.391   7.460  15.952  1.00  0.00    -0.388 OA
HETATM   47  C1  UNL     1      -8.390   8.413  15.593  1.00  0.00     0.202 C 
ENDBRANCH  41  46
BRANCH  42  48
HETATM   48  O10 UNL     1      -8.339   5.028  15.860  1.00  0.00    -0.390 OA
HETATM   49  H48 UNL     1      -8.354   5.811  16.457  1.00  0.00     0.210 HD
ENDBRANCH  42  48
ENDBRANCH  38  39
ENDBRANCH   1  38
TORSDOF 13
ENDMDL
MODEL 9
REMARK minimizedAffinity -9.02767849
REMARK CNNscore 0.317579925
REMARK CNNaffinity 6.55087852
REMARK  13 active torsions:
REMARK  status: ('A' for Active; 'I' for Inactive)
REMARK    1  A    between atoms: O1_2  and  C2_3 
REMARK    2  A    between atoms: C4_5  and  O2_6 
REMARK    3  A    between atoms: O2_6  and  C5_7 
REMARK    4  A    between atoms: C10_12  and  C11_13 
REMARK    5  A    between atoms: C11_13  and  C12_14 
REMARK    6  A    between atoms: C12_14  and  O3_15 
REMARK    7  A    between atoms: C12_14  and  C22_26 
REMARK    8  A    between atoms: O3_15  and  C13_16 
REMARK    9  A    between atoms: C13_16  and  C14_18 
REMARK   10  A    between atoms: C15_19  and  C16_20 
REMARK   11  A    between atoms: C27_32  and  C28_33 
REMARK   12  A    between atoms: C33_40  and  O8_41 
REMARK   13  A    between atoms: C37_46  and  O10_47 
ROOT
HETATM    1  C5  UNL     1      -3.844   6.948  13.716  1.00  0.00     0.128 C 
HETATM    2  C6  UNL     1      -2.824   6.240  14.603  1.00  0.00     0.033 C 
HETATM    3  C7  UNL     1      -2.184   7.193  15.611  1.00  0.00     0.016 C 
HETATM    4  C8  UNL     1      -1.539   8.470  14.970  1.00  0.00     0.002 C 
HETATM    5  C9  UNL     1      -0.274   8.007  14.197  1.00  0.00     0.019 C 
HETATM    6  C10 UNL     1      -1.114   9.451  16.139  1.00  0.00     0.073 C 
HETATM    7  C30 UNL     1      -2.351   9.996  16.835  1.00  0.00     0.154 C 
HETATM    8  O7  UNL     1      -2.370  10.239  18.039  1.00  0.00    -0.293 OA
HETATM    9  C31 UNL     1      -3.558  10.289  16.032  1.00  0.00     0.049 C 
HETATM   10  C32 UNL     1      -3.635   9.926  14.747  1.00  0.00     0.015 C 
HETATM   11  C33 UNL     1      -2.567   9.160  14.006  1.00  0.00     0.086 C 
HETATM   12  C34 UNL     1      -3.207   8.156  13.030  1.00  0.00     0.075 C 
ENDROOT
BRANCH   6  13
HETATM   13  C11 UNL     1      -0.188  10.622  15.719  1.00  0.00     0.047 C 
BRANCH  13  14
HETATM   14  C12 UNL     1       0.202  11.632  16.834  1.00  0.00     0.149 C 
BRANCH  14  15
HETATM   15  O3  UNL     1       1.569  11.334  17.192  1.00  0.00    -0.311 OA
BRANCH  15  16
HETATM   16  C13 UNL     1       1.745  10.517  18.269  1.00  0.00     0.283 C 
HETATM   17  O4  UNL     1       2.579   9.636  18.364  1.00  0.00    -0.260 OA
BRANCH  16  18
HETATM   18  C14 UNL     1       0.714  10.867  19.270  1.00  0.00     0.083 C 
HETATM   19  C15 UNL     1       0.893  10.912  20.601  1.00  0.00     0.017 C 
BRANCH  19  20
HETATM   20  C16 UNL     1       2.136  10.675  21.343  1.00  0.00    -0.036 A 
HETATM   21  C17 UNL     1       3.053  11.706  21.589  1.00  0.00     0.011 A 
HETATM   22  C18 UNL     1       4.223  11.458  22.317  1.00  0.00     0.001 A 
HETATM   23  C19 UNL     1       4.477  10.179  22.809  1.00  0.00     0.000 A 
HETATM   24  C20 UNL     1       3.561   9.150  22.588  1.00  0.00     0.001 A 
HETATM   25  C21 UNL     1       2.391   9.398  21.860  1.00  0.00     0.011 A 
ENDBRANCH  19  20
ENDBRANCH  16  18
ENDBRANCH  15  16
ENDBRANCH  14  15
BRANCH  14  26
HETATM   26  C22 UNL     1       0.055  13.140  16.401  1.00  0.00     0.054 C 
HETATM   27  C23 UNL     1      -1.276  13.760  16.854  1.00  0.00     0.027 C 
HETATM   28  C24 UNL     1       1.236  13.897  17.001  1.00  0.00     0.138 C 
HETATM   29  O5  UNL     1       1.292  14.289  18.159  1.00  0.00    -0.297 OA
HETATM   30  C25 UNL     1       2.352  14.139  16.019  1.00  0.00     0.080 C 
HETATM   31  C26 UNL     1       1.863  13.453  14.755  1.00  0.00     0.021 C 
HETATM   32  C27 UNL     1       0.340  13.366  14.883  1.00  0.00     0.073 C 
BRANCH  32  33
HETATM   33  C28 UNL     1      -0.410  14.538  14.233  1.00  0.00     0.128 C 
HETATM   34  C29 UNL     1      -0.092  15.952  14.648  1.00  0.00     0.091 C 
HETATM   35  O6  UNL     1      -1.310  14.318  13.417  1.00  0.00    -0.298 OA
ENDBRANCH  32  33
ENDBRANCH  14  26
ENDBRANCH  13  14
ENDBRANCH   6  13
BRANCH  11  36
HETATM   36  O8  UNL     1      -1.888  10.136  13.213  1.00  0.00    -0.385 OA
HETATM   37  H40 UNL     1      -2.511  10.510  12.568  1.00  0.00     0.211 HD
ENDBRANCH  11  36
BRANCH   1  38
HETATM   38  O2  UNL     1      -4.265   6.024  12.710  1.00  0.00    -0.356 OA
BRANCH  38  39
HETATM   39  C4  UNL     1      -4.883   4.844  13.229  1.00  0.00     0.263 C 
HETATM   40  C3  UNL     1      -6.210   5.271  13.858  1.00  0.00     0.095 C 
HETATM   41  C2  UNL     1      -7.323   5.151  12.821  1.00  0.00     0.156 C 
HETATM   42  C37 UNL     1      -7.451   3.670  12.399  1.00  0.00     0.175 C 
HETATM   43  C35 UNL     1      -6.075   2.974  12.353  1.00  0.00     0.151 C 
HETATM   44  O9  UNL     1      -5.031   3.928  12.142  1.00  0.00    -0.354 OA
HETATM   45  C36 UNL     1      -6.014   1.942  11.233  1.00  0.00     0.042 C 
BRANCH  41  46
HETATM   46  O1  UNL     1      -8.603   5.560  13.337  1.00  0.00    -0.388 OA
HETATM   47  C1  UNL     1      -8.532   6.742  14.130  1.00  0.00     0.202 C 
ENDBRANCH  41  46
BRANCH  42  48
HETATM   48  O10 UNL     1      -8.281   2.968  13.337  1.00  0.00    -0.390 OA
HETATM   49  H48 UNL     1      -8.934   3.637  13.646  1.00  0.00     0.210 HD
ENDBRANCH  42  48
ENDBRANCH  38  39
ENDBRANCH   1  38
TORSDOF 13
ENDMDL
