MODEL 1
REMARK minimizedAffinity -7.32915211
REMARK CNNscore 0.721634626
REMARK CNNaffinity 6.43041468
REMARK  9 active torsions:
REMARK  status: ('A' for Active; 'I' for Inactive)
REMARK    1  A    between atoms: C2_2  and  C30_35 
REMARK    2  A    between atoms: C3_3  and  C4_4 
REMARK    3  A    between atoms: C4_4  and  O1_5 
REMARK    4  A    between atoms: C4_4  and  C5_6 
REMARK    5  A    between atoms: C5_6  and  C6_7 
REMARK    6  A    between atoms: C6_7  and  C8_9 
REMARK    7  A    between atoms: C10_11  and  O2_12 
REMARK    8  A    between atoms: C29_33  and  O5_34 
REMARK    9  A    between atoms: C30_35  and  O7_37 
ROOT
HETATM    1  C8  UNL     1       0.583  12.688  19.563  1.00  0.00     0.001 C 
HETATM    2  C9  UNL     1      -0.700  13.544  19.346  1.00  0.00     0.038 C 
HETATM    3  C10 UNL     1      -1.359  13.024  18.055  1.00  0.00     0.132 C 
HETATM    4  C11 UNL     1      -0.789  11.592  17.889  1.00  0.00     0.017 C 
HETATM    5  C12 UNL     1      -1.535  10.636  18.882  1.00  0.00     0.023 C 
HETATM    6  C13 UNL     1      -0.871  10.905  16.527  1.00  0.00    -0.029 C 
HETATM    7  C14 UNL     1      -0.015   9.895  16.210  1.00  0.00     0.002 C 
HETATM    8  C15 UNL     1       1.135   9.597  17.169  1.00  0.00     0.157 C 
HETATM    9  O3  UNL     1       1.882   8.636  16.987  1.00  0.00    -0.293 OA
HETATM   10  C16 UNL     1       1.404  10.500  18.372  1.00  0.00     0.094 C 
HETATM   11  C17 UNL     1       0.717  11.860  18.243  1.00  0.00    -0.019 C 
HETATM   12  C18 UNL     1       1.471  12.676  17.154  1.00  0.00     0.017 C 
HETATM   13  C19 UNL     1      -0.122   9.083  14.886  1.00  0.00    -0.008 C 
HETATM   14  C20 UNL     1       1.015   9.617  13.987  1.00  0.00     0.021 C 
HETATM   15  C21 UNL     1       0.041   7.550  15.090  1.00  0.00     0.022 C 
HETATM   16  C22 UNL     1      -0.178   6.732  13.824  1.00  0.00     0.080 C 
HETATM   17  C23 UNL     1      -1.526   6.991  13.205  1.00  0.00     0.135 C 
HETATM   18  O4  UNL     1      -2.192   6.046  12.777  1.00  0.00    -0.297 OA
HETATM   19  C24 UNL     1      -1.958   8.452  13.012  1.00  0.00     0.018 C 
HETATM   20  C25 UNL     1      -1.358   8.965  11.696  1.00  0.00     0.023 C 
HETATM   21  C26 UNL     1      -3.500   8.457  12.842  1.00  0.00     0.023 C 
HETATM   22  C27 UNL     1      -1.576   9.275  14.290  1.00  0.00     0.016 C 
HETATM   23  C28 UNL     1      -1.906  10.773  14.189  1.00  0.00     0.043 C 
HETATM   24  C29 UNL     1      -1.943  11.402  15.582  1.00  0.00     0.149 C 
ENDROOT
BRANCH   1  25
HETATM   25  C6  UNL     1       1.772  13.481  20.187  1.00  0.00    -0.011 C 
HETATM   26  C7  UNL     1       2.567  14.376  19.228  1.00  0.00     0.010 C 
BRANCH  25  27
HETATM   27  C5  UNL     1       2.699  12.545  21.004  1.00  0.00     0.040 C 
BRANCH  27  28
HETATM   28  C4  UNL     1       4.034  12.209  20.320  1.00  0.00     0.142 C 
BRANCH  28  29
HETATM   29  C3  UNL     1       5.202  12.605  21.184  1.00  0.00     0.018 C 
HETATM   30  C2  UNL     1       5.650  12.037  22.324  1.00  0.00     0.010 C 
HETATM   31  C1  UNL     1       5.008  10.879  23.036  1.00  0.00     0.055 C 
BRANCH  30  32
HETATM   32  C30 UNL     1       6.860  12.566  23.007  1.00  0.00     0.171 C 
HETATM   33  O6  UNL     1       7.825  11.905  23.348  1.00  0.00    -0.646 OA
BRANCH  32  34
HETATM   34  O7  UNL     1       6.816  13.889  23.246  1.00  0.00    -0.773 OA
HETATM   35  H44 UNL     1       7.664  14.065  23.703  1.00  0.00     0.167 HD
ENDBRANCH  32  34
ENDBRANCH  30  32
ENDBRANCH  28  29
BRANCH  28  36
HETATM   36  O1  UNL     1       4.106  10.827  20.005  1.00  0.00    -0.392 OA
HETATM   37  H6  UNL     1       4.990  10.667  19.632  1.00  0.00     0.210 HD
ENDBRANCH  28  36
ENDBRANCH  27  28
ENDBRANCH  25  27
ENDBRANCH   1  25
BRANCH   3  38
HETATM   38  O2  UNL     1      -2.778  13.043  18.136  1.00  0.00    -0.394 OA
HETATM   39  H17 UNL     1      -3.041  13.932  18.441  1.00  0.00     0.210 HD
ENDBRANCH   3  38
BRANCH  24  40
HETATM   40  O5  UNL     1      -3.219  11.127  16.148  1.00  0.00    -0.391 OA
HETATM   41  H43 UNL     1      -3.330  11.747  16.900  1.00  0.00     0.210 HD
ENDBRANCH  24  40
TORSDOF 9
ENDMDL
MODEL 2
REMARK minimizedAffinity -8.02712727
REMARK CNNscore 0.57535094
REMARK CNNaffinity 6.36250448
REMARK  9 active torsions:
REMARK  status: ('A' for Active; 'I' for Inactive)
REMARK    1  A    between atoms: C2_2  and  C30_35 
REMARK    2  A    between atoms: C3_3  and  C4_4 
REMARK    3  A    between atoms: C4_4  and  O1_5 
REMARK    4  A    between atoms: C4_4  and  C5_6 
REMARK    5  A    between atoms: C5_6  and  C6_7 
REMARK    6  A    between atoms: C6_7  and  C8_9 
REMARK    7  A    between atoms: C10_11  and  O2_12 
REMARK    8  A    between atoms: C29_33  and  O5_34 
REMARK    9  A    between atoms: C30_35  and  O7_37 
ROOT
HETATM    1  C8  UNL     1       7.578   9.228  14.905  1.00  0.00     0.001 C 
HETATM    2  C9  UNL     1       6.698  10.100  15.848  1.00  0.00     0.038 C 
HETATM    3  C10 UNL     1       5.263  10.032  15.293  1.00  0.00     0.132 C 
HETATM    4  C11 UNL     1       5.249   8.739  14.438  1.00  0.00     0.017 C 
HETATM    5  C12 UNL     1       5.140   7.504  15.397  1.00  0.00     0.023 C 
HETATM    6  C13 UNL     1       4.148   8.541  13.397  1.00  0.00    -0.029 C 
HETATM    7  C14 UNL     1       4.336   7.697  12.346  1.00  0.00     0.002 C 
HETATM    8  C15 UNL     1       5.728   7.105  12.136  1.00  0.00     0.157 C 
HETATM    9  O3  UNL     1       5.937   6.263  11.263  1.00  0.00    -0.293 OA
HETATM   10  C16 UNL     1       6.908   7.561  12.993  1.00  0.00     0.094 C 
HETATM   11  C17 UNL     1       6.630   8.883  13.709  1.00  0.00    -0.019 C 
HETATM   12  C18 UNL     1       6.651  10.018  12.644  1.00  0.00     0.017 C 
HETATM   13  C19 UNL     1       3.215   7.367  11.317  1.00  0.00    -0.008 C 
HETATM   14  C20 UNL     1       3.573   8.175  10.050  1.00  0.00     0.021 C 
HETATM   15  C21 UNL     1       3.123   5.854  10.970  1.00  0.00     0.022 C 
HETATM   16  C22 UNL     1       1.957   5.499  10.057  1.00  0.00     0.080 C 
HETATM   17  C23 UNL     1       0.634   5.941  10.625  1.00  0.00     0.135 C 
HETATM   18  O4  UNL     1      -0.339   5.186  10.562  1.00  0.00    -0.297 OA
HETATM   19  C24 UNL     1       0.522   7.380  11.147  1.00  0.00     0.018 C 
HETATM   20  C25 UNL     1       0.215   8.304   9.960  1.00  0.00     0.023 C 
HETATM   21  C26 UNL     1      -0.706   7.433  12.094  1.00  0.00     0.023 C 
HETATM   22  C27 UNL     1       1.815   7.737  11.958  1.00  0.00     0.016 C 
HETATM   23  C28 UNL     1       1.846   9.183  12.480  1.00  0.00     0.043 C 
HETATM   24  C29 UNL     1       2.866   9.315  13.611  1.00  0.00     0.149 C 
ENDROOT
BRANCH   1  25
HETATM   25  C6  UNL     1       9.024   9.777  14.705  1.00  0.00    -0.011 C 
HETATM   26  C7  UNL     1      10.071   8.768  14.216  1.00  0.00     0.010 C 
BRANCH  25  27
HETATM   27  C5  UNL     1       9.507  10.545  15.962  1.00  0.00     0.040 C 
BRANCH  27  28
HETATM   28  C4  UNL     1      10.144   9.662  17.047  1.00  0.00     0.142 C 
BRANCH  28  29
HETATM   29  C3  UNL     1      10.246  10.398  18.357  1.00  0.00     0.018 C 
HETATM   30  C2  UNL     1      11.215  11.232  18.792  1.00  0.00     0.010 C 
HETATM   31  C1  UNL     1      12.484  11.560  18.056  1.00  0.00     0.055 C 
BRANCH  30  32
HETATM   32  C30 UNL     1      11.102  11.895  20.118  1.00  0.00     0.171 C 
HETATM   33  O6  UNL     1      11.880  12.720  20.564  1.00  0.00    -0.646 OA
BRANCH  32  34
HETATM   34  O7  UNL     1      10.036  11.501  20.836  1.00  0.00    -0.773 OA
HETATM   35  H44 UNL     1      10.120  12.012  21.666  1.00  0.00     0.167 HD
ENDBRANCH  32  34
ENDBRANCH  30  32
ENDBRANCH  28  29
BRANCH  28  36
HETATM   36  O1  UNL     1       9.407   8.461  17.218  1.00  0.00    -0.392 OA
HETATM   37  H6  UNL     1       9.821   7.976  17.953  1.00  0.00     0.210 HD
ENDBRANCH  28  36
ENDBRANCH  27  28
ENDBRANCH  25  27
ENDBRANCH   1  25
BRANCH   3  38
HETATM   38  O2  UNL     1       4.291  10.015  16.330  1.00  0.00    -0.394 OA
HETATM   39  H17 UNL     1       4.497  10.752  16.935  1.00  0.00     0.210 HD
ENDBRANCH   3  38
BRANCH  24  40
HETATM   40  O5  UNL     1       2.248   8.862  14.809  1.00  0.00    -0.391 OA
HETATM   41  H43 UNL     1       2.796   9.197  15.550  1.00  0.00     0.210 HD
ENDBRANCH  24  40
TORSDOF 9
ENDMDL
MODEL 3
REMARK minimizedAffinity -9.79369545
REMARK CNNscore 0.557063818
REMARK CNNaffinity 6.94532156
REMARK  9 active torsions:
REMARK  status: ('A' for Active; 'I' for Inactive)
REMARK    1  A    between atoms: C2_2  and  C30_35 
REMARK    2  A    between atoms: C3_3  and  C4_4 
REMARK    3  A    between atoms: C4_4  and  O1_5 
REMARK    4  A    between atoms: C4_4  and  C5_6 
REMARK    5  A    between atoms: C5_6  and  C6_7 
REMARK    6  A    between atoms: C6_7  and  C8_9 
REMARK    7  A    between atoms: C10_11  and  O2_12 
REMARK    8  A    between atoms: C29_33  and  O5_34 
REMARK    9  A    between atoms: C30_35  and  O7_37 
ROOT
HETATM    1  C8  UNL     1      -6.224   7.285  14.471  1.00  0.00     0.001 C 
HETATM    2  C9  UNL     1      -6.104   8.704  15.103  1.00  0.00     0.038 C 
HETATM    3  C10 UNL     1      -4.605   9.059  15.098  1.00  0.00     0.132 C 
HETATM    4  C11 UNL     1      -4.003   8.142  14.004  1.00  0.00     0.017 C 
HETATM    5  C12 UNL     1      -4.346   8.744  12.598  1.00  0.00     0.023 C 
HETATM    6  C13 UNL     1      -2.495   7.893  13.980  1.00  0.00    -0.029 C 
HETATM    7  C14 UNL     1      -1.987   6.786  13.372  1.00  0.00     0.002 C 
HETATM    8  C15 UNL     1      -2.964   5.719  12.884  1.00  0.00     0.157 C 
HETATM    9  O3  UNL     1      -2.573   4.744  12.243  1.00  0.00    -0.293 OA
HETATM   10  C16 UNL     1      -4.456   5.822  13.200  1.00  0.00     0.094 C 
HETATM   11  C17 UNL     1      -4.742   6.799  14.340  1.00  0.00    -0.019 C 
HETATM   12  C18 UNL     1      -4.259   6.143  15.666  1.00  0.00     0.017 C 
HETATM   13  C19 UNL     1      -0.458   6.536  13.217  1.00  0.00    -0.008 C 
HETATM   14  C20 UNL     1      -0.111   5.465  14.275  1.00  0.00     0.021 C 
HETATM   15  C21 UNL     1      -0.058   6.029  11.802  1.00  0.00     0.022 C 
HETATM   16  C22 UNL     1       1.444   5.891  11.597  1.00  0.00     0.080 C 
HETATM   17  C23 UNL     1       2.176   7.179  11.869  1.00  0.00     0.135 C 
HETATM   18  O4  UNL     1       3.077   7.540  11.109  1.00  0.00    -0.297 OA
HETATM   19  C24 UNL     1       1.852   7.928  13.169  1.00  0.00     0.018 C 
HETATM   20  C25 UNL     1       2.692   7.321  14.301  1.00  0.00     0.023 C 
HETATM   21  C26 UNL     1       2.326   9.394  12.987  1.00  0.00     0.023 C 
HETATM   22  C27 UNL     1       0.302   7.912  13.401  1.00  0.00     0.016 C 
HETATM   23  C28 UNL     1      -0.141   8.582  14.712  1.00  0.00     0.043 C 
HETATM   24  C29 UNL     1      -1.626   8.935  14.650  1.00  0.00     0.149 C 
ENDROOT
BRANCH   1  25
HETATM   25  C6  UNL     1      -7.349   6.407  15.099  1.00  0.00    -0.011 C 
HETATM   26  C7  UNL     1      -7.501   6.489  16.623  1.00  0.00     0.010 C 
BRANCH  25  27
HETATM   27  C5  UNL     1      -7.251   4.940  14.608  1.00  0.00     0.040 C 
BRANCH  27  28
HETATM   28  C4  UNL     1      -7.842   4.692  13.211  1.00  0.00     0.142 C 
BRANCH  28  29
HETATM   29  C3  UNL     1      -6.790   4.192  12.257  1.00  0.00     0.018 C 
HETATM   30  C2  UNL     1      -6.443   2.921  11.961  1.00  0.00     0.010 C 
HETATM   31  C1  UNL     1      -7.012   1.686  12.601  1.00  0.00     0.055 C 
BRANCH  30  32
HETATM   32  C30 UNL     1      -5.391   2.641  10.948  1.00  0.00     0.171 C 
HETATM   33  O6  UNL     1      -5.132   3.343   9.985  1.00  0.00    -0.646 OA
BRANCH  32  34
HETATM   34  O7  UNL     1      -4.711   1.502  11.167  1.00  0.00    -0.773 OA
HETATM   35  H44 UNL     1      -4.083   1.465  10.417  1.00  0.00     0.167 HD
ENDBRANCH  32  34
ENDBRANCH  30  32
ENDBRANCH  28  29
BRANCH  28  36
HETATM   36  O1  UNL     1      -8.921   3.771  13.274  1.00  0.00    -0.392 OA
HETATM   37  H6  UNL     1      -9.211   3.611  12.360  1.00  0.00     0.210 HD
ENDBRANCH  28  36
ENDBRANCH  27  28
ENDBRANCH  25  27
ENDBRANCH   1  25
BRANCH   3  38
HETATM   38  O2  UNL     1      -4.386  10.439  14.838  1.00  0.00    -0.394 OA
HETATM   39  H17 UNL     1      -4.959  10.945  15.445  1.00  0.00     0.210 HD
ENDBRANCH   3  38
BRANCH  24  40
HETATM   40  O5  UNL     1      -1.752  10.163  13.943  1.00  0.00    -0.391 OA
HETATM   41  H43 UNL     1      -2.648  10.509  14.142  1.00  0.00     0.210 HD
ENDBRANCH  24  40
TORSDOF 9
ENDMDL
MODEL 4
REMARK minimizedAffinity -8.00631142
REMARK CNNscore 0.527894378
REMARK CNNaffinity 6.39275312
REMARK  9 active torsions:
REMARK  status: ('A' for Active; 'I' for Inactive)
REMARK    1  A    between atoms: C2_2  and  C30_35 
REMARK    2  A    between atoms: C3_3  and  C4_4 
REMARK    3  A    between atoms: C4_4  and  O1_5 
REMARK    4  A    between atoms: C4_4  and  C5_6 
REMARK    5  A    between atoms: C5_6  and  C6_7 
REMARK    6  A    between atoms: C6_7  and  C8_9 
REMARK    7  A    between atoms: C10_11  and  O2_12 
REMARK    8  A    between atoms: C29_33  and  O5_34 
REMARK    9  A    between atoms: C30_35  and  O7_37 
ROOT
HETATM    1  C8  UNL     1       2.135   8.361  11.115  1.00  0.00     0.001 C 
HETATM    2  C9  UNL     1       1.341   8.259  12.452  1.00  0.00     0.038 C 
HETATM    3  C10 UNL     1       2.385   8.291  13.584  1.00  0.00     0.132 C 
HETATM    4  C11 UNL     1       3.627   8.953  12.934  1.00  0.00     0.017 C 
HETATM    5  C12 UNL     1       3.387  10.500  12.852  1.00  0.00     0.023 C 
HETATM    6  C13 UNL     1       4.995   8.790  13.595  1.00  0.00    -0.029 C 
HETATM    7  C14 UNL     1       6.135   8.937  12.866  1.00  0.00     0.002 C 
HETATM    8  C15 UNL     1       6.010   9.082  11.352  1.00  0.00     0.157 C 
HETATM    9  O3  UNL     1       6.995   9.314  10.651  1.00  0.00    -0.293 OA
HETATM   10  C16 UNL     1       4.657   8.920  10.660  1.00  0.00     0.094 C 
HETATM   11  C17 UNL     1       3.631   8.216  11.549  1.00  0.00    -0.019 C 
HETATM   12  C18 UNL     1       4.033   6.716  11.649  1.00  0.00     0.017 C 
HETATM   13  C19 UNL     1       7.555   8.895  13.504  1.00  0.00    -0.008 C 
HETATM   14  C20 UNL     1       8.127   7.508  13.135  1.00  0.00     0.021 C 
HETATM   15  C21 UNL     1       8.500  10.012  12.978  1.00  0.00     0.022 C 
HETATM   16  C22 UNL     1       9.852  10.058  13.677  1.00  0.00     0.080 C 
HETATM   17  C23 UNL     1       9.716  10.208  15.170  1.00  0.00     0.135 C 
HETATM   18  O4  UNL     1      10.458  10.987  15.773  1.00  0.00    -0.297 OA
HETATM   19  C24 UNL     1       8.738   9.278  15.899  1.00  0.00     0.018 C 
HETATM   20  C25 UNL     1       9.456   7.953  16.191  1.00  0.00     0.023 C 
HETATM   21  C26 UNL     1       8.414   9.931  17.268  1.00  0.00     0.023 C 
HETATM   22  C27 UNL     1       7.420   9.156  15.060  1.00  0.00     0.016 C 
HETATM   23  C28 UNL     1       6.382   8.195  15.662  1.00  0.00     0.043 C 
HETATM   24  C29 UNL     1       4.999   8.473  15.074  1.00  0.00     0.149 C 
ENDROOT
BRANCH   1  25
HETATM   25  C6  UNL     1       1.510   7.539   9.947  1.00  0.00    -0.011 C 
HETATM   26  C7  UNL     1       1.312   8.286   8.622  1.00  0.00     0.010 C 
BRANCH  25  27
HETATM   27  C5  UNL     1       0.215   6.818  10.401  1.00  0.00     0.040 C 
BRANCH  27  28
HETATM   28  C4  UNL     1       0.446   5.483  11.128  1.00  0.00     0.142 C 
BRANCH  28  29
HETATM   29  C3  UNL     1      -0.830   4.688  11.220  1.00  0.00     0.018 C 
HETATM   30  C2  UNL     1      -1.903   4.888  12.015  1.00  0.00     0.010 C 
HETATM   31  C1  UNL     1      -2.026   5.953  13.068  1.00  0.00     0.055 C 
BRANCH  30  32
HETATM   32  C30 UNL     1      -3.090   3.998  11.919  1.00  0.00     0.171 C 
HETATM   33  O6  UNL     1      -3.681   3.504  12.864  1.00  0.00    -0.646 OA
BRANCH  32  34
HETATM   34  O7  UNL     1      -3.488   3.753  10.659  1.00  0.00    -0.773 OA
HETATM   35  H44 UNL     1      -4.253   3.154  10.775  1.00  0.00     0.167 HD
ENDBRANCH  32  34
ENDBRANCH  30  32
ENDBRANCH  28  29
BRANCH  28  36
HETATM   36  O1  UNL     1       1.451   4.721  10.478  1.00  0.00    -0.392 OA
HETATM   37  H6  UNL     1       1.508   3.870  10.945  1.00  0.00     0.210 HD
ENDBRANCH  28  36
ENDBRANCH  27  28
ENDBRANCH  25  27
ENDBRANCH   1  25
BRANCH   3  38
HETATM   38  O2  UNL     1       1.915   9.004  14.720  1.00  0.00    -0.394 OA
HETATM   39  H17 UNL     1       1.033   8.652  14.942  1.00  0.00     0.210 HD
ENDBRANCH   3  38
BRANCH  24  40
HETATM   40  O5  UNL     1       4.439   9.572  15.782  1.00  0.00    -0.391 OA
HETATM   41  H43 UNL     1       3.477   9.566  15.591  1.00  0.00     0.210 HD
ENDBRANCH  24  40
TORSDOF 9
ENDMDL
MODEL 5
REMARK minimizedAffinity -8.84724712
REMARK CNNscore 0.348795682
REMARK CNNaffinity 6.33496284
REMARK  9 active torsions:
REMARK  status: ('A' for Active; 'I' for Inactive)
REMARK    1  A    between atoms: C2_2  and  C30_35 
REMARK    2  A    between atoms: C3_3  and  C4_4 
REMARK    3  A    between atoms: C4_4  and  O1_5 
REMARK    4  A    between atoms: C4_4  and  C5_6 
REMARK    5  A    between atoms: C5_6  and  C6_7 
REMARK    6  A    between atoms: C6_7  and  C8_9 
REMARK    7  A    between atoms: C10_11  and  O2_12 
REMARK    8  A    between atoms: C29_33  and  O5_34 
REMARK    9  A    between atoms: C30_35  and  O7_37 
ROOT
HETATM    1  C8  UNL     1      -2.529   7.300  14.238  1.00  0.00     0.001 C 
HETATM    2  C9  UNL     1      -2.044   7.647  15.677  1.00  0.00     0.038 C 
HETATM    3  C10 UNL     1      -0.517   7.826  15.593  1.00  0.00     0.132 C 
HETATM    4  C11 UNL     1      -0.254   8.131  14.096  1.00  0.00     0.017 C 
HETATM    5  C12 UNL     1      -0.637   9.624  13.811  1.00  0.00     0.023 C 
HETATM    6  C13 UNL     1       1.156   7.960  13.533  1.00  0.00    -0.029 C 
HETATM    7  C14 UNL     1       1.348   7.765  12.199  1.00  0.00     0.002 C 
HETATM    8  C15 UNL     1       0.121   7.536  11.320  1.00  0.00     0.157 C 
HETATM    9  O3  UNL     1       0.222   7.450  10.096  1.00  0.00    -0.293 OA
HETATM   10  C16 UNL     1      -1.267   7.385  11.939  1.00  0.00     0.094 C 
HETATM   11  C17 UNL     1      -1.206   7.072  13.435  1.00  0.00    -0.019 C 
HETATM   12  C18 UNL     1      -0.707   5.607  13.597  1.00  0.00     0.017 C 
HETATM   13  C19 UNL     1       2.762   7.698  11.551  1.00  0.00    -0.008 C 
HETATM   14  C20 UNL     1       3.011   6.200  11.268  1.00  0.00     0.021 C 
HETATM   15  C21 UNL     1       2.873   8.510  10.230  1.00  0.00     0.022 C 
HETATM   16  C22 UNL     1       4.279   8.552   9.647  1.00  0.00     0.080 C 
HETATM   17  C23 UNL     1       5.286   9.093  10.627  1.00  0.00     0.135 C 
HETATM   18  O4  UNL     1       6.142   9.893  10.242  1.00  0.00    -0.297 OA
HETATM   19  C24 UNL     1       5.284   8.516  12.049  1.00  0.00     0.018 C 
HETATM   20  C25 UNL     1       6.116   7.225  12.050  1.00  0.00     0.023 C 
HETATM   21  C26 UNL     1       6.023   9.532  12.960  1.00  0.00     0.023 C 
HETATM   22  C27 UNL     1       3.805   8.361  12.541  1.00  0.00     0.016 C 
HETATM   23  C28 UNL     1       3.673   7.731  13.937  1.00  0.00     0.043 C 
HETATM   24  C29 UNL     1       2.295   8.032  14.526  1.00  0.00     0.149 C 
ENDROOT
BRANCH   1  25
HETATM   25  C6  UNL     1      -3.723   6.298  14.199  1.00  0.00    -0.011 C 
HETATM   26  C7  UNL     1      -4.640   6.383  12.971  1.00  0.00     0.010 C 
BRANCH  25  27
HETATM   27  C5  UNL     1      -4.529   6.339  15.523  1.00  0.00     0.040 C 
BRANCH  27  28
HETATM   28  C4  UNL     1      -6.051   6.208  15.351  1.00  0.00     0.142 C 
BRANCH  28  29
HETATM   29  C3  UNL     1      -6.406   4.963  14.583  1.00  0.00     0.018 C 
HETATM   30  C2  UNL     1      -7.393   4.770  13.682  1.00  0.00     0.010 C 
HETATM   31  C1  UNL     1      -8.432   5.783  13.291  1.00  0.00     0.055 C 
BRANCH  30  32
HETATM   32  C30 UNL     1      -7.548   3.457  13.001  1.00  0.00     0.171 C 
HETATM   33  O6  UNL     1      -8.590   2.833  12.898  1.00  0.00    -0.646 OA
BRANCH  32  34
HETATM   34  O7  UNL     1      -6.406   2.973  12.483  1.00  0.00    -0.773 OA
HETATM   35  H44 UNL     1      -6.678   2.117  12.093  1.00  0.00     0.167 HD
ENDBRANCH  32  34
ENDBRANCH  30  32
ENDBRANCH  28  29
BRANCH  28  36
HETATM   36  O1  UNL     1      -6.704   6.208  16.611  1.00  0.00    -0.392 OA
HETATM   37  H6  UNL     1      -7.651   6.064  16.440  1.00  0.00     0.210 HD
ENDBRANCH  28  36
ENDBRANCH  27  28
ENDBRANCH  25  27
ENDBRANCH   1  25
BRANCH   3  38
HETATM   38  O2  UNL     1      -0.054   8.860  16.452  1.00  0.00    -0.394 OA
HETATM   39  H17 UNL     1      -0.432   8.695  17.336  1.00  0.00     0.210 HD
ENDBRANCH   3  38
BRANCH  24  40
HETATM   40  O5  UNL     1       2.337   9.339  15.085  1.00  0.00    -0.391 OA
HETATM   41  H43 UNL     1       1.563   9.412  15.682  1.00  0.00     0.210 HD
ENDBRANCH  24  40
TORSDOF 9
ENDMDL
MODEL 6
REMARK minimizedAffinity -10.0061302
REMARK CNNscore 0.338274896
REMARK CNNaffinity 6.35296488
REMARK  9 active torsions:
REMARK  status: ('A' for Active; 'I' for Inactive)
REMARK    1  A    between atoms: C2_2  and  C30_35 
REMARK    2  A    between atoms: C3_3  and  C4_4 
REMARK    3  A    between atoms: C4_4  and  O1_5 
REMARK    4  A    between atoms: C4_4  and  C5_6 
REMARK    5  A    between atoms: C5_6  and  C6_7 
REMARK    6  A    between atoms: C6_7  and  C8_9 
REMARK    7  A    between atoms: C10_11  and  O2_12 
REMARK    8  A    between atoms: C29_33  and  O5_34 
REMARK    9  A    between atoms: C30_35  and  O7_37 
ROOT
HETATM    1  C8  UNL     1       2.941   7.521  11.275  1.00  0.00     0.001 C 
HETATM    2  C9  UNL     1       3.059   5.986  11.041  1.00  0.00     0.038 C 
HETATM    3  C10 UNL     1       1.747   5.363  11.555  1.00  0.00     0.132 C 
HETATM    4  C11 UNL     1       0.738   6.540  11.537  1.00  0.00     0.017 C 
HETATM    5  C12 UNL     1       0.270   6.779  10.061  1.00  0.00     0.023 C 
HETATM    6  C13 UNL     1      -0.547   6.437  12.358  1.00  0.00    -0.029 C 
HETATM    7  C14 UNL     1      -1.212   7.561  12.742  1.00  0.00     0.002 C 
HETATM    8  C15 UNL     1      -0.548   8.912  12.493  1.00  0.00     0.157 C 
HETATM    9  O3  UNL     1      -1.140   9.966  12.729  1.00  0.00    -0.293 OA
HETATM   10  C16 UNL     1       0.883   8.995  11.964  1.00  0.00     0.094 C 
HETATM   11  C17 UNL     1       1.641   7.678  12.131  1.00  0.00    -0.019 C 
HETATM   12  C18 UNL     1       1.952   7.493  13.645  1.00  0.00     0.017 C 
HETATM   13  C19 UNL     1      -2.583   7.519  13.479  1.00  0.00    -0.008 C 
HETATM   14  C20 UNL     1      -2.261   7.844  14.955  1.00  0.00     0.021 C 
HETATM   15  C21 UNL     1      -3.612   8.544  12.925  1.00  0.00     0.022 C 
HETATM   16  C22 UNL     1      -4.994   8.436  13.556  1.00  0.00     0.080 C 
HETATM   17  C23 UNL     1      -5.574   7.053  13.420  1.00  0.00     0.135 C 
HETATM   18  O4  UNL     1      -6.761   6.919  13.113  1.00  0.00    -0.297 OA
HETATM   19  C24 UNL     1      -4.686   5.861  13.802  1.00  0.00     0.018 C 
HETATM   20  C25 UNL     1      -4.784   5.651  15.320  1.00  0.00     0.023 C 
HETATM   21  C26 UNL     1      -5.292   4.601  13.129  1.00  0.00     0.023 C 
HETATM   22  C27 UNL     1      -3.240   6.097  13.248  1.00  0.00     0.016 C 
HETATM   23  C28 UNL     1      -2.239   4.992  13.624  1.00  0.00     0.043 C 
HETATM   24  C29 UNL     1      -1.024   5.042  12.698  1.00  0.00     0.149 C 
ENDROOT
BRANCH   1  25
HETATM   25  C6  UNL     1       4.289   8.207  11.653  1.00  0.00    -0.011 C 
HETATM   26  C7  UNL     1       4.948   9.057  10.560  1.00  0.00     0.010 C 
BRANCH  25  27
HETATM   27  C5  UNL     1       5.282   7.185  12.265  1.00  0.00     0.040 C 
BRANCH  27  28
HETATM   28  C4  UNL     1       6.689   7.743  12.535  1.00  0.00     0.142 C 
BRANCH  28  29
HETATM   29  C3  UNL     1       7.019   7.696  14.004  1.00  0.00     0.018 C 
HETATM   30  C2  UNL     1       8.169   8.025  14.630  1.00  0.00     0.010 C 
HETATM   31  C1  UNL     1       9.439   8.462  13.955  1.00  0.00     0.055 C 
BRANCH  30  32
HETATM   32  C30 UNL     1       8.274   7.942  16.111  1.00  0.00     0.171 C 
HETATM   33  O6  UNL     1       9.304   7.755  16.737  1.00  0.00    -0.646 OA
BRANCH  32  34
HETATM   34  O7  UNL     1       7.100   8.087  16.750  1.00  0.00    -0.773 OA
HETATM   35  H44 UNL     1       7.343   7.993  17.694  1.00  0.00     0.167 HD
ENDBRANCH  32  34
ENDBRANCH  30  32
ENDBRANCH  28  29
BRANCH  28  36
HETATM   36  O1  UNL     1       7.667   7.032  11.792  1.00  0.00    -0.392 OA
HETATM   37  H6  UNL     1       8.534   7.388  12.049  1.00  0.00     0.210 HD
ENDBRANCH  28  36
ENDBRANCH  27  28
ENDBRANCH  25  27
ENDBRANCH   1  25
BRANCH   3  38
HETATM   38  O2  UNL     1       1.327   4.268  10.751  1.00  0.00    -0.394 OA
HETATM   39  H17 UNL     1       2.091   3.670  10.650  1.00  0.00     0.210 HD
ENDBRANCH   3  38
BRANCH  24  40
HETATM   40  O5  UNL     1      -1.367   4.366  11.494  1.00  0.00    -0.391 OA
HETATM   41  H43 UNL     1      -0.523   4.169  11.035  1.00  0.00     0.210 HD
ENDBRANCH  24  40
TORSDOF 9
ENDMDL
MODEL 7
REMARK minimizedAffinity -7.49196148
REMARK CNNscore 0.338224441
REMARK CNNaffinity 6.37888718
REMARK  9 active torsions:
REMARK  status: ('A' for Active; 'I' for Inactive)
REMARK    1  A    between atoms: C2_2  and  C30_35 
REMARK    2  A    between atoms: C3_3  and  C4_4 
REMARK    3  A    between atoms: C4_4  and  O1_5 
REMARK    4  A    between atoms: C4_4  and  C5_6 
REMARK    5  A    between atoms: C5_6  and  C6_7 
REMARK    6  A    between atoms: C6_7  and  C8_9 
REMARK    7  A    between atoms: C10_11  and  O2_12 
REMARK    8  A    between atoms: C29_33  and  O5_34 
REMARK    9  A    between atoms: C30_35  and  O7_37 
ROOT
HETATM    1  C8  UNL     1     -10.316  -7.153  -5.179  1.00  0.00     0.001 C 
HETATM    2  C9  UNL     1      -9.029  -7.112  -6.055  1.00  0.00     0.038 C 
HETATM    3  C10 UNL     1      -7.937  -7.856  -5.264  1.00  0.00     0.132 C 
HETATM    4  C11 UNL     1      -8.728  -8.750  -4.276  1.00  0.00     0.017 C 
HETATM    5  C12 UNL     1      -9.279  -9.994  -5.054  1.00  0.00     0.023 C 
HETATM    6  C13 UNL     1      -8.019  -9.322  -3.049  1.00  0.00    -0.029 C 
HETATM    7  C14 UNL     1      -8.733  -9.703  -1.954  1.00  0.00     0.002 C 
HETATM    8  C15 UNL     1     -10.223  -9.373  -1.914  1.00  0.00     0.157 C 
HETATM    9  O3  UNL     1     -10.939  -9.775  -0.997  1.00  0.00    -0.293 OA
HETATM   10  C16 UNL     1     -10.863  -8.513  -3.003  1.00  0.00     0.094 C 
HETATM   11  C17 UNL     1      -9.826  -7.730  -3.809  1.00  0.00    -0.019 C 
HETATM   12  C18 UNL     1      -9.269  -6.596  -2.901  1.00  0.00     0.017 C 
HETATM   13  C19 UNL     1      -8.081 -10.395  -0.721  1.00  0.00    -0.008 C 
HETATM   14  C20 UNL     1      -8.002  -9.301   0.366  1.00  0.00     0.021 C 
HETATM   15  C21 UNL     1      -8.899 -11.607  -0.192  1.00  0.00     0.022 C 
HETATM   16  C22 UNL     1      -8.217 -12.367   0.938  1.00  0.00     0.080 C 
HETATM   17  C23 UNL     1      -6.843 -12.848   0.552  1.00  0.00     0.135 C 
HETATM   18  O4  UNL     1      -6.486 -13.986   0.864  1.00  0.00    -0.297 OA
HETATM   19  C24 UNL     1      -5.888 -11.841  -0.105  1.00  0.00     0.018 C 
HETATM   20  C25 UNL     1      -5.194 -11.037   1.003  1.00  0.00     0.023 C 
HETATM   21  C26 UNL     1      -4.787 -12.658  -0.833  1.00  0.00     0.023 C 
HETATM   22  C27 UNL     1      -6.680 -10.991  -1.156  1.00  0.00     0.016 C 
HETATM   23  C28 UNL     1      -5.838  -9.900  -1.840  1.00  0.00     0.043 C 
HETATM   24  C29 UNL     1      -6.513  -9.444  -3.133  1.00  0.00     0.149 C 
ENDROOT
BRANCH   1  25
HETATM   25  C6  UNL     1     -11.195  -5.870  -5.289  1.00  0.00    -0.011 C 
HETATM   26  C7  UNL     1     -12.500  -6.009  -6.083  1.00  0.00     0.010 C 
BRANCH  25  27
HETATM   27  C5  UNL     1     -10.355  -4.658  -5.767  1.00  0.00     0.040 C 
BRANCH  27  28
HETATM   28  C4  UNL     1      -9.897  -3.713  -4.644  1.00  0.00     0.142 C 
BRANCH  28  29
HETATM   29  C3  UNL     1      -8.668  -2.943  -5.050  1.00  0.00     0.018 C 
HETATM   30  C2  UNL     1      -8.577  -1.796  -5.756  1.00  0.00     0.010 C 
HETATM   31  C1  UNL     1      -9.728  -1.052  -6.371  1.00  0.00     0.055 C 
BRANCH  30  32
HETATM   32  C30 UNL     1      -7.252  -1.173  -6.016  1.00  0.00     0.171 C 
HETATM   33  O6  UNL     1      -7.073  -0.059  -6.479  1.00  0.00    -0.646 OA
BRANCH  32  34
HETATM   34  O7  UNL     1      -6.208  -1.959  -5.700  1.00  0.00    -0.773 OA
HETATM   35  H44 UNL     1      -5.432  -1.413  -5.942  1.00  0.00     0.167 HD
ENDBRANCH  32  34
ENDBRANCH  30  32
ENDBRANCH  28  29
BRANCH  28  36
HETATM   36  O1  UNL     1     -10.937  -2.818  -4.281  1.00  0.00    -0.392 OA
HETATM   37  H6  UNL     1     -10.570  -2.212  -3.615  1.00  0.00     0.210 HD
ENDBRANCH  28  36
ENDBRANCH  27  28
ENDBRANCH  25  27
ENDBRANCH   1  25
BRANCH   3  38
HETATM   38  O2  UNL     1      -7.079  -8.604  -6.114  1.00  0.00    -0.394 OA
HETATM   39  H17 UNL     1      -6.781  -8.008  -6.826  1.00  0.00     0.210 HD
ENDBRANCH   3  38
BRANCH  24  40
HETATM   40  O5  UNL     1      -6.183 -10.381  -4.150  1.00  0.00    -0.391 OA
HETATM   41  H43 UNL     1      -6.384  -9.946  -5.006  1.00  0.00     0.210 HD
ENDBRANCH  24  40
TORSDOF 9
ENDMDL
MODEL 8
REMARK minimizedAffinity -8.58003426
REMARK CNNscore 0.334300131
REMARK CNNaffinity 6.63143539
REMARK  9 active torsions:
REMARK  status: ('A' for Active; 'I' for Inactive)
REMARK    1  A    between atoms: C2_2  and  C30_35 
REMARK    2  A    between atoms: C3_3  and  C4_4 
REMARK    3  A    between atoms: C4_4  and  O1_5 
REMARK    4  A    between atoms: C4_4  and  C5_6 
REMARK    5  A    between atoms: C5_6  and  C6_7 
REMARK    6  A    between atoms: C6_7  and  C8_9 
REMARK    7  A    between atoms: C10_11  and  O2_12 
REMARK    8  A    between atoms: C29_33  and  O5_34 
REMARK    9  A    between atoms: C30_35  and  O7_37 
ROOT
HETATM    1  C8  UNL     1       0.892   7.979  13.391  1.00  0.00     0.001 C 
HETATM    2  C9  UNL     1       0.975   8.988  14.575  1.00  0.00     0.038 C 
HETATM    3  C10 UNL     1      -0.452   9.118  15.139  1.00  0.00     0.132 C 
HETATM    4  C11 UNL     1      -1.164   7.824  14.669  1.00  0.00     0.017 C 
HETATM    5  C12 UNL     1      -0.705   6.637  15.584  1.00  0.00     0.023 C 
HETATM    6  C13 UNL     1      -2.691   7.767  14.668  1.00  0.00    -0.029 C 
HETATM    7  C14 UNL     1      -3.348   6.884  13.867  1.00  0.00     0.002 C 
HETATM    8  C15 UNL     1      -2.534   6.093  12.846  1.00  0.00     0.157 C 
HETATM    9  O3  UNL     1      -3.055   5.212  12.162  1.00  0.00    -0.293 OA
HETATM   10  C16 UNL     1      -1.051   6.389  12.629  1.00  0.00     0.094 C 
HETATM   11  C17 UNL     1      -0.643   7.752  13.191  1.00  0.00    -0.019 C 
HETATM   12  C18 UNL     1      -1.247   8.850  12.268  1.00  0.00     0.017 C 
HETATM   13  C19 UNL     1      -4.894   6.700  13.904  1.00  0.00    -0.008 C 
HETATM   14  C20 UNL     1      -5.420   7.422  12.643  1.00  0.00     0.021 C 
HETATM   15  C21 UNL     1      -5.337   5.210  13.882  1.00  0.00     0.022 C 
HETATM   16  C22 UNL     1      -6.839   5.010  14.037  1.00  0.00     0.080 C 
HETATM   17  C23 UNL     1      -7.372   5.651  15.291  1.00  0.00     0.135 C 
HETATM   18  O4  UNL     1      -8.193   5.044  15.983  1.00  0.00    -0.297 OA
HETATM   19  C24 UNL     1      -6.965   7.101  15.585  1.00  0.00     0.018 C 
HETATM   20  C25 UNL     1      -7.911   8.035  14.817  1.00  0.00     0.023 C 
HETATM   21  C26 UNL     1      -7.208   7.350  17.097  1.00  0.00     0.023 C 
HETATM   22  C27 UNL     1      -5.440   7.282  15.270  1.00  0.00     0.016 C 
HETATM   23  C28 UNL     1      -4.928   8.718  15.469  1.00  0.00     0.043 C 
HETATM   24  C29 UNL     1      -3.405   8.724  15.597  1.00  0.00     0.149 C 
ENDROOT
BRANCH   1  25
HETATM   25  C6  UNL     1       1.858   8.308  12.212  1.00  0.00    -0.011 C 
HETATM   26  C7  UNL     1       1.221   8.408  10.821  1.00  0.00     0.010 C 
BRANCH  25  27
HETATM   27  C5  UNL     1       3.087   7.362  12.217  1.00  0.00     0.040 C 
BRANCH  27  28
HETATM   28  C4  UNL     1       3.977   7.463  10.968  1.00  0.00     0.142 C 
BRANCH  28  29
HETATM   29  C3  UNL     1       4.038   6.148  10.237  1.00  0.00     0.018 C 
HETATM   30  C2  UNL     1       3.394   5.768   9.112  1.00  0.00     0.010 C 
HETATM   31  C1  UNL     1       2.386   6.590   8.360  1.00  0.00     0.055 C 
BRANCH  30  32
HETATM   32  C30 UNL     1       3.629   4.422   8.526  1.00  0.00     0.171 C 
HETATM   33  O6  UNL     1       3.962   3.428   9.149  1.00  0.00    -0.646 OA
BRANCH  32  34
HETATM   34  O7  UNL     1       3.447   4.367   7.195  1.00  0.00    -0.773 OA
HETATM   35  H44 UNL     1       3.651   3.435   6.976  1.00  0.00     0.167 HD
ENDBRANCH  32  34
ENDBRANCH  30  32
ENDBRANCH  28  29
BRANCH  28  36
HETATM   36  O1  UNL     1       3.515   8.485  10.098  1.00  0.00    -0.392 OA
HETATM   37  H6  UNL     1       4.078   8.459   9.306  1.00  0.00     0.210 HD
ENDBRANCH  28  36
ENDBRANCH  27  28
ENDBRANCH  25  27
ENDBRANCH   1  25
BRANCH   3  38
HETATM   38  O2  UNL     1      -0.454   9.263  16.553  1.00  0.00    -0.394 OA
HETATM   39  H17 UNL     1       0.176   9.974  16.775  1.00  0.00     0.210 HD
ENDBRANCH   3  38
BRANCH  24  40
HETATM   40  O5  UNL     1      -3.081   8.388  16.941  1.00  0.00    -0.391 OA
HETATM   41  H43 UNL     1      -2.147   8.656  17.078  1.00  0.00     0.210 HD
ENDBRANCH  24  40
TORSDOF 9
ENDMDL
MODEL 9
REMARK minimizedAffinity -8.73885632
REMARK CNNscore 0.322940379
REMARK CNNaffinity 5.84784174
REMARK  9 active torsions:
REMARK  status: ('A' for Active; 'I' for Inactive)
REMARK    1  A    between atoms: C2_2  and  C30_35 
REMARK    2  A    between atoms: C3_3  and  C4_4 
REMARK    3  A    between atoms: C4_4  and  O1_5 
REMARK    4  A    between atoms: C4_4  and  C5_6 
REMARK    5  A    between atoms: C5_6  and  C6_7 
REMARK    6  A    between atoms: C6_7  and  C8_9 
REMARK    7  A    between atoms: C10_11  and  O2_12 
REMARK    8  A    between atoms: C29_33  and  O5_34 
REMARK    9  A    between atoms: C30_35  and  O7_37 
ROOT
HETATM    1  C8  UNL     1       6.846   8.969  13.881  1.00  0.00     0.001 C 
HETATM    2  C9  UNL     1       7.948   8.984  12.780  1.00  0.00     0.038 C 
HETATM    3  C10 UNL     1       9.145   9.752  13.371  1.00  0.00     0.132 C 
HETATM    4  C11 UNL     1       8.934   9.661  14.904  1.00  0.00     0.017 C 
HETATM    5  C12 UNL     1       9.366   8.233  15.387  1.00  0.00     0.023 C 
HETATM    6  C13 UNL     1       9.668  10.638  15.821  1.00  0.00    -0.029 C 
HETATM    7  C14 UNL     1       9.191  10.905  17.068  1.00  0.00     0.002 C 
HETATM    8  C15 UNL     1       7.820  10.353  17.449  1.00  0.00     0.157 C 
HETATM    9  O3  UNL     1       7.378  10.479  18.591  1.00  0.00    -0.293 OA
HETATM   10  C16 UNL     1       6.946   9.647  16.413  1.00  0.00     0.094 C 
HETATM   11  C17 UNL     1       7.391   9.939  14.981  1.00  0.00    -0.019 C 
HETATM   12  C18 UNL     1       7.014  11.413  14.653  1.00  0.00     0.017 C 
HETATM   13  C19 UNL     1       9.953  11.801  18.088  1.00  0.00    -0.008 C 
HETATM   14  C20 UNL     1       9.201  13.150  18.087  1.00  0.00     0.021 C 
HETATM   15  C21 UNL     1       9.977  11.212  19.527  1.00  0.00     0.022 C 
HETATM   16  C22 UNL     1      10.817  12.016  20.510  1.00  0.00     0.080 C 
HETATM   17  C23 UNL     1      12.237  12.187  20.038  1.00  0.00     0.135 C 
HETATM   18  O4  UNL     1      13.165  12.054  20.839  1.00  0.00    -0.297 OA
HETATM   19  C24 UNL     1      12.462  12.653  18.593  1.00  0.00     0.018 C 
HETATM   20  C25 UNL     1      12.365  14.184  18.557  1.00  0.00     0.023 C 
HETATM   21  C26 UNL     1      13.919  12.281  18.211  1.00  0.00     0.023 C 
HETATM   22  C27 UNL     1      11.470  11.894  17.647  1.00  0.00     0.016 C 
HETATM   23  C28 UNL     1      11.560  12.326  16.173  1.00  0.00     0.043 C 
HETATM   24  C29 UNL     1      10.931  11.263  15.272  1.00  0.00     0.149 C 
ENDROOT
BRANCH   1  25
HETATM   25  C6  UNL     1       5.393   9.059  13.321  1.00  0.00    -0.011 C 
HETATM   26  C7  UNL     1       4.262   8.822  14.329  1.00  0.00     0.010 C 
BRANCH  25  27
HETATM   27  C5  UNL     1       5.229   8.182  12.053  1.00  0.00     0.040 C 
BRANCH  27  28
HETATM   28  C4  UNL     1       3.866   7.481  11.932  1.00  0.00     0.142 C 
BRANCH  28  29
HETATM   29  C3  UNL     1       3.926   6.343  10.947  1.00  0.00     0.018 C 
HETATM   30  C2  UNL     1       2.976   5.902  10.096  1.00  0.00     0.010 C 
HETATM   31  C1  UNL     1       1.574   6.435   9.996  1.00  0.00     0.055 C 
BRANCH  30  32
HETATM   32  C30 UNL     1       3.256   4.774   9.169  1.00  0.00     0.171 C 
HETATM   33  O6  UNL     1       3.395   4.870   7.961  1.00  0.00    -0.646 OA
BRANCH  32  34
HETATM   34  O7  UNL     1       3.345   3.578   9.776  1.00  0.00    -0.773 OA
HETATM   35  H44 UNL     1       3.515   2.960   9.036  1.00  0.00     0.167 HD
ENDBRANCH  32  34
ENDBRANCH  30  32
ENDBRANCH  28  29
BRANCH  28  36
HETATM   36  O1  UNL     1       3.424   7.011  13.196  1.00  0.00    -0.392 OA
HETATM   37  H6  UNL     1       2.593   6.529  13.045  1.00  0.00     0.210 HD
ENDBRANCH  28  36
ENDBRANCH  27  28
ENDBRANCH  25  27
ENDBRANCH   1  25
BRANCH   3  38
HETATM   38  O2  UNL     1      10.388   9.202  12.955  1.00  0.00    -0.394 OA
HETATM   39  H17 UNL     1      10.356   9.110  11.984  1.00  0.00     0.210 HD
ENDBRANCH   3  38
BRANCH  24  40
HETATM   40  O5  UNL     1      11.899  10.241  15.065  1.00  0.00    -0.391 OA
HETATM   41  H43 UNL     1      11.595   9.722  14.291  1.00  0.00     0.210 HD
ENDBRANCH  24  40
TORSDOF 9
ENDMDL
