MODEL 1
REMARK minimizedAffinity -8.24393272
REMARK CNNscore 0.628837287
REMARK CNNaffinity 6.62298727
REMARK  18 active torsions:
REMARK  status: ('A' for Active; 'I' for Inactive)
REMARK    1  A    between atoms: C2_2  and  C3_3 
REMARK    2  A    between atoms: C3_3  and  C4_4 
REMARK    3  A    between atoms: C3_3  and  C19_25 
REMARK    4  A    between atoms: C4_4  and  C5_6 
REMARK    5  A    between atoms: C5_6  and  C7_8 
REMARK    6  A    between atoms: C7_8  and  O2_9 
REMARK    7  A    between atoms: C7_8  and  C8_10 
REMARK    8  A    between atoms: C8_10  and  C10_12 
REMARK    9  A    between atoms: C11_14  and  C12_15 
REMARK   10  A    between atoms: C12_15  and  C13_16 
REMARK   11  A    between atoms: C13_16  and  O5_18 
REMARK   12  A    between atoms: O5_18  and  O6_19 
REMARK   13  A    between atoms: C20_27  and  C22_29 
REMARK   14  A    between atoms: C22_29  and  O8_30 
REMARK   15  A    between atoms: C23_32  and  C24_33 
REMARK   16  A    between atoms: C23_32  and  C26_35 
REMARK   17  A    between atoms: C26_35  and  O10_36 
REMARK   18  A    between atoms: C26_35  and  C27_37 
ROOT
HETATM    1  C3  UNL     1      -1.800  50.054 -19.682  1.00  0.00     0.085 C 
ENDROOT
BRANCH   1   2
HETATM    2  C2  UNL     1      -0.513  50.380 -20.464  1.00  0.00     0.010 C 
HETATM    3  C1  UNL     1      -0.026  51.815 -20.350  1.00  0.00     0.006 C 
ENDBRANCH   1   2
BRANCH   1   4
HETATM    4  C4  UNL     1      -1.903  50.877 -18.395  1.00  0.00     0.139 C 
HETATM    5  O1  UNL     1      -2.394  52.013 -18.411  1.00  0.00    -0.297 OA
BRANCH   4   6
HETATM    6  C5  UNL     1      -1.403  50.292 -17.063  1.00  0.00     0.081 C 
HETATM    7  C6  UNL     1       0.084  50.591 -16.862  1.00  0.00     0.020 C 
BRANCH   6   8
HETATM    8  C7  UNL     1      -2.297  50.696 -15.877  1.00  0.00     0.135 C 
BRANCH   8   9
HETATM    9  O2  UNL     1      -3.590  50.105 -16.015  1.00  0.00    -0.394 OA
HETATM   10  H12 UNL     1      -3.513  49.152 -15.793  1.00  0.00     0.210 HD
ENDBRANCH   8   9
BRANCH   8  11
HETATM   11  C8  UNL     1      -1.803  50.431 -14.421  1.00  0.00     0.040 C 
HETATM   12  C9  UNL     1      -2.440  49.213 -13.752  1.00  0.00     0.015 C 
BRANCH  11  13
HETATM   13  C10 UNL     1      -1.619  51.650 -13.459  1.00  0.00     0.132 C 
HETATM   14  O3  UNL     1      -2.676  51.563 -12.478  1.00  0.00    -0.379 OA
HETATM   15  C11 UNL     1      -2.904  52.798 -11.775  1.00  0.00     0.135 C 
HETATM   16  C14 UNL     1      -1.665  53.102 -10.914  1.00  0.00     0.011 C 
HETATM   17  C15 UNL     1      -1.771  54.418 -10.147  1.00  0.00     0.012 C 
HETATM   18  C16 UNL     1      -0.419  53.136 -11.813  1.00  0.00     0.013 C 
HETATM   19  C17 UNL     1      -0.298  51.862 -12.681  1.00  0.00     0.011 C 
HETATM   20  C18 UNL     1       0.956  51.982 -13.544  1.00  0.00     0.012 C 
BRANCH  15  21
HETATM   21  C12 UNL     1      -4.182  52.609 -10.957  1.00  0.00     0.146 C 
BRANCH  21  22
HETATM   22  C13 UNL     1      -4.155  51.272 -10.267  1.00  0.00     0.291 C 
HETATM   23  O4  UNL     1      -3.470  51.005  -9.289  1.00  0.00    -0.263 OA
BRANCH  22  24
HETATM   24  O5  UNL     1      -4.975  50.376 -10.889  1.00  0.00    -0.161 OA
BRANCH  24  25
HETATM   25  O6  UNL     1      -6.286  50.434 -10.229  1.00  0.00    -0.242 OA
HETATM   26  H21 UNL     1      -6.366  51.408 -10.174  1.00  0.00     0.254 HD
ENDBRANCH  24  25
ENDBRANCH  22  24
ENDBRANCH  21  22
ENDBRANCH  15  21
ENDBRANCH  11  13
ENDBRANCH   8  11
ENDBRANCH   6   8
ENDBRANCH   4   6
ENDBRANCH   1   4
BRANCH   1  27
HETATM   27  C19 UNL     1      -3.086  50.210 -20.525  1.00  0.00     0.138 C 
HETATM   28  O7  UNL     1      -2.725  50.288 -21.934  1.00  0.00    -0.368 OA
HETATM   29  C20 UNL     1      -3.545  49.359 -22.700  1.00  0.00     0.114 C 
HETATM   30  C21 UNL     1      -2.653  48.129 -22.928  1.00  0.00     0.052 C 
HETATM   31  C32 UNL     1      -4.721  49.036 -21.778  1.00  0.00     0.050 C 
HETATM   32  C33 UNL     1      -4.077  49.041 -20.404  1.00  0.00     0.014 C 
HETATM   33  C34 UNL     1      -5.103  49.150 -19.287  1.00  0.00     0.012 C 
BRANCH  29  34
HETATM   34  C22 UNL     1      -3.967  50.042 -24.050  1.00  0.00     0.197 C 
HETATM   35  O9  UNL     1      -3.162  49.547 -25.137  1.00  0.00    -0.338 OA
HETATM   36  C23 UNL     1      -2.910  50.606 -26.107  1.00  0.00     0.090 C 
HETATM   37  C29 UNL     1      -3.672  51.830 -25.585  1.00  0.00     0.050 C 
HETATM   38  C30 UNL     1      -3.818  51.571 -24.094  1.00  0.00     0.050 C 
HETATM   39  C31 UNL     1      -4.957  52.407 -23.526  1.00  0.00     0.015 C 
BRANCH  34  40
HETATM   40  O8  UNL     1      -5.303  49.656 -24.364  1.00  0.00    -0.363 OA
HETATM   41  H36 UNL     1      -5.347  48.725 -24.064  1.00  0.00     0.213 HD
ENDBRANCH  34  40
BRANCH  36  42
HETATM   42  C24 UNL     1      -1.386  50.855 -26.073  1.00  0.00     0.036 C 
HETATM   43  C25 UNL     1      -0.983  52.321 -26.194  1.00  0.00     0.008 C 
ENDBRANCH  36  42
BRANCH  36  44
HETATM   44  C26 UNL     1      -3.466  50.117 -27.483  1.00  0.00     0.152 C 
BRANCH  44  45
HETATM   45  O10 UNL     1      -2.559  50.551 -28.521  1.00  0.00    -0.393 OA
HETATM   46  H43 UNL     1      -2.294  51.463 -28.290  1.00  0.00     0.210 HD
ENDBRANCH  44  45
BRANCH  44  47
HETATM   47  C27 UNL     1      -3.610  48.597 -27.671  1.00  0.00     0.030 C 
HETATM   48  C28 UNL     1      -5.021  48.110 -27.964  1.00  0.00     0.007 C 
ENDBRANCH  44  47
ENDBRANCH  36  44
ENDBRANCH  29  34
ENDBRANCH   1  27
TORSDOF 18
ENDMDL
MODEL 2
REMARK minimizedAffinity -8.04486084
REMARK CNNscore 0.53633821
REMARK CNNaffinity 7.05160475
REMARK  18 active torsions:
REMARK  status: ('A' for Active; 'I' for Inactive)
REMARK    1  A    between atoms: C2_2  and  C3_3 
REMARK    2  A    between atoms: C3_3  and  C4_4 
REMARK    3  A    between atoms: C3_3  and  C19_25 
REMARK    4  A    between atoms: C4_4  and  C5_6 
REMARK    5  A    between atoms: C5_6  and  C7_8 
REMARK    6  A    between atoms: C7_8  and  O2_9 
REMARK    7  A    between atoms: C7_8  and  C8_10 
REMARK    8  A    between atoms: C8_10  and  C10_12 
REMARK    9  A    between atoms: C11_14  and  C12_15 
REMARK   10  A    between atoms: C12_15  and  C13_16 
REMARK   11  A    between atoms: C13_16  and  O5_18 
REMARK   12  A    between atoms: O5_18  and  O6_19 
REMARK   13  A    between atoms: C20_27  and  C22_29 
REMARK   14  A    between atoms: C22_29  and  O8_30 
REMARK   15  A    between atoms: C23_32  and  C24_33 
REMARK   16  A    between atoms: C23_32  and  C26_35 
REMARK   17  A    between atoms: C26_35  and  O10_36 
REMARK   18  A    between atoms: C26_35  and  C27_37 
ROOT
HETATM    1  C3  UNL     1       0.390  51.033 -17.684  1.00  0.00     0.085 C 
ENDROOT
BRANCH   1   2
HETATM    2  C2  UNL     1      -0.808  50.073 -17.561  1.00  0.00     0.010 C 
HETATM    3  C1  UNL     1      -2.178  50.725 -17.653  1.00  0.00     0.006 C 
ENDBRANCH   1   2
BRANCH   1   4
HETATM    4  C4  UNL     1       0.155  52.096 -18.760  1.00  0.00     0.139 C 
HETATM    5  O1  UNL     1      -0.338  53.192 -18.465  1.00  0.00    -0.297 OA
BRANCH   4   6
HETATM    6  C5  UNL     1       0.540  51.813 -20.222  1.00  0.00     0.081 C 
HETATM    7  C6  UNL     1       0.088  50.414 -20.642  1.00  0.00     0.020 C 
BRANCH   6   8
HETATM    8  C7  UNL     1       0.087  52.939 -21.172  1.00  0.00     0.135 C 
BRANCH   8   9
HETATM    9  O2  UNL     1       0.465  54.209 -20.641  1.00  0.00    -0.394 OA
HETATM   10  H12 UNL     1       1.431  54.317 -20.771  1.00  0.00     0.210 HD
ENDBRANCH   8   9
BRANCH   8  11
HETATM   11  C8  UNL     1       0.523  52.897 -22.669  1.00  0.00     0.040 C 
HETATM   12  C9  UNL     1       1.325  54.117 -23.125  1.00  0.00     0.015 C 
BRANCH  11  13
HETATM   13  C10 UNL     1      -0.502  52.387 -23.734  1.00  0.00     0.132 C 
HETATM   14  O3  UNL     1       0.260  51.654 -24.718  1.00  0.00    -0.379 OA
HETATM   15  C11 UNL     1      -0.446  51.465 -25.959  1.00  0.00     0.135 C 
HETATM   16  C14 UNL     1      -1.647  50.539 -25.698  1.00  0.00     0.011 C 
HETATM   17  C15 UNL     1      -2.503  50.296 -26.940  1.00  0.00     0.012 C 
HETATM   18  C16 UNL     1      -2.521  51.142 -24.588  1.00  0.00     0.013 C 
HETATM   19  C17 UNL     1      -1.696  51.489 -23.327  1.00  0.00     0.011 C 
HETATM   20  C18 UNL     1      -2.637  52.088 -22.283  1.00  0.00     0.012 C 
BRANCH  15  21
HETATM   21  C12 UNL     1       0.562  50.890 -26.955  1.00  0.00     0.146 C 
BRANCH  21  22
HETATM   22  C13 UNL     1       1.046  51.975 -27.878  1.00  0.00     0.291 C 
HETATM   23  O4  UNL     1       0.318  52.724 -28.517  1.00  0.00    -0.263 OA
BRANCH  22  24
HETATM   24  O5  UNL     1       2.409  52.003 -27.939  1.00  0.00    -0.161 OA
BRANCH  24  25
HETATM   25  O6  UNL     1       2.923  51.779 -26.581  1.00  0.00    -0.242 OA
HETATM   26  H21 UNL     1       2.332  51.039 -26.333  1.00  0.00     0.254 HD
ENDBRANCH  24  25
ENDBRANCH  22  24
ENDBRANCH  21  22
ENDBRANCH  15  21
ENDBRANCH  11  13
ENDBRANCH   8  11
ENDBRANCH   6   8
ENDBRANCH   4   6
ENDBRANCH   1   4
BRANCH   1  27
HETATM   27  C19 UNL     1       0.783  51.698 -16.346  1.00  0.00     0.138 C 
HETATM   28  O7  UNL     1       0.137  50.985 -15.252  1.00  0.00    -0.368 OA
HETATM   29  C20 UNL     1       1.121  50.673 -14.224  1.00  0.00     0.114 C 
HETATM   30  C21 UNL     1       1.500  49.203 -14.461  1.00  0.00     0.052 C 
HETATM   31  C32 UNL     1       2.294  51.608 -14.521  1.00  0.00     0.050 C 
HETATM   32  C33 UNL     1       2.288  51.677 -16.037  1.00  0.00     0.014 C 
HETATM   33  C34 UNL     1       3.093  52.855 -16.563  1.00  0.00     0.012 C 
BRANCH  29  34
HETATM   34  C22 UNL     1       0.474  50.898 -12.811  1.00  0.00     0.197 C 
HETATM   35  O9  UNL     1      -0.932  50.583 -12.846  1.00  0.00    -0.338 OA
HETATM   36  C23 UNL     1      -1.676  51.477 -11.966  1.00  0.00     0.090 C 
HETATM   37  C29 UNL     1      -0.622  52.372 -11.305  1.00  0.00     0.050 C 
HETATM   38  C30 UNL     1       0.558  52.332 -12.264  1.00  0.00     0.050 C 
HETATM   39  C31 UNL     1       1.835  52.736 -11.540  1.00  0.00     0.015 C 
BRANCH  34  40
HETATM   40  O8  UNL     1       1.044  49.972 -11.889  1.00  0.00    -0.363 OA
HETATM   41  H36 UNL     1       1.168  49.163 -12.428  1.00  0.00     0.213 HD
ENDBRANCH  34  40
BRANCH  36  42
HETATM   42  C24 UNL     1      -2.597  52.306 -12.888  1.00  0.00     0.036 C 
HETATM   43  C25 UNL     1      -3.132  51.545 -14.097  1.00  0.00     0.008 C 
ENDBRANCH  36  42
BRANCH  36  44
HETATM   44  C26 UNL     1      -2.421  50.585 -10.922  1.00  0.00     0.152 C 
BRANCH  44  45
HETATM   45  O10 UNL     1      -1.489  49.606 -10.412  1.00  0.00    -0.393 OA
HETATM   46  H43 UNL     1      -0.970  49.295 -11.180  1.00  0.00     0.210 HD
ENDBRANCH  44  45
BRANCH  44  47
HETATM   47  C27 UNL     1      -2.989  51.297  -9.683  1.00  0.00     0.030 C 
HETATM   48  C28 UNL     1      -2.366  50.890  -8.356  1.00  0.00     0.007 C 
ENDBRANCH  44  47
ENDBRANCH  36  44
ENDBRANCH  29  34
ENDBRANCH   1  27
TORSDOF 18
ENDMDL
MODEL 3
REMARK minimizedAffinity -8.75004578
REMARK CNNscore 0.507802904
REMARK CNNaffinity 6.8827877
REMARK  18 active torsions:
REMARK  status: ('A' for Active; 'I' for Inactive)
REMARK    1  A    between atoms: C2_2  and  C3_3 
REMARK    2  A    between atoms: C3_3  and  C4_4 
REMARK    3  A    between atoms: C3_3  and  C19_25 
REMARK    4  A    between atoms: C4_4  and  C5_6 
REMARK    5  A    between atoms: C5_6  and  C7_8 
REMARK    6  A    between atoms: C7_8  and  O2_9 
REMARK    7  A    between atoms: C7_8  and  C8_10 
REMARK    8  A    between atoms: C8_10  and  C10_12 
REMARK    9  A    between atoms: C11_14  and  C12_15 
REMARK   10  A    between atoms: C12_15  and  C13_16 
REMARK   11  A    between atoms: C13_16  and  O5_18 
REMARK   12  A    between atoms: O5_18  and  O6_19 
REMARK   13  A    between atoms: C20_27  and  C22_29 
REMARK   14  A    between atoms: C22_29  and  O8_30 
REMARK   15  A    between atoms: C23_32  and  C24_33 
REMARK   16  A    between atoms: C23_32  and  C26_35 
REMARK   17  A    between atoms: C26_35  and  O10_36 
REMARK   18  A    between atoms: C26_35  and  C27_37 
ROOT
HETATM    1  C3  UNL     1      -3.282  47.334 -21.629  1.00  0.00     0.085 C 
ENDROOT
BRANCH   1   2
HETATM    2  C2  UNL     1      -1.759  47.284 -21.858  1.00  0.00     0.010 C 
HETATM    3  C1  UNL     1      -0.940  48.236 -21.003  1.00  0.00     0.006 C 
ENDBRANCH   1   2
BRANCH   1   4
HETATM    4  C4  UNL     1      -3.632  47.284 -20.140  1.00  0.00     0.139 C 
HETATM    5  O1  UNL     1      -3.474  46.243 -19.491  1.00  0.00    -0.297 OA
BRANCH   4   6
HETATM    6  C5  UNL     1      -4.177  48.537 -19.433  1.00  0.00     0.081 C 
HETATM    7  C6  UNL     1      -5.620  48.319 -18.977  1.00  0.00     0.020 C 
BRANCH   6   8
HETATM    8  C7  UNL     1      -3.230  49.038 -18.326  1.00  0.00     0.135 C 
BRANCH   8   9
HETATM    9  O2  UNL     1      -2.088  48.186 -18.234  1.00  0.00    -0.394 OA
HETATM   10  H12 UNL     1      -1.502  48.382 -18.997  1.00  0.00     0.210 HD
ENDBRANCH   8   9
BRANCH   8  11
HETATM   11  C8  UNL     1      -2.725  50.514 -18.362  1.00  0.00     0.040 C 
HETATM   12  C9  UNL     1      -3.200  51.312 -19.576  1.00  0.00     0.015 C 
BRANCH  11  13
HETATM   13  C10 UNL     1      -1.244  50.808 -17.958  1.00  0.00     0.132 C 
HETATM   14  O3  UNL     1      -0.930  52.121 -18.474  1.00  0.00    -0.379 OA
HETATM   15  C11 UNL     1       0.483  52.380 -18.550  1.00  0.00     0.135 C 
HETATM   16  C14 UNL     1       1.045  52.434 -17.118  1.00  0.00     0.011 C 
HETATM   17  C15 UNL     1       2.554  52.664 -17.070  1.00  0.00     0.012 C 
HETATM   18  C16 UNL     1       0.706  51.124 -16.391  1.00  0.00     0.013 C 
HETATM   19  C17 UNL     1      -0.801  50.790 -16.474  1.00  0.00     0.011 C 
HETATM   20  C18 UNL     1      -1.047  49.475 -15.736  1.00  0.00     0.012 C 
BRANCH  15  21
HETATM   21  C12 UNL     1       0.649  53.691 -19.319  1.00  0.00     0.146 C 
BRANCH  21  22
HETATM   22  C13 UNL     1       1.343  53.433 -20.628  1.00  0.00     0.291 C 
HETATM   23  O4  UNL     1       1.247  52.399 -21.277  1.00  0.00    -0.263 OA
BRANCH  22  24
HETATM   24  O5  UNL     1       2.123  54.491 -20.995  1.00  0.00    -0.161 OA
BRANCH  24  25
HETATM   25  O6  UNL     1       1.729  54.889 -22.353  1.00  0.00    -0.242 OA
HETATM   26  H21 UNL     1       0.759  54.852 -22.228  1.00  0.00     0.254 HD
ENDBRANCH  24  25
ENDBRANCH  22  24
ENDBRANCH  21  22
ENDBRANCH  15  21
ENDBRANCH  11  13
ENDBRANCH   8  11
ENDBRANCH   6   8
ENDBRANCH   4   6
ENDBRANCH   1   4
BRANCH   1  27
HETATM   27  C19 UNL     1      -3.963  48.547 -22.303  1.00  0.00     0.138 C 
HETATM   28  O7  UNL     1      -3.016  49.182 -23.209  1.00  0.00    -0.368 OA
HETATM   29  C20 UNL     1      -3.646  49.390 -24.506  1.00  0.00     0.114 C 
HETATM   30  C21 UNL     1      -3.142  48.238 -25.389  1.00  0.00     0.052 C 
HETATM   31  C32 UNL     1      -5.145  49.268 -24.228  1.00  0.00     0.050 C 
HETATM   32  C33 UNL     1      -5.196  48.200 -23.152  1.00  0.00     0.014 C 
HETATM   33  C34 UNL     1      -6.528  48.185 -22.418  1.00  0.00     0.012 C 
BRANCH  29  34
HETATM   34  C22 UNL     1      -3.217  50.795 -25.064  1.00  0.00     0.197 C 
HETATM   35  O9  UNL     1      -2.168  50.649 -26.040  1.00  0.00    -0.338 OA
HETATM   36  C23 UNL     1      -1.238  51.769 -25.958  1.00  0.00     0.090 C 
HETATM   37  C29 UNL     1      -1.805  52.695 -24.875  1.00  0.00     0.050 C 
HETATM   38  C30 UNL     1      -2.672  51.783 -24.021  1.00  0.00     0.050 C 
HETATM   39  C31 UNL     1      -3.682  52.607 -23.235  1.00  0.00     0.015 C 
BRANCH  34  40
HETATM   40  O8  UNL     1      -4.315  51.364 -25.773  1.00  0.00    -0.363 OA
HETATM   41  H36 UNL     1      -4.732  50.591 -26.206  1.00  0.00     0.213 HD
ENDBRANCH  34  40
BRANCH  36  42
HETATM   42  C24 UNL     1       0.112  51.166 -25.510  1.00  0.00     0.036 C 
HETATM   43  C25 UNL     1       1.018  52.135 -24.758  1.00  0.00     0.008 C 
ENDBRANCH  36  42
BRANCH  36  44
HETATM   44  C26 UNL     1      -1.217  52.458 -27.361  1.00  0.00     0.152 C 
BRANCH  44  45
HETATM   45  O10 UNL     1      -2.087  53.611 -27.315  1.00  0.00    -0.393 OA
HETATM   46  H43 UNL     1      -2.879  53.337 -26.812  1.00  0.00     0.210 HD
ENDBRANCH  44  45
BRANCH  44  47
HETATM   47  C27 UNL     1       0.141  52.986 -27.853  1.00  0.00     0.030 C 
HETATM   48  C28 UNL     1       1.017  51.965 -28.563  1.00  0.00     0.007 C 
ENDBRANCH  44  47
ENDBRANCH  36  44
ENDBRANCH  29  34
ENDBRANCH   1  27
TORSDOF 18
ENDMDL
MODEL 4
REMARK minimizedAffinity -7.71012115
REMARK CNNscore 0.470559359
REMARK CNNaffinity 7.05124283
REMARK  18 active torsions:
REMARK  status: ('A' for Active; 'I' for Inactive)
REMARK    1  A    between atoms: C2_2  and  C3_3 
REMARK    2  A    between atoms: C3_3  and  C4_4 
REMARK    3  A    between atoms: C3_3  and  C19_25 
REMARK    4  A    between atoms: C4_4  and  C5_6 
REMARK    5  A    between atoms: C5_6  and  C7_8 
REMARK    6  A    between atoms: C7_8  and  O2_9 
REMARK    7  A    between atoms: C7_8  and  C8_10 
REMARK    8  A    between atoms: C8_10  and  C10_12 
REMARK    9  A    between atoms: C11_14  and  C12_15 
REMARK   10  A    between atoms: C12_15  and  C13_16 
REMARK   11  A    between atoms: C13_16  and  O5_18 
REMARK   12  A    between atoms: O5_18  and  O6_19 
REMARK   13  A    between atoms: C20_27  and  C22_29 
REMARK   14  A    between atoms: C22_29  and  O8_30 
REMARK   15  A    between atoms: C23_32  and  C24_33 
REMARK   16  A    between atoms: C23_32  and  C26_35 
REMARK   17  A    between atoms: C26_35  and  O10_36 
REMARK   18  A    between atoms: C26_35  and  C27_37 
ROOT
HETATM    1  C3  UNL     1      -3.330  48.654 -18.747  1.00  0.00     0.085 C 
ENDROOT
BRANCH   1   2
HETATM    2  C2  UNL     1      -4.833  48.816 -18.448  1.00  0.00     0.010 C 
HETATM    3  C1  UNL     1      -5.772  48.212 -19.478  1.00  0.00     0.006 C 
ENDBRANCH   1   2
BRANCH   1   4
HETATM    4  C4  UNL     1      -2.727  49.937 -19.324  1.00  0.00     0.139 C 
HETATM    5  O1  UNL     1      -2.929  51.028 -18.777  1.00  0.00    -0.297 OA
BRANCH   4   6
HETATM    6  C5  UNL     1      -1.853  49.878 -20.588  1.00  0.00     0.081 C 
HETATM    7  C6  UNL     1      -1.157  48.521 -20.706  1.00  0.00     0.020 C 
BRANCH   6   8
HETATM    8  C7  UNL     1      -2.625  50.307 -21.850  1.00  0.00     0.135 C 
BRANCH   8   9
HETATM    9  O2  UNL     1      -4.016  50.432 -21.555  1.00  0.00    -0.394 OA
HETATM   10  H12 UNL     1      -4.144  51.260 -21.043  1.00  0.00     0.210 HD
ENDBRANCH   8   9
BRANCH   8  11
HETATM   11  C8  UNL     1      -2.182  51.591 -22.619  1.00  0.00     0.040 C 
HETATM   12  C9  UNL     1      -3.332  52.373 -23.253  1.00  0.00     0.015 C 
BRANCH  11  13
HETATM   13  C10 UNL     1      -0.901  51.524 -23.512  1.00  0.00     0.132 C 
HETATM   14  O3  UNL     1      -1.349  51.629 -24.882  1.00  0.00    -0.379 OA
HETATM   15  C11 UNL     1      -0.369  51.185 -25.837  1.00  0.00     0.135 C 
HETATM   16  C14 UNL     1       0.825  52.155 -25.794  1.00  0.00     0.011 C 
HETATM   17  C15 UNL     1       1.956  51.763 -26.743  1.00  0.00     0.012 C 
HETATM   18  C16 UNL     1       1.367  52.230 -24.359  1.00  0.00     0.013 C 
HETATM   19  C17 UNL     1       0.251  52.543 -23.335  1.00  0.00     0.011 C 
HETATM   20  C18 UNL     1       0.873  52.590 -21.941  1.00  0.00     0.012 C 
BRANCH  15  21
HETATM   21  C12 UNL     1      -1.068  51.140 -27.196  1.00  0.00     0.146 C 
BRANCH  21  22
HETATM   22  C13 UNL     1      -2.373  51.884 -27.125  1.00  0.00     0.291 C 
HETATM   23  O4  UNL     1      -3.453  51.376 -26.852  1.00  0.00    -0.263 OA
BRANCH  22  24
HETATM   24  O5  UNL     1      -2.211  53.204 -27.433  1.00  0.00    -0.161 OA
BRANCH  24  25
HETATM   25  O6  UNL     1      -1.135  53.302 -28.429  1.00  0.00    -0.242 OA
HETATM   26  H21 UNL     1      -1.418  52.564 -29.007  1.00  0.00     0.254 HD
ENDBRANCH  24  25
ENDBRANCH  22  24
ENDBRANCH  21  22
ENDBRANCH  15  21
ENDBRANCH  11  13
ENDBRANCH   8  11
ENDBRANCH   6   8
ENDBRANCH   4   6
ENDBRANCH   1   4
BRANCH   1  27
HETATM   27  C19 UNL     1      -2.510  48.173 -17.528  1.00  0.00     0.138 C 
HETATM   28  O7  UNL     1      -1.765  49.300 -16.982  1.00  0.00    -0.368 OA
HETATM   29  C20 UNL     1      -1.970  49.368 -15.541  1.00  0.00     0.114 C 
HETATM   30  C21 UNL     1      -3.034  50.458 -15.337  1.00  0.00     0.052 C 
HETATM   31  C32 UNL     1      -2.505  47.986 -15.164  1.00  0.00     0.050 C 
HETATM   32  C33 UNL     1      -3.353  47.619 -16.368  1.00  0.00     0.014 C 
HETATM   33  C34 UNL     1      -3.663  46.131 -16.421  1.00  0.00     0.012 C 
BRANCH  29  34
HETATM   34  C22 UNL     1      -0.609  49.732 -14.847  1.00  0.00     0.197 C 
HETATM   35  O9  UNL     1      -0.367  51.150 -14.927  1.00  0.00    -0.338 OA
HETATM   36  C23 UNL     1       1.058  51.416 -15.085  1.00  0.00     0.090 C 
HETATM   37  C29 UNL     1       1.738  50.042 -15.046  1.00  0.00     0.050 C 
HETATM   38  C30 UNL     1       0.640  49.070 -15.450  1.00  0.00     0.050 C 
HETATM   39  C31 UNL     1       0.987  47.663 -14.983  1.00  0.00     0.015 C 
BRANCH  34  40
HETATM   40  O8  UNL     1      -0.710  49.444 -13.455  1.00  0.00    -0.363 OA
HETATM   41  H36 UNL     1      -1.635  49.684 -13.239  1.00  0.00     0.213 HD
ENDBRANCH  34  40
BRANCH  36  42
HETATM   42  C24 UNL     1       1.213  52.063 -16.479  1.00  0.00     0.036 C 
HETATM   43  C25 UNL     1       2.584  52.679 -16.739  1.00  0.00     0.008 C 
ENDBRANCH  36  42
BRANCH  36  44
HETATM   44  C26 UNL     1       1.498  52.318 -13.888  1.00  0.00     0.152 C 
BRANCH  44  45
HETATM   45  O10 UNL     1       0.338  53.030 -13.404  1.00  0.00    -0.393 OA
HETATM   46  H43 UNL     1      -0.160  53.314 -14.196  1.00  0.00     0.210 HD
ENDBRANCH  44  45
BRANCH  44  47
HETATM   47  C27 UNL     1       2.083  51.601 -12.659  1.00  0.00     0.030 C 
HETATM   48  C28 UNL     1       2.770  52.504 -11.646  1.00  0.00     0.007 C 
ENDBRANCH  44  47
ENDBRANCH  36  44
ENDBRANCH  29  34
ENDBRANCH   1  27
TORSDOF 18
ENDMDL
MODEL 5
REMARK minimizedAffinity -8.61959839
REMARK CNNscore 0.448296756
REMARK CNNaffinity 6.90808868
REMARK  18 active torsions:
REMARK  status: ('A' for Active; 'I' for Inactive)
REMARK    1  A    between atoms: C2_2  and  C3_3 
REMARK    2  A    between atoms: C3_3  and  C4_4 
REMARK    3  A    between atoms: C3_3  and  C19_25 
REMARK    4  A    between atoms: C4_4  and  C5_6 
REMARK    5  A    between atoms: C5_6  and  C7_8 
REMARK    6  A    between atoms: C7_8  and  O2_9 
REMARK    7  A    between atoms: C7_8  and  C8_10 
REMARK    8  A    between atoms: C8_10  and  C10_12 
REMARK    9  A    between atoms: C11_14  and  C12_15 
REMARK   10  A    between atoms: C12_15  and  C13_16 
REMARK   11  A    between atoms: C13_16  and  O5_18 
REMARK   12  A    between atoms: O5_18  and  O6_19 
REMARK   13  A    between atoms: C20_27  and  C22_29 
REMARK   14  A    between atoms: C22_29  and  O8_30 
REMARK   15  A    between atoms: C23_32  and  C24_33 
REMARK   16  A    between atoms: C23_32  and  C26_35 
REMARK   17  A    between atoms: C26_35  and  O10_36 
REMARK   18  A    between atoms: C26_35  and  C27_37 
ROOT
HETATM    1  C3  UNL     1       0.668  50.355 -16.126  1.00  0.00     0.085 C 
ENDROOT
BRANCH   1   2
HETATM    2  C2  UNL     1       0.107  49.240 -15.222  1.00  0.00     0.010 C 
HETATM    3  C1  UNL     1       0.927  47.962 -15.178  1.00  0.00     0.006 C 
ENDBRANCH   1   2
BRANCH   1   4
HETATM    4  C4  UNL     1      -0.367  50.827 -17.150  1.00  0.00     0.139 C 
HETATM    5  O1  UNL     1      -1.411  51.379 -16.782  1.00  0.00    -0.297 OA
BRANCH   4   6
HETATM    6  C5  UNL     1      -0.112  50.626 -18.654  1.00  0.00     0.081 C 
HETATM    7  C6  UNL     1      -0.822  49.371 -19.163  1.00  0.00     0.020 C 
BRANCH   6   8
HETATM    8  C7  UNL     1      -0.408  51.898 -19.470  1.00  0.00     0.135 C 
BRANCH   8   9
HETATM    9  O2  UNL     1       0.088  53.048 -18.783  1.00  0.00    -0.394 OA
HETATM   10  H12 UNL     1       1.065  53.061 -18.882  1.00  0.00     0.210 HD
ENDBRANCH   8   9
BRANCH   8  11
HETATM   11  C8  UNL     1       0.069  51.984 -20.953  1.00  0.00     0.040 C 
HETATM   12  C9  UNL     1       1.336  52.814 -21.160  1.00  0.00     0.015 C 
BRANCH  11  13
HETATM   13  C10 UNL     1      -1.003  52.186 -22.074  1.00  0.00     0.132 C 
HETATM   14  O3  UNL     1      -0.335  51.936 -23.330  1.00  0.00    -0.379 OA
HETATM   15  C11 UNL     1      -1.044  52.462 -24.466  1.00  0.00     0.135 C 
HETATM   16  C14 UNL     1      -2.362  51.681 -24.620  1.00  0.00     0.011 C 
HETATM   17  C15 UNL     1      -3.227  52.179 -25.776  1.00  0.00     0.012 C 
HETATM   18  C16 UNL     1      -3.160  51.771 -23.311  1.00  0.00     0.013 C 
HETATM   19  C17 UNL     1      -2.311  51.359 -22.087  1.00  0.00     0.011 C 
HETATM   20  C18 UNL     1      -3.176  51.485 -20.833  1.00  0.00     0.012 C 
BRANCH  15  21
HETATM   21  C12 UNL     1      -0.111  52.324 -25.670  1.00  0.00     0.146 C 
BRANCH  21  22
HETATM   22  C13 UNL     1      -0.060  53.621 -26.429  1.00  0.00     0.291 C 
HETATM   23  O4  UNL     1      -0.239  53.732 -27.635  1.00  0.00    -0.263 OA
BRANCH  22  24
HETATM   24  O5  UNL     1       0.242  54.668 -25.607  1.00  0.00    -0.161 OA
BRANCH  24  25
HETATM   25  O6  UNL     1       0.267  55.888 -26.424  1.00  0.00    -0.242 OA
HETATM   26  H21 UNL     1      -0.550  55.723 -26.938  1.00  0.00     0.254 HD
ENDBRANCH  24  25
ENDBRANCH  22  24
ENDBRANCH  21  22
ENDBRANCH  15  21
ENDBRANCH  11  13
ENDBRANCH   8  11
ENDBRANCH   6   8
ENDBRANCH   4   6
ENDBRANCH   1   4
BRANCH   1  27
HETATM   27  C19 UNL     1       1.232  51.558 -15.337  1.00  0.00     0.138 C 
HETATM   28  O7  UNL     1       1.023  51.333 -13.913  1.00  0.00    -0.368 OA
HETATM   29  C20 UNL     1       2.268  51.570 -13.193  1.00  0.00     0.114 C 
HETATM   30  C21 UNL     1       2.860  50.175 -12.943  1.00  0.00     0.052 C 
HETATM   31  C32 UNL     1       3.126  52.377 -14.168  1.00  0.00     0.050 C 
HETATM   32  C33 UNL     1       2.741  51.789 -15.513  1.00  0.00     0.014 C 
HETATM   33  C34 UNL     1       3.147  52.687 -16.672  1.00  0.00     0.012 C 
BRANCH  29  34
HETATM   34  C22 UNL     1       1.949  52.328 -11.855  1.00  0.00     0.197 C 
HETATM   35  O9  UNL     1       3.102  53.068 -11.409  1.00  0.00    -0.338 OA
HETATM   36  C23 UNL     1       3.175  53.068  -9.953  1.00  0.00     0.090 C 
HETATM   37  C29 UNL     1       1.931  52.307  -9.480  1.00  0.00     0.050 C 
HETATM   38  C30 UNL     1       1.551  51.436 -10.668  1.00  0.00     0.050 C 
HETATM   39  C31 UNL     1       0.093  51.012 -10.562  1.00  0.00     0.015 C 
BRANCH  34  40
HETATM   40  O8  UNL     1       0.945  53.308 -12.107  1.00  0.00    -0.363 OA
HETATM   41  H36 UNL     1       1.168  53.635 -13.003  1.00  0.00     0.213 HD
ENDBRANCH  34  40
BRANCH  36  42
HETATM   42  C24 UNL     1       4.461  52.291  -9.595  1.00  0.00     0.036 C 
HETATM   43  C25 UNL     1       5.705  53.161  -9.453  1.00  0.00     0.008 C 
ENDBRANCH  36  42
BRANCH  36  44
HETATM   44  C26 UNL     1       3.156  54.560  -9.487  1.00  0.00     0.152 C 
BRANCH  44  45
HETATM   45  O10 UNL     1       3.540  54.607  -8.096  1.00  0.00    -0.393 OA
HETATM   46  H43 UNL     1       3.091  53.856  -7.661  1.00  0.00     0.210 HD
ENDBRANCH  44  45
BRANCH  44  47
HETATM   47  C27 UNL     1       4.112  55.523 -10.211  1.00  0.00     0.030 C 
HETATM   48  C28 UNL     1       3.453  56.473 -11.199  1.00  0.00     0.007 C 
ENDBRANCH  44  47
ENDBRANCH  36  44
ENDBRANCH  29  34
ENDBRANCH   1  27
TORSDOF 18
ENDMDL
MODEL 6
REMARK minimizedAffinity -8.50166512
REMARK CNNscore 0.417236388
REMARK CNNaffinity 6.70226479
REMARK  18 active torsions:
REMARK  status: ('A' for Active; 'I' for Inactive)
REMARK    1  A    between atoms: C2_2  and  C3_3 
REMARK    2  A    between atoms: C3_3  and  C4_4 
REMARK    3  A    between atoms: C3_3  and  C19_25 
REMARK    4  A    between atoms: C4_4  and  C5_6 
REMARK    5  A    between atoms: C5_6  and  C7_8 
REMARK    6  A    between atoms: C7_8  and  O2_9 
REMARK    7  A    between atoms: C7_8  and  C8_10 
REMARK    8  A    between atoms: C8_10  and  C10_12 
REMARK    9  A    between atoms: C11_14  and  C12_15 
REMARK   10  A    between atoms: C12_15  and  C13_16 
REMARK   11  A    between atoms: C13_16  and  O5_18 
REMARK   12  A    between atoms: O5_18  and  O6_19 
REMARK   13  A    between atoms: C20_27  and  C22_29 
REMARK   14  A    between atoms: C22_29  and  O8_30 
REMARK   15  A    between atoms: C23_32  and  C24_33 
REMARK   16  A    between atoms: C23_32  and  C26_35 
REMARK   17  A    between atoms: C26_35  and  O10_36 
REMARK   18  A    between atoms: C26_35  and  C27_37 
ROOT
HETATM    1  C3  UNL     1      -0.501  52.170 -19.855  1.00  0.00     0.085 C 
ENDROOT
BRANCH   1   2
HETATM    2  C2  UNL     1       0.068  53.541 -19.444  1.00  0.00     0.010 C 
HETATM    3  C1  UNL     1       1.220  54.051 -20.294  1.00  0.00     0.006 C 
ENDBRANCH   1   2
BRANCH   1   4
HETATM    4  C4  UNL     1      -0.185  51.843 -21.316  1.00  0.00     0.139 C 
HETATM    5  O1  UNL     1       0.850  51.234 -21.616  1.00  0.00    -0.297 OA
BRANCH   4   6
HETATM    6  C5  UNL     1      -1.161  52.261 -22.430  1.00  0.00     0.081 C 
HETATM    7  C6  UNL     1      -0.432  52.400 -23.767  1.00  0.00     0.020 C 
BRANCH   6   8
HETATM    8  C7  UNL     1      -2.410  51.361 -22.478  1.00  0.00     0.135 C 
BRANCH   8   9
HETATM    9  O2  UNL     1      -2.966  51.224 -21.171  1.00  0.00    -0.394 OA
HETATM   10  H12 UNL     1      -3.426  52.062 -20.948  1.00  0.00     0.210 HD
ENDBRANCH   8   9
BRANCH   8  11
HETATM   11  C8  UNL     1      -3.571  51.716 -23.458  1.00  0.00     0.040 C 
HETATM   12  C9  UNL     1      -4.768  52.397 -22.794  1.00  0.00     0.015 C 
BRANCH  11  13
HETATM   13  C10 UNL     1      -3.970  50.676 -24.555  1.00  0.00     0.132 C 
HETATM   14  O3  UNL     1      -3.145  50.956 -25.707  1.00  0.00    -0.379 OA
HETATM   15  C11 UNL     1      -3.649  50.376 -26.923  1.00  0.00     0.135 C 
HETATM   16  C14 UNL     1      -3.558  48.844 -26.804  1.00  0.00     0.011 C 
HETATM   17  C15 UNL     1      -4.106  48.110 -28.027  1.00  0.00     0.012 C 
HETATM   18  C16 UNL     1      -4.321  48.386 -25.552  1.00  0.00     0.013 C 
HETATM   19  C17 UNL     1      -3.870  49.154 -24.288  1.00  0.00     0.011 C 
HETATM   20  C18 UNL     1      -4.680  48.645 -23.097  1.00  0.00     0.012 C 
BRANCH  15  21
HETATM   21  C12 UNL     1      -2.809  50.948 -28.065  1.00  0.00     0.146 C 
BRANCH  21  22
HETATM   22  C13 UNL     1      -1.713  51.815 -27.510  1.00  0.00     0.291 C 
HETATM   23  O4  UNL     1      -0.623  51.405 -27.132  1.00  0.00    -0.263 OA
BRANCH  22  24
HETATM   24  O5  UNL     1      -2.096  53.123 -27.449  1.00  0.00    -0.161 OA
BRANCH  24  25
HETATM   25  O6  UNL     1      -0.943  53.907 -26.984  1.00  0.00    -0.242 OA
HETATM   26  H21 UNL     1      -0.260  53.490 -27.548  1.00  0.00     0.254 HD
ENDBRANCH  24  25
ENDBRANCH  22  24
ENDBRANCH  21  22
ENDBRANCH  15  21
ENDBRANCH  11  13
ENDBRANCH   8  11
ENDBRANCH   6   8
ENDBRANCH   4   6
ENDBRANCH   1   4
BRANCH   1  27
HETATM   27  C19 UNL     1      -0.047  51.016 -18.933  1.00  0.00     0.138 C 
HETATM   28  O7  UNL     1      -0.067  51.475 -17.551  1.00  0.00    -0.368 OA
HETATM   29  C20 UNL     1      -0.777  50.507 -16.726  1.00  0.00     0.114 C 
HETATM   30  C21 UNL     1      -2.187  51.091 -16.544  1.00  0.00     0.052 C 
HETATM   31  C32 UNL     1      -0.804  49.231 -17.567  1.00  0.00     0.050 C 
HETATM   32  C33 UNL     1      -0.944  49.769 -18.980  1.00  0.00     0.014 C 
HETATM   33  C34 UNL     1      -0.586  48.729 -20.030  1.00  0.00     0.012 C 
BRANCH  29  34
HETATM   34  C22 UNL     1      -0.021  50.349 -15.358  1.00  0.00     0.197 C 
HETATM   35  O9  UNL     1       0.713  51.549 -15.047  1.00  0.00    -0.338 OA
HETATM   36  C23 UNL     1       1.960  51.221 -14.366  1.00  0.00     0.090 C 
HETATM   37  C29 UNL     1       1.951  49.696 -14.207  1.00  0.00     0.050 C 
HETATM   38  C30 UNL     1       1.011  49.211 -15.300  1.00  0.00     0.050 C 
HETATM   39  C31 UNL     1       0.502  47.815 -14.972  1.00  0.00     0.015 C 
BRANCH  34  40
HETATM   40  O8  UNL     1      -0.981  50.213 -14.313  1.00  0.00    -0.363 OA
HETATM   41  H36 UNL     1      -1.706  50.811 -14.591  1.00  0.00     0.213 HD
ENDBRANCH  34  40
BRANCH  36  42
HETATM   42  C24 UNL     1       3.091  51.665 -15.320  1.00  0.00     0.036 C 
HETATM   43  C25 UNL     1       2.664  52.678 -16.377  1.00  0.00     0.008 C 
ENDBRANCH  36  42
BRANCH  36  44
HETATM   44  C26 UNL     1       1.940  51.951 -12.985  1.00  0.00     0.152 C 
BRANCH  44  45
HETATM   45  O10 UNL     1       0.881  52.934 -13.005  1.00  0.00    -0.393 OA
HETATM   46  H43 UNL     1       0.914  53.355 -13.886  1.00  0.00     0.210 HD
ENDBRANCH  44  45
BRANCH  44  47
HETATM   47  C27 UNL     1       1.671  51.081 -11.745  1.00  0.00     0.030 C 
HETATM   48  C28 UNL     1       2.831  50.965 -10.768  1.00  0.00     0.007 C 
ENDBRANCH  44  47
ENDBRANCH  36  44
ENDBRANCH  29  34
ENDBRANCH   1  27
TORSDOF 18
ENDMDL
MODEL 7
REMARK minimizedAffinity -7.97476912
REMARK CNNscore 0.416965187
REMARK CNNaffinity 6.44682693
REMARK  18 active torsions:
REMARK  status: ('A' for Active; 'I' for Inactive)
REMARK    1  A    between atoms: C2_2  and  C3_3 
REMARK    2  A    between atoms: C3_3  and  C4_4 
REMARK    3  A    between atoms: C3_3  and  C19_25 
REMARK    4  A    between atoms: C4_4  and  C5_6 
REMARK    5  A    between atoms: C5_6  and  C7_8 
REMARK    6  A    between atoms: C7_8  and  O2_9 
REMARK    7  A    between atoms: C7_8  and  C8_10 
REMARK    8  A    between atoms: C8_10  and  C10_12 
REMARK    9  A    between atoms: C11_14  and  C12_15 
REMARK   10  A    between atoms: C12_15  and  C13_16 
REMARK   11  A    between atoms: C13_16  and  O5_18 
REMARK   12  A    between atoms: O5_18  and  O6_19 
REMARK   13  A    between atoms: C20_27  and  C22_29 
REMARK   14  A    between atoms: C22_29  and  O8_30 
REMARK   15  A    between atoms: C23_32  and  C24_33 
REMARK   16  A    between atoms: C23_32  and  C26_35 
REMARK   17  A    between atoms: C26_35  and  O10_36 
REMARK   18  A    between atoms: C26_35  and  C27_37 
ROOT
HETATM    1  C3  UNL     1      -0.110  50.594 -16.731  1.00  0.00     0.085 C 
ENDROOT
BRANCH   1   2
HETATM    2  C2  UNL     1      -0.667  49.359 -15.997  1.00  0.00     0.010 C 
HETATM    3  C1  UNL     1       0.322  48.223 -15.789  1.00  0.00     0.006 C 
ENDBRANCH   1   2
BRANCH   1   4
HETATM    4  C4  UNL     1      -1.153  51.214 -17.664  1.00  0.00     0.139 C 
HETATM    5  O1  UNL     1      -2.300  51.446 -17.261  1.00  0.00    -0.297 OA
BRANCH   4   6
HETATM    6  C5  UNL     1      -0.780  51.566 -19.114  1.00  0.00     0.081 C 
HETATM    7  C6  UNL     1       0.375  52.568 -19.151  1.00  0.00     0.020 C 
BRANCH   6   8
HETATM    8  C7  UNL     1      -0.558  50.310 -19.979  1.00  0.00     0.135 C 
BRANCH   8   9
HETATM    9  O2  UNL     1      -1.584  49.351 -19.722  1.00  0.00    -0.394 OA
HETATM   10  H12 UNL     1      -2.406  49.661 -20.160  1.00  0.00     0.210 HD
ENDBRANCH   8   9
BRANCH   8  11
HETATM   11  C8  UNL     1      -0.421  50.462 -21.526  1.00  0.00     0.040 C 
HETATM   12  C9  UNL     1       0.208  51.781 -21.975  1.00  0.00     0.015 C 
BRANCH  11  13
HETATM   13  C10 UNL     1      -1.604  49.989 -22.432  1.00  0.00     0.132 C 
HETATM   14  O3  UNL     1      -1.247  50.338 -23.788  1.00  0.00    -0.379 OA
HETATM   15  C11 UNL     1      -2.371  50.349 -24.687  1.00  0.00     0.135 C 
HETATM   16  C14 UNL     1      -2.890  48.907 -24.832  1.00  0.00     0.011 C 
HETATM   17  C15 UNL     1      -4.116  48.794 -25.737  1.00  0.00     0.012 C 
HETATM   18  C16 UNL     1      -3.230  48.348 -23.442  1.00  0.00     0.013 C 
HETATM   19  C17 UNL     1      -2.055  48.508 -22.451  1.00  0.00     0.011 C 
HETATM   20  C18 UNL     1      -2.480  47.938 -21.099  1.00  0.00     0.012 C 
BRANCH  15  21
HETATM   21  C12 UNL     1      -1.876  50.952 -26.002  1.00  0.00     0.146 C 
BRANCH  21  22
HETATM   22  C13 UNL     1      -2.687  52.172 -26.343  1.00  0.00     0.291 C 
HETATM   23  O4  UNL     1      -3.270  52.873 -25.527  1.00  0.00    -0.263 OA
BRANCH  22  24
HETATM   24  O5  UNL     1      -2.718  52.387 -27.691  1.00  0.00    -0.161 OA
BRANCH  24  25
HETATM   25  O6  UNL     1      -2.132  53.710 -27.947  1.00  0.00    -0.242 OA
HETATM   26  H21 UNL     1      -1.358  53.632 -27.353  1.00  0.00     0.254 HD
ENDBRANCH  24  25
ENDBRANCH  22  24
ENDBRANCH  21  22
ENDBRANCH  15  21
ENDBRANCH  11  13
ENDBRANCH   8  11
ENDBRANCH   6   8
ENDBRANCH   4   6
ENDBRANCH   1   4
BRANCH   1  27
HETATM   27  C19 UNL     1       0.466  51.666 -15.778  1.00  0.00     0.138 C 
HETATM   28  O7  UNL     1      -0.147  51.515 -14.465  1.00  0.00    -0.368 OA
HETATM   29  C20 UNL     1       0.890  51.498 -13.442  1.00  0.00     0.114 C 
HETATM   30  C21 UNL     1       1.096  50.014 -13.100  1.00  0.00     0.052 C 
HETATM   31  C32 UNL     1       2.120  52.090 -14.132  1.00  0.00     0.050 C 
HETATM   32  C33 UNL     1       1.984  51.572 -15.552  1.00  0.00     0.014 C 
HETATM   33  C34 UNL     1       2.852  52.345 -16.532  1.00  0.00     0.012 C 
BRANCH  29  34
HETATM   34  C22 UNL     1       0.399  52.329 -12.202  1.00  0.00     0.197 C 
HETATM   35  O9  UNL     1       1.440  53.212 -11.744  1.00  0.00    -0.338 OA
HETATM   36  C23 UNL     1       1.398  53.340 -10.292  1.00  0.00     0.090 C 
HETATM   37  C29 UNL     1       0.195  52.502  -9.842  1.00  0.00     0.050 C 
HETATM   38  C30 UNL     1      -0.009  51.504 -10.971  1.00  0.00     0.050 C 
HETATM   39  C31 UNL     1      -1.425  50.949 -10.932  1.00  0.00     0.015 C 
BRANCH  34  40
HETATM   40  O8  UNL     1      -0.667  53.182 -12.612  1.00  0.00    -0.363 OA
HETATM   41  H36 UNL     1      -0.405  53.454 -13.516  1.00  0.00     0.213 HD
ENDBRANCH  34  40
BRANCH  36  42
HETATM   42  C24 UNL     1       2.717  52.724  -9.776  1.00  0.00     0.036 C 
HETATM   43  C25 UNL     1       2.625  52.113  -8.382  1.00  0.00     0.008 C 
ENDBRANCH  36  42
BRANCH  36  44
HETATM   44  C26 UNL     1       1.207  54.856  -9.965  1.00  0.00     0.152 C 
BRANCH  44  45
HETATM   45  O10 UNL     1       0.381  54.966  -8.786  1.00  0.00    -0.393 OA
HETATM   46  H43 UNL     1      -0.325  54.298  -8.881  1.00  0.00     0.210 HD
ENDBRANCH  44  45
BRANCH  44  47
HETATM   47  C27 UNL     1       2.479  55.663  -9.655  1.00  0.00     0.030 C 
HETATM   48  C28 UNL     1       3.210  56.216 -10.869  1.00  0.00     0.007 C 
ENDBRANCH  44  47
ENDBRANCH  36  44
ENDBRANCH  29  34
ENDBRANCH   1  27
TORSDOF 18
ENDMDL
MODEL 8
REMARK minimizedAffinity -7.73496532
REMARK CNNscore 0.383628607
REMARK CNNaffinity 6.55874252
REMARK  18 active torsions:
REMARK  status: ('A' for Active; 'I' for Inactive)
REMARK    1  A    between atoms: C2_2  and  C3_3 
REMARK    2  A    between atoms: C3_3  and  C4_4 
REMARK    3  A    between atoms: C3_3  and  C19_25 
REMARK    4  A    between atoms: C4_4  and  C5_6 
REMARK    5  A    between atoms: C5_6  and  C7_8 
REMARK    6  A    between atoms: C7_8  and  O2_9 
REMARK    7  A    between atoms: C7_8  and  C8_10 
REMARK    8  A    between atoms: C8_10  and  C10_12 
REMARK    9  A    between atoms: C11_14  and  C12_15 
REMARK   10  A    between atoms: C12_15  and  C13_16 
REMARK   11  A    between atoms: C13_16  and  O5_18 
REMARK   12  A    between atoms: O5_18  and  O6_19 
REMARK   13  A    between atoms: C20_27  and  C22_29 
REMARK   14  A    between atoms: C22_29  and  O8_30 
REMARK   15  A    between atoms: C23_32  and  C24_33 
REMARK   16  A    between atoms: C23_32  and  C26_35 
REMARK   17  A    between atoms: C26_35  and  O10_36 
REMARK   18  A    between atoms: C26_35  and  C27_37 
ROOT
HETATM    1  C3  UNL     1      -1.779  49.904 -18.257  1.00  0.00     0.085 C 
ENDROOT
BRANCH   1   2
HETATM    2  C2  UNL     1      -2.917  49.001 -17.745  1.00  0.00     0.010 C 
HETATM    3  C1  UNL     1      -2.776  47.524 -18.076  1.00  0.00     0.006 C 
ENDBRANCH   1   2
BRANCH   1   4
HETATM    4  C4  UNL     1      -2.227  50.761 -19.443  1.00  0.00     0.139 C 
HETATM    5  O1  UNL     1      -3.103  51.624 -19.301  1.00  0.00    -0.297 OA
BRANCH   4   6
HETATM    6  C5  UNL     1      -1.584  50.563 -20.826  1.00  0.00     0.081 C 
HETATM    7  C6  UNL     1      -0.474  49.512 -20.763  1.00  0.00     0.020 C 
BRANCH   6   8
HETATM    8  C7  UNL     1      -2.632  50.314 -21.927  1.00  0.00     0.135 C 
BRANCH   8   9
HETATM    9  O2  UNL     1      -3.865  49.892 -21.343  1.00  0.00    -0.394 OA
HETATM   10  H12 UNL     1      -4.293  50.678 -20.938  1.00  0.00     0.210 HD
ENDBRANCH   8   9
BRANCH   8  11
HETATM   11  C8  UNL     1      -2.951  51.448 -22.950  1.00  0.00     0.040 C 
HETATM   12  C9  UNL     1      -4.391  51.958 -22.896  1.00  0.00     0.015 C 
BRANCH  11  13
HETATM   13  C10 UNL     1      -2.382  51.328 -24.402  1.00  0.00     0.132 C 
HETATM   14  O3  UNL     1      -1.101  51.997 -24.398  1.00  0.00    -0.379 OA
HETATM   15  C11 UNL     1      -0.631  52.335 -25.715  1.00  0.00     0.135 C 
HETATM   16  C14 UNL     1      -0.331  51.029 -26.473  1.00  0.00     0.011 C 
HETATM   17  C15 UNL     1       0.139  51.258 -27.908  1.00  0.00     0.012 C 
HETATM   18  C16 UNL     1      -1.590  50.148 -26.485  1.00  0.00     0.013 C 
HETATM   19  C17 UNL     1      -2.167  49.946 -25.064  1.00  0.00     0.011 C 
HETATM   20  C18 UNL     1      -3.415  49.071 -25.169  1.00  0.00     0.012 C 
BRANCH  15  21
HETATM   21  C12 UNL     1       0.597  53.226 -25.529  1.00  0.00     0.146 C 
BRANCH  21  22
HETATM   22  C13 UNL     1       0.304  54.613 -26.032  1.00  0.00     0.291 C 
HETATM   23  O4  UNL     1       0.107  55.587 -25.318  1.00  0.00    -0.263 OA
BRANCH  22  24
HETATM   24  O5  UNL     1       0.255  54.647 -27.396  1.00  0.00    -0.161 OA
BRANCH  24  25
HETATM   25  O6  UNL     1      -1.148  54.475 -27.798  1.00  0.00    -0.242 OA
HETATM   26  H21 UNL     1      -1.550  55.089 -27.151  1.00  0.00     0.254 HD
ENDBRANCH  24  25
ENDBRANCH  22  24
ENDBRANCH  21  22
ENDBRANCH  15  21
ENDBRANCH  11  13
ENDBRANCH   8  11
ENDBRANCH   6   8
ENDBRANCH   4   6
ENDBRANCH   1   4
BRANCH   1  27
HETATM   27  C19 UNL     1      -1.158  50.792 -17.155  1.00  0.00     0.138 C 
HETATM   28  O7  UNL     1      -1.263  50.105 -15.875  1.00  0.00    -0.368 OA
HETATM   29  C20 UNL     1       0.031  50.120 -15.205  1.00  0.00     0.114 C 
HETATM   30  C21 UNL     1       0.639  48.735 -15.472  1.00  0.00     0.052 C 
HETATM   31  C32 UNL     1       0.817  51.223 -15.915  1.00  0.00     0.050 C 
HETATM   32  C33 UNL     1       0.335  51.104 -17.349  1.00  0.00     0.014 C 
HETATM   33  C34 UNL     1       0.656  52.343 -18.170  1.00  0.00     0.012 C 
BRANCH  29  34
HETATM   34  C22 UNL     1      -0.189  50.385 -13.673  1.00  0.00     0.197 C 
HETATM   35  O9  UNL     1      -1.594  50.353 -13.354  1.00  0.00    -0.338 OA
HETATM   36  C23 UNL     1      -1.902  51.322 -12.309  1.00  0.00     0.090 C 
HETATM   37  C29 UNL     1      -0.558  51.955 -11.929  1.00  0.00     0.050 C 
HETATM   38  C30 UNL     1       0.316  51.741 -13.155  1.00  0.00     0.050 C 
HETATM   39  C31 UNL     1       1.786  51.846 -12.776  1.00  0.00     0.015 C 
BRANCH  34  40
HETATM   40  O8  UNL     1       0.390  49.314 -12.932  1.00  0.00    -0.363 OA
HETATM   41  H36 UNL     1       0.211  48.529 -13.489  1.00  0.00     0.213 HD
ENDBRANCH  34  40
BRANCH  36  42
HETATM   42  C24 UNL     1      -2.833  52.366 -12.962  1.00  0.00     0.036 C 
HETATM   43  C25 UNL     1      -3.854  52.984 -12.012  1.00  0.00     0.008 C 
ENDBRANCH  36  42
BRANCH  36  44
HETATM   44  C26 UNL     1      -2.532  50.533 -11.116  1.00  0.00     0.152 C 
BRANCH  44  45
HETATM   45  O10 UNL     1      -2.770  49.174 -11.544  1.00  0.00    -0.393 OA
HETATM   46  H43 UNL     1      -3.120  49.231 -12.455  1.00  0.00     0.210 HD
ENDBRANCH  44  45
BRANCH  44  47
HETATM   47  C27 UNL     1      -1.685  50.420  -9.837  1.00  0.00     0.030 C 
HETATM   48  C28 UNL     1      -2.278  51.086  -8.604  1.00  0.00     0.007 C 
ENDBRANCH  44  47
ENDBRANCH  36  44
ENDBRANCH  29  34
ENDBRANCH   1  27
TORSDOF 18
ENDMDL
MODEL 9
REMARK minimizedAffinity -8.56806374
REMARK CNNscore 0.375500202
REMARK CNNaffinity 6.05825472
REMARK  18 active torsions:
REMARK  status: ('A' for Active; 'I' for Inactive)
REMARK    1  A    between atoms: C2_2  and  C3_3 
REMARK    2  A    between atoms: C3_3  and  C4_4 
REMARK    3  A    between atoms: C3_3  and  C19_25 
REMARK    4  A    between atoms: C4_4  and  C5_6 
REMARK    5  A    between atoms: C5_6  and  C7_8 
REMARK    6  A    between atoms: C7_8  and  O2_9 
REMARK    7  A    between atoms: C7_8  and  C8_10 
REMARK    8  A    between atoms: C8_10  and  C10_12 
REMARK    9  A    between atoms: C11_14  and  C12_15 
REMARK   10  A    between atoms: C12_15  and  C13_16 
REMARK   11  A    between atoms: C13_16  and  O5_18 
REMARK   12  A    between atoms: O5_18  and  O6_19 
REMARK   13  A    between atoms: C20_27  and  C22_29 
REMARK   14  A    between atoms: C22_29  and  O8_30 
REMARK   15  A    between atoms: C23_32  and  C24_33 
REMARK   16  A    between atoms: C23_32  and  C26_35 
REMARK   17  A    between atoms: C26_35  and  O10_36 
REMARK   18  A    between atoms: C26_35  and  C27_37 
ROOT
HETATM    1  C3  UNL     1      -0.616  50.602 -18.302  1.00  0.00     0.085 C 
ENDROOT
BRANCH   1   2
HETATM    2  C2  UNL     1      -1.082  49.148 -18.094  1.00  0.00     0.010 C 
HETATM    3  C1  UNL     1      -1.384  48.372 -19.365  1.00  0.00     0.006 C 
ENDBRANCH   1   2
BRANCH   1   4
HETATM    4  C4  UNL     1      -1.579  51.381 -19.200  1.00  0.00     0.139 C 
HETATM    5  O1  UNL     1      -2.665  51.781 -18.761  1.00  0.00    -0.297 OA
BRANCH   4   6
HETATM    6  C5  UNL     1      -1.201  51.684 -20.660  1.00  0.00     0.081 C 
HETATM    7  C6  UNL     1       0.263  51.330 -20.926  1.00  0.00     0.020 C 
BRANCH   6   8
HETATM    8  C7  UNL     1      -2.195  51.066 -21.660  1.00  0.00     0.135 C 
BRANCH   8   9
HETATM    9  O2  UNL     1      -3.498  51.616 -21.459  1.00  0.00    -0.394 OA
HETATM   10  H12 UNL     1      -3.503  52.526 -21.825  1.00  0.00     0.210 HD
ENDBRANCH   8   9
BRANCH   8  11
HETATM   11  C8  UNL     1      -1.882  51.126 -23.187  1.00  0.00     0.040 C 
HETATM   12  C9  UNL     1      -1.490  52.514 -23.695  1.00  0.00     0.015 C 
BRANCH  11  13
HETATM   13  C10 UNL     1      -2.801  50.334 -24.173  1.00  0.00     0.132 C 
HETATM   14  O3  UNL     1      -2.366  50.678 -25.507  1.00  0.00    -0.379 OA
HETATM   15  C11 UNL     1      -3.340  50.369 -26.520  1.00  0.00     0.135 C 
HETATM   16  C14 UNL     1      -3.493  48.839 -26.596  1.00  0.00     0.011 C 
HETATM   17  C15 UNL     1      -4.537  48.386 -27.615  1.00  0.00     0.012 C 
HETATM   18  C16 UNL     1      -3.869  48.298 -25.208  1.00  0.00     0.013 C 
HETATM   19  C17 UNL     1      -2.895  48.790 -24.113  1.00  0.00     0.011 C 
HETATM   20  C18 UNL     1      -3.345  48.215 -22.771  1.00  0.00     0.012 C 
BRANCH  15  21
HETATM   21  C12 UNL     1      -2.835  50.994 -27.821  1.00  0.00     0.146 C 
BRANCH  21  22
HETATM   22  C13 UNL     1      -1.699  51.935 -27.529  1.00  0.00     0.291 C 
HETATM   23  O4  UNL     1      -0.515  51.625 -27.538  1.00  0.00    -0.263 OA
BRANCH  22  24
HETATM   24  O5  UNL     1      -2.155  53.184 -27.220  1.00  0.00    -0.161 OA
BRANCH  24  25
HETATM   25  O6  UNL     1      -1.975  54.033 -28.406  1.00  0.00    -0.242 OA
HETATM   26  H21 UNL     1      -2.309  53.402 -29.076  1.00  0.00     0.254 HD
ENDBRANCH  24  25
ENDBRANCH  22  24
ENDBRANCH  21  22
ENDBRANCH  15  21
ENDBRANCH  11  13
ENDBRANCH   8  11
ENDBRANCH   6   8
ENDBRANCH   4   6
ENDBRANCH   1   4
BRANCH   1  27
HETATM   27  C19 UNL     1      -0.375  51.364 -16.980  1.00  0.00     0.138 C 
HETATM   28  O7  UNL     1      -1.185  50.763 -15.930  1.00  0.00    -0.368 OA
HETATM   29  C20 UNL     1      -0.356  50.510 -14.758  1.00  0.00     0.114 C 
HETATM   30  C21 UNL     1      -0.009  49.015 -14.826  1.00  0.00     0.052 C 
HETATM   31  C32 UNL     1       0.881  51.383 -14.968  1.00  0.00     0.050 C 
HETATM   32  C33 UNL     1       1.075  51.325 -16.472  1.00  0.00     0.014 C 
HETATM   33  C34 UNL     1       1.988  52.432 -16.978  1.00  0.00     0.012 C 
BRANCH  29  34
HETATM   34  C22 UNL     1      -1.173  50.870 -13.466  1.00  0.00     0.197 C 
HETATM   35  O9  UNL     1      -0.356  51.622 -12.548  1.00  0.00    -0.338 OA
HETATM   36  C23 UNL     1      -0.687  51.276 -11.170  1.00  0.00     0.090 C 
HETATM   37  C29 UNL     1      -1.839  50.268 -11.267  1.00  0.00     0.050 C 
HETATM   38  C30 UNL     1      -1.699  49.672 -12.659  1.00  0.00     0.050 C 
HETATM   39  C31 UNL     1      -3.017  49.050 -13.098  1.00  0.00     0.015 C 
BRANCH  34  40
HETATM   40  O8  UNL     1      -2.241  51.744 -13.823  1.00  0.00    -0.363 OA
HETATM   41  H36 UNL     1      -1.849  52.306 -14.524  1.00  0.00     0.213 HD
ENDBRANCH  34  40
BRANCH  36  42
HETATM   42  C24 UNL     1       0.577  50.607 -10.587  1.00  0.00     0.036 C 
HETATM   43  C25 UNL     1       1.848  50.850 -11.394  1.00  0.00     0.008 C 
ENDBRANCH  36  42
BRANCH  36  44
HETATM   44  C26 UNL     1      -1.125  52.594 -10.454  1.00  0.00     0.152 C 
BRANCH  44  45
HETATM   45  O10 UNL     1      -0.993  52.402  -9.028  1.00  0.00    -0.393 OA
HETATM   46  H43 UNL     1      -1.320  51.501  -8.841  1.00  0.00     0.210 HD
ENDBRANCH  44  45
BRANCH  44  47
HETATM   47  C27 UNL     1      -0.314  53.860 -10.777  1.00  0.00     0.030 C 
HETATM   48  C28 UNL     1      -0.944  55.168 -10.325  1.00  0.00     0.007 C 
ENDBRANCH  44  47
ENDBRANCH  36  44
ENDBRANCH  29  34
ENDBRANCH   1  27
TORSDOF 18
ENDMDL
