MODEL 1
REMARK minimizedAffinity -8.0399456
REMARK  14 active torsions:
REMARK  status: ('A' for Active; 'I' for Inactive)
REMARK    1  A    between atoms: O1_2  and  C2_3 
REMARK    2  A    between atoms: C2_3  and  C3_4 
REMARK    3  A    between atoms: C2_3  and  C24_30 
REMARK    4  A    between atoms: C3_4  and  C5_6 
REMARK    5  A    between atoms: C6_8  and  C8_10 
REMARK    6  A    between atoms: C8_10  and  C9_11 
REMARK    7  A    between atoms: C9_11  and  O3_13 
REMARK    8  A    between atoms: C9_11  and  C11_14 
REMARK    9  A    between atoms: C12_15  and  C13_16 
REMARK   10  A    between atoms: C14_17  and  C16_19 
REMARK   11  A    between atoms: C17_21  and  C18_22 
REMARK   12  A    between atoms: C18_22  and  C19_23 
REMARK   13  A    between atoms: C19_23  and  O6_25 
REMARK   14  A    between atoms: C24_30  and  O7_32 
ROOT
HETATM    1  C9  UNL     1      -0.799   8.774  13.157  1.00  0.00     0.075 C 
HETATM    2  C10 UNL     1      -0.059   8.508  14.472  1.00  0.00     0.050 C 
ENDROOT
BRANCH   1   3
HETATM    3  C8  UNL     1       0.140   8.756  11.925  1.00  0.00     0.082 C 
BRANCH   3   4
HETATM    4  C6  UNL     1       0.939   7.480  11.735  1.00  0.00     0.087 A 
HETATM    5  C5  UNL     1       1.666   7.267  10.410  1.00  0.00     0.163 A 
HETATM    6  O2  UNL     1       0.407   6.645  10.685  1.00  0.00    -0.369 OA
HETATM    7  C7  UNL     1       1.280   6.681  12.960  1.00  0.00     0.049 C 
BRANCH   5   8
HETATM    8  C3  UNL     1       2.821   6.317  10.248  1.00  0.00     0.045 C 
HETATM    9  C4  UNL     1       4.041   6.885  10.989  1.00  0.00     0.015 C 
BRANCH   8  10
HETATM   10  C2  UNL     1       3.156   6.061   8.752  1.00  0.00     0.155 C 
BRANCH  10  11
HETATM   11  O1  UNL     1       3.013   4.645   8.519  1.00  0.00    -0.388 OA
HETATM   12  C1  UNL     1       3.786   3.849   9.407  1.00  0.00     0.202 C 
ENDBRANCH  10  11
BRANCH  10  13
HETATM   13  C24 UNL     1       2.242   6.853   7.771  1.00  0.00     0.143 C 
HETATM   14  C25 UNL     1       2.681   8.302   7.585  1.00  0.00     0.042 C 
BRANCH  13  15
HETATM   15  O7  UNL     1       2.191   6.258   6.472  1.00  0.00    -0.393 OA
HETATM   16  H42 UNL     1       1.691   5.425   6.567  1.00  0.00     0.210 HD
ENDBRANCH  13  15
ENDBRANCH  10  13
ENDBRANCH   8  10
ENDBRANCH   5   8
ENDBRANCH   3   4
ENDBRANCH   1   3
BRANCH   1  17
HETATM   17  O3  UNL     1      -1.402  10.070  13.263  1.00  0.00    -0.386 OA
HETATM   18  H18 UNL     1      -2.044  10.026  13.994  1.00  0.00     0.211 HD
ENDBRANCH   1  17
BRANCH   1  19
HETATM   19  C11 UNL     1      -1.949   7.821  12.887  1.00  0.00     0.010 C 
HETATM   20  C12 UNL     1      -2.291   6.725  13.585  1.00  0.00    -0.001 C 
BRANCH  20  21
HETATM   21  C13 UNL     1      -3.401   5.877  13.201  1.00  0.00     0.005 C 
HETATM   22  C14 UNL     1      -3.389   4.876  12.295  1.00  0.00    -0.055 C 
HETATM   23  C15 UNL     1      -2.135   4.406  11.590  1.00  0.00     0.046 C 
BRANCH  22  24
HETATM   24  C16 UNL     1      -4.633   4.059  11.924  1.00  0.00     0.154 C 
HETATM   25  O4  UNL     1      -5.371   3.813  13.133  1.00  0.00    -0.375 OA
HETATM   26  C17 UNL     1      -6.704   3.314  12.964  1.00  0.00     0.132 C 
HETATM   27  C20 UNL     1      -6.711   2.035  12.119  1.00  0.00     0.033 C 
HETATM   28  C21 UNL     1      -5.857   2.158  10.860  1.00  0.00     0.009 C 
HETATM   29  C22 UNL     1      -4.458   2.718  11.171  1.00  0.00     0.015 C 
HETATM   30  C23 UNL     1      -3.640   1.677  11.955  1.00  0.00     0.012 C 
BRANCH  26  31
HETATM   31  C18 UNL     1      -7.665   4.376  12.422  1.00  0.00     0.141 C 
BRANCH  31  32
HETATM   32  C19 UNL     1      -8.139   5.269  13.532  1.00  0.00     0.141 C 
HETATM   33  O5  UNL     1      -7.526   5.569  14.543  1.00  0.00    -0.650 OA
BRANCH  32  34
HETATM   34  O6  UNL     1      -9.397   5.712  13.340  1.00  0.00    -0.776 OA
HETATM   35  H29 UNL     1      -9.566   6.277  14.125  1.00  0.00     0.167 HD
ENDBRANCH  32  34
ENDBRANCH  31  32
ENDBRANCH  26  31
ENDBRANCH  22  24
ENDBRANCH  20  21
ENDBRANCH   1  19
TORSDOF 14
ENDMDL
MODEL 2
REMARK minimizedAffinity -8.0214777
REMARK  14 active torsions:
REMARK  status: ('A' for Active; 'I' for Inactive)
REMARK    1  A    between atoms: O1_2  and  C2_3 
REMARK    2  A    between atoms: C2_3  and  C3_4 
REMARK    3  A    between atoms: C2_3  and  C24_30 
REMARK    4  A    between atoms: C3_4  and  C5_6 
REMARK    5  A    between atoms: C6_8  and  C8_10 
REMARK    6  A    between atoms: C8_10  and  C9_11 
REMARK    7  A    between atoms: C9_11  and  O3_13 
REMARK    8  A    between atoms: C9_11  and  C11_14 
REMARK    9  A    between atoms: C12_15  and  C13_16 
REMARK   10  A    between atoms: C14_17  and  C16_19 
REMARK   11  A    between atoms: C17_21  and  C18_22 
REMARK   12  A    between atoms: C18_22  and  C19_23 
REMARK   13  A    between atoms: C19_23  and  O6_25 
REMARK   14  A    between atoms: C24_30  and  O7_32 
ROOT
HETATM    1  C9  UNL     1      -2.646   7.815  15.516  1.00  0.00     0.075 C 
HETATM    2  C10 UNL     1      -3.442   9.120  15.622  1.00  0.00     0.050 C 
ENDROOT
BRANCH   1   3
HETATM    3  C8  UNL     1      -3.555   6.561  15.455  1.00  0.00     0.082 C 
BRANCH   3   4
HETATM    4  C6  UNL     1      -4.190   6.283  14.106  1.00  0.00     0.087 A 
HETATM    5  C5  UNL     1      -4.271   4.837  13.623  1.00  0.00     0.163 A 
HETATM    6  O2  UNL     1      -3.255   5.730  13.156  1.00  0.00    -0.369 OA
HETATM    7  C7  UNL     1      -5.028   7.369  13.493  1.00  0.00     0.049 C 
BRANCH   5   8
HETATM    8  C3  UNL     1      -5.241   4.374  12.570  1.00  0.00     0.045 C 
HETATM    9  C4  UNL     1      -6.573   4.013  13.244  1.00  0.00     0.015 C 
BRANCH   8  10
HETATM   10  C2  UNL     1      -4.688   3.166  11.763  1.00  0.00     0.155 C 
BRANCH  10  11
HETATM   11  O1  UNL     1      -5.791   2.604  11.026  1.00  0.00    -0.388 OA
HETATM   12  C1  UNL     1      -5.941   1.204  11.218  1.00  0.00     0.202 C 
ENDBRANCH  10  11
BRANCH  10  13
HETATM   13  C24 UNL     1      -3.539   3.552  10.784  1.00  0.00     0.143 C 
HETATM   14  C25 UNL     1      -2.300   2.676  10.942  1.00  0.00     0.042 C 
BRANCH  13  15
HETATM   15  O7  UNL     1      -3.940   3.471   9.414  1.00  0.00    -0.393 OA
HETATM   16  H42 UNL     1      -4.570   4.202   9.265  1.00  0.00     0.210 HD
ENDBRANCH  13  15
ENDBRANCH  10  13
ENDBRANCH   8  10
ENDBRANCH   5   8
ENDBRANCH   3   4
ENDBRANCH   1   3
BRANCH   1  17
HETATM   17  O3  UNL     1      -1.814   7.728  16.680  1.00  0.00    -0.386 OA
HETATM   18  H18 UNL     1      -1.202   8.486  16.648  1.00  0.00     0.211 HD
ENDBRANCH   1  17
BRANCH   1  19
HETATM   19  C11 UNL     1      -1.692   7.763  14.338  1.00  0.00     0.010 C 
HETATM   20  C12 UNL     1      -0.416   7.342  14.329  1.00  0.00    -0.001 C 
BRANCH  20  21
HETATM   21  C13 UNL     1       0.403   7.373  13.134  1.00  0.00     0.005 C 
HETATM   22  C14 UNL     1       0.702   6.338  12.322  1.00  0.00    -0.055 C 
HETATM   23  C15 UNL     1       0.118   4.952  12.491  1.00  0.00     0.046 C 
BRANCH  22  24
HETATM   24  C16 UNL     1       1.617   6.463  11.098  1.00  0.00     0.154 C 
HETATM   25  O4  UNL     1       2.681   7.368  11.438  1.00  0.00    -0.375 OA
HETATM   26  C17 UNL     1       3.792   7.398  10.533  1.00  0.00     0.132 C 
HETATM   27  C20 UNL     1       3.331   7.701   9.103  1.00  0.00     0.033 C 
HETATM   28  C21 UNL     1       2.125   6.865   8.684  1.00  0.00     0.009 C 
HETATM   29  C22 UNL     1       1.009   6.901   9.744  1.00  0.00     0.015 C 
HETATM   30  C23 UNL     1       0.371   8.301   9.782  1.00  0.00     0.012 C 
BRANCH  26  31
HETATM   31  C18 UNL     1       4.649   6.131  10.612  1.00  0.00     0.141 C 
BRANCH  31  32
HETATM   32  C19 UNL     1       6.011   6.454  11.159  1.00  0.00     0.141 C 
HETATM   33  O5  UNL     1       6.938   6.972  10.558  1.00  0.00    -0.650 OA
BRANCH  32  34
HETATM   34  O6  UNL     1       6.162   6.061  12.439  1.00  0.00    -0.776 OA
HETATM   35  H29 UNL     1       7.078   6.336  12.659  1.00  0.00     0.167 HD
ENDBRANCH  32  34
ENDBRANCH  31  32
ENDBRANCH  26  31
ENDBRANCH  22  24
ENDBRANCH  20  21
ENDBRANCH   1  19
TORSDOF 14
ENDMDL
MODEL 3
REMARK minimizedAffinity -8.0149622
REMARK  14 active torsions:
REMARK  status: ('A' for Active; 'I' for Inactive)
REMARK    1  A    between atoms: O1_2  and  C2_3 
REMARK    2  A    between atoms: C2_3  and  C3_4 
REMARK    3  A    between atoms: C2_3  and  C24_30 
REMARK    4  A    between atoms: C3_4  and  C5_6 
REMARK    5  A    between atoms: C6_8  and  C8_10 
REMARK    6  A    between atoms: C8_10  and  C9_11 
REMARK    7  A    between atoms: C9_11  and  O3_13 
REMARK    8  A    between atoms: C9_11  and  C11_14 
REMARK    9  A    between atoms: C12_15  and  C13_16 
REMARK   10  A    between atoms: C14_17  and  C16_19 
REMARK   11  A    between atoms: C17_21  and  C18_22 
REMARK   12  A    between atoms: C18_22  and  C19_23 
REMARK   13  A    between atoms: C19_23  and  O6_25 
REMARK   14  A    between atoms: C24_30  and  O7_32 
ROOT
HETATM    1  C9  UNL     1      -4.797   3.174  11.659  1.00  0.00     0.075 C 
HETATM    2  C10 UNL     1      -4.626   1.655  11.549  1.00  0.00     0.050 C 
ENDROOT
BRANCH   1   3
HETATM    3  C8  UNL     1      -5.332   3.619  13.043  1.00  0.00     0.082 C 
BRANCH   3   4
HETATM    4  C6  UNL     1      -6.835   3.805  13.130  1.00  0.00     0.087 A 
HETATM    5  C5  UNL     1      -7.393   5.225  13.157  1.00  0.00     0.163 A 
HETATM    6  O2  UNL     1      -7.245   4.453  14.352  1.00  0.00    -0.369 OA
HETATM    7  C7  UNL     1      -7.704   2.621  12.813  1.00  0.00     0.049 C 
BRANCH   5   8
HETATM    8  C3  UNL     1      -8.814   5.559  12.790  1.00  0.00     0.045 C 
HETATM    9  C4  UNL     1      -8.888   5.827  11.279  1.00  0.00     0.015 C 
BRANCH   8  10
HETATM   10  C2  UNL     1      -9.349   6.777  13.592  1.00  0.00     0.155 C 
BRANCH  10  11
HETATM   11  O1  UNL     1     -10.764   6.577  13.778  1.00  0.00    -0.388 OA
HETATM   12  C1  UNL     1     -11.560   7.560  13.130  1.00  0.00     0.202 C 
ENDBRANCH  10  11
BRANCH  10  13
HETATM   13  C24 UNL     1      -8.655   6.958  14.976  1.00  0.00     0.143 C 
HETATM   14  C25 UNL     1      -7.937   8.296  15.113  1.00  0.00     0.042 C 
BRANCH  13  15
HETATM   15  O7  UNL     1      -9.576   6.860  16.065  1.00  0.00    -0.393 OA
HETATM   16  H42 UNL     1      -9.853   5.925  16.112  1.00  0.00     0.210 HD
ENDBRANCH  13  15
ENDBRANCH  10  13
ENDBRANCH   8  10
ENDBRANCH   5   8
ENDBRANCH   3   4
ENDBRANCH   1   3
BRANCH   1  17
HETATM   17  O3  UNL     1      -5.734   3.571  10.649  1.00  0.00    -0.386 OA
HETATM   18  H18 UNL     1      -5.333   3.350   9.789  1.00  0.00     0.211 HD
ENDBRANCH   1  17
BRANCH   1  19
HETATM   19  C11 UNL     1      -3.535   3.964  11.366  1.00  0.00     0.010 C 
HETATM   20  C12 UNL     1      -2.631   4.429  12.244  1.00  0.00    -0.001 C 
BRANCH  20  21
HETATM   21  C13 UNL     1      -1.477   5.201  11.833  1.00  0.00     0.005 C 
HETATM   22  C14 UNL     1      -1.234   6.505  12.085  1.00  0.00    -0.055 C 
HETATM   23  C15 UNL     1      -2.124   7.363  12.959  1.00  0.00     0.046 C 
BRANCH  22  24
HETATM   24  C16 UNL     1       0.003   7.249  11.568  1.00  0.00     0.154 C 
HETATM   25  O4  UNL     1       0.694   6.371  10.662  1.00  0.00    -0.375 OA
HETATM   26  C17 UNL     1       1.712   6.977   9.856  1.00  0.00     0.132 C 
HETATM   27  C20 UNL     1       2.750   7.695  10.727  1.00  0.00     0.033 C 
HETATM   28  C21 UNL     1       2.111   8.570  11.802  1.00  0.00     0.009 C 
HETATM   29  C22 UNL     1       1.024   7.812  12.585  1.00  0.00     0.015 C 
HETATM   30  C23 UNL     1       1.674   6.730  13.465  1.00  0.00     0.012 C 
BRANCH  26  31
HETATM   31  C18 UNL     1       1.138   7.886   8.767  1.00  0.00     0.141 C 
BRANCH  31  32
HETATM   32  C19 UNL     1       1.980   7.812   7.525  1.00  0.00     0.141 C 
HETATM   33  O5  UNL     1       1.919   6.966   6.648  1.00  0.00    -0.650 OA
BRANCH  32  34
HETATM   34  O6  UNL     1       2.905   8.790   7.467  1.00  0.00    -0.776 OA
HETATM   35  H29 UNL     1       3.367   8.621   6.617  1.00  0.00     0.167 HD
ENDBRANCH  32  34
ENDBRANCH  31  32
ENDBRANCH  26  31
ENDBRANCH  22  24
ENDBRANCH  20  21
ENDBRANCH   1  19
TORSDOF 14
ENDMDL
MODEL 4
REMARK minimizedAffinity -7.9724865
REMARK  14 active torsions:
REMARK  status: ('A' for Active; 'I' for Inactive)
REMARK    1  A    between atoms: O1_2  and  C2_3 
REMARK    2  A    between atoms: C2_3  and  C3_4 
REMARK    3  A    between atoms: C2_3  and  C24_30 
REMARK    4  A    between atoms: C3_4  and  C5_6 
REMARK    5  A    between atoms: C6_8  and  C8_10 
REMARK    6  A    between atoms: C8_10  and  C9_11 
REMARK    7  A    between atoms: C9_11  and  O3_13 
REMARK    8  A    between atoms: C9_11  and  C11_14 
REMARK    9  A    between atoms: C12_15  and  C13_16 
REMARK   10  A    between atoms: C14_17  and  C16_19 
REMARK   11  A    between atoms: C17_21  and  C18_22 
REMARK   12  A    between atoms: C18_22  and  C19_23 
REMARK   13  A    between atoms: C19_23  and  O6_25 
REMARK   14  A    between atoms: C24_30  and  O7_32 
ROOT
HETATM    1  C9  UNL     1      -4.930   3.018  11.511  1.00  0.00     0.075 C 
HETATM    2  C10 UNL     1      -4.698   1.504  11.564  1.00  0.00     0.050 C 
ENDROOT
BRANCH   1   3
HETATM    3  C8  UNL     1      -5.325   3.613  12.886  1.00  0.00     0.082 C 
BRANCH   3   4
HETATM    4  C6  UNL     1      -6.815   3.775  13.121  1.00  0.00     0.087 A 
HETATM    5  C5  UNL     1      -7.400   5.185  13.147  1.00  0.00     0.163 A 
HETATM    6  O2  UNL     1      -7.110   4.468  14.351  1.00  0.00    -0.369 OA
HETATM    7  C7  UNL     1      -7.684   2.562  12.945  1.00  0.00     0.049 C 
BRANCH   5   8
HETATM    8  C3  UNL     1      -8.858   5.476  12.917  1.00  0.00     0.045 C 
HETATM    9  C4  UNL     1      -9.032   6.066  11.509  1.00  0.00     0.015 C 
BRANCH   8  10
HETATM   10  C2  UNL     1      -9.433   6.439  13.992  1.00  0.00     0.155 C 
BRANCH  10  11
HETATM   11  O1  UNL     1      -8.402   7.397  14.303  1.00  0.00    -0.388 OA
HETATM   12  C1  UNL     1      -8.179   7.550  15.698  1.00  0.00     0.202 C 
ENDBRANCH  10  11
BRANCH  10  13
HETATM   13  C24 UNL     1     -10.722   7.182  13.528  1.00  0.00     0.143 C 
HETATM   14  C25 UNL     1     -11.995   6.606  14.139  1.00  0.00     0.042 C 
BRANCH  13  15
HETATM   15  O7  UNL     1     -10.694   8.575  13.849  1.00  0.00    -0.393 OA
HETATM   16  H42 UNL     1     -10.022   8.980  13.268  1.00  0.00     0.210 HD
ENDBRANCH  13  15
ENDBRANCH  10  13
ENDBRANCH   8  10
ENDBRANCH   5   8
ENDBRANCH   3   4
ENDBRANCH   1   3
BRANCH   1  17
HETATM   17  O3  UNL     1      -5.996   3.253  10.580  1.00  0.00    -0.386 OA
HETATM   18  H18 UNL     1      -5.686   2.941   9.711  1.00  0.00     0.211 HD
ENDBRANCH   1  17
BRANCH   1  19
HETATM   19  C11 UNL     1      -3.751   3.809  10.976  1.00  0.00     0.010 C 
HETATM   20  C12 UNL     1      -2.674   4.240  11.652  1.00  0.00    -0.001 C 
BRANCH  20  21
HETATM   21  C13 UNL     1      -1.625   5.019  11.025  1.00  0.00     0.005 C 
HETATM   22  C14 UNL     1      -0.303   4.974  11.293  1.00  0.00    -0.055 C 
HETATM   23  C15 UNL     1       0.318   3.988  12.260  1.00  0.00     0.046 C 
BRANCH  22  24
HETATM   24  C16 UNL     1       0.729   5.872  10.602  1.00  0.00     0.154 C 
HETATM   25  O4  UNL     1       2.026   5.525  11.116  1.00  0.00    -0.375 OA
HETATM   26  C17 UNL     1       3.148   6.048  10.394  1.00  0.00     0.132 C 
HETATM   27  C20 UNL     1       3.063   7.575  10.274  1.00  0.00     0.033 C 
HETATM   28  C21 UNL     1       1.681   8.054   9.839  1.00  0.00     0.009 C 
HETATM   29  C22 UNL     1       0.563   7.409  10.678  1.00  0.00     0.015 C 
HETATM   30  C23 UNL     1       0.605   7.960  12.115  1.00  0.00     0.012 C 
BRANCH  26  31
HETATM   31  C18 UNL     1       3.344   5.367   9.037  1.00  0.00     0.141 C 
BRANCH  31  32
HETATM   32  C19 UNL     1       3.883   3.978   9.221  1.00  0.00     0.141 C 
HETATM   33  O5  UNL     1       4.891   3.510   8.718  1.00  0.00    -0.650 OA
BRANCH  32  34
HETATM   34  O6  UNL     1       3.093   3.215  10.002  1.00  0.00    -0.776 OA
HETATM   35  H29 UNL     1       3.563   2.353  10.037  1.00  0.00     0.167 HD
ENDBRANCH  32  34
ENDBRANCH  31  32
ENDBRANCH  26  31
ENDBRANCH  22  24
ENDBRANCH  20  21
ENDBRANCH   1  19
TORSDOF 14
ENDMDL
MODEL 5
REMARK minimizedAffinity -7.90260553
REMARK  14 active torsions:
REMARK  status: ('A' for Active; 'I' for Inactive)
REMARK    1  A    between atoms: O1_2  and  C2_3 
REMARK    2  A    between atoms: C2_3  and  C3_4 
REMARK    3  A    between atoms: C2_3  and  C24_30 
REMARK    4  A    between atoms: C3_4  and  C5_6 
REMARK    5  A    between atoms: C6_8  and  C8_10 
REMARK    6  A    between atoms: C8_10  and  C9_11 
REMARK    7  A    between atoms: C9_11  and  O3_13 
REMARK    8  A    between atoms: C9_11  and  C11_14 
REMARK    9  A    between atoms: C12_15  and  C13_16 
REMARK   10  A    between atoms: C14_17  and  C16_19 
REMARK   11  A    between atoms: C17_21  and  C18_22 
REMARK   12  A    between atoms: C18_22  and  C19_23 
REMARK   13  A    between atoms: C19_23  and  O6_25 
REMARK   14  A    between atoms: C24_30  and  O7_32 
ROOT
HETATM    1  C9  UNL     1      -2.880   7.701  15.772  1.00  0.00     0.075 C 
HETATM    2  C10 UNL     1      -2.544   8.759  16.828  1.00  0.00     0.050 C 
ENDROOT
BRANCH   1   3
HETATM    3  C8  UNL     1      -4.122   8.073  14.923  1.00  0.00     0.082 C 
BRANCH   3   4
HETATM    4  C6  UNL     1      -5.080   6.932  14.635  1.00  0.00     0.087 A 
HETATM    5  C5  UNL     1      -4.800   6.032  13.434  1.00  0.00     0.163 A 
HETATM    6  O2  UNL     1      -5.765   7.087  13.375  1.00  0.00    -0.369 OA
HETATM    7  C7  UNL     1      -6.020   6.518  15.731  1.00  0.00     0.049 C 
BRANCH   5   8
HETATM    8  C3  UNL     1      -5.368   4.645  13.295  1.00  0.00     0.045 C 
HETATM    9  C4  UNL     1      -4.301   3.731  12.673  1.00  0.00     0.015 C 
BRANCH   8  10
HETATM   10  C2  UNL     1      -6.667   4.634  12.443  1.00  0.00     0.155 C 
BRANCH  10  11
HETATM   11  O1  UNL     1      -6.627   3.452  11.620  1.00  0.00    -0.388 OA
HETATM   12  C1  UNL     1      -6.760   2.246  12.360  1.00  0.00     0.202 C 
ENDBRANCH  10  11
BRANCH  10  13
HETATM   13  C24 UNL     1      -7.968   4.635  13.302  1.00  0.00     0.143 C 
HETATM   14  C25 UNL     1      -8.868   5.833  13.019  1.00  0.00     0.042 C 
BRANCH  13  15
HETATM   15  O7  UNL     1      -8.756   3.459  13.101  1.00  0.00    -0.393 OA
HETATM   16  H42 UNL     1      -8.261   2.721  13.506  1.00  0.00     0.210 HD
ENDBRANCH  13  15
ENDBRANCH  10  13
ENDBRANCH   8  10
ENDBRANCH   5   8
ENDBRANCH   3   4
ENDBRANCH   1   3
BRANCH   1  17
HETATM   17  O3  UNL     1      -3.144   6.475  16.467  1.00  0.00    -0.386 OA
HETATM   18  H18 UNL     1      -2.321   6.226  16.926  1.00  0.00     0.211 HD
ENDBRANCH   1  17
BRANCH   1  19
HETATM   19  C11 UNL     1      -1.739   7.384  14.824  1.00  0.00     0.010 C 
HETATM   20  C12 UNL     1      -1.177   8.195  13.912  1.00  0.00    -0.001 C 
BRANCH  20  21
HETATM   21  C13 UNL     1      -0.105   7.757  13.041  1.00  0.00     0.005 C 
HETATM   22  C14 UNL     1       0.013   7.979  11.715  1.00  0.00    -0.055 C 
HETATM   23  C15 UNL     1      -0.949   8.842  10.927  1.00  0.00     0.046 C 
BRANCH  22  24
HETATM   24  C16 UNL     1       1.169   7.435  10.867  1.00  0.00     0.154 C 
HETATM   25  O4  UNL     1       2.269   8.352  10.989  1.00  0.00    -0.375 OA
HETATM   26  C17 UNL     1       3.534   7.882  10.506  1.00  0.00     0.132 C 
HETATM   27  C20 UNL     1       3.434   7.431   9.044  1.00  0.00     0.033 C 
HETATM   28  C21 UNL     1       2.223   6.538   8.787  1.00  0.00     0.009 C 
HETATM   29  C22 UNL     1       0.932   7.143   9.366  1.00  0.00     0.015 C 
HETATM   30  C23 UNL     1       0.530   8.388   8.555  1.00  0.00     0.012 C 
BRANCH  26  31
HETATM   31  C18 UNL     1       4.145   6.804  11.407  1.00  0.00     0.141 C 
BRANCH  31  32
HETATM   32  C19 UNL     1       5.573   6.546  11.020  1.00  0.00     0.141 C 
HETATM   33  O5  UNL     1       6.483   7.358  10.995  1.00  0.00    -0.650 OA
BRANCH  32  34
HETATM   34  O6  UNL     1       5.782   5.274  10.630  1.00  0.00    -0.776 OA
HETATM   35  H29 UNL     1       6.741   5.251  10.417  1.00  0.00     0.167 HD
ENDBRANCH  32  34
ENDBRANCH  31  32
ENDBRANCH  26  31
ENDBRANCH  22  24
ENDBRANCH  20  21
ENDBRANCH   1  19
TORSDOF 14
ENDMDL
MODEL 6
REMARK minimizedAffinity -7.89766169
REMARK  14 active torsions:
REMARK  status: ('A' for Active; 'I' for Inactive)
REMARK    1  A    between atoms: O1_2  and  C2_3 
REMARK    2  A    between atoms: C2_3  and  C3_4 
REMARK    3  A    between atoms: C2_3  and  C24_30 
REMARK    4  A    between atoms: C3_4  and  C5_6 
REMARK    5  A    between atoms: C6_8  and  C8_10 
REMARK    6  A    between atoms: C8_10  and  C9_11 
REMARK    7  A    between atoms: C9_11  and  O3_13 
REMARK    8  A    between atoms: C9_11  and  C11_14 
REMARK    9  A    between atoms: C12_15  and  C13_16 
REMARK   10  A    between atoms: C14_17  and  C16_19 
REMARK   11  A    between atoms: C17_21  and  C18_22 
REMARK   12  A    between atoms: C18_22  and  C19_23 
REMARK   13  A    between atoms: C19_23  and  O6_25 
REMARK   14  A    between atoms: C24_30  and  O7_32 
ROOT
HETATM    1  C9  UNL     1      -2.600   3.090  11.309  1.00  0.00     0.075 C 
HETATM    2  C10 UNL     1      -2.692   3.500   9.836  1.00  0.00     0.050 C 
ENDROOT
BRANCH   1   3
HETATM    3  C8  UNL     1      -1.154   3.155  11.862  1.00  0.00     0.082 C 
BRANCH   3   4
HETATM    4  C6  UNL     1      -0.554   4.545  11.952  1.00  0.00     0.087 A 
HETATM    5  C5  UNL     1       0.933   4.717  11.654  1.00  0.00     0.163 A 
HETATM    6  O2  UNL     1       0.437   4.655  12.995  1.00  0.00    -0.369 OA
HETATM    7  C7  UNL     1      -1.498   5.713  11.959  1.00  0.00     0.049 C 
BRANCH   5   8
HETATM    8  C3  UNL     1       1.549   6.034  11.266  1.00  0.00     0.045 C 
HETATM    9  C4  UNL     1       1.133   7.099  12.292  1.00  0.00     0.015 C 
BRANCH   8  10
HETATM   10  C2  UNL     1       1.140   6.464   9.830  1.00  0.00     0.155 C 
BRANCH  10  11
HETATM   11  O1  UNL     1       0.360   7.670   9.951  1.00  0.00    -0.388 OA
HETATM   12  C1  UNL     1       0.227   8.379   8.727  1.00  0.00     0.202 C 
ENDBRANCH  10  11
BRANCH  10  13
HETATM   13  C24 UNL     1       2.358   6.714   8.891  1.00  0.00     0.143 C 
HETATM   14  C25 UNL     1       3.648   7.005   9.651  1.00  0.00     0.042 C 
BRANCH  13  15
HETATM   15  O7  UNL     1       2.619   5.604   8.029  1.00  0.00    -0.393 OA
HETATM   16  H42 UNL     1       1.886   5.574   7.385  1.00  0.00     0.210 HD
ENDBRANCH  13  15
ENDBRANCH  10  13
ENDBRANCH   8  10
ENDBRANCH   5   8
ENDBRANCH   3   4
ENDBRANCH   1   3
BRANCH   1  17
HETATM   17  O3  UNL     1      -3.075   1.741  11.406  1.00  0.00    -0.386 OA
HETATM   18  H18 UNL     1      -4.008   1.747  11.128  1.00  0.00     0.211 HD
ENDBRANCH   1  17
BRANCH   1  19
HETATM   19  C11 UNL     1      -3.495   3.894  12.235  1.00  0.00     0.010 C 
HETATM   20  C12 UNL     1      -4.834   3.850  12.329  1.00  0.00    -0.001 C 
BRANCH  20  21
HETATM   21  C13 UNL     1      -5.576   4.699  13.239  1.00  0.00     0.005 C 
HETATM   22  C14 UNL     1      -6.819   4.491  13.722  1.00  0.00    -0.055 C 
HETATM   23  C15 UNL     1      -7.617   3.234  13.451  1.00  0.00     0.046 C 
BRANCH  22  24
HETATM   24  C16 UNL     1      -7.539   5.474  14.651  1.00  0.00     0.154 C 
HETATM   25  O4  UNL     1      -8.020   6.564  13.847  1.00  0.00    -0.375 OA
HETATM   26  C17 UNL     1      -8.962   7.442  14.477  1.00  0.00     0.132 C 
HETATM   27  C20 UNL     1      -8.396   8.012  15.783  1.00  0.00     0.033 C 
HETATM   28  C21 UNL     1      -7.756   6.941  16.663  1.00  0.00     0.009 C 
HETATM   29  C22 UNL     1      -6.780   6.056  15.868  1.00  0.00     0.015 C 
HETATM   30  C23 UNL     1      -5.534   6.872  15.480  1.00  0.00     0.012 C 
BRANCH  26  31
HETATM   31  C18 UNL     1     -10.334   6.790  14.673  1.00  0.00     0.141 C 
BRANCH  31  32
HETATM   32  C19 UNL     1     -11.356   7.448  13.791  1.00  0.00     0.141 C 
HETATM   33  O5  UNL     1     -12.377   8.013  14.149  1.00  0.00    -0.650 OA
BRANCH  32  34
HETATM   34  O6  UNL     1     -11.069   7.323  12.481  1.00  0.00    -0.776 OA
HETATM   35  H29 UNL     1     -11.806   7.796  12.036  1.00  0.00     0.167 HD
ENDBRANCH  32  34
ENDBRANCH  31  32
ENDBRANCH  26  31
ENDBRANCH  22  24
ENDBRANCH  20  21
ENDBRANCH   1  19
TORSDOF 14
ENDMDL
MODEL 7
REMARK minimizedAffinity -7.75460911
REMARK  14 active torsions:
REMARK  status: ('A' for Active; 'I' for Inactive)
REMARK    1  A    between atoms: O1_2  and  C2_3 
REMARK    2  A    between atoms: C2_3  and  C3_4 
REMARK    3  A    between atoms: C2_3  and  C24_30 
REMARK    4  A    between atoms: C3_4  and  C5_6 
REMARK    5  A    between atoms: C6_8  and  C8_10 
REMARK    6  A    between atoms: C8_10  and  C9_11 
REMARK    7  A    between atoms: C9_11  and  O3_13 
REMARK    8  A    between atoms: C9_11  and  C11_14 
REMARK    9  A    between atoms: C12_15  and  C13_16 
REMARK   10  A    between atoms: C14_17  and  C16_19 
REMARK   11  A    between atoms: C17_21  and  C18_22 
REMARK   12  A    between atoms: C18_22  and  C19_23 
REMARK   13  A    between atoms: C19_23  and  O6_25 
REMARK   14  A    between atoms: C24_30  and  O7_32 
ROOT
HETATM    1  C9  UNL     1      -0.311   5.833  13.318  1.00  0.00     0.075 C 
HETATM    2  C10 UNL     1       0.006   5.065  12.031  1.00  0.00     0.050 C 
ENDROOT
BRANCH   1   3
HETATM    3  C8  UNL     1       0.526   7.129  13.464  1.00  0.00     0.082 C 
BRANCH   3   4
HETATM    4  C6  UNL     1       0.630   7.981  12.213  1.00  0.00     0.087 A 
HETATM    5  C5  UNL     1       1.709   7.641  11.188  1.00  0.00     0.163 A 
HETATM    6  O2  UNL     1       1.878   8.701  12.134  1.00  0.00    -0.369 OA
HETATM    7  C7  UNL     1      -0.540   8.858  11.868  1.00  0.00     0.049 C 
BRANCH   5   8
HETATM    8  C3  UNL     1       1.645   8.079   9.750  1.00  0.00     0.045 C 
HETATM    9  C4  UNL     1       0.254   7.748   9.190  1.00  0.00     0.015 C 
BRANCH   8  10
HETATM   10  C2  UNL     1       2.757   7.414   8.892  1.00  0.00     0.155 C 
BRANCH  10  11
HETATM   11  O1  UNL     1       3.609   6.680   9.793  1.00  0.00    -0.388 OA
HETATM   12  C1  UNL     1       3.177   5.343  10.010  1.00  0.00     0.202 C 
ENDBRANCH  10  11
BRANCH  10  13
HETATM   13  C24 UNL     1       2.201   6.460   7.794  1.00  0.00     0.143 C 
HETATM   14  C25 UNL     1       1.959   7.160   6.461  1.00  0.00     0.042 C 
BRANCH  13  15
HETATM   15  O7  UNL     1       3.073   5.356   7.538  1.00  0.00    -0.393 OA
HETATM   16  H42 UNL     1       3.034   4.782   8.326  1.00  0.00     0.210 HD
ENDBRANCH  13  15
ENDBRANCH  10  13
ENDBRANCH   8  10
ENDBRANCH   5   8
ENDBRANCH   3   4
ENDBRANCH   1   3
BRANCH   1  17
HETATM   17  O3  UNL     1      -0.014   4.963  14.418  1.00  0.00    -0.386 OA
HETATM   18  H18 UNL     1      -0.611   4.196  14.341  1.00  0.00     0.211 HD
ENDBRANCH   1  17
BRANCH   1  19
HETATM   19  C11 UNL     1      -1.775   6.197  13.481  1.00  0.00     0.010 C 
HETATM   20  C12 UNL     1      -2.826   5.364  13.556  1.00  0.00    -0.001 C 
BRANCH  20  21
HETATM   21  C13 UNL     1      -4.188   5.845  13.681  1.00  0.00     0.005 C 
HETATM   22  C14 UNL     1      -5.308   5.258  13.208  1.00  0.00    -0.055 C 
HETATM   23  C15 UNL     1      -5.317   3.903  12.535  1.00  0.00     0.046 C 
BRANCH  22  24
HETATM   24  C16 UNL     1      -6.706   5.869  13.355  1.00  0.00     0.154 C 
HETATM   25  O4  UNL     1      -7.041   5.864  14.753  1.00  0.00    -0.375 OA
HETATM   26  C17 UNL     1      -8.180   6.649  15.129  1.00  0.00     0.132 C 
HETATM   27  C20 UNL     1      -9.421   6.238  14.328  1.00  0.00     0.033 C 
HETATM   28  C21 UNL     1      -9.139   6.104  12.834  1.00  0.00     0.009 C 
HETATM   29  C22 UNL     1      -7.885   5.254  12.563  1.00  0.00     0.015 C 
HETATM   30  C23 UNL     1      -8.164   3.783  12.921  1.00  0.00     0.012 C 
BRANCH  26  31
HETATM   31  C18 UNL     1      -7.909   8.154  15.050  1.00  0.00     0.141 C 
BRANCH  31  32
HETATM   32  C19 UNL     1      -9.130   8.927  15.459  1.00  0.00     0.141 C 
HETATM   33  O5  UNL     1      -9.697   9.795  14.815  1.00  0.00    -0.650 OA
BRANCH  32  34
HETATM   34  O6  UNL     1      -9.560   8.603  16.694  1.00  0.00    -0.776 OA
HETATM   35  H29 UNL     1     -10.351   9.172  16.821  1.00  0.00     0.167 HD
ENDBRANCH  32  34
ENDBRANCH  31  32
ENDBRANCH  26  31
ENDBRANCH  22  24
ENDBRANCH  20  21
ENDBRANCH   1  19
TORSDOF 14
ENDMDL
MODEL 8
REMARK minimizedAffinity -7.7435689
REMARK  14 active torsions:
REMARK  status: ('A' for Active; 'I' for Inactive)
REMARK    1  A    between atoms: O1_2  and  C2_3 
REMARK    2  A    between atoms: C2_3  and  C3_4 
REMARK    3  A    between atoms: C2_3  and  C24_30 
REMARK    4  A    between atoms: C3_4  and  C5_6 
REMARK    5  A    between atoms: C6_8  and  C8_10 
REMARK    6  A    between atoms: C8_10  and  C9_11 
REMARK    7  A    between atoms: C9_11  and  O3_13 
REMARK    8  A    between atoms: C9_11  and  C11_14 
REMARK    9  A    between atoms: C12_15  and  C13_16 
REMARK   10  A    between atoms: C14_17  and  C16_19 
REMARK   11  A    between atoms: C17_21  and  C18_22 
REMARK   12  A    between atoms: C18_22  and  C19_23 
REMARK   13  A    between atoms: C19_23  and  O6_25 
REMARK   14  A    between atoms: C24_30  and  O7_32 
ROOT
HETATM    1  C9  UNL     1       0.732   5.881  11.345  1.00  0.00     0.075 C 
HETATM    2  C10 UNL     1       0.909   6.738  10.087  1.00  0.00     0.050 C 
ENDROOT
BRANCH   1   3
HETATM    3  C8  UNL     1       1.738   6.244  12.465  1.00  0.00     0.082 C 
BRANCH   3   4
HETATM    4  C6  UNL     1       2.632   7.435  12.176  1.00  0.00     0.087 A 
HETATM    5  C5  UNL     1       4.016   7.181  11.583  1.00  0.00     0.163 A 
HETATM    6  O2  UNL     1       3.831   7.438  12.978  1.00  0.00    -0.369 OA
HETATM    7  C7  UNL     1       1.991   8.794  12.131  1.00  0.00     0.049 C 
BRANCH   5   8
HETATM    8  C3  UNL     1       4.801   8.230  10.844  1.00  0.00     0.045 C 
HETATM    9  C4  UNL     1       4.154   8.460   9.470  1.00  0.00     0.015 C 
BRANCH   8  10
HETATM   10  C2  UNL     1       6.296   7.835  10.689  1.00  0.00     0.155 C 
BRANCH  10  11
HETATM   11  O1  UNL     1       7.052   9.057  10.589  1.00  0.00    -0.388 OA
HETATM   12  C1  UNL     1       6.317  10.207  10.984  1.00  0.00     0.202 C 
ENDBRANCH  10  11
BRANCH  10  13
HETATM   13  C24 UNL     1       6.832   6.977  11.874  1.00  0.00     0.143 C 
HETATM   14  C25 UNL     1       6.881   7.743  13.192  1.00  0.00     0.042 C 
BRANCH  13  15
HETATM   15  O7  UNL     1       6.046   5.804  12.098  1.00  0.00    -0.393 OA
HETATM   16  H42 UNL     1       6.212   5.209  11.342  1.00  0.00     0.210 HD
ENDBRANCH  13  15
ENDBRANCH  10  13
ENDBRANCH   8  10
ENDBRANCH   5   8
ENDBRANCH   3   4
ENDBRANCH   1   3
BRANCH   1  17
HETATM   17  O3  UNL     1       0.936   4.515  10.961  1.00  0.00    -0.386 OA
HETATM   18  H18 UNL     1       0.240   4.294  10.316  1.00  0.00     0.211 HD
ENDBRANCH   1  17
BRANCH   1  19
HETATM   19  C11 UNL     1      -0.666   5.925  11.934  1.00  0.00     0.010 C 
HETATM   20  C12 UNL     1      -1.026   6.303  13.172  1.00  0.00    -0.001 C 
BRANCH  20  21
HETATM   21  C13 UNL     1      -2.402   6.270  13.623  1.00  0.00     0.005 C 
HETATM   22  C14 UNL     1      -3.391   5.470  13.170  1.00  0.00    -0.055 C 
HETATM   23  C15 UNL     1      -3.174   4.374  12.150  1.00  0.00     0.046 C 
BRANCH  22  24
HETATM   24  C16 UNL     1      -4.834   5.539  13.684  1.00  0.00     0.154 C 
HETATM   25  O4  UNL     1      -5.707   5.258  12.577  1.00  0.00    -0.375 OA
HETATM   26  C17 UNL     1      -7.076   4.994  12.909  1.00  0.00     0.132 C 
HETATM   27  C20 UNL     1      -7.678   6.143  13.725  1.00  0.00     0.033 C 
HETATM   28  C21 UNL     1      -6.768   6.594  14.865  1.00  0.00     0.009 C 
HETATM   29  C22 UNL     1      -5.324   6.829  14.385  1.00  0.00     0.015 C 
HETATM   30  C23 UNL     1      -5.271   8.075  13.483  1.00  0.00     0.012 C 
BRANCH  26  31
HETATM   31  C18 UNL     1      -7.265   3.635  13.590  1.00  0.00     0.141 C 
BRANCH  31  32
HETATM   32  C19 UNL     1      -7.145   2.525  12.585  1.00  0.00     0.141 C 
HETATM   33  O5  UNL     1      -6.276   2.392  11.739  1.00  0.00    -0.650 OA
BRANCH  32  34
HETATM   34  O6  UNL     1      -8.164   1.647  12.659  1.00  0.00    -0.776 OA
HETATM   35  H29 UNL     1      -7.954   0.988  11.962  1.00  0.00     0.167 HD
ENDBRANCH  32  34
ENDBRANCH  31  32
ENDBRANCH  26  31
ENDBRANCH  22  24
ENDBRANCH  20  21
ENDBRANCH   1  19
TORSDOF 14
ENDMDL
MODEL 9
REMARK minimizedAffinity -7.73582268
REMARK  14 active torsions:
REMARK  status: ('A' for Active; 'I' for Inactive)
REMARK    1  A    between atoms: O1_2  and  C2_3 
REMARK    2  A    between atoms: C2_3  and  C3_4 
REMARK    3  A    between atoms: C2_3  and  C24_30 
REMARK    4  A    between atoms: C3_4  and  C5_6 
REMARK    5  A    between atoms: C6_8  and  C8_10 
REMARK    6  A    between atoms: C8_10  and  C9_11 
REMARK    7  A    between atoms: C9_11  and  O3_13 
REMARK    8  A    between atoms: C9_11  and  C11_14 
REMARK    9  A    between atoms: C12_15  and  C13_16 
REMARK   10  A    between atoms: C14_17  and  C16_19 
REMARK   11  A    between atoms: C17_21  and  C18_22 
REMARK   12  A    between atoms: C18_22  and  C19_23 
REMARK   13  A    between atoms: C19_23  and  O6_25 
REMARK   14  A    between atoms: C24_30  and  O7_32 
ROOT
HETATM    1  C9  UNL     1      -3.572   2.627  11.575  1.00  0.00     0.075 C 
HETATM    2  C10 UNL     1      -3.507   1.097  11.622  1.00  0.00     0.050 C 
ENDROOT
BRANCH   1   3
HETATM    3  C8  UNL     1      -3.950   3.254  12.940  1.00  0.00     0.082 C 
BRANCH   3   4
HETATM    4  C6  UNL     1      -4.976   4.370  12.881  1.00  0.00     0.087 A 
HETATM    5  C5  UNL     1      -6.347   4.133  13.510  1.00  0.00     0.163 A 
HETATM    6  O2  UNL     1      -6.136   4.017  12.100  1.00  0.00    -0.369 OA
HETATM    7  C7  UNL     1      -4.486   5.752  12.554  1.00  0.00     0.049 C 
BRANCH   5   8
HETATM    8  C3  UNL     1      -7.267   5.249  13.924  1.00  0.00     0.045 C 
HETATM    9  C4  UNL     1      -7.907   5.859  12.668  1.00  0.00     0.015 C 
BRANCH   8  10
HETATM   10  C2  UNL     1      -6.524   6.338  14.747  1.00  0.00     0.155 C 
BRANCH  10  11
HETATM   11  O1  UNL     1      -6.621   7.572  14.008  1.00  0.00    -0.388 OA
HETATM   12  C1  UNL     1      -5.781   8.599  14.516  1.00  0.00     0.202 C 
ENDBRANCH  10  11
BRANCH  10  13
HETATM   13  C24 UNL     1      -7.106   6.533  16.179  1.00  0.00     0.143 C 
HETATM   14  C25 UNL     1      -8.626   6.657  16.194  1.00  0.00     0.042 C 
BRANCH  13  15
HETATM   15  O7  UNL     1      -6.762   5.459  17.058  1.00  0.00    -0.393 OA
HETATM   16  H42 UNL     1      -5.805   5.536  17.230  1.00  0.00     0.210 HD
ENDBRANCH  13  15
ENDBRANCH  10  13
ENDBRANCH   8  10
ENDBRANCH   5   8
ENDBRANCH   3   4
ENDBRANCH   1   3
BRANCH   1  17
HETATM   17  O3  UNL     1      -4.572   2.980  10.609  1.00  0.00    -0.386 OA
HETATM   18  H18 UNL     1      -4.266   2.640   9.748  1.00  0.00     0.211 HD
ENDBRANCH   1  17
BRANCH   1  19
HETATM   19  C11 UNL     1      -2.296   3.289  11.089  1.00  0.00     0.010 C 
HETATM   20  C12 UNL     1      -1.452   4.063  11.790  1.00  0.00    -0.001 C 
BRANCH  20  21
HETATM   21  C13 UNL     1      -0.275   4.664  11.194  1.00  0.00     0.005 C 
HETATM   22  C14 UNL     1       0.033   5.977  11.140  1.00  0.00    -0.055 C 
HETATM   23  C15 UNL     1      -0.791   7.054  11.812  1.00  0.00     0.046 C 
BRANCH  22  24
HETATM   24  C16 UNL     1       1.288   6.521  10.447  1.00  0.00     0.154 C 
HETATM   25  O4  UNL     1       2.422   5.813  10.976  1.00  0.00    -0.375 OA
HETATM   26  C17 UNL     1       3.652   5.970  10.258  1.00  0.00     0.132 C 
HETATM   27  C20 UNL     1       4.023   7.452  10.119  1.00  0.00     0.033 C 
HETATM   28  C21 UNL     1       2.846   8.312   9.667  1.00  0.00     0.009 C 
HETATM   29  C22 UNL     1       1.583   8.039  10.503  1.00  0.00     0.015 C 
HETATM   30  C23 UNL     1       1.779   8.573  11.934  1.00  0.00     0.012 C 
BRANCH  26  31
HETATM   31  C18 UNL     1       3.644   5.243   8.911  1.00  0.00     0.141 C 
BRANCH  31  32
HETATM   32  C19 UNL     1       4.014   3.799   9.093  1.00  0.00     0.141 C 
HETATM   33  O5  UNL     1       4.912   3.196   8.528  1.00  0.00    -0.650 OA
BRANCH  32  34
HETATM   34  O6  UNL     1       3.197   3.159   9.952  1.00  0.00    -0.776 OA
HETATM   35  H29 UNL     1       3.556   2.245   9.976  1.00  0.00     0.167 HD
ENDBRANCH  32  34
ENDBRANCH  31  32
ENDBRANCH  26  31
ENDBRANCH  22  24
ENDBRANCH  20  21
ENDBRANCH   1  19
TORSDOF 14
ENDMDL
