MODEL 1
REMARK minimizedAffinity -9.19330502
REMARK  14 active torsions:
REMARK  status: ('A' for Active; 'I' for Inactive)
REMARK    1  A    between atoms: C2_2  and  O1_3 
REMARK    2  A    between atoms: O1_3  and  C3_4 
REMARK    3  A    between atoms: C4_6  and  C5_7 
REMARK    4  A    between atoms: C5_7  and  O3_8 
REMARK    5  A    between atoms: C5_7  and  C6_9 
REMARK    6  A    between atoms: C6_9  and  O4_10 
REMARK    7  A    between atoms: O4_10  and  C7_11 
REMARK    8  A    between atoms: C12_16  and  C13_17 
REMARK    9  A    between atoms: C13_17  and  O5_19 
REMARK   10  A    between atoms: C13_17  and  C15_20 
REMARK   11  A    between atoms: C15_20  and  O6_21 
REMARK   12  A    between atoms: C18_24  and  O7_26 
REMARK   13  A    between atoms: C22_29  and  O8_30 
REMARK   14  A    between atoms: C23_31  and  O9_32 
ROOT
HETATM    1  C7  UNL     1       0.074  52.312 -22.047  1.00  0.00     0.126 C 
HETATM    2  C8  UNL     1      -1.328  51.850 -21.684  1.00  0.00     0.040 C 
HETATM    3  C9  UNL     1      -1.313  51.718 -20.145  1.00  0.00     0.026 C 
HETATM    4  C10 UNL     1      -0.210  52.707 -19.661  1.00  0.00    -0.001 C 
HETATM    5  C11 UNL     1       0.871  52.207 -18.694  1.00  0.00     0.013 C 
HETATM    6  C12 UNL     1       0.354  51.767 -17.309  1.00  0.00     0.022 C 
HETATM    7  C16 UNL     1      -0.161  50.314 -17.345  1.00  0.00     0.010 C 
HETATM    8  C17 UNL     1      -1.438  50.110 -18.150  1.00  0.00     0.038 C 
HETATM    9  C18 UNL     1      -1.332  50.241 -19.678  1.00  0.00     0.058 C 
HETATM   10  C19 UNL     1      -0.235  49.350 -20.273  1.00  0.00     0.046 C 
HETATM   11  C20 UNL     1       0.338  53.358 -20.966  1.00  0.00     0.015 C 
HETATM   12  C21 UNL     1       1.786  53.835 -20.971  1.00  0.00     0.013 C 
ENDROOT
BRANCH   1  13
HETATM   13  O4  UNL     1       0.120  52.912 -23.335  1.00  0.00    -0.383 OA
BRANCH  13  14
HETATM   14  C6  UNL     1      -0.068  51.956 -24.390  1.00  0.00     0.202 C 
BRANCH  14  15
HETATM   15  C5  UNL     1      -0.300  52.740 -25.687  1.00  0.00     0.173 C 
BRANCH  15  16
HETATM   16  C4  UNL     1      -1.024  51.901 -26.751  1.00  0.00     0.187 C 
HETATM   17  O2  UNL     1      -0.971  50.498 -26.381  1.00  0.00    -0.348 OA
HETATM   18  C3  UNL     1      -2.319  50.006 -26.294  1.00  0.00     0.291 C 
HETATM   19  C23 UNL     1      -3.113  50.875 -27.275  1.00  0.00     0.204 C 
HETATM   20  C22 UNL     1      -2.500  52.245 -27.023  1.00  0.00     0.183 C 
BRANCH  18  21
HETATM   21  O1  UNL     1      -2.839  50.155 -24.977  1.00  0.00    -0.359 OA
BRANCH  21  22
HETATM   22  C2  UNL     1      -3.153  48.899 -24.381  1.00  0.00     0.166 C 
HETATM   23  C1  UNL     1      -4.531  48.481 -24.856  1.00  0.00     0.033 C 
ENDBRANCH  21  22
ENDBRANCH  18  21
BRANCH  19  24
HETATM   24  O9  UNL     1      -2.875  50.475 -28.634  1.00  0.00    -0.388 OA
HETATM   25  H42 UNL     1      -1.951  50.172 -28.699  1.00  0.00     0.210 HD
ENDBRANCH  19  24
BRANCH  20  26
HETATM   26  O8  UNL     1      -3.151  52.899 -25.935  1.00  0.00    -0.390 OA
HETATM   27  H40 UNL     1      -2.808  52.484 -25.109  1.00  0.00     0.210 HD
ENDBRANCH  20  26
ENDBRANCH  15  16
BRANCH  15  28
HETATM   28  O3  UNL     1       0.967  53.218 -26.175  1.00  0.00    -0.391 OA
HETATM   29  H9  UNL     1       1.407  53.598 -25.387  1.00  0.00     0.210 HD
ENDBRANCH  15  28
ENDBRANCH  14  15
ENDBRANCH  13  14
ENDBRANCH   1  13
BRANCH   9  30
HETATM   30  O7  UNL     1      -2.577  49.711 -20.195  1.00  0.00    -0.390 OA
HETATM   31  H34 UNL     1      -2.657  48.785 -19.904  1.00  0.00     0.210 HD
ENDBRANCH   9  30
BRANCH   6  32
HETATM   32  C13 UNL     1       1.436  51.954 -16.180  1.00  0.00     0.079 C 
HETATM   33  C14 UNL     1       1.709  50.673 -15.386  1.00  0.00     0.048 C 
BRANCH  32  34
HETATM   34  O5  UNL     1       0.932  52.928 -15.245  1.00  0.00    -0.388 OA
HETATM   35  H23 UNL     1       1.014  53.789 -15.703  1.00  0.00     0.210 HD
ENDBRANCH  32  34
BRANCH  32  36
HETATM   36  C15 UNL     1       2.776  52.531 -16.701  1.00  0.00     0.201 C 
BRANCH  36  37
HETATM   37  O6  UNL     1       3.551  53.010 -15.600  1.00  0.00    -0.398 OA
HETATM   38  H26 UNL     1       4.394  53.329 -15.969  1.00  0.00     0.209 HD
ENDBRANCH  36  37
ENDBRANCH  32  36
ENDBRANCH   6  32
TORSDOF 14
ENDMDL
MODEL 2
REMARK minimizedAffinity -8.95509052
REMARK  14 active torsions:
REMARK  status: ('A' for Active; 'I' for Inactive)
REMARK    1  A    between atoms: C2_2  and  O1_3 
REMARK    2  A    between atoms: O1_3  and  C3_4 
REMARK    3  A    between atoms: C4_6  and  C5_7 
REMARK    4  A    between atoms: C5_7  and  O3_8 
REMARK    5  A    between atoms: C5_7  and  C6_9 
REMARK    6  A    between atoms: C6_9  and  O4_10 
REMARK    7  A    between atoms: O4_10  and  C7_11 
REMARK    8  A    between atoms: C12_16  and  C13_17 
REMARK    9  A    between atoms: C13_17  and  O5_19 
REMARK   10  A    between atoms: C13_17  and  C15_20 
REMARK   11  A    between atoms: C15_20  and  O6_21 
REMARK   12  A    between atoms: C18_24  and  O7_26 
REMARK   13  A    between atoms: C22_29  and  O8_30 
REMARK   14  A    between atoms: C23_31  and  O9_32 
ROOT
HETATM    1  C7  UNL     1      -0.967  52.207 -22.311  1.00  0.00     0.126 C 
HETATM    2  C8  UNL     1       0.426  52.753 -22.046  1.00  0.00     0.040 C 
HETATM    3  C9  UNL     1       0.836  52.142 -20.688  1.00  0.00     0.026 C 
HETATM    4  C10 UNL     1       0.022  50.818 -20.574  1.00  0.00    -0.001 C 
HETATM    5  C11 UNL     1      -0.784  50.543 -19.297  1.00  0.00     0.013 C 
HETATM    6  C12 UNL     1       0.059  50.389 -18.014  1.00  0.00     0.022 C 
HETATM    7  C16 UNL     1       0.393  51.764 -17.402  1.00  0.00     0.010 C 
HETATM    8  C17 UNL     1       1.361  52.608 -18.220  1.00  0.00     0.038 C 
HETATM    9  C18 UNL     1       0.839  53.187 -19.545  1.00  0.00     0.058 C 
HETATM   10  C19 UNL     1      -0.465  53.975 -19.372  1.00  0.00     0.046 C 
HETATM   11  C20 UNL     1      -0.807  50.748 -21.891  1.00  0.00     0.015 C 
HETATM   12  C21 UNL     1      -2.141  50.010 -21.856  1.00  0.00     0.013 C 
ENDROOT
BRANCH   1  13
HETATM   13  O4  UNL     1      -1.318  52.288 -23.687  1.00  0.00    -0.383 OA
BRANCH  13  14
HETATM   14  C6  UNL     1      -0.251  51.863 -24.550  1.00  0.00     0.202 C 
BRANCH  14  15
HETATM   15  C5  UNL     1      -0.347  52.684 -25.840  1.00  0.00     0.173 C 
BRANCH  15  16
HETATM   16  C4  UNL     1      -1.097  51.934 -26.951  1.00  0.00     0.187 C 
HETATM   17  O2  UNL     1      -1.004  50.504 -26.720  1.00  0.00    -0.348 OA
HETATM   18  C3  UNL     1      -2.338  49.976 -26.628  1.00  0.00     0.291 C 
HETATM   19  C23 UNL     1      -3.186  50.917 -27.491  1.00  0.00     0.204 C 
HETATM   20  C22 UNL     1      -2.589  52.270 -27.133  1.00  0.00     0.183 C 
BRANCH  18  21
HETATM   21  O1  UNL     1      -2.807  49.988 -25.284  1.00  0.00    -0.359 OA
BRANCH  21  22
HETATM   22  C2  UNL     1      -3.396  48.745 -24.913  1.00  0.00     0.166 C 
HETATM   23  C1  UNL     1      -4.312  48.300 -26.037  1.00  0.00     0.033 C 
ENDBRANCH  21  22
ENDBRANCH  18  21
BRANCH  19  24
HETATM   24  O9  UNL     1      -2.996  50.652 -28.890  1.00  0.00    -0.388 OA
HETATM   25  H42 UNL     1      -2.069  50.377 -29.019  1.00  0.00     0.210 HD
ENDBRANCH  19  24
BRANCH  20  26
HETATM   26  O8  UNL     1      -3.208  52.803 -25.963  1.00  0.00    -0.390 OA
HETATM   27  H40 UNL     1      -2.824  52.319 -25.194  1.00  0.00     0.210 HD
ENDBRANCH  20  26
ENDBRANCH  15  16
BRANCH  15  28
HETATM   28  O3  UNL     1       0.982  53.044 -26.262  1.00  0.00    -0.391 OA
HETATM   29  H9  UNL     1       1.419  53.369 -25.448  1.00  0.00     0.210 HD
ENDBRANCH  15  28
ENDBRANCH  14  15
ENDBRANCH  13  14
ENDBRANCH   1  13
BRANCH   9  30
HETATM   30  O7  UNL     1       1.826  54.168 -19.950  1.00  0.00    -0.390 OA
HETATM   31  H34 UNL     1       1.892  54.839 -19.248  1.00  0.00     0.210 HD
ENDBRANCH   9  30
BRANCH   6  32
HETATM   32  C13 UNL     1      -0.633  49.452 -16.954  1.00  0.00     0.079 C 
HETATM   33  C14 UNL     1       0.341  48.898 -15.911  1.00  0.00     0.048 C 
BRANCH  32  34
HETATM   34  O5  UNL     1      -1.183  48.322 -17.659  1.00  0.00    -0.388 OA
HETATM   35  H23 UNL     1      -1.973  48.667 -18.121  1.00  0.00     0.210 HD
ENDBRANCH  32  34
BRANCH  32  36
HETATM   36  C15 UNL     1      -1.833  50.118 -16.235  1.00  0.00     0.201 C 
BRANCH  36  37
HETATM   37  O6  UNL     1      -3.045  49.473 -16.631  1.00  0.00    -0.398 OA
HETATM   38  H26 UNL     1      -3.765  49.897 -16.130  1.00  0.00     0.209 HD
ENDBRANCH  36  37
ENDBRANCH  32  36
ENDBRANCH   6  32
TORSDOF 14
ENDMDL
MODEL 3
REMARK minimizedAffinity -8.63670826
REMARK  14 active torsions:
REMARK  status: ('A' for Active; 'I' for Inactive)
REMARK    1  A    between atoms: C2_2  and  O1_3 
REMARK    2  A    between atoms: O1_3  and  C3_4 
REMARK    3  A    between atoms: C4_6  and  C5_7 
REMARK    4  A    between atoms: C5_7  and  O3_8 
REMARK    5  A    between atoms: C5_7  and  C6_9 
REMARK    6  A    between atoms: C6_9  and  O4_10 
REMARK    7  A    between atoms: O4_10  and  C7_11 
REMARK    8  A    between atoms: C12_16  and  C13_17 
REMARK    9  A    between atoms: C13_17  and  O5_19 
REMARK   10  A    between atoms: C13_17  and  C15_20 
REMARK   11  A    between atoms: C15_20  and  O6_21 
REMARK   12  A    between atoms: C18_24  and  O7_26 
REMARK   13  A    between atoms: C22_29  and  O8_30 
REMARK   14  A    between atoms: C23_31  and  O9_32 
ROOT
HETATM    1  C7  UNL     1      -2.476  51.210 -21.939  1.00  0.00     0.126 C 
HETATM    2  C8  UNL     1      -3.203  50.113 -22.699  1.00  0.00     0.040 C 
HETATM    3  C9  UNL     1      -2.608  50.160 -24.124  1.00  0.00     0.026 C 
HETATM    4  C10 UNL     1      -1.179  50.758 -23.949  1.00  0.00    -0.001 C 
HETATM    5  C11 UNL     1      -0.748  51.937 -24.833  1.00  0.00     0.013 C 
HETATM    6  C12 UNL     1      -0.668  51.625 -26.342  1.00  0.00     0.022 C 
HETATM    7  C16 UNL     1      -2.054  51.746 -27.008  1.00  0.00     0.010 C 
HETATM    8  C17 UNL     1      -3.054  50.674 -26.597  1.00  0.00     0.038 C 
HETATM    9  C18 UNL     1      -3.601  50.738 -25.162  1.00  0.00     0.058 C 
HETATM   10  C19 UNL     1      -4.191  52.110 -24.815  1.00  0.00     0.046 C 
HETATM   11  C20 UNL     1      -1.040  51.011 -22.419  1.00  0.00     0.015 C 
HETATM   12  C21 UNL     1      -0.121  52.139 -21.963  1.00  0.00     0.013 C 
ENDROOT
BRANCH   1  13
HETATM   13  O4  UNL     1      -2.556  51.026 -20.532  1.00  0.00    -0.383 OA
BRANCH  13  14
HETATM   14  C6  UNL     1      -1.425  51.580 -19.842  1.00  0.00     0.202 C 
BRANCH  14  15
HETATM   15  C5  UNL     1      -1.711  51.489 -18.339  1.00  0.00     0.173 C 
BRANCH  15  16
HETATM   16  C4  UNL     1      -1.078  50.242 -17.702  1.00  0.00     0.187 C 
HETATM   17  O2  UNL     1       0.365  50.391 -17.674  1.00  0.00    -0.348 OA
HETATM   18  C3  UNL     1       0.802  50.271 -16.309  1.00  0.00     0.291 C 
HETATM   19  C23 UNL     1      -0.243  49.367 -15.647  1.00  0.00     0.204 C 
HETATM   20  C22 UNL     1      -1.529  49.888 -16.273  1.00  0.00     0.183 C 
BRANCH  18  21
HETATM   21  O1  UNL     1       0.832  51.539 -15.663  1.00  0.00    -0.359 OA
BRANCH  21  22
HETATM   22  C2  UNL     1       2.143  51.886 -15.226  1.00  0.00     0.166 C 
HETATM   23  C1  UNL     1       2.860  52.569 -16.374  1.00  0.00     0.033 C 
ENDBRANCH  21  22
ENDBRANCH  18  21
BRANCH  19  24
HETATM   24  O9  UNL     1      -0.044  47.991 -16.009  1.00  0.00    -0.388 OA
HETATM   25  H42 UNL     1       0.288  47.968 -16.926  1.00  0.00     0.210 HD
ENDBRANCH  19  24
BRANCH  20  26
HETATM   26  O8  UNL     1      -2.038  50.997 -15.535  1.00  0.00    -0.390 OA
HETATM   27  H40 UNL     1      -1.487  51.777 -15.779  1.00  0.00     0.210 HD
ENDBRANCH  20  26
ENDBRANCH  15  16
BRANCH  15  28
HETATM   28  O3  UNL     1      -3.136  51.512 -18.134  1.00  0.00    -0.391 OA
HETATM   29  H9  UNL     1      -3.455  52.244 -18.700  1.00  0.00     0.210 HD
ENDBRANCH  15  28
ENDBRANCH  14  15
ENDBRANCH  13  14
ENDBRANCH   1  13
BRANCH   9  30
HETATM   30  O7  UNL     1      -4.725  49.823 -25.139  1.00  0.00    -0.390 OA
HETATM   31  H34 UNL     1      -5.374  50.123 -25.801  1.00  0.00     0.210 HD
ENDBRANCH   9  30
BRANCH   6  32
HETATM   32  C13 UNL     1       0.394  52.522 -27.082  1.00  0.00     0.079 C 
HETATM   33  C14 UNL     1       1.084  51.805 -28.246  1.00  0.00     0.048 C 
BRANCH  32  34
HETATM   34  O5  UNL     1       1.421  52.863 -26.130  1.00  0.00    -0.388 OA
HETATM   35  H23 UNL     1       1.014  53.531 -25.542  1.00  0.00     0.210 HD
ENDBRANCH  32  34
BRANCH  32  36
HETATM   36  C15 UNL     1      -0.180  53.873 -27.577  1.00  0.00     0.201 C 
BRANCH  36  37
HETATM   37  O6  UNL     1       0.137  54.901 -26.636  1.00  0.00    -0.398 OA
HETATM   38  H26 UNL     1      -0.209  55.733 -27.003  1.00  0.00     0.209 HD
ENDBRANCH  36  37
ENDBRANCH  32  36
ENDBRANCH   6  32
TORSDOF 14
ENDMDL
MODEL 4
REMARK minimizedAffinity -8.53652191
REMARK  14 active torsions:
REMARK  status: ('A' for Active; 'I' for Inactive)
REMARK    1  A    between atoms: C2_2  and  O1_3 
REMARK    2  A    between atoms: O1_3  and  C3_4 
REMARK    3  A    between atoms: C4_6  and  C5_7 
REMARK    4  A    between atoms: C5_7  and  O3_8 
REMARK    5  A    between atoms: C5_7  and  C6_9 
REMARK    6  A    between atoms: C6_9  and  O4_10 
REMARK    7  A    between atoms: O4_10  and  C7_11 
REMARK    8  A    between atoms: C12_16  and  C13_17 
REMARK    9  A    between atoms: C13_17  and  O5_19 
REMARK   10  A    between atoms: C13_17  and  C15_20 
REMARK   11  A    between atoms: C15_20  and  O6_21 
REMARK   12  A    between atoms: C18_24  and  O7_26 
REMARK   13  A    between atoms: C22_29  and  O8_30 
REMARK   14  A    between atoms: C23_31  and  O9_32 
ROOT
HETATM    1  C7  UNL     1      -0.128  52.362 -19.569  1.00  0.00     0.126 C 
HETATM    2  C8  UNL     1      -0.368  50.872 -19.747  1.00  0.00     0.040 C 
HETATM    3  C9  UNL     1      -0.389  50.657 -21.277  1.00  0.00     0.026 C 
HETATM    4  C10 UNL     1       0.474  51.815 -21.864  1.00  0.00    -0.001 C 
HETATM    5  C11 UNL     1      -0.097  52.670 -23.003  1.00  0.00     0.013 C 
HETATM    6  C12 UNL     1      -0.362  51.910 -24.319  1.00  0.00     0.022 C 
HETATM    7  C16 UNL     1      -1.730  51.200 -24.284  1.00  0.00     0.010 C 
HETATM    8  C17 UNL     1      -1.816  50.029 -23.314  1.00  0.00     0.038 C 
HETATM    9  C18 UNL     1      -1.812  50.361 -21.813  1.00  0.00     0.058 C 
HETATM   10  C19 UNL     1      -2.884  51.388 -21.431  1.00  0.00     0.046 C 
HETATM   11  C20 UNL     1       0.948  52.625 -20.621  1.00  0.00     0.015 C 
HETATM   12  C21 UNL     1       1.223  54.113 -20.801  1.00  0.00     0.013 C 
ENDROOT
BRANCH   1  13
HETATM   13  O4  UNL     1       0.365  52.670 -18.272  1.00  0.00    -0.383 OA
BRANCH  13  14
HETATM   14  C6  UNL     1       0.437  51.513 -17.424  1.00  0.00     0.202 C 
BRANCH  14  15
HETATM   15  C5  UNL     1       1.270  51.893 -16.195  1.00  0.00     0.173 C 
BRANCH  15  16
HETATM   16  C4  UNL     1       0.611  51.438 -14.884  1.00  0.00     0.187 C 
HETATM   17  O2  UNL     1       0.506  49.991 -14.870  1.00  0.00    -0.348 OA
HETATM   18  C3  UNL     1       1.194  49.502 -13.706  1.00  0.00     0.291 C 
HETATM   19  C23 UNL     1       1.087  50.641 -12.686  1.00  0.00     0.204 C 
HETATM   20  C22 UNL     1       1.305  51.858 -13.575  1.00  0.00     0.183 C 
BRANCH  18  21
HETATM   21  O1  UNL     1       2.561  49.227 -13.991  1.00  0.00    -0.359 OA
BRANCH  21  22
HETATM   22  C2  UNL     1       2.911  47.880 -13.686  1.00  0.00     0.166 C 
HETATM   23  C1  UNL     1       2.090  46.965 -14.574  1.00  0.00     0.033 C 
ENDBRANCH  21  22
ENDBRANCH  18  21
BRANCH  19  24
HETATM   24  O9  UNL     1      -0.223  50.692 -12.099  1.00  0.00    -0.388 OA
HETATM   25  H42 UNL     1      -0.867  50.421 -12.780  1.00  0.00     0.210 HD
ENDBRANCH  19  24
BRANCH  20  26
HETATM   26  O8  UNL     1       2.696  52.135 -13.721  1.00  0.00    -0.390 OA
HETATM   27  H40 UNL     1       3.050  51.478 -14.365  1.00  0.00     0.210 HD
ENDBRANCH  20  26
ENDBRANCH  15  16
BRANCH  15  28
HETATM   28  O3  UNL     1       1.487  53.316 -16.201  1.00  0.00    -0.391 OA
HETATM   29  H9  UNL     1       1.758  53.520 -17.119  1.00  0.00     0.210 HD
ENDBRANCH  15  28
ENDBRANCH  14  15
ENDBRANCH  13  14
ENDBRANCH   1  13
BRANCH   9  30
HETATM   30  O7  UNL     1      -2.204  49.135 -21.149  1.00  0.00    -0.390 OA
HETATM   31  H34 UNL     1      -3.086  48.882 -21.474  1.00  0.00     0.210 HD
ENDBRANCH   9  30
BRANCH   6  32
HETATM   32  C13 UNL     1      -0.242  52.843 -25.582  1.00  0.00     0.079 C 
HETATM   33  C14 UNL     1       0.168  54.278 -25.237  1.00  0.00     0.048 C 
BRANCH  32  34
HETATM   34  O5  UNL     1      -1.542  52.915 -26.200  1.00  0.00    -0.388 OA
HETATM   35  H23 UNL     1      -1.666  52.050 -26.640  1.00  0.00     0.210 HD
ENDBRANCH  32  34
BRANCH  32  36
HETATM   36  C15 UNL     1       0.707  52.285 -26.672  1.00  0.00     0.201 C 
BRANCH  36  37
HETATM   37  O6  UNL     1       2.057  52.353 -26.210  1.00  0.00    -0.398 OA
HETATM   38  H26 UNL     1       2.612  51.960 -26.908  1.00  0.00     0.209 HD
ENDBRANCH  36  37
ENDBRANCH  32  36
ENDBRANCH   6  32
TORSDOF 14
ENDMDL
MODEL 5
REMARK minimizedAffinity -8.52785015
REMARK  14 active torsions:
REMARK  status: ('A' for Active; 'I' for Inactive)
REMARK    1  A    between atoms: C2_2  and  O1_3 
REMARK    2  A    between atoms: O1_3  and  C3_4 
REMARK    3  A    between atoms: C4_6  and  C5_7 
REMARK    4  A    between atoms: C5_7  and  O3_8 
REMARK    5  A    between atoms: C5_7  and  C6_9 
REMARK    6  A    between atoms: C6_9  and  O4_10 
REMARK    7  A    between atoms: O4_10  and  C7_11 
REMARK    8  A    between atoms: C12_16  and  C13_17 
REMARK    9  A    between atoms: C13_17  and  O5_19 
REMARK   10  A    between atoms: C13_17  and  C15_20 
REMARK   11  A    between atoms: C15_20  and  O6_21 
REMARK   12  A    between atoms: C18_24  and  O7_26 
REMARK   13  A    between atoms: C22_29  and  O8_30 
REMARK   14  A    between atoms: C23_31  and  O9_32 
ROOT
HETATM    1  C7  UNL     1      -0.983  51.935 -22.198  1.00  0.00     0.126 C 
HETATM    2  C8  UNL     1       0.378  52.556 -21.929  1.00  0.00     0.040 C 
HETATM    3  C9  UNL     1       0.796  52.006 -20.548  1.00  0.00     0.026 C 
HETATM    4  C10 UNL     1       0.045  50.648 -20.405  1.00  0.00    -0.001 C 
HETATM    5  C11 UNL     1      -0.766  50.371 -19.132  1.00  0.00     0.013 C 
HETATM    6  C12 UNL     1       0.063  50.297 -17.834  1.00  0.00     0.022 C 
HETATM    7  C16 UNL     1       0.320  51.704 -17.258  1.00  0.00     0.010 C 
HETATM    8  C17 UNL     1       1.259  52.570 -18.088  1.00  0.00     0.038 C 
HETATM    9  C18 UNL     1       0.729  53.084 -19.437  1.00  0.00     0.058 C 
HETATM   10  C19 UNL     1      -0.614  53.811 -19.306  1.00  0.00     0.046 C 
HETATM   11  C20 UNL     1      -0.758  50.498 -21.731  1.00  0.00     0.015 C 
HETATM   12  C21 UNL     1      -2.054  49.697 -21.693  1.00  0.00     0.013 C 
ENDROOT
BRANCH   1  13
HETATM   13  O4  UNL     1      -1.315  51.958 -23.580  1.00  0.00    -0.383 OA
BRANCH  13  14
HETATM   14  C6  UNL     1      -2.511  52.709 -23.843  1.00  0.00     0.202 C 
BRANCH  14  15
HETATM   15  C5  UNL     1      -3.589  51.718 -24.294  1.00  0.00     0.173 C 
BRANCH  15  16
HETATM   16  C4  UNL     1      -3.633  51.563 -25.822  1.00  0.00     0.187 C 
HETATM   17  O2  UNL     1      -2.944  52.680 -26.442  1.00  0.00    -0.348 OA
HETATM   18  C3  UNL     1      -1.890  52.155 -27.267  1.00  0.00     0.291 C 
HETATM   19  C23 UNL     1      -2.386  50.770 -27.694  1.00  0.00     0.204 C 
HETATM   20  C22 UNL     1      -3.029  50.273 -26.407  1.00  0.00     0.183 C 
BRANCH  18  21
HETATM   21  O1  UNL     1      -0.674  52.036 -26.537  1.00  0.00    -0.359 OA
BRANCH  21  22
HETATM   22  C2  UNL     1       0.392  51.549 -27.348  1.00  0.00     0.166 C 
HETATM   23  C1  UNL     1       1.634  51.443 -26.485  1.00  0.00     0.033 C 
ENDBRANCH  21  22
ENDBRANCH  18  21
BRANCH  19  24
HETATM   24  O9  UNL     1      -3.376  50.869 -28.730  1.00  0.00    -0.388 OA
HETATM   25  H42 UNL     1      -3.895  51.680 -28.572  1.00  0.00     0.210 HD
ENDBRANCH  19  24
BRANCH  20  26
HETATM   26  O8  UNL     1      -2.060  49.653 -25.564  1.00  0.00    -0.390 OA
HETATM   27  H40 UNL     1      -1.545  50.380 -25.142  1.00  0.00     0.210 HD
ENDBRANCH  20  26
ENDBRANCH  15  16
BRANCH  15  28
HETATM   28  O3  UNL     1      -4.863  52.149 -23.779  1.00  0.00    -0.391 OA
HETATM   29  H9  UNL     1      -4.688  52.365 -22.840  1.00  0.00     0.210 HD
ENDBRANCH  15  28
ENDBRANCH  14  15
ENDBRANCH  13  14
ENDBRANCH   1  13
BRANCH   9  30
HETATM   30  O7  UNL     1       1.673  54.099 -19.857  1.00  0.00    -0.390 OA
HETATM   31  H34 UNL     1       1.696  54.794 -19.175  1.00  0.00     0.210 HD
ENDBRANCH   9  30
BRANCH   6  32
HETATM   32  C13 UNL     1      -0.599  49.359 -16.755  1.00  0.00     0.079 C 
HETATM   33  C14 UNL     1       0.424  48.606 -15.900  1.00  0.00     0.048 C 
BRANCH  32  34
HETATM   34  O5  UNL     1      -1.375  48.365 -17.454  1.00  0.00    -0.388 OA
HETATM   35  H23 UNL     1      -2.168  48.839 -17.776  1.00  0.00     0.210 HD
ENDBRANCH  32  34
BRANCH  32  36
HETATM   36  C15 UNL     1      -1.601  50.095 -15.831  1.00  0.00     0.201 C 
BRANCH  36  37
HETATM   37  O6  UNL     1      -2.868  50.197 -16.485  1.00  0.00    -0.398 OA
HETATM   38  H26 UNL     1      -3.473  50.631 -15.858  1.00  0.00     0.209 HD
ENDBRANCH  36  37
ENDBRANCH  32  36
ENDBRANCH   6  32
TORSDOF 14
ENDMDL
MODEL 6
REMARK minimizedAffinity -8.52278328
REMARK  14 active torsions:
REMARK  status: ('A' for Active; 'I' for Inactive)
REMARK    1  A    between atoms: C2_2  and  O1_3 
REMARK    2  A    between atoms: O1_3  and  C3_4 
REMARK    3  A    between atoms: C4_6  and  C5_7 
REMARK    4  A    between atoms: C5_7  and  O3_8 
REMARK    5  A    between atoms: C5_7  and  C6_9 
REMARK    6  A    between atoms: C6_9  and  O4_10 
REMARK    7  A    between atoms: O4_10  and  C7_11 
REMARK    8  A    between atoms: C12_16  and  C13_17 
REMARK    9  A    between atoms: C13_17  and  O5_19 
REMARK   10  A    between atoms: C13_17  and  C15_20 
REMARK   11  A    between atoms: C15_20  and  O6_21 
REMARK   12  A    between atoms: C18_24  and  O7_26 
REMARK   13  A    between atoms: C22_29  and  O8_30 
REMARK   14  A    between atoms: C23_31  and  O9_32 
ROOT
HETATM    1  C7  UNL     1      -0.195  52.415 -19.654  1.00  0.00     0.126 C 
HETATM    2  C8  UNL     1      -0.443  50.918 -19.729  1.00  0.00     0.040 C 
HETATM    3  C9  UNL     1      -0.492  50.602 -21.240  1.00  0.00     0.026 C 
HETATM    4  C10 UNL     1       0.364  51.714 -21.917  1.00  0.00    -0.001 C 
HETATM    5  C11 UNL     1      -0.223  52.494 -23.102  1.00  0.00     0.013 C 
HETATM    6  C12 UNL     1      -0.514  51.650 -24.359  1.00  0.00     0.022 C 
HETATM    7  C16 UNL     1      -1.884  50.950 -24.254  1.00  0.00     0.010 C 
HETATM    8  C17 UNL     1      -1.957  49.847 -23.207  1.00  0.00     0.038 C 
HETATM    9  C18 UNL     1      -1.925  50.278 -21.731  1.00  0.00     0.058 C 
HETATM   10  C19 UNL     1      -2.987  51.333 -21.400  1.00  0.00     0.046 C 
HETATM   11  C20 UNL     1       0.863  52.602 -20.739  1.00  0.00     0.015 C 
HETATM   12  C21 UNL     1       1.140  54.074 -21.023  1.00  0.00     0.013 C 
ENDROOT
BRANCH   1  13
HETATM   13  O4  UNL     1       0.321  52.807 -18.389  1.00  0.00    -0.383 OA
BRANCH  13  14
HETATM   14  C6  UNL     1       0.404  51.709 -17.467  1.00  0.00     0.202 C 
BRANCH  14  15
HETATM   15  C5  UNL     1       1.556  52.002 -16.500  1.00  0.00     0.173 C 
BRANCH  15  16
HETATM   16  C4  UNL     1       1.339  51.353 -15.125  1.00  0.00     0.187 C 
HETATM   17  O2  UNL     1       0.268  52.040 -14.428  1.00  0.00    -0.348 OA
HETATM   18  C3  UNL     1      -0.746  51.075 -14.101  1.00  0.00     0.291 C 
HETATM   19  C23 UNL     1       0.011  49.750 -13.961  1.00  0.00     0.204 C 
HETATM   20  C22 UNL     1       1.003  49.850 -15.111  1.00  0.00     0.183 C 
BRANCH  18  21
HETATM   21  O1  UNL     1      -1.718  50.977 -15.136  1.00  0.00    -0.359 OA
BRANCH  21  22
HETATM   22  C2  UNL     1      -3.048  50.984 -14.624  1.00  0.00     0.166 C 
HETATM   23  C1  UNL     1      -3.167  52.123 -13.631  1.00  0.00     0.033 C 
ENDBRANCH  21  22
ENDBRANCH  18  21
BRANCH  19  24
HETATM   24  O9  UNL     1       0.715  49.683 -12.711  1.00  0.00    -0.388 OA
HETATM   25  H42 UNL     1       1.017  50.583 -12.489  1.00  0.00     0.210 HD
ENDBRANCH  19  24
BRANCH  20  26
HETATM   26  O8  UNL     1       0.421  49.377 -16.324  1.00  0.00    -0.390 OA
HETATM   27  H40 UNL     1      -0.178  50.089 -16.648  1.00  0.00     0.210 HD
ENDBRANCH  20  26
ENDBRANCH  15  16
BRANCH  15  28
HETATM   28  O3  UNL     1       1.712  53.429 -16.383  1.00  0.00    -0.391 OA
HETATM   29  H9  UNL     1       1.686  53.756 -17.305  1.00  0.00     0.210 HD
ENDBRANCH  15  28
ENDBRANCH  14  15
ENDBRANCH  13  14
ENDBRANCH   1  13
BRANCH   9  30
HETATM   30  O7  UNL     1      -2.310  49.100 -20.980  1.00  0.00    -0.390 OA
HETATM   31  H34 UNL     1      -3.199  48.831 -21.272  1.00  0.00     0.210 HD
ENDBRANCH   9  30
BRANCH   6  32
HETATM   32  C13 UNL     1      -0.413  52.496 -25.683  1.00  0.00     0.079 C 
HETATM   33  C14 UNL     1       0.905  52.286 -26.435  1.00  0.00     0.048 C 
BRANCH  32  34
HETATM   34  O5  UNL     1      -0.472  53.890 -25.320  1.00  0.00    -0.388 OA
HETATM   35  H23 UNL     1      -1.407  54.054 -25.084  1.00  0.00     0.210 HD
ENDBRANCH  32  34
BRANCH  32  36
HETATM   36  C15 UNL     1      -1.600  52.267 -26.652  1.00  0.00     0.201 C 
BRANCH  36  37
HETATM   37  O6  UNL     1      -1.111  51.763 -27.896  1.00  0.00    -0.398 OA
HETATM   38  H26 UNL     1      -1.890  51.600 -28.458  1.00  0.00     0.209 HD
ENDBRANCH  36  37
ENDBRANCH  32  36
ENDBRANCH   6  32
TORSDOF 14
ENDMDL
MODEL 7
REMARK minimizedAffinity -8.29692745
REMARK  14 active torsions:
REMARK  status: ('A' for Active; 'I' for Inactive)
REMARK    1  A    between atoms: C2_2  and  O1_3 
REMARK    2  A    between atoms: O1_3  and  C3_4 
REMARK    3  A    between atoms: C4_6  and  C5_7 
REMARK    4  A    between atoms: C5_7  and  O3_8 
REMARK    5  A    between atoms: C5_7  and  C6_9 
REMARK    6  A    between atoms: C6_9  and  O4_10 
REMARK    7  A    between atoms: O4_10  and  C7_11 
REMARK    8  A    between atoms: C12_16  and  C13_17 
REMARK    9  A    between atoms: C13_17  and  O5_19 
REMARK   10  A    between atoms: C13_17  and  C15_20 
REMARK   11  A    between atoms: C15_20  and  O6_21 
REMARK   12  A    between atoms: C18_24  and  O7_26 
REMARK   13  A    between atoms: C22_29  and  O8_30 
REMARK   14  A    between atoms: C23_31  and  O9_32 
ROOT
HETATM    1  C7  UNL     1       3.488  66.906 -36.163  1.00  0.00     0.126 C 
HETATM    2  C8  UNL     1       2.053  66.414 -36.254  1.00  0.00     0.040 C 
HETATM    3  C9  UNL     1       1.545  66.933 -37.617  1.00  0.00     0.026 C 
HETATM    4  C10 UNL     1       2.822  67.086 -38.497  1.00  0.00    -0.001 C 
HETATM    5  C11 UNL     1       3.066  68.408 -39.238  1.00  0.00     0.013 C 
HETATM    6  C12 UNL     1       2.018  68.754 -40.316  1.00  0.00     0.022 C 
HETATM    7  C16 UNL     1       0.784  69.435 -39.691  1.00  0.00     0.010 C 
HETATM    8  C17 UNL     1      -0.070  68.526 -38.816  1.00  0.00     0.038 C 
HETATM    9  C18 UNL     1       0.526  68.090 -37.467  1.00  0.00     0.058 C 
HETATM   10  C19 UNL     1       1.000  69.276 -36.619  1.00  0.00     0.046 C 
HETATM   11  C20 UNL     1       3.994  66.632 -37.577  1.00  0.00     0.015 C 
HETATM   12  C21 UNL     1       5.370  67.240 -37.823  1.00  0.00     0.013 C 
ENDROOT
BRANCH   1  13
HETATM   13  O4  UNL     1       4.246  66.165 -35.215  1.00  0.00    -0.383 OA
BRANCH  13  14
HETATM   14  C6  UNL     1       3.516  65.050 -34.682  1.00  0.00     0.202 C 
BRANCH  14  15
HETATM   15  C5  UNL     1       4.523  64.131 -33.982  1.00  0.00     0.173 C 
BRANCH  15  16
HETATM   16  C4  UNL     1       5.962  64.376 -34.459  1.00  0.00     0.187 C 
HETATM   17  O2  UNL     1       6.891  63.727 -33.553  1.00  0.00    -0.348 OA
HETATM   18  C3  UNL     1       7.694  62.809 -34.314  1.00  0.00     0.291 C 
HETATM   19  C23 UNL     1       7.742  63.413 -35.722  1.00  0.00     0.204 C 
HETATM   20  C22 UNL     1       6.312  63.907 -35.884  1.00  0.00     0.183 C 
BRANCH  18  21
HETATM   21  O1  UNL     1       7.102  61.516 -34.357  1.00  0.00    -0.359 OA
BRANCH  21  22
HETATM   22  C2  UNL     1       7.993  60.536 -34.883  1.00  0.00     0.166 C 
HETATM   23  C1  UNL     1       7.216  59.250 -35.086  1.00  0.00     0.033 C 
ENDBRANCH  21  22
ENDBRANCH  18  21
BRANCH  19  24
HETATM   24  O9  UNL     1       8.653  64.523 -35.781  1.00  0.00    -0.388 OA
HETATM   25  H42 UNL     1       8.620  64.983 -34.921  1.00  0.00     0.210 HD
ENDBRANCH  19  24
BRANCH  20  26
HETATM   26  O8  UNL     1       5.469  62.865 -36.372  1.00  0.00    -0.390 OA
HETATM   27  H40 UNL     1       5.282  62.270 -35.609  1.00  0.00     0.210 HD
ENDBRANCH  20  26
ENDBRANCH  15  16
BRANCH  15  28
HETATM   28  O3  UNL     1       4.131  62.762 -34.195  1.00  0.00    -0.391 OA
HETATM   29  H9  UNL     1       3.169  62.750 -34.009  1.00  0.00     0.210 HD
ENDBRANCH  15  28
ENDBRANCH  14  15
ENDBRANCH  13  14
ENDBRANCH   1  13
BRANCH   9  30
HETATM   30  O7  UNL     1      -0.578  67.511 -36.730  1.00  0.00    -0.390 OA
HETATM   31  H34 UNL     1      -1.268  68.191 -36.632  1.00  0.00     0.210 HD
ENDBRANCH   9  30
BRANCH   6  32
HETATM   32  C13 UNL     1       2.622  69.635 -41.474  1.00  0.00     0.079 C 
HETATM   33  C14 UNL     1       4.149  69.554 -41.562  1.00  0.00     0.048 C 
BRANCH  32  34
HETATM   34  O5  UNL     1       2.289  71.010 -41.200  1.00  0.00    -0.388 OA
HETATM   35  H23 UNL     1       1.336  71.089 -41.405  1.00  0.00     0.210 HD
ENDBRANCH  32  34
BRANCH  32  36
HETATM   36  C15 UNL     1       2.009  69.327 -42.863  1.00  0.00     0.201 C 
BRANCH  36  37
HETATM   37  O6  UNL     1       1.424  68.023 -42.849  1.00  0.00    -0.398 OA
HETATM   38  H26 UNL     1       1.022  67.887 -43.726  1.00  0.00     0.209 HD
ENDBRANCH  36  37
ENDBRANCH  32  36
ENDBRANCH   6  32
TORSDOF 14
ENDMDL
MODEL 8
REMARK minimizedAffinity -8.28979015
REMARK  14 active torsions:
REMARK  status: ('A' for Active; 'I' for Inactive)
REMARK    1  A    between atoms: C2_2  and  O1_3 
REMARK    2  A    between atoms: O1_3  and  C3_4 
REMARK    3  A    between atoms: C4_6  and  C5_7 
REMARK    4  A    between atoms: C5_7  and  O3_8 
REMARK    5  A    between atoms: C5_7  and  C6_9 
REMARK    6  A    between atoms: C6_9  and  O4_10 
REMARK    7  A    between atoms: O4_10  and  C7_11 
REMARK    8  A    between atoms: C12_16  and  C13_17 
REMARK    9  A    between atoms: C13_17  and  O5_19 
REMARK   10  A    between atoms: C13_17  and  C15_20 
REMARK   11  A    between atoms: C15_20  and  O6_21 
REMARK   12  A    between atoms: C18_24  and  O7_26 
REMARK   13  A    between atoms: C22_29  and  O8_30 
REMARK   14  A    between atoms: C23_31  and  O9_32 
ROOT
HETATM    1  C7  UNL     1      -4.283  49.020 -26.189  1.00  0.00     0.126 C 
HETATM    2  C8  UNL     1      -3.095  49.207 -27.118  1.00  0.00     0.040 C 
HETATM    3  C9  UNL     1      -1.975  49.771 -26.217  1.00  0.00     0.026 C 
HETATM    4  C10 UNL     1      -2.311  49.263 -24.782  1.00  0.00    -0.001 C 
HETATM    5  C11 UNL     1      -2.347  50.268 -23.622  1.00  0.00     0.013 C 
HETATM    6  C12 UNL     1      -0.998  50.943 -23.302  1.00  0.00     0.022 C 
HETATM    7  C16 UNL     1      -0.749  52.152 -24.226  1.00  0.00     0.010 C 
HETATM    8  C17 UNL     1      -0.495  51.798 -25.685  1.00  0.00     0.038 C 
HETATM    9  C18 UNL     1      -1.689  51.268 -26.495  1.00  0.00     0.058 C 
HETATM   10  C19 UNL     1      -2.909  52.194 -26.426  1.00  0.00     0.046 C 
HETATM   11  C20 UNL     1      -3.611  48.423 -24.953  1.00  0.00     0.015 C 
HETATM   12  C21 UNL     1      -4.565  48.336 -23.767  1.00  0.00     0.013 C 
ENDROOT
BRANCH   1  13
HETATM   13  O4  UNL     1      -5.237  48.109 -26.719  1.00  0.00    -0.383 OA
BRANCH  13  14
HETATM   14  C6  UNL     1      -5.182  48.033 -28.152  1.00  0.00     0.202 C 
BRANCH  14  15
HETATM   15  C5  UNL     1      -6.377  47.193 -28.616  1.00  0.00     0.173 C 
BRANCH  15  16
HETATM   16  C4  UNL     1      -6.941  47.677 -29.960  1.00  0.00     0.187 C 
HETATM   17  O2  UNL     1      -6.005  48.600 -30.575  1.00  0.00    -0.348 OA
HETATM   18  C3  UNL     1      -5.653  48.087 -31.870  1.00  0.00     0.291 C 
HETATM   19  C23 UNL     1      -6.876  47.276 -32.311  1.00  0.00     0.204 C 
HETATM   20  C22 UNL     1      -7.268  46.595 -31.007  1.00  0.00     0.183 C 
BRANCH  18  21
HETATM   21  O1  UNL     1      -4.507  47.246 -31.799  1.00  0.00    -0.359 OA
BRANCH  21  22
HETATM   22  C2  UNL     1      -4.162  46.701 -33.070  1.00  0.00     0.166 C 
HETATM   23  C1  UNL     1      -3.424  47.767 -33.857  1.00  0.00     0.033 C 
ENDBRANCH  21  22
ENDBRANCH  18  21
BRANCH  19  24
HETATM   24  O9  UNL     1      -7.938  48.135 -32.754  1.00  0.00    -0.388 OA
HETATM   25  H42 UNL     1      -7.908  48.949 -32.217  1.00  0.00     0.210 HD
ENDBRANCH  19  24
BRANCH  20  26
HETATM   26  O8  UNL     1      -6.540  45.381 -30.831  1.00  0.00    -0.390 OA
HETATM   27  H40 UNL     1      -5.633  45.634 -30.541  1.00  0.00     0.210 HD
ENDBRANCH  20  26
ENDBRANCH  15  16
BRANCH  15  28
HETATM   28  O3  UNL     1      -7.388  47.215 -27.590  1.00  0.00    -0.391 OA
HETATM   29  H9  UNL     1      -6.899  47.044 -26.759  1.00  0.00     0.210 HD
ENDBRANCH  15  28
ENDBRANCH  14  15
ENDBRANCH  13  14
ENDBRANCH   1  13
BRANCH   9  30
HETATM   30  O7  UNL     1      -1.260  51.305 -27.879  1.00  0.00    -0.390 OA
HETATM   31  H34 UNL     1      -1.035  52.226 -28.102  1.00  0.00     0.210 HD
ENDBRANCH   9  30
BRANCH   6  32
HETATM   32  C13 UNL     1      -0.882  51.357 -21.786  1.00  0.00     0.079 C 
HETATM   33  C14 UNL     1      -0.335  50.238 -20.895  1.00  0.00     0.048 C 
BRANCH  32  34
HETATM   34  O5  UNL     1      -2.208  51.662 -21.312  1.00  0.00    -0.388 OA
HETATM   35  H23 UNL     1      -2.429  52.529 -21.708  1.00  0.00     0.210 HD
ENDBRANCH  32  34
BRANCH  32  36
HETATM   36  C15 UNL     1      -0.052  52.646 -21.563  1.00  0.00     0.201 C 
BRANCH  36  37
HETATM   37  O6  UNL     1       0.720  52.516 -20.367  1.00  0.00    -0.398 OA
HETATM   38  H26 UNL     1       1.250  53.329 -20.286  1.00  0.00     0.209 HD
ENDBRANCH  36  37
ENDBRANCH  32  36
ENDBRANCH   6  32
TORSDOF 14
ENDMDL
MODEL 9
REMARK minimizedAffinity -8.25572681
REMARK  14 active torsions:
REMARK  status: ('A' for Active; 'I' for Inactive)
REMARK    1  A    between atoms: C2_2  and  O1_3 
REMARK    2  A    between atoms: O1_3  and  C3_4 
REMARK    3  A    between atoms: C4_6  and  C5_7 
REMARK    4  A    between atoms: C5_7  and  O3_8 
REMARK    5  A    between atoms: C5_7  and  C6_9 
REMARK    6  A    between atoms: C6_9  and  O4_10 
REMARK    7  A    between atoms: O4_10  and  C7_11 
REMARK    8  A    between atoms: C12_16  and  C13_17 
REMARK    9  A    between atoms: C13_17  and  O5_19 
REMARK   10  A    between atoms: C13_17  and  C15_20 
REMARK   11  A    between atoms: C15_20  and  O6_21 
REMARK   12  A    between atoms: C18_24  and  O7_26 
REMARK   13  A    between atoms: C22_29  and  O8_30 
REMARK   14  A    between atoms: C23_31  and  O9_32 
ROOT
HETATM    1  C7  UNL     1      -4.232  49.060 -26.177  1.00  0.00     0.126 C 
HETATM    2  C8  UNL     1      -3.048  49.266 -27.107  1.00  0.00     0.040 C 
HETATM    3  C9  UNL     1      -1.930  49.829 -26.203  1.00  0.00     0.026 C 
HETATM    4  C10 UNL     1      -2.258  49.303 -24.773  1.00  0.00    -0.001 C 
HETATM    5  C11 UNL     1      -2.299  50.294 -23.601  1.00  0.00     0.013 C 
HETATM    6  C12 UNL     1      -0.955  50.976 -23.276  1.00  0.00     0.022 C 
HETATM    7  C16 UNL     1      -0.718  52.198 -24.187  1.00  0.00     0.010 C 
HETATM    8  C17 UNL     1      -0.465  51.862 -25.651  1.00  0.00     0.038 C 
HETATM    9  C18 UNL     1      -1.656  51.331 -26.464  1.00  0.00     0.058 C 
HETATM   10  C19 UNL     1      -2.884  52.247 -26.381  1.00  0.00     0.046 C 
HETATM   11  C20 UNL     1      -3.552  48.455 -24.950  1.00  0.00     0.015 C 
HETATM   12  C21 UNL     1      -4.502  48.346 -23.763  1.00  0.00     0.013 C 
ENDROOT
BRANCH   1  13
HETATM   13  O4  UNL     1      -5.180  48.147 -26.716  1.00  0.00    -0.383 OA
BRANCH  13  14
HETATM   14  C6  UNL     1      -5.081  48.035 -28.144  1.00  0.00     0.202 C 
BRANCH  14  15
HETATM   15  C5  UNL     1      -6.415  47.484 -28.658  1.00  0.00     0.173 C 
BRANCH  15  16
HETATM   16  C4  UNL     1      -6.283  46.844 -30.048  1.00  0.00     0.187 C 
HETATM   17  O2  UNL     1      -7.552  46.257 -30.434  1.00  0.00    -0.348 OA
HETATM   18  C3  UNL     1      -7.961  46.850 -31.678  1.00  0.00     0.291 C 
HETATM   19  C23 UNL     1      -6.650  47.238 -32.372  1.00  0.00     0.204 C 
HETATM   20  C22 UNL     1      -5.837  47.766 -31.198  1.00  0.00     0.183 C 
BRANCH  18  21
HETATM   21  O1  UNL     1      -8.760  48.008 -31.461  1.00  0.00    -0.359 OA
BRANCH  21  22
HETATM   22  C2  UNL     1     -10.048  47.680 -30.944  1.00  0.00     0.166 C 
HETATM   23  C1  UNL     1     -10.738  46.767 -31.939  1.00  0.00     0.033 C 
ENDBRANCH  21  22
ENDBRANCH  18  21
BRANCH  19  24
HETATM   24  O9  UNL     1      -6.003  46.088 -32.939  1.00  0.00    -0.388 OA
HETATM   25  H42 UNL     1      -6.182  45.326 -32.356  1.00  0.00     0.210 HD
ENDBRANCH  19  24
BRANCH  20  26
HETATM   26  O8  UNL     1      -6.113  49.147 -30.972  1.00  0.00    -0.390 OA
HETATM   27  H40 UNL     1      -6.985  49.191 -30.516  1.00  0.00     0.210 HD
ENDBRANCH  20  26
ENDBRANCH  15  16
BRANCH  15  28
HETATM   28  O3  UNL     1      -7.386  48.548 -28.666  1.00  0.00    -0.391 OA
HETATM   29  H9  UNL     1      -7.282  48.983 -27.795  1.00  0.00     0.210 HD
ENDBRANCH  15  28
ENDBRANCH  14  15
ENDBRANCH  13  14
ENDBRANCH   1  13
BRANCH   9  30
HETATM   30  O7  UNL     1      -1.231  51.388 -27.848  1.00  0.00    -0.390 OA
HETATM   31  H34 UNL     1      -1.014  52.313 -28.062  1.00  0.00     0.210 HD
ENDBRANCH   9  30
BRANCH   6  32
HETATM   32  C13 UNL     1      -0.839  51.374 -21.757  1.00  0.00     0.079 C 
HETATM   33  C14 UNL     1      -0.254  50.260 -20.884  1.00  0.00     0.048 C 
BRANCH  32  34
HETATM   34  O5  UNL     1      -2.169  51.636 -21.269  1.00  0.00    -0.388 OA
HETATM   35  H23 UNL     1      -2.417  52.502 -21.652  1.00  0.00     0.210 HD
ENDBRANCH  32  34
BRANCH  32  36
HETATM   36  C15 UNL     1      -0.043  52.682 -21.523  1.00  0.00     0.201 C 
BRANCH  36  37
HETATM   37  O6  UNL     1       1.340  52.374 -21.337  1.00  0.00    -0.398 OA
HETATM   38  H26 UNL     1       1.805  53.223 -21.230  1.00  0.00     0.209 HD
ENDBRANCH  36  37
ENDBRANCH  32  36
ENDBRANCH   6  32
TORSDOF 14
ENDMDL
