MODEL 1
REMARK minimizedAffinity -8.8270092
REMARK  8 active torsions:
REMARK  status: ('A' for Active; 'I' for Inactive)
REMARK    1  A    between atoms: C4_4  and  C5_5 
REMARK    2  A    between atoms: C5_5  and  O2_7 
REMARK    3  A    between atoms: O2_7  and  C6_8 
REMARK    4  A    between atoms: C15_17  and  C16_18 
REMARK    5  A    between atoms: C16_18  and  O4_20 
REMARK    6  A    between atoms: O4_20  and  C17_21 
REMARK    7  A    between atoms: C17_21  and  C18_22 
REMARK    8  A    between atoms: C18_22  and  N1_23 
ROOT
HETATM    1  C6  UNL     1       0.512   6.764  10.975  1.00  0.00     0.140 C 
HETATM    2  C7  UNL     1       0.149   5.280  11.058  1.00  0.00     0.034 C 
HETATM    3  C8  UNL     1      -1.290   5.093  11.516  1.00  0.00     0.012 C 
HETATM    4  C9  UNL     1      -1.605   5.740  12.893  1.00  0.00    -0.035 C 
HETATM    5  C10 UNL     1      -0.972   4.859  13.999  1.00  0.00     0.016 C 
HETATM    6  C11 UNL     1      -3.187   5.786  13.057  1.00  0.00     0.006 C 
HETATM    7  C12 UNL     1      -3.819   4.453  13.489  1.00  0.00     0.010 C 
HETATM    8  C13 UNL     1      -5.340   4.482  13.312  1.00  0.00     0.035 C 
HETATM    9  C14 UNL     1      -5.980   5.783  13.756  1.00  0.00    -0.070 C 
HETATM   10  C15 UNL     1      -7.229   6.147  13.391  1.00  0.00     0.085 C 
HETATM   11  C21 UNL     1      -5.072   6.645  14.649  1.00  0.00     0.022 C 
HETATM   12  C22 UNL     1      -5.717   7.949  15.156  1.00  0.00     0.015 C 
HETATM   13  C23 UNL     1      -3.725   6.957  13.933  1.00  0.00     0.068 C 
HETATM   14  C24 UNL     1      -2.642   7.393  14.907  1.00  0.00     0.132 C 
HETATM   15  O5  UNL     1      -2.798   7.412  16.129  1.00  0.00    -0.298 OA
HETATM   16  C25 UNL     1      -1.334   7.860  14.301  1.00  0.00     0.085 C 
HETATM   17  C26 UNL     1      -1.080   7.220  12.922  1.00  0.00     0.011 C 
HETATM   18  C27 UNL     1       0.368   7.484  12.352  1.00  0.00    -0.016 C 
HETATM   19  C28 UNL     1       1.527   7.087  13.295  1.00  0.00     0.018 C 
HETATM   20  C29 UNL     1       0.536   9.009  12.106  1.00  0.00     0.018 C 
ENDROOT
BRANCH  10  21
HETATM   21  C16 UNL     1      -8.245   5.437  12.570  1.00  0.00     0.283 C 
HETATM   22  O3  UNL     1      -8.095   4.266  12.248  1.00  0.00    -0.260 OA
BRANCH  21  23
HETATM   23  O4  UNL     1      -9.280   6.230  12.218  1.00  0.00    -0.316 OA
BRANCH  23  24
HETATM   24  C17 UNL     1     -10.032   6.810  13.301  1.00  0.00     0.209 C 
BRANCH  24  25
HETATM   25  C18 UNL     1     -11.362   7.377  12.776  1.00  0.00     0.298 C 
BRANCH  25  26
HETATM   26  N1  UNL     1     -11.492   8.840  12.922  1.00  0.00     0.082 N 
HETATM   27  C19 UNL     1     -10.928   9.266  14.207  1.00  0.00     0.309 C 
HETATM   28  C20 UNL     1     -12.885   9.278  12.826  1.00  0.00     0.309 C 
ENDBRANCH  25  26
ENDBRANCH  24  25
ENDBRANCH  23  24
ENDBRANCH  21  23
ENDBRANCH  10  21
BRANCH   1  29
HETATM   29  O2  UNL     1       1.870   6.887  10.511  1.00  0.00    -0.312 OA
BRANCH  29  30
HETATM   30  C5  UNL     1       2.356   5.863   9.771  1.00  0.00     0.283 C 
HETATM   31  O1  UNL     1       2.660   4.754  10.183  1.00  0.00    -0.260 OA
BRANCH  30  32
HETATM   32  C4  UNL     1       2.405   6.212   8.335  1.00  0.00     0.084 C 
HETATM   33  C2  UNL     1       1.768   7.214   7.696  1.00  0.00    -0.082 C 
HETATM   34  C1  UNL     1       0.900   8.255   8.346  1.00  0.00     0.043 C 
HETATM   35  C3  UNL     1       1.921   7.378   6.205  1.00  0.00     0.043 C 
ENDBRANCH  30  32
ENDBRANCH  29  30
ENDBRANCH   1  29
TORSDOF 8
ENDMDL
MODEL 2
REMARK minimizedAffinity -8.73260021
REMARK  8 active torsions:
REMARK  status: ('A' for Active; 'I' for Inactive)
REMARK    1  A    between atoms: C4_4  and  C5_5 
REMARK    2  A    between atoms: C5_5  and  O2_7 
REMARK    3  A    between atoms: O2_7  and  C6_8 
REMARK    4  A    between atoms: C15_17  and  C16_18 
REMARK    5  A    between atoms: C16_18  and  O4_20 
REMARK    6  A    between atoms: O4_20  and  C17_21 
REMARK    7  A    between atoms: C17_21  and  C18_22 
REMARK    8  A    between atoms: C18_22  and  N1_23 
ROOT
HETATM    1  C6  UNL     1       1.433   6.295  10.786  1.00  0.00     0.140 C 
HETATM    2  C7  UNL     1       1.275   5.048  11.657  1.00  0.00     0.034 C 
HETATM    3  C8  UNL     1      -0.164   4.881  12.121  1.00  0.00     0.012 C 
HETATM    4  C9  UNL     1      -0.716   6.094  12.919  1.00  0.00    -0.035 C 
HETATM    5  C10 UNL     1      -0.091   6.067  14.337  1.00  0.00     0.016 C 
HETATM    6  C11 UNL     1      -2.297   5.938  13.007  1.00  0.00     0.006 C 
HETATM    7  C12 UNL     1      -2.780   4.953  14.084  1.00  0.00     0.010 C 
HETATM    8  C13 UNL     1      -4.260   4.613  13.896  1.00  0.00     0.035 C 
HETATM    9  C14 UNL     1      -5.122   5.812  13.551  1.00  0.00    -0.070 C 
HETATM   10  C15 UNL     1      -6.362   5.695  13.027  1.00  0.00     0.085 C 
HETATM   11  C21 UNL     1      -4.448   7.161  13.846  1.00  0.00     0.022 C 
HETATM   12  C22 UNL     1      -5.321   8.396  13.552  1.00  0.00     0.015 C 
HETATM   13  C23 UNL     1      -3.088   7.278  13.097  1.00  0.00     0.068 C 
HETATM   14  C24 UNL     1      -2.191   8.351  13.694  1.00  0.00     0.132 C 
HETATM   15  O5  UNL     1      -2.481   8.989  14.706  1.00  0.00    -0.298 OA
HETATM   16  C25 UNL     1      -0.903   8.646  12.953  1.00  0.00     0.085 C 
HETATM   17  C26 UNL     1      -0.412   7.428  12.147  1.00  0.00     0.011 C 
HETATM   18  C27 UNL     1       1.038   7.599  11.548  1.00  0.00    -0.016 C 
HETATM   19  C28 UNL     1       2.132   7.980  12.574  1.00  0.00     0.018 C 
HETATM   20  C29 UNL     1       1.016   8.760  10.515  1.00  0.00     0.018 C 
ENDROOT
BRANCH  10  21
HETATM   21  C16 UNL     1      -7.171   4.490  12.708  1.00  0.00     0.283 C 
HETATM   22  O3  UNL     1      -8.303   4.587  12.254  1.00  0.00    -0.260 OA
BRANCH  21  23
HETATM   23  O4  UNL     1      -6.532   3.338  13.004  1.00  0.00    -0.316 OA
BRANCH  23  24
HETATM   24  C17 UNL     1      -6.918   2.182  12.238  1.00  0.00     0.209 C 
BRANCH  24  25
HETATM   25  C18 UNL     1      -5.808   1.815  11.238  1.00  0.00     0.298 C 
BRANCH  25  26
HETATM   26  N1  UNL     1      -4.511   2.462  11.515  1.00  0.00     0.082 N 
HETATM   27  C19 UNL     1      -4.190   3.415  10.447  1.00  0.00     0.309 C 
HETATM   28  C20 UNL     1      -3.428   1.485  11.645  1.00  0.00     0.309 C 
ENDBRANCH  25  26
ENDBRANCH  24  25
ENDBRANCH  23  24
ENDBRANCH  21  23
ENDBRANCH  10  21
BRANCH   1  29
HETATM   29  O2  UNL     1       2.803   6.392  10.352  1.00  0.00    -0.312 OA
BRANCH  29  30
HETATM   30  C5  UNL     1       3.153   5.653   9.273  1.00  0.00     0.283 C 
HETATM   31  O1  UNL     1       3.947   4.725   9.260  1.00  0.00    -0.260 OA
BRANCH  30  32
HETATM   32  C4  UNL     1       2.379   6.048   8.077  1.00  0.00     0.084 C 
HETATM   33  C2  UNL     1       2.318   7.256   7.482  1.00  0.00    -0.082 C 
HETATM   34  C1  UNL     1       3.100   8.474   7.889  1.00  0.00     0.043 C 
HETATM   35  C3  UNL     1       1.429   7.465   6.281  1.00  0.00     0.043 C 
ENDBRANCH  30  32
ENDBRANCH  29  30
ENDBRANCH   1  29
TORSDOF 8
ENDMDL
MODEL 3
REMARK minimizedAffinity -8.51537037
REMARK  8 active torsions:
REMARK  status: ('A' for Active; 'I' for Inactive)
REMARK    1  A    between atoms: C4_4  and  C5_5 
REMARK    2  A    between atoms: C5_5  and  O2_7 
REMARK    3  A    between atoms: O2_7  and  C6_8 
REMARK    4  A    between atoms: C15_17  and  C16_18 
REMARK    5  A    between atoms: C16_18  and  O4_20 
REMARK    6  A    between atoms: O4_20  and  C17_21 
REMARK    7  A    between atoms: C17_21  and  C18_22 
REMARK    8  A    between atoms: C18_22  and  N1_23 
ROOT
HETATM    1  C6  UNL     1      -7.702   7.444  14.468  1.00  0.00     0.140 C 
HETATM    2  C7  UNL     1      -6.689   8.065  15.431  1.00  0.00     0.034 C 
HETATM    3  C8  UNL     1      -5.283   8.020  14.852  1.00  0.00     0.012 C 
HETATM    4  C9  UNL     1      -4.791   6.590  14.497  1.00  0.00    -0.035 C 
HETATM    5  C10 UNL     1      -4.440   5.857  15.816  1.00  0.00     0.016 C 
HETATM    6  C11 UNL     1      -3.496   6.736  13.583  1.00  0.00     0.006 C 
HETATM    7  C12 UNL     1      -2.203   7.038  14.356  1.00  0.00     0.010 C 
HETATM    8  C13 UNL     1      -1.086   7.481  13.408  1.00  0.00     0.035 C 
HETATM    9  C14 UNL     1      -1.011   6.666  12.131  1.00  0.00    -0.070 C 
HETATM   10  C15 UNL     1      -0.338   7.082  11.036  1.00  0.00     0.085 C 
HETATM   11  C21 UNL     1      -1.776   5.335  12.203  1.00  0.00     0.022 C 
HETATM   12  C22 UNL     1      -1.675   4.464  10.937  1.00  0.00     0.015 C 
HETATM   13  C23 UNL     1      -3.270   5.573  12.570  1.00  0.00     0.068 C 
HETATM   14  C24 UNL     1      -3.944   4.314  13.094  1.00  0.00     0.132 C 
HETATM   15  O5  UNL     1      -3.344   3.255  13.283  1.00  0.00    -0.298 OA
HETATM   16  C25 UNL     1      -5.436   4.398  13.344  1.00  0.00     0.085 C 
HETATM   17  C26 UNL     1      -5.885   5.839  13.657  1.00  0.00     0.011 C 
HETATM   18  C27 UNL     1      -7.379   5.949  14.155  1.00  0.00    -0.016 C 
HETATM   19  C28 UNL     1      -7.735   5.053  15.364  1.00  0.00     0.018 C 
HETATM   20  C29 UNL     1      -8.321   5.493  13.008  1.00  0.00     0.018 C 
ENDROOT
BRANCH  10  21
HETATM   21  C16 UNL     1       0.470   8.307  10.801  1.00  0.00     0.283 C 
HETATM   22  O3  UNL     1       1.368   8.631  11.565  1.00  0.00    -0.260 OA
BRANCH  21  23
HETATM   23  O4  UNL     1       0.074   8.992   9.706  1.00  0.00    -0.316 OA
BRANCH  23  24
HETATM   24  C17 UNL     1       0.429   8.418   8.434  1.00  0.00     0.209 C 
BRANCH  24  25
HETATM   25  C18 UNL     1       1.949   8.510   8.219  1.00  0.00     0.298 C 
BRANCH  25  26
HETATM   26  N1  UNL     1       2.534   7.331   7.549  1.00  0.00     0.082 N 
HETATM   27  C19 UNL     1       1.720   6.963   6.385  1.00  0.00     0.309 C 
HETATM   28  C20 UNL     1       2.646   6.187   8.454  1.00  0.00     0.309 C 
ENDBRANCH  25  26
ENDBRANCH  24  25
ENDBRANCH  23  24
ENDBRANCH  21  23
ENDBRANCH  10  21
BRANCH   1  29
HETATM   29  O2  UNL     1      -9.017   7.536  15.049  1.00  0.00    -0.312 OA
BRANCH  29  30
HETATM   30  C5  UNL     1      -9.807   8.544  14.611  1.00  0.00     0.283 C 
HETATM   31  O1  UNL     1      -9.634   9.737  14.809  1.00  0.00    -0.260 OA
BRANCH  30  32
HETATM   32  C4  UNL     1     -10.903   8.037  13.758  1.00  0.00     0.084 C 
HETATM   33  C2  UNL     1     -12.217   7.950  14.049  1.00  0.00    -0.082 C 
HETATM   34  C1  UNL     1     -12.867   8.426  15.319  1.00  0.00     0.043 C 
HETATM   35  C3  UNL     1     -13.177   7.360  13.046  1.00  0.00     0.043 C 
ENDBRANCH  30  32
ENDBRANCH  29  30
ENDBRANCH   1  29
TORSDOF 8
ENDMDL
MODEL 4
REMARK minimizedAffinity -8.09284019
REMARK  8 active torsions:
REMARK  status: ('A' for Active; 'I' for Inactive)
REMARK    1  A    between atoms: C4_4  and  C5_5 
REMARK    2  A    between atoms: C5_5  and  O2_7 
REMARK    3  A    between atoms: O2_7  and  C6_8 
REMARK    4  A    between atoms: C15_17  and  C16_18 
REMARK    5  A    between atoms: C16_18  and  O4_20 
REMARK    6  A    between atoms: O4_20  and  C17_21 
REMARK    7  A    between atoms: C17_21  and  C18_22 
REMARK    8  A    between atoms: C18_22  and  N1_23 
ROOT
HETATM    1  C6  UNL     1      -7.441   7.362  14.272  1.00  0.00     0.140 C 
HETATM    2  C7  UNL     1      -6.384   7.942  15.214  1.00  0.00     0.034 C 
HETATM    3  C8  UNL     1      -4.992   7.824  14.614  1.00  0.00     0.012 C 
HETATM    4  C9  UNL     1      -4.574   6.369  14.264  1.00  0.00    -0.035 C 
HETATM    5  C10 UNL     1      -4.239   5.629  15.584  1.00  0.00     0.016 C 
HETATM    6  C11 UNL     1      -3.289   6.444  13.328  1.00  0.00     0.006 C 
HETATM    7  C12 UNL     1      -1.970   6.689  14.079  1.00  0.00     0.010 C 
HETATM    8  C13 UNL     1      -0.848   7.069  13.110  1.00  0.00     0.035 C 
HETATM    9  C14 UNL     1      -0.833   6.242  11.840  1.00  0.00    -0.070 C 
HETATM   10  C15 UNL     1      -0.159   6.616  10.730  1.00  0.00     0.085 C 
HETATM   11  C21 UNL     1      -1.661   4.950  11.935  1.00  0.00     0.022 C 
HETATM   12  C22 UNL     1      -1.622   4.065  10.675  1.00  0.00     0.015 C 
HETATM   13  C23 UNL     1      -3.136   5.264  12.323  1.00  0.00     0.068 C 
HETATM   14  C24 UNL     1      -3.861   4.043  12.868  1.00  0.00     0.132 C 
HETATM   15  O5  UNL     1      -3.311   2.958  13.057  1.00  0.00    -0.298 OA
HETATM   16  C25 UNL     1      -5.343   4.201  13.140  1.00  0.00     0.085 C 
HETATM   17  C26 UNL     1      -5.717   5.665  13.448  1.00  0.00     0.011 C 
HETATM   18  C27 UNL     1      -7.195   5.852  13.968  1.00  0.00    -0.016 C 
HETATM   19  C28 UNL     1      -7.576   4.983  15.190  1.00  0.00     0.018 C 
HETATM   20  C29 UNL     1      -8.177   5.432  12.839  1.00  0.00     0.018 C 
ENDROOT
BRANCH  10  21
HETATM   21  C16 UNL     1       0.704   7.799  10.472  1.00  0.00     0.283 C 
HETATM   22  O3  UNL     1       0.244   8.932  10.472  1.00  0.00    -0.260 OA
BRANCH  21  23
HETATM   23  O4  UNL     1       1.987   7.464  10.217  1.00  0.00    -0.316 OA
BRANCH  23  24
HETATM   24  C17 UNL     1       2.679   6.757  11.264  1.00  0.00     0.209 C 
BRANCH  24  25
HETATM   25  C18 UNL     1       4.017   6.210  10.737  1.00  0.00     0.298 C 
BRANCH  25  26
HETATM   26  N1  UNL     1       5.198   6.972  11.188  1.00  0.00     0.082 N 
HETATM   27  C19 UNL     1       6.372   6.094  11.232  1.00  0.00     0.309 C 
HETATM   28  C20 UNL     1       4.988   7.580  12.503  1.00  0.00     0.309 C 
ENDBRANCH  25  26
ENDBRANCH  24  25
ENDBRANCH  23  24
ENDBRANCH  21  23
ENDBRANCH  10  21
BRANCH   1  29
HETATM   29  O2  UNL     1      -8.741   7.523  14.873  1.00  0.00    -0.312 OA
BRANCH  29  30
HETATM   30  C5  UNL     1      -8.774   7.710  16.213  1.00  0.00     0.283 C 
HETATM   31  O1  UNL     1      -7.951   7.304  17.019  1.00  0.00    -0.260 OA
BRANCH  30  32
HETATM   32  C4  UNL     1      -9.913   8.564  16.610  1.00  0.00     0.084 C 
HETATM   33  C2  UNL     1     -10.162   9.842  16.260  1.00  0.00    -0.082 C 
HETATM   34  C1  UNL     1      -9.337  10.667  15.312  1.00  0.00     0.043 C 
HETATM   35  C3  UNL     1     -11.371  10.555  16.810  1.00  0.00     0.043 C 
ENDBRANCH  30  32
ENDBRANCH  29  30
ENDBRANCH   1  29
TORSDOF 8
ENDMDL
MODEL 5
REMARK minimizedAffinity -8.08883858
REMARK  8 active torsions:
REMARK  status: ('A' for Active; 'I' for Inactive)
REMARK    1  A    between atoms: C4_4  and  C5_5 
REMARK    2  A    between atoms: C5_5  and  O2_7 
REMARK    3  A    between atoms: O2_7  and  C6_8 
REMARK    4  A    between atoms: C15_17  and  C16_18 
REMARK    5  A    between atoms: C16_18  and  O4_20 
REMARK    6  A    between atoms: O4_20  and  C17_21 
REMARK    7  A    between atoms: C17_21  and  C18_22 
REMARK    8  A    between atoms: C18_22  and  N1_23 
ROOT
HETATM    1  C6  UNL     1       1.467   6.238   9.752  1.00  0.00     0.140 C 
HETATM    2  C7  UNL     1       1.568   5.206  10.877  1.00  0.00     0.034 C 
HETATM    3  C8  UNL     1       0.250   5.082  11.627  1.00  0.00     0.012 C 
HETATM    4  C9  UNL     1      -0.254   6.415  12.245  1.00  0.00    -0.035 C 
HETATM    5  C10 UNL     1       0.607   6.727  13.494  1.00  0.00     0.016 C 
HETATM    6  C11 UNL     1      -1.778   6.212  12.658  1.00  0.00     0.006 C 
HETATM    7  C12 UNL     1      -1.981   5.467  13.988  1.00  0.00     0.010 C 
HETATM    8  C13 UNL     1      -3.438   5.028  14.155  1.00  0.00     0.035 C 
HETATM    9  C14 UNL     1      -4.444   6.083  13.736  1.00  0.00    -0.070 C 
HETATM   10  C15 UNL     1      -5.743   5.800  13.490  1.00  0.00     0.085 C 
HETATM   11  C21 UNL     1      -3.845   7.493  13.613  1.00  0.00     0.022 C 
HETATM   12  C22 UNL     1      -4.856   8.593  13.238  1.00  0.00     0.015 C 
HETATM   13  C23 UNL     1      -2.650   7.502  12.614  1.00  0.00     0.068 C 
HETATM   14  C24 UNL     1      -1.756   8.719  12.797  1.00  0.00     0.132 C 
HETATM   15  O5  UNL     1      -1.918   9.550  13.691  1.00  0.00    -0.298 OA
HETATM   16  C25 UNL     1      -0.646   8.901  11.782  1.00  0.00     0.085 C 
HETATM   17  C26 UNL     1      -0.201   7.559  11.169  1.00  0.00     0.011 C 
HETATM   18  C27 UNL     1       1.103   7.659  10.286  1.00  0.00    -0.016 C 
HETATM   19  C28 UNL     1       2.322   8.303  10.987  1.00  0.00     0.018 C 
HETATM   20  C29 UNL     1       0.805   8.562   9.058  1.00  0.00     0.018 C 
ENDROOT
BRANCH  10  21
HETATM   21  C16 UNL     1      -6.491   4.519  13.586  1.00  0.00     0.283 C 
HETATM   22  O3  UNL     1      -6.067   3.496  13.066  1.00  0.00    -0.260 OA
BRANCH  21  23
HETATM   23  O4  UNL     1      -7.655   4.643  14.259  1.00  0.00    -0.316 OA
BRANCH  23  24
HETATM   24  C17 UNL     1      -8.310   5.922  14.165  1.00  0.00     0.209 C 
BRANCH  24  25
HETATM   25  C18 UNL     1      -8.777   6.380  15.558  1.00  0.00     0.298 C 
BRANCH  25  26
HETATM   26  N1  UNL     1      -9.860   7.383  15.530  1.00  0.00     0.082 N 
HETATM   27  C19 UNL     1     -10.836   7.034  14.492  1.00  0.00     0.309 C 
HETATM   28  C20 UNL     1      -9.350   8.734  15.293  1.00  0.00     0.309 C 
ENDBRANCH  25  26
ENDBRANCH  24  25
ENDBRANCH  23  24
ENDBRANCH  21  23
ENDBRANCH  10  21
BRANCH   1  29
HETATM   29  O2  UNL     1       2.728   6.297   9.058  1.00  0.00    -0.312 OA
BRANCH  29  30
HETATM   30  C5  UNL     1       3.654   5.371   9.398  1.00  0.00     0.283 C 
HETATM   31  O1  UNL     1       4.262   5.311  10.456  1.00  0.00    -0.260 OA
BRANCH  30  32
HETATM   32  C4  UNL     1       3.801   4.345   8.344  1.00  0.00     0.084 C 
HETATM   33  C2  UNL     1       3.383   4.396   7.063  1.00  0.00    -0.082 C 
HETATM   34  C1  UNL     1       2.717   5.573   6.405  1.00  0.00     0.043 C 
HETATM   35  C3  UNL     1       3.597   3.216   6.149  1.00  0.00     0.043 C 
ENDBRANCH  30  32
ENDBRANCH  29  30
ENDBRANCH   1  29
TORSDOF 8
ENDMDL
MODEL 6
REMARK minimizedAffinity -8.00665569
REMARK  8 active torsions:
REMARK  status: ('A' for Active; 'I' for Inactive)
REMARK    1  A    between atoms: C4_4  and  C5_5 
REMARK    2  A    between atoms: C5_5  and  O2_7 
REMARK    3  A    between atoms: O2_7  and  C6_8 
REMARK    4  A    between atoms: C15_17  and  C16_18 
REMARK    5  A    between atoms: C16_18  and  O4_20 
REMARK    6  A    between atoms: O4_20  and  C17_21 
REMARK    7  A    between atoms: C17_21  and  C18_22 
REMARK    8  A    between atoms: C18_22  and  N1_23 
ROOT
HETATM    1  C6  UNL     1      -3.613   5.630  14.526  1.00  0.00     0.140 C 
HETATM    2  C7  UNL     1      -2.289   6.036  13.876  1.00  0.00     0.034 C 
HETATM    3  C8  UNL     1      -1.563   7.077  14.716  1.00  0.00     0.012 C 
HETATM    4  C9  UNL     1      -2.386   8.370  14.971  1.00  0.00    -0.035 C 
HETATM    5  C10 UNL     1      -2.398   9.203  13.665  1.00  0.00     0.016 C 
HETATM    6  C11 UNL     1      -1.667   9.179  16.139  1.00  0.00     0.006 C 
HETATM    7  C12 UNL     1      -0.444   9.993  15.687  1.00  0.00     0.010 C 
HETATM    8  C13 UNL     1       0.372  10.472  16.890  1.00  0.00     0.035 C 
HETATM    9  C14 UNL     1      -0.476  10.985  18.038  1.00  0.00    -0.070 C 
HETATM   10  C15 UNL     1       0.005  11.139  19.292  1.00  0.00     0.085 C 
HETATM   11  C21 UNL     1      -1.926  11.301  17.640  1.00  0.00     0.022 C 
HETATM   12  C22 UNL     1      -2.796  11.872  18.775  1.00  0.00     0.015 C 
HETATM   13  C23 UNL     1      -2.615  10.053  17.014  1.00  0.00     0.068 C 
HETATM   14  C24 UNL     1      -3.849  10.419  16.205  1.00  0.00     0.132 C 
HETATM   15  O5  UNL     1      -4.205  11.581  16.003  1.00  0.00    -0.298 OA
HETATM   16  C25 UNL     1      -4.677   9.267  15.673  1.00  0.00     0.085 C 
HETATM   17  C26 UNL     1      -3.829   7.997  15.468  1.00  0.00     0.011 C 
HETATM   18  C27 UNL     1      -4.581   6.843  14.699  1.00  0.00    -0.016 C 
HETATM   19  C28 UNL     1      -5.189   7.250  13.336  1.00  0.00     0.018 C 
HETATM   20  C29 UNL     1      -5.781   6.368  15.564  1.00  0.00     0.018 C 
ENDROOT
BRANCH  10  21
HETATM   21  C16 UNL     1       1.367  10.914  19.843  1.00  0.00     0.283 C 
HETATM   22  O3  UNL     1       2.353  11.418  19.323  1.00  0.00    -0.260 OA
BRANCH  21  23
HETATM   23  O4  UNL     1       1.367  10.094  20.916  1.00  0.00    -0.316 OA
BRANCH  23  24
HETATM   24  C17 UNL     1       2.608   9.423  21.202  1.00  0.00     0.209 C 
BRANCH  24  25
HETATM   25  C18 UNL     1       3.756  10.445  21.283  1.00  0.00     0.298 C 
BRANCH  25  26
HETATM   26  N1  UNL     1       4.305  10.627  22.641  1.00  0.00     0.082 N 
HETATM   27  C19 UNL     1       3.446   9.954  23.621  1.00  0.00     0.309 C 
HETATM   28  C20 UNL     1       4.438  12.042  22.992  1.00  0.00     0.309 C 
ENDBRANCH  25  26
ENDBRANCH  24  25
ENDBRANCH  23  24
ENDBRANCH  21  23
ENDBRANCH  10  21
BRANCH   1  29
HETATM   29  O2  UNL     1      -4.246   4.626  13.710  1.00  0.00    -0.312 OA
BRANCH  29  30
HETATM   30  C5  UNL     1      -3.659   4.349  12.522  1.00  0.00     0.283 C 
HETATM   31  O1  UNL     1      -2.736   4.964  12.011  1.00  0.00    -0.260 OA
BRANCH  30  32
HETATM   32  C4  UNL     1      -4.219   3.121  11.919  1.00  0.00     0.084 C 
HETATM   33  C2  UNL     1      -5.515   2.777  11.773  1.00  0.00    -0.082 C 
HETATM   34  C1  UNL     1      -6.695   3.629  12.149  1.00  0.00     0.043 C 
HETATM   35  C3  UNL     1      -5.881   1.448  11.161  1.00  0.00     0.043 C 
ENDBRANCH  30  32
ENDBRANCH  29  30
ENDBRANCH   1  29
TORSDOF 8
ENDMDL
MODEL 7
REMARK minimizedAffinity -7.98794079
REMARK  8 active torsions:
REMARK  status: ('A' for Active; 'I' for Inactive)
REMARK    1  A    between atoms: C4_4  and  C5_5 
REMARK    2  A    between atoms: C5_5  and  O2_7 
REMARK    3  A    between atoms: O2_7  and  C6_8 
REMARK    4  A    between atoms: C15_17  and  C16_18 
REMARK    5  A    between atoms: C16_18  and  O4_20 
REMARK    6  A    between atoms: O4_20  and  C17_21 
REMARK    7  A    between atoms: C17_21  and  C18_22 
REMARK    8  A    between atoms: C18_22  and  N1_23 
ROOT
HETATM    1  C6  UNL     1      -7.243   6.638  13.967  1.00  0.00     0.140 C 
HETATM    2  C7  UNL     1      -6.784   8.086  14.157  1.00  0.00     0.034 C 
HETATM    3  C8  UNL     1      -5.441   8.328  13.484  1.00  0.00     0.012 C 
HETATM    4  C9  UNL     1      -4.304   7.396  13.988  1.00  0.00    -0.035 C 
HETATM    5  C10 UNL     1      -3.866   7.882  15.393  1.00  0.00     0.016 C 
HETATM    6  C11 UNL     1      -3.095   7.507  12.960  1.00  0.00     0.006 C 
HETATM    7  C12 UNL     1      -2.216   8.755  13.147  1.00  0.00     0.010 C 
HETATM    8  C13 UNL     1      -1.291   8.960  11.944  1.00  0.00     0.035 C 
HETATM    9  C14 UNL     1      -0.659   7.679  11.435  1.00  0.00    -0.070 C 
HETATM   10  C15 UNL     1      -0.089   7.579  10.213  1.00  0.00     0.085 C 
HETATM   11  C21 UNL     1      -0.737   6.514  12.434  1.00  0.00     0.022 C 
HETATM   12  C22 UNL     1      -0.057   5.214  11.962  1.00  0.00     0.015 C 
HETATM   13  C23 UNL     1      -2.212   6.229  12.840  1.00  0.00     0.068 C 
HETATM   14  C24 UNL     1      -2.311   5.428  14.129  1.00  0.00     0.132 C 
HETATM   15  O5  UNL     1      -1.333   5.119  14.811  1.00  0.00    -0.298 OA
HETATM   16  C25 UNL     1      -3.697   4.972  14.538  1.00  0.00     0.085 C 
HETATM   17  C26 UNL     1      -4.794   5.904  13.987  1.00  0.00     0.011 C 
HETATM   18  C27 UNL     1      -6.231   5.616  14.573  1.00  0.00    -0.016 C 
HETATM   19  C28 UNL     1      -6.323   5.612  16.117  1.00  0.00     0.018 C 
HETATM   20  C29 UNL     1      -6.674   4.195  14.127  1.00  0.00     0.018 C 
ENDROOT
BRANCH  10  21
HETATM   21  C16 UNL     1       0.099   8.595   9.145  1.00  0.00     0.283 C 
HETATM   22  O3  UNL     1      -0.831   9.288   8.757  1.00  0.00    -0.260 OA
BRANCH  21  23
HETATM   23  O4  UNL     1       1.361   8.620   8.665  1.00  0.00    -0.316 OA
BRANCH  23  24
HETATM   24  C17 UNL     1       2.244   7.588   9.143  1.00  0.00     0.209 C 
BRANCH  24  25
HETATM   25  C18 UNL     1       3.501   8.215   9.769  1.00  0.00     0.298 C 
BRANCH  25  26
HETATM   26  N1  UNL     1       4.554   7.239  10.111  1.00  0.00     0.082 N 
HETATM   27  C19 UNL     1       3.945   5.999  10.602  1.00  0.00     0.309 C 
HETATM   28  C20 UNL     1       5.482   7.764  11.114  1.00  0.00     0.309 C 
ENDBRANCH  25  26
ENDBRANCH  24  25
ENDBRANCH  23  24
ENDBRANCH  21  23
ENDBRANCH  10  21
BRANCH   1  29
HETATM   29  O2  UNL     1      -8.528   6.469  14.595  1.00  0.00    -0.312 OA
BRANCH  29  30
HETATM   30  C5  UNL     1      -9.089   7.574  15.141  1.00  0.00     0.283 C 
HETATM   31  O1  UNL     1      -8.843   8.040  16.243  1.00  0.00    -0.260 OA
BRANCH  30  32
HETATM   32  C4  UNL     1     -10.009   8.235  14.191  1.00  0.00     0.084 C 
HETATM   33  C2  UNL     1     -11.262   7.872  13.851  1.00  0.00    -0.082 C 
HETATM   34  C1  UNL     1     -12.030   6.719  14.436  1.00  0.00     0.043 C 
HETATM   35  C3  UNL     1     -12.027   8.666  12.822  1.00  0.00     0.043 C 
ENDBRANCH  30  32
ENDBRANCH  29  30
ENDBRANCH   1  29
TORSDOF 8
ENDMDL
MODEL 8
REMARK minimizedAffinity -7.95710087
REMARK  8 active torsions:
REMARK  status: ('A' for Active; 'I' for Inactive)
REMARK    1  A    between atoms: C4_4  and  C5_5 
REMARK    2  A    between atoms: C5_5  and  O2_7 
REMARK    3  A    between atoms: O2_7  and  C6_8 
REMARK    4  A    between atoms: C15_17  and  C16_18 
REMARK    5  A    between atoms: C16_18  and  O4_20 
REMARK    6  A    between atoms: O4_20  and  C17_21 
REMARK    7  A    between atoms: C17_21  and  C18_22 
REMARK    8  A    between atoms: C18_22  and  N1_23 
ROOT
HETATM    1  C6  UNL     1     -10.062   8.919  14.238  1.00  0.00     0.140 C 
HETATM    2  C7  UNL     1      -9.184   9.013  15.488  1.00  0.00     0.034 C 
HETATM    3  C8  UNL     1      -7.818   8.387  15.247  1.00  0.00     0.012 C 
HETATM    4  C9  UNL     1      -7.874   6.896  14.813  1.00  0.00    -0.035 C 
HETATM    5  C10 UNL     1      -8.221   6.041  16.058  1.00  0.00     0.016 C 
HETATM    6  C11 UNL     1      -6.438   6.501  14.252  1.00  0.00     0.006 C 
HETATM    7  C12 UNL     1      -5.394   6.193  15.337  1.00  0.00     0.010 C 
HETATM    8  C13 UNL     1      -3.983   6.142  14.745  1.00  0.00     0.035 C 
HETATM    9  C14 UNL     1      -3.905   5.416  13.416  1.00  0.00    -0.070 C 
HETATM   10  C15 UNL     1      -2.854   5.538  12.576  1.00  0.00     0.085 C 
HETATM   11  C21 UNL     1      -5.134   4.542  13.118  1.00  0.00     0.022 C 
HETATM   12  C22 UNL     1      -5.058   3.753  11.797  1.00  0.00     0.015 C 
HETATM   13  C23 UNL     1      -6.440   5.387  13.162  1.00  0.00     0.068 C 
HETATM   14  C24 UNL     1      -7.681   4.523  13.330  1.00  0.00     0.132 C 
HETATM   15  O5  UNL     1      -7.639   3.304  13.498  1.00  0.00    -0.298 OA
HETATM   16  C25 UNL     1      -9.017   5.232  13.240  1.00  0.00     0.085 C 
HETATM   17  C26 UNL     1      -8.908   6.716  13.645  1.00  0.00     0.011 C 
HETATM   18  C27 UNL     1     -10.302   7.441  13.797  1.00  0.00    -0.016 C 
HETATM   19  C28 UNL     1     -11.303   6.747  14.750  1.00  0.00     0.018 C 
HETATM   20  C29 UNL     1     -11.001   7.471  12.410  1.00  0.00     0.018 C 
ENDROOT
BRANCH  10  21
HETATM   21  C16 UNL     1      -1.587   6.303  12.712  1.00  0.00     0.283 C 
HETATM   22  O3  UNL     1      -1.592   7.490  13.007  1.00  0.00    -0.260 OA
BRANCH  21  23
HETATM   23  O4  UNL     1      -0.494   5.557  12.445  1.00  0.00    -0.316 OA
BRANCH  23  24
HETATM   24  C17 UNL     1       0.133   5.781  11.169  1.00  0.00     0.209 C 
BRANCH  24  25
HETATM   25  C18 UNL     1       1.639   5.482  11.259  1.00  0.00     0.298 C 
BRANCH  25  26
HETATM   26  N1  UNL     1       2.490   6.456  10.547  1.00  0.00     0.082 N 
HETATM   27  C19 UNL     1       2.434   6.204   9.102  1.00  0.00     0.309 C 
HETATM   28  C20 UNL     1       3.880   6.405  11.002  1.00  0.00     0.309 C 
ENDBRANCH  25  26
ENDBRANCH  24  25
ENDBRANCH  23  24
ENDBRANCH  21  23
ENDBRANCH  10  21
BRANCH   1  29
HETATM   29  O2  UNL     1     -11.329   9.549  14.508  1.00  0.00    -0.312 OA
BRANCH  29  30
HETATM   30  C5  UNL     1     -11.303  10.662  15.278  1.00  0.00     0.283 C 
HETATM   31  O1  UNL     1     -11.551  10.720  16.472  1.00  0.00    -0.260 OA
BRANCH  30  32
HETATM   32  C4  UNL     1     -10.844  11.837  14.509  1.00  0.00     0.084 C 
HETATM   33  C2  UNL     1      -9.889  12.731  14.838  1.00  0.00    -0.082 C 
HETATM   34  C1  UNL     1      -9.025  12.676  16.067  1.00  0.00     0.043 C 
HETATM   35  C3  UNL     1      -9.594  13.895  13.925  1.00  0.00     0.043 C 
ENDBRANCH  30  32
ENDBRANCH  29  30
ENDBRANCH   1  29
TORSDOF 8
ENDMDL
MODEL 9
REMARK minimizedAffinity -7.87224483
REMARK  8 active torsions:
REMARK  status: ('A' for Active; 'I' for Inactive)
REMARK    1  A    between atoms: C4_4  and  C5_5 
REMARK    2  A    between atoms: C5_5  and  O2_7 
REMARK    3  A    between atoms: O2_7  and  C6_8 
REMARK    4  A    between atoms: C15_17  and  C16_18 
REMARK    5  A    between atoms: C16_18  and  O4_20 
REMARK    6  A    between atoms: O4_20  and  C17_21 
REMARK    7  A    between atoms: C17_21  and  C18_22 
REMARK    8  A    between atoms: C18_22  and  N1_23 
ROOT
HETATM    1  C6  UNL     1      -5.996   5.157  14.315  1.00  0.00     0.140 C 
HETATM    2  C7  UNL     1      -5.263   5.381  12.991  1.00  0.00     0.034 C 
HETATM    3  C8  UNL     1      -3.934   6.088  13.214  1.00  0.00     0.012 C 
HETATM    4  C9  UNL     1      -4.061   7.462  13.929  1.00  0.00    -0.035 C 
HETATM    5  C10 UNL     1      -4.616   8.489  12.912  1.00  0.00     0.016 C 
HETATM    6  C11 UNL     1      -2.607   7.891  14.414  1.00  0.00     0.006 C 
HETATM    7  C12 UNL     1      -1.723   8.497  13.312  1.00  0.00     0.010 C 
HETATM    8  C13 UNL     1      -0.263   8.581  13.763  1.00  0.00     0.035 C 
HETATM    9  C14 UNL     1      -0.093   9.058  15.193  1.00  0.00    -0.070 C 
HETATM   10  C15 UNL     1       1.055   8.892  15.888  1.00  0.00     0.085 C 
HETATM   11  C21 UNL     1      -1.346   9.734  15.771  1.00  0.00     0.022 C 
HETATM   12  C22 UNL     1      -1.184  10.272  17.205  1.00  0.00     0.015 C 
HETATM   13  C23 UNL     1      -2.576   8.782  15.693  1.00  0.00     0.068 C 
HETATM   14  C24 UNL     1      -3.894   9.531  15.815  1.00  0.00     0.132 C 
HETATM   15  O5  UNL     1      -3.970  10.759  15.881  1.00  0.00    -0.298 OA
HETATM   16  C25 UNL     1      -5.148   8.686  15.896  1.00  0.00     0.085 C 
HETATM   17  C26 UNL     1      -4.966   7.320  15.205  1.00  0.00     0.011 C 
HETATM   18  C27 UNL     1      -6.304   6.497  15.053  1.00  0.00    -0.016 C 
HETATM   19  C28 UNL     1      -7.461   7.248  14.353  1.00  0.00     0.018 C 
HETATM   20  C29 UNL     1      -6.835   6.144  16.470  1.00  0.00     0.018 C 
ENDROOT
BRANCH  10  21
HETATM   21  C16 UNL     1       2.355   8.297  15.485  1.00  0.00     0.283 C 
HETATM   22  O3  UNL     1       3.387   8.558  16.089  1.00  0.00    -0.260 OA
BRANCH  21  23
HETATM   23  O4  UNL     1       2.252   7.500  14.400  1.00  0.00    -0.316 OA
BRANCH  23  24
HETATM   24  C17 UNL     1       3.173   7.766  13.326  1.00  0.00     0.209 C 
BRANCH  24  25
HETATM   25  C18 UNL     1       2.826   6.898  12.104  1.00  0.00     0.298 C 
BRANCH  25  26
HETATM   26  N1  UNL     1       3.832   6.948  11.025  1.00  0.00     0.082 N 
HETATM   27  C19 UNL     1       3.486   5.984   9.974  1.00  0.00     0.309 C 
HETATM   28  C20 UNL     1       5.181   6.672  11.521  1.00  0.00     0.309 C 
ENDBRANCH  25  26
ENDBRANCH  24  25
ENDBRANCH  23  24
ENDBRANCH  21  23
ENDBRANCH  10  21
BRANCH   1  29
HETATM   29  O2  UNL     1      -7.230   4.461  14.053  1.00  0.00    -0.312 OA
BRANCH  29  30
HETATM   30  C5  UNL     1      -7.474   4.115  12.768  1.00  0.00     0.283 C 
HETATM   31  O1  UNL     1      -7.944   4.837  11.902  1.00  0.00    -0.260 OA
BRANCH  30  32
HETATM   32  C4  UNL     1      -7.013   2.740  12.484  1.00  0.00     0.084 C 
HETATM   33  C2  UNL     1      -6.175   2.322  11.514  1.00  0.00    -0.082 C 
HETATM   34  C1  UNL     1      -5.465   3.207  10.528  1.00  0.00     0.043 C 
HETATM   35  C3  UNL     1      -5.859   0.854  11.367  1.00  0.00     0.043 C 
ENDBRANCH  30  32
ENDBRANCH  29  30
ENDBRANCH   1  29
TORSDOF 8
ENDMDL
