MODEL 1
REMARK minimizedAffinity -7.30639315
REMARK CNNscore 0.382717252
REMARK CNNaffinity 6.77678633
REMARK  12 active torsions:
REMARK  status: ('A' for Active; 'I' for Inactive)
REMARK    1  A    between atoms: C2_2  and  C3_3 
REMARK    2  A    between atoms: C4_5  and  C5_6 
REMARK    3  A    between atoms: C5_6  and  C6_7 
REMARK    4  A    between atoms: C6_7  and  C7_8 
REMARK    5  A    between atoms: C7_8  and  C9_10 
REMARK    6  A    between atoms: C21_22  and  O2_23 
REMARK    7  A    between atoms: O2_23  and  C22_24 
REMARK    8  A    between atoms: C23_26  and  C24_27 
REMARK    9  A    between atoms: C24_27  and  O4_28 
REMARK   10  A    between atoms: C25_29  and  O5_30 
REMARK   11  A    between atoms: C26_31  and  O6_32 
REMARK   12  A    between atoms: C27_33  and  O7_34 
ROOT
HETATM    1  C9  UNL     1      -0.879   7.066  12.617  1.00  0.00    -0.002 C 
HETATM    2  C10 UNL     1      -1.077   5.818  13.571  1.00  0.00     0.006 C 
HETATM    3  C11 UNL     1      -1.855   6.319  14.839  1.00  0.00     0.011 C 
HETATM    4  C12 UNL     1      -2.358   7.703  14.402  1.00  0.00    -0.031 C 
HETATM    5  C13 UNL     1      -3.545   7.306  13.405  1.00  0.00     0.016 C 
HETATM    6  C14 UNL     1      -2.984   8.756  15.464  1.00  0.00     0.014 C 
HETATM    7  C15 UNL     1      -4.289   9.434  14.906  1.00  0.00     0.034 C 
HETATM    8  C16 UNL     1      -4.700  10.786  15.372  1.00  0.00    -0.022 C 
HETATM    9  C17 UNL     1      -3.978  11.575  16.172  1.00  0.00    -0.068 C 
HETATM   10  C18 UNL     1      -2.682  11.064  16.739  1.00  0.00     0.031 C 
HETATM   11  C19 UNL     1      -2.962  10.823  18.247  1.00  0.00     0.013 C 
HETATM   12  C20 UNL     1      -3.820  11.917  18.905  1.00  0.00     0.034 C 
HETATM   13  C21 UNL     1      -3.824  13.226  18.102  1.00  0.00     0.136 C 
HETATM   14  C28 UNL     1      -4.423  12.971  16.667  1.00  0.00     0.002 C 
HETATM   15  C29 UNL     1      -3.884  14.029  15.682  1.00  0.00     0.022 C 
HETATM   16  C30 UNL     1      -5.966  13.104  16.699  1.00  0.00     0.022 C 
HETATM   17  C31 UNL     1      -2.003   9.866  15.935  1.00  0.00     0.029 C 
HETATM   18  C32 UNL     1      -0.963   9.250  16.900  1.00  0.00     0.025 C 
HETATM   19  C33 UNL     1      -1.332  10.489  14.649  1.00  0.00     0.137 C 
HETATM   20  O8  UNL     1      -0.793  11.602  14.679  1.00  0.00    -0.297 OA
HETATM   21  C34 UNL     1      -1.290   9.677  13.326  1.00  0.00     0.089 C 
HETATM   22  C35 UNL     1      -1.016   8.218  13.661  1.00  0.00    -0.026 C 
HETATM   23  C36 UNL     1       0.392   8.226  14.374  1.00  0.00     0.016 C 
ENDROOT
BRANCH  13  24
HETATM   24  O2  UNL     1      -4.589  14.180  18.852  1.00  0.00    -0.352 OA
BRANCH  24  25
HETATM   25  C22 UNL     1      -3.803  15.100  19.606  1.00  0.00     0.292 C 
HETATM   26  O3  UNL     1      -3.893  14.806  21.000  1.00  0.00    -0.348 OA
HETATM   27  C23 UNL     1      -5.196  14.980  21.568  1.00  0.00     0.179 C 
HETATM   28  C25 UNL     1      -6.236  15.698  20.679  1.00  0.00     0.180 C 
HETATM   29  C26 UNL     1      -5.592  16.895  19.976  1.00  0.00     0.183 C 
HETATM   30  C27 UNL     1      -4.233  16.556  19.339  1.00  0.00     0.204 C 
BRANCH  27  31
HETATM   31  C24 UNL     1      -5.713  13.612  22.036  1.00  0.00     0.198 C 
BRANCH  31  32
HETATM   32  O4  UNL     1      -7.040  13.376  21.571  1.00  0.00    -0.398 OA
HETATM   33  H36 UNL     1      -7.312  12.510  21.930  1.00  0.00     0.209 HD
ENDBRANCH  31  32
ENDBRANCH  27  31
BRANCH  28  34
HETATM   34  O5  UNL     1      -7.334  16.159  21.486  1.00  0.00    -0.390 OA
HETATM   35  H38 UNL     1      -7.580  15.410  22.074  1.00  0.00     0.210 HD
ENDBRANCH  28  34
BRANCH  29  36
HETATM   36  O6  UNL     1      -6.473  17.398  18.950  1.00  0.00    -0.390 OA
HETATM   37  H40 UNL     1      -6.257  18.339  18.830  1.00  0.00     0.210 HD
ENDBRANCH  29  36
BRANCH  30  38
HETATM   38  O7  UNL     1      -3.238  17.463  19.863  1.00  0.00    -0.388 OA
HETATM   39  H42 UNL     1      -3.153  17.288  20.818  1.00  0.00     0.210 HD
ENDBRANCH  30  38
ENDBRANCH  24  25
ENDBRANCH  13  24
BRANCH   1  40
HETATM   40  C7  UNL     1       0.361   6.912  11.694  1.00  0.00    -0.014 C 
HETATM   41  C8  UNL     1       1.581   6.378  12.453  1.00  0.00     0.010 C 
BRANCH  40  42
HETATM   42  C6  UNL     1       0.733   8.230  10.963  1.00  0.00     0.008 C 
BRANCH  42  43
HETATM   43  C5  UNL     1       0.851   8.138   9.437  1.00  0.00     0.028 C 
BRANCH  43  44
HETATM   44  C4  UNL     1       1.701   6.963   9.039  1.00  0.00    -0.017 C 
HETATM   45  C2  UNL     1       2.114   6.627   7.803  1.00  0.00    -0.028 C 
HETATM   46  C1  UNL     1       1.802   7.327   6.516  1.00  0.00     0.051 C 
BRANCH  45  47
HETATM   47  C3  UNL     1       2.977   5.410   7.671  1.00  0.00     0.265 C 
HETATM   48  O1  UNL     1       3.504   4.832   8.615  1.00  0.00    -0.302 OA
ENDBRANCH  45  47
ENDBRANCH  43  44
ENDBRANCH  42  43
ENDBRANCH  40  42
ENDBRANCH   1  40
TORSDOF 12
ENDMDL
MODEL 2
REMARK minimizedAffinity -8.70606518
REMARK CNNscore 0.356746256
REMARK CNNaffinity 7.23791647
REMARK  12 active torsions:
REMARK  status: ('A' for Active; 'I' for Inactive)
REMARK    1  A    between atoms: C2_2  and  C3_3 
REMARK    2  A    between atoms: C4_5  and  C5_6 
REMARK    3  A    between atoms: C5_6  and  C6_7 
REMARK    4  A    between atoms: C6_7  and  C7_8 
REMARK    5  A    between atoms: C7_8  and  C9_10 
REMARK    6  A    between atoms: C21_22  and  O2_23 
REMARK    7  A    between atoms: O2_23  and  C22_24 
REMARK    8  A    between atoms: C23_26  and  C24_27 
REMARK    9  A    between atoms: C24_27  and  O4_28 
REMARK   10  A    between atoms: C25_29  and  O5_30 
REMARK   11  A    between atoms: C26_31  and  O6_32 
REMARK   12  A    between atoms: C27_33  and  O7_34 
ROOT
HETATM    1  C9  UNL     1       4.019   8.092  13.791  1.00  0.00    -0.002 C 
HETATM    2  C10 UNL     1       4.108   9.279  14.835  1.00  0.00     0.006 C 
HETATM    3  C11 UNL     1       2.658   9.529  15.382  1.00  0.00     0.011 C 
HETATM    4  C12 UNL     1       1.898   8.281  14.907  1.00  0.00    -0.031 C 
HETATM    5  C13 UNL     1       2.459   7.169  15.912  1.00  0.00     0.016 C 
HETATM    6  C14 UNL     1       0.281   8.191  14.978  1.00  0.00     0.014 C 
HETATM    7  C15 UNL     1      -0.197   6.797  15.531  1.00  0.00     0.034 C 
HETATM    8  C16 UNL     1      -1.528   6.248  15.156  1.00  0.00    -0.022 C 
HETATM    9  C17 UNL     1      -2.358   6.792  14.261  1.00  0.00    -0.068 C 
HETATM   10  C18 UNL     1      -1.998   8.105  13.621  1.00  0.00     0.031 C 
HETATM   11  C19 UNL     1      -2.970   9.143  14.242  1.00  0.00     0.013 C 
HETATM   12  C20 UNL     1      -4.411   8.629  14.406  1.00  0.00     0.034 C 
HETATM   13  C21 UNL     1      -4.709   7.416  13.513  1.00  0.00     0.136 C 
HETATM   14  C28 UNL     1      -3.749   6.225  13.892  1.00  0.00     0.002 C 
HETATM   15  C29 UNL     1      -3.583   5.284  12.681  1.00  0.00     0.022 C 
HETATM   16  C30 UNL     1      -4.356   5.395  15.050  1.00  0.00     0.022 C 
HETATM   17  C31 UNL     1      -0.447   8.475  13.635  1.00  0.00     0.029 C 
HETATM   18  C32 UNL     1      -0.376   9.990  13.328  1.00  0.00     0.025 C 
HETATM   19  C33 UNL     1       0.251   7.604  12.519  1.00  0.00     0.137 C 
HETATM   20  O8  UNL     1      -0.318   7.351  11.450  1.00  0.00    -0.297 OA
HETATM   21  C34 UNL     1       1.702   7.094  12.729  1.00  0.00     0.089 C 
HETATM   22  C35 UNL     1       2.507   8.190  13.412  1.00  0.00    -0.026 C 
HETATM   23  C36 UNL     1       2.466   9.407  12.407  1.00  0.00     0.016 C 
ENDROOT
BRANCH  13  24
HETATM   24  O2  UNL     1      -6.092   7.083  13.700  1.00  0.00    -0.352 OA
BRANCH  24  25
HETATM   25  C22 UNL     1      -6.398   6.553  14.988  1.00  0.00     0.292 C 
HETATM   26  O3  UNL     1      -7.006   5.267  14.866  1.00  0.00    -0.348 OA
HETATM   27  C23 UNL     1      -8.286   5.265  14.222  1.00  0.00     0.179 C 
HETATM   28  C25 UNL     1      -8.935   6.649  13.993  1.00  0.00     0.180 C 
HETATM   29  C26 UNL     1      -8.755   7.527  15.234  1.00  0.00     0.183 C 
HETATM   30  C27 UNL     1      -7.317   7.504  15.782  1.00  0.00     0.204 C 
BRANCH  27  31
HETATM   31  C24 UNL     1      -8.171   4.480  12.907  1.00  0.00     0.198 C 
BRANCH  31  32
HETATM   32  O4  UNL     1      -8.630   3.140  13.067  1.00  0.00    -0.398 OA
HETATM   33  H36 UNL     1      -8.499   2.695  12.208  1.00  0.00     0.209 HD
ENDBRANCH  31  32
ENDBRANCH  27  31
BRANCH  28  34
HETATM   34  O5  UNL     1     -10.339   6.492  13.726  1.00  0.00    -0.390 OA
HETATM   35  H38 UNL     1     -10.417   5.765  13.068  1.00  0.00     0.210 HD
ENDBRANCH  28  34
BRANCH  29  36
HETATM   36  O6  UNL     1      -9.114   8.891  14.929  1.00  0.00    -0.390 OA
HETATM   37  H40 UNL     1      -9.390   9.303  15.767  1.00  0.00     0.210 HD
ENDBRANCH  29  36
BRANCH  30  38
HETATM   38  O7  UNL     1      -7.357   7.100  17.168  1.00  0.00    -0.388 OA
HETATM   39  H42 UNL     1      -7.686   6.183  17.199  1.00  0.00     0.210 HD
ENDBRANCH  30  38
ENDBRANCH  24  25
ENDBRANCH  13  24
BRANCH   1  40
HETATM   40  C7  UNL     1       5.154   8.151  12.733  1.00  0.00    -0.014 C 
HETATM   41  C8  UNL     1       5.526   9.592  12.365  1.00  0.00     0.010 C 
BRANCH  40  42
HETATM   42  C6  UNL     1       4.818   7.350  11.446  1.00  0.00     0.008 C 
BRANCH  42  43
HETATM   43  C5  UNL     1       4.393   8.185  10.232  1.00  0.00     0.028 C 
BRANCH  43  44
HETATM   44  C4  UNL     1       3.869   7.300   9.135  1.00  0.00    -0.017 C 
HETATM   45  C2  UNL     1       2.701   7.411   8.474  1.00  0.00    -0.028 C 
HETATM   46  C1  UNL     1       1.624   8.428   8.693  1.00  0.00     0.051 C 
BRANCH  45  47
HETATM   47  C3  UNL     1       2.418   6.406   7.400  1.00  0.00     0.265 C 
HETATM   48  O1  UNL     1       1.717   6.625   6.419  1.00  0.00    -0.302 OA
ENDBRANCH  45  47
ENDBRANCH  43  44
ENDBRANCH  42  43
ENDBRANCH  40  42
ENDBRANCH   1  40
TORSDOF 12
ENDMDL
MODEL 3
REMARK minimizedAffinity -7.8375659
REMARK CNNscore 0.341727108
REMARK CNNaffinity 7.0266366
REMARK  12 active torsions:
REMARK  status: ('A' for Active; 'I' for Inactive)
REMARK    1  A    between atoms: C2_2  and  C3_3 
REMARK    2  A    between atoms: C4_5  and  C5_6 
REMARK    3  A    between atoms: C5_6  and  C6_7 
REMARK    4  A    between atoms: C6_7  and  C7_8 
REMARK    5  A    between atoms: C7_8  and  C9_10 
REMARK    6  A    between atoms: C21_22  and  O2_23 
REMARK    7  A    between atoms: O2_23  and  C22_24 
REMARK    8  A    between atoms: C23_26  and  C24_27 
REMARK    9  A    between atoms: C24_27  and  O4_28 
REMARK   10  A    between atoms: C25_29  and  O5_30 
REMARK   11  A    between atoms: C26_31  and  O6_32 
REMARK   12  A    between atoms: C27_33  and  O7_34 
ROOT
HETATM    1  C9  UNL     1      -5.728   4.828  12.583  1.00  0.00    -0.002 C 
HETATM    2  C10 UNL     1      -6.288   3.499  13.235  1.00  0.00     0.006 C 
HETATM    3  C11 UNL     1      -7.495   3.903  14.154  1.00  0.00     0.011 C 
HETATM    4  C12 UNL     1      -7.781   5.349  13.719  1.00  0.00    -0.031 C 
HETATM    5  C13 UNL     1      -8.488   5.117  12.303  1.00  0.00     0.016 C 
HETATM    6  C14 UNL     1      -8.765   6.315  14.572  1.00  0.00     0.014 C 
HETATM    7  C15 UNL     1      -9.747   7.112  13.636  1.00  0.00     0.034 C 
HETATM    8  C16 UNL     1     -10.299   8.426  14.060  1.00  0.00    -0.022 C 
HETATM    9  C17 UNL     1      -9.942   9.090  15.163  1.00  0.00    -0.068 C 
HETATM   10  C18 UNL     1      -8.971   8.458  16.123  1.00  0.00     0.031 C 
HETATM   11  C19 UNL     1      -9.817   8.075  17.367  1.00  0.00     0.013 C 
HETATM   12  C20 UNL     1     -10.858   9.136  17.765  1.00  0.00     0.034 C 
HETATM   13  C21 UNL     1     -10.542  10.521  17.180  1.00  0.00     0.136 C 
HETATM   14  C28 UNL     1     -10.536  10.447  15.606  1.00  0.00     0.002 C 
HETATM   15  C29 UNL     1      -9.651  11.574  15.035  1.00  0.00     0.022 C 
HETATM   16  C30 UNL     1     -11.969  10.653  15.055  1.00  0.00     0.022 C 
HETATM   17  C31 UNL     1      -8.039   7.318  15.510  1.00  0.00     0.029 C 
HETATM   18  C32 UNL     1      -7.460   6.554  16.724  1.00  0.00     0.025 C 
HETATM   19  C33 UNL     1      -6.917   8.039  14.665  1.00  0.00     0.137 C 
HETATM   20  O8  UNL     1      -6.426   9.114  15.029  1.00  0.00    -0.297 OA
HETATM   21  C34 UNL     1      -6.368   7.368  13.376  1.00  0.00     0.089 C 
HETATM   22  C35 UNL     1      -6.253   5.870  13.620  1.00  0.00    -0.026 C 
HETATM   23  C36 UNL     1      -5.234   5.733  14.816  1.00  0.00     0.016 C 
ENDROOT
BRANCH  13  24
HETATM   24  O2  UNL     1     -11.533  11.428  17.681  1.00  0.00    -0.352 OA
BRANCH  24  25
HETATM   25  C22 UNL     1     -11.010  12.479  18.491  1.00  0.00     0.292 C 
HETATM   26  O3  UNL     1     -10.878  12.045  19.845  1.00  0.00    -0.348 OA
HETATM   27  C23 UNL     1     -12.114  11.739  20.502  1.00  0.00     0.179 C 
HETATM   28  C25 UNL     1     -13.402  12.163  19.761  1.00  0.00     0.180 C 
HETATM   29  C26 UNL     1     -13.231  13.562  19.166  1.00  0.00     0.183 C 
HETATM   30  C27 UNL     1     -11.897  13.738  18.419  1.00  0.00     0.204 C 
BRANCH  27  31
HETATM   31  C24 UNL     1     -12.131  10.240  20.837  1.00  0.00     0.198 C 
BRANCH  31  32
HETATM   32  O4  UNL     1     -10.846   9.793  21.260  1.00  0.00    -0.398 OA
HETATM   33  H36 UNL     1     -10.923   8.834  21.424  1.00  0.00     0.209 HD
ENDBRANCH  31  32
ENDBRANCH  27  31
BRANCH  28  34
HETATM   34  O5  UNL     1     -14.511  12.171  20.676  1.00  0.00    -0.390 OA
HETATM   35  H38 UNL     1     -14.457  11.333  21.186  1.00  0.00     0.210 HD
ENDBRANCH  28  34
BRANCH  29  36
HETATM   36  O6  UNL     1     -14.314  13.846  18.255  1.00  0.00    -0.390 OA
HETATM   37  H40 UNL     1     -14.415  14.814  18.232  1.00  0.00     0.210 HD
ENDBRANCH  29  36
BRANCH  30  38
HETATM   38  O7  UNL     1     -11.194  14.864  18.987  1.00  0.00    -0.388 OA
HETATM   39  H42 UNL     1     -10.973  14.639  19.909  1.00  0.00     0.210 HD
ENDBRANCH  30  38
ENDBRANCH  24  25
ENDBRANCH  13  24
BRANCH   1  40
HETATM   40  C7  UNL     1      -4.227   4.710  12.200  1.00  0.00    -0.014 C 
HETATM   41  C8  UNL     1      -3.929   3.420  11.428  1.00  0.00     0.010 C 
BRANCH  40  42
HETATM   42  C6  UNL     1      -3.283   4.818  13.427  1.00  0.00     0.008 C 
BRANCH  42  43
HETATM   43  C5  UNL     1      -2.172   5.871  13.325  1.00  0.00     0.028 C 
BRANCH  43  44
HETATM   44  C4  UNL     1      -1.081   5.405  12.402  1.00  0.00    -0.017 C 
HETATM   45  C2  UNL     1       0.249   5.543  12.564  1.00  0.00    -0.028 C 
HETATM   46  C1  UNL     1       0.965   6.222  13.691  1.00  0.00     0.051 C 
BRANCH  45  47
HETATM   47  C3  UNL     1       1.136   4.970  11.501  1.00  0.00     0.265 C 
HETATM   48  O1  UNL     1       0.977   3.867  10.991  1.00  0.00    -0.302 OA
ENDBRANCH  45  47
ENDBRANCH  43  44
ENDBRANCH  42  43
ENDBRANCH  40  42
ENDBRANCH   1  40
TORSDOF 12
ENDMDL
MODEL 4
REMARK minimizedAffinity -8.51063633
REMARK CNNscore 0.292889357
REMARK CNNaffinity 6.9442811
REMARK  12 active torsions:
REMARK  status: ('A' for Active; 'I' for Inactive)
REMARK    1  A    between atoms: C2_2  and  C3_3 
REMARK    2  A    between atoms: C4_5  and  C5_6 
REMARK    3  A    between atoms: C5_6  and  C6_7 
REMARK    4  A    between atoms: C6_7  and  C7_8 
REMARK    5  A    between atoms: C7_8  and  C9_10 
REMARK    6  A    between atoms: C21_22  and  O2_23 
REMARK    7  A    between atoms: O2_23  and  C22_24 
REMARK    8  A    between atoms: C23_26  and  C24_27 
REMARK    9  A    between atoms: C24_27  and  O4_28 
REMARK   10  A    between atoms: C25_29  and  O5_30 
REMARK   11  A    between atoms: C26_31  and  O6_32 
REMARK   12  A    between atoms: C27_33  and  O7_34 
ROOT
HETATM    1  C9  UNL     1      -7.338   6.173  13.644  1.00  0.00    -0.002 C 
HETATM    2  C10 UNL     1      -7.581   5.426  15.018  1.00  0.00     0.006 C 
HETATM    3  C11 UNL     1      -6.644   6.095  16.085  1.00  0.00     0.011 C 
HETATM    4  C12 UNL     1      -6.190   7.381  15.377  1.00  0.00    -0.031 C 
HETATM    5  C13 UNL     1      -7.513   8.276  15.470  1.00  0.00     0.016 C 
HETATM    6  C14 UNL     1      -4.978   8.289  15.956  1.00  0.00     0.014 C 
HETATM    7  C15 UNL     1      -5.332   9.822  15.912  1.00  0.00     0.034 C 
HETATM    8  C16 UNL     1      -4.258  10.846  15.814  1.00  0.00    -0.022 C 
HETATM    9  C17 UNL     1      -2.960  10.583  15.636  1.00  0.00    -0.068 C 
HETATM   10  C18 UNL     1      -2.493   9.153  15.612  1.00  0.00     0.031 C 
HETATM   11  C19 UNL     1      -1.722   8.952  16.944  1.00  0.00     0.013 C 
HETATM   12  C20 UNL     1      -0.833  10.145  17.337  1.00  0.00     0.034 C 
HETATM   13  C21 UNL     1      -0.513  11.060  16.145  1.00  0.00     0.136 C 
HETATM   14  C28 UNL     1      -1.848  11.654  15.555  1.00  0.00     0.002 C 
HETATM   15  C29 UNL     1      -1.641  12.027  14.072  1.00  0.00     0.022 C 
HETATM   16  C30 UNL     1      -2.240  12.947  16.313  1.00  0.00     0.022 C 
HETATM   17  C31 UNL     1      -3.608   8.070  15.257  1.00  0.00     0.029 C 
HETATM   18  C32 UNL     1      -3.023   6.707  15.699  1.00  0.00     0.025 C 
HETATM   19  C33 UNL     1      -3.849   8.142  13.699  1.00  0.00     0.137 C 
HETATM   20  O8  UNL     1      -2.918   8.357  12.912  1.00  0.00    -0.297 OA
HETATM   21  C34 UNL     1      -5.267   7.884  13.121  1.00  0.00     0.089 C 
HETATM   22  C35 UNL     1      -5.915   6.756  13.911  1.00  0.00    -0.026 C 
HETATM   23  C36 UNL     1      -4.969   5.512  13.686  1.00  0.00     0.016 C 
ENDROOT
BRANCH  13  24
HETATM   24  O2  UNL     1       0.375  12.080  16.622  1.00  0.00    -0.352 OA
BRANCH  24  25
HETATM   25  C22 UNL     1       1.328  12.524  15.658  1.00  0.00     0.292 C 
HETATM   26  O3  UNL     1       2.145  11.434  15.228  1.00  0.00    -0.348 OA
HETATM   27  C23 UNL     1       2.980  10.870  16.246  1.00  0.00     0.179 C 
HETATM   28  C25 UNL     1       3.076  11.667  17.567  1.00  0.00     0.180 C 
HETATM   29  C26 UNL     1       3.212  13.162  17.272  1.00  0.00     0.183 C 
HETATM   30  C27 UNL     1       2.206  13.660  16.219  1.00  0.00     0.204 C 
BRANCH  27  31
HETATM   31  C24 UNL     1       2.533   9.423  16.499  1.00  0.00     0.198 C 
BRANCH  31  32
HETATM   32  O4  UNL     1       2.281   9.197  17.884  1.00  0.00    -0.398 OA
HETATM   33  H36 UNL     1       2.034   8.257  17.974  1.00  0.00     0.209 HD
ENDBRANCH  31  32
ENDBRANCH  27  31
BRANCH  28  34
HETATM   34  O5  UNL     1       4.220  11.228  18.320  1.00  0.00    -0.390 OA
HETATM   35  H38 UNL     1       4.202  10.245  18.305  1.00  0.00     0.210 HD
ENDBRANCH  28  34
BRANCH  29  36
HETATM   36  O6  UNL     1       3.030  13.923  18.484  1.00  0.00    -0.390 OA
HETATM   37  H40 UNL     1       3.514  14.759  18.367  1.00  0.00     0.210 HD
ENDBRANCH  29  36
BRANCH  30  38
HETATM   38  O7  UNL     1       2.936  14.289  15.143  1.00  0.00    -0.388 OA
HETATM   39  H42 UNL     1       3.478  13.603  14.713  1.00  0.00     0.210 HD
ENDBRANCH  30  38
ENDBRANCH  24  25
ENDBRANCH  13  24
BRANCH   1  40
HETATM   40  C7  UNL     1      -7.661   5.275  12.419  1.00  0.00    -0.014 C 
HETATM   41  C8  UNL     1      -8.774   5.868  11.547  1.00  0.00     0.010 C 
BRANCH  40  42
HETATM   42  C6  UNL     1      -8.026   3.821  12.819  1.00  0.00     0.008 C 
BRANCH  42  43
HETATM   43  C5  UNL     1      -7.015   2.742  12.412  1.00  0.00     0.028 C 
BRANCH  43  44
HETATM   44  C4  UNL     1      -5.971   3.311  11.492  1.00  0.00    -0.017 C 
HETATM   45  C2  UNL     1      -4.762   2.795  11.200  1.00  0.00    -0.028 C 
HETATM   46  C1  UNL     1      -4.149   1.543  11.746  1.00  0.00     0.051 C 
BRANCH  45  47
HETATM   47  C3  UNL     1      -3.907   3.550  10.229  1.00  0.00     0.265 C 
HETATM   48  O1  UNL     1      -2.687   3.449  10.161  1.00  0.00    -0.302 OA
ENDBRANCH  45  47
ENDBRANCH  43  44
ENDBRANCH  42  43
ENDBRANCH  40  42
ENDBRANCH   1  40
TORSDOF 12
ENDMDL
MODEL 5
REMARK minimizedAffinity -10.0497808
REMARK CNNscore 0.263803035
REMARK CNNaffinity 6.68388891
REMARK  12 active torsions:
REMARK  status: ('A' for Active; 'I' for Inactive)
REMARK    1  A    between atoms: C2_2  and  C3_3 
REMARK    2  A    between atoms: C4_5  and  C5_6 
REMARK    3  A    between atoms: C5_6  and  C6_7 
REMARK    4  A    between atoms: C6_7  and  C7_8 
REMARK    5  A    between atoms: C7_8  and  C9_10 
REMARK    6  A    between atoms: C21_22  and  O2_23 
REMARK    7  A    between atoms: O2_23  and  C22_24 
REMARK    8  A    between atoms: C23_26  and  C24_27 
REMARK    9  A    between atoms: C24_27  and  O4_28 
REMARK   10  A    between atoms: C25_29  and  O5_30 
REMARK   11  A    between atoms: C26_31  and  O6_32 
REMARK   12  A    between atoms: C27_33  and  O7_34 
ROOT
HETATM    1  C9  UNL     1       4.024   7.427  12.219  1.00  0.00    -0.002 C 
HETATM    2  C10 UNL     1       4.180   8.986  12.450  1.00  0.00     0.006 C 
HETATM    3  C11 UNL     1       2.776   9.535  12.889  1.00  0.00     0.011 C 
HETATM    4  C12 UNL     1       2.000   8.250  13.220  1.00  0.00    -0.031 C 
HETATM    5  C13 UNL     1       2.659   7.836  14.617  1.00  0.00     0.016 C 
HETATM    6  C14 UNL     1       0.396   8.262  13.454  1.00  0.00     0.014 C 
HETATM    7  C15 UNL     1      -0.013   7.399  14.705  1.00  0.00     0.034 C 
HETATM    8  C16 UNL     1      -1.361   6.775  14.788  1.00  0.00    -0.022 C 
HETATM    9  C17 UNL     1      -2.271   6.778  13.810  1.00  0.00    -0.068 C 
HETATM   10  C18 UNL     1      -1.985   7.531  12.538  1.00  0.00     0.031 C 
HETATM   11  C19 UNL     1      -2.920   8.770  12.578  1.00  0.00     0.013 C 
HETATM   12  C20 UNL     1      -4.334   8.468  13.104  1.00  0.00     0.034 C 
HETATM   13  C21 UNL     1      -4.685   6.975  13.030  1.00  0.00     0.136 C 
HETATM   14  C28 UNL     1      -3.677   6.145  13.913  1.00  0.00     0.002 C 
HETATM   15  C29 UNL     1      -3.597   4.696  13.390  1.00  0.00     0.022 C 
HETATM   16  C30 UNL     1      -4.174   6.086  15.379  1.00  0.00     0.022 C 
HETATM   17  C31 UNL     1      -0.444   7.803  12.230  1.00  0.00     0.029 C 
HETATM   18  C32 UNL     1      -0.423   8.913  11.153  1.00  0.00     0.025 C 
HETATM   19  C33 UNL     1       0.173   6.448  11.707  1.00  0.00     0.137 C 
HETATM   20  O8  UNL     1      -0.478   5.678  10.990  1.00  0.00    -0.297 OA
HETATM   21  C34 UNL     1       1.645   6.086  12.044  1.00  0.00     0.089 C 
HETATM   22  C35 UNL     1       2.486   7.352  11.966  1.00  0.00    -0.026 C 
HETATM   23  C36 UNL     1       2.343   7.840  10.472  1.00  0.00     0.016 C 
ENDROOT
BRANCH  13  24
HETATM   24  O2  UNL     1      -6.042   6.836  13.473  1.00  0.00    -0.352 OA
BRANCH  24  25
HETATM   25  C22 UNL     1      -6.176   6.343  14.805  1.00  0.00     0.292 C 
HETATM   26  O3  UNL     1      -6.748   5.034  14.794  1.00  0.00    -0.348 OA
HETATM   27  C23 UNL     1      -8.093   4.970  14.307  1.00  0.00     0.179 C 
HETATM   28  C25 UNL     1      -8.813   6.323  14.115  1.00  0.00     0.180 C 
HETATM   29  C26 UNL     1      -8.520   7.249  15.298  1.00  0.00     0.183 C 
HETATM   30  C27 UNL     1      -7.028   7.290  15.672  1.00  0.00     0.204 C 
BRANCH  27  31
HETATM   31  C24 UNL     1      -8.106   4.143  13.013  1.00  0.00     0.198 C 
BRANCH  31  32
HETATM   32  O4  UNL     1      -7.011   3.231  12.974  1.00  0.00    -0.398 OA
HETATM   33  H36 UNL     1      -7.063   2.767  12.118  1.00  0.00     0.209 HD
ENDBRANCH  31  32
ENDBRANCH  27  31
BRANCH  28  34
HETATM   34  O5  UNL     1     -10.233   6.112  14.021  1.00  0.00    -0.390 OA
HETATM   35  H38 UNL     1     -10.362   5.361  13.399  1.00  0.00     0.210 HD
ENDBRANCH  28  34
BRANCH  29  36
HETATM   36  O6  UNL     1      -8.961   8.589  14.997  1.00  0.00    -0.390 OA
HETATM   37  H40 UNL     1      -9.151   9.021  15.848  1.00  0.00     0.210 HD
ENDBRANCH  29  36
BRANCH  30  38
HETATM   38  O7  UNL     1      -6.890   6.933  17.065  1.00  0.00    -0.388 OA
HETATM   39  H42 UNL     1      -7.180   6.008  17.162  1.00  0.00     0.210 HD
ENDBRANCH  30  38
ENDBRANCH  24  25
ENDBRANCH  13  24
BRANCH   1  40
HETATM   40  C7  UNL     1       5.068   6.873  11.211  1.00  0.00    -0.014 C 
HETATM   41  C8  UNL     1       4.503   5.723  10.370  1.00  0.00     0.010 C 
BRANCH  40  42
HETATM   42  C6  UNL     1       6.386   6.424  11.896  1.00  0.00     0.008 C 
BRANCH  42  43
HETATM   43  C5  UNL     1       6.646   7.007  13.291  1.00  0.00     0.028 C 
BRANCH  43  44
HETATM   44  C4  UNL     1       7.696   8.082  13.231  1.00  0.00    -0.017 C 
HETATM   45  C2  UNL     1       8.630   8.373  14.156  1.00  0.00    -0.028 C 
HETATM   46  C1  UNL     1       8.832   7.714  15.486  1.00  0.00     0.051 C 
BRANCH  45  47
HETATM   47  C3  UNL     1       9.581   9.488  13.849  1.00  0.00     0.265 C 
HETATM   48  O1  UNL     1      10.249   9.563  12.824  1.00  0.00    -0.302 OA
ENDBRANCH  45  47
ENDBRANCH  43  44
ENDBRANCH  42  43
ENDBRANCH  40  42
ENDBRANCH   1  40
TORSDOF 12
ENDMDL
MODEL 6
REMARK minimizedAffinity -9.35511875
REMARK CNNscore 0.240440726
REMARK CNNaffinity 7.14002466
REMARK  12 active torsions:
REMARK  status: ('A' for Active; 'I' for Inactive)
REMARK    1  A    between atoms: C2_2  and  C3_3 
REMARK    2  A    between atoms: C4_5  and  C5_6 
REMARK    3  A    between atoms: C5_6  and  C6_7 
REMARK    4  A    between atoms: C6_7  and  C7_8 
REMARK    5  A    between atoms: C7_8  and  C9_10 
REMARK    6  A    between atoms: C21_22  and  O2_23 
REMARK    7  A    between atoms: O2_23  and  C22_24 
REMARK    8  A    between atoms: C23_26  and  C24_27 
REMARK    9  A    between atoms: C24_27  and  O4_28 
REMARK   10  A    between atoms: C25_29  and  O5_30 
REMARK   11  A    between atoms: C26_31  and  O6_32 
REMARK   12  A    between atoms: C27_33  and  O7_34 
ROOT
HETATM    1  C9  UNL     1      -6.572   6.878  14.223  1.00  0.00    -0.002 C 
HETATM    2  C10 UNL     1      -6.812   8.205  15.051  1.00  0.00     0.006 C 
HETATM    3  C11 UNL     1      -5.439   8.963  15.126  1.00  0.00     0.011 C 
HETATM    4  C12 UNL     1      -4.593   8.235  14.070  1.00  0.00    -0.031 C 
HETATM    5  C13 UNL     1      -5.227   8.800  12.714  1.00  0.00     0.016 C 
HETATM    6  C14 UNL     1      -2.992   8.461  13.959  1.00  0.00     0.014 C 
HETATM    7  C15 UNL     1      -2.534   8.633  12.463  1.00  0.00     0.034 C 
HETATM    8  C16 UNL     1      -1.154   8.269  12.045  1.00  0.00    -0.022 C 
HETATM    9  C17 UNL     1      -0.248   7.673  12.825  1.00  0.00    -0.068 C 
HETATM   10  C18 UNL     1      -0.576   7.407  14.269  1.00  0.00     0.031 C 
HETATM   11  C19 UNL     1       0.289   8.411  15.077  1.00  0.00     0.013 C 
HETATM   12  C20 UNL     1       1.719   8.582  14.534  1.00  0.00     0.034 C 
HETATM   13  C21 UNL     1       2.151   7.413  13.635  1.00  0.00     0.136 C 
HETATM   14  C28 UNL     1       1.192   7.316  12.388  1.00  0.00     0.002 C 
HETATM   15  C29 UNL     1       1.190   5.872  11.844  1.00  0.00     0.022 C 
HETATM   16  C30 UNL     1       1.694   8.243  11.253  1.00  0.00     0.022 C 
HETATM   17  C31 UNL     1      -2.130   7.352  14.623  1.00  0.00     0.029 C 
HETATM   18  C32 UNL     1      -2.214   7.494  16.161  1.00  0.00     0.025 C 
HETATM   19  C33 UNL     1      -2.673   5.957  14.120  1.00  0.00     0.137 C 
HETATM   20  O8  UNL     1      -1.982   4.934  14.190  1.00  0.00    -0.297 OA
HETATM   21  C34 UNL     1      -4.123   5.842  13.574  1.00  0.00     0.089 C 
HETATM   22  C35 UNL     1      -5.031   6.719  14.424  1.00  0.00    -0.026 C 
HETATM   23  C36 UNL     1      -4.918   6.124  15.881  1.00  0.00     0.016 C 
ENDROOT
BRANCH  13  24
HETATM   24  O2  UNL     1       3.514   7.651  13.258  1.00  0.00    -0.352 OA
BRANCH  24  25
HETATM   25  C22 UNL     1       4.154   8.690  13.997  1.00  0.00     0.292 C 
HETATM   26  O3  UNL     1       4.695   9.670  13.111  1.00  0.00    -0.348 OA
HETATM   27  C23 UNL     1       5.753   9.199  12.268  1.00  0.00     0.179 C 
HETATM   28  C25 UNL     1       6.327   7.806  12.608  1.00  0.00     0.180 C 
HETATM   29  C26 UNL     1       6.497   7.662  14.123  1.00  0.00     0.183 C 
HETATM   30  C27 UNL     1       5.261   8.128  14.912  1.00  0.00     0.204 C 
BRANCH  27  31
HETATM   31  C24 UNL     1       5.280   9.265  10.808  1.00  0.00     0.198 C 
BRANCH  31  32
HETATM   32  O4  UNL     1       5.139   7.960  10.253  1.00  0.00    -0.398 OA
HETATM   33  H36 UNL     1       4.869   8.079   9.323  1.00  0.00     0.209 HD
ENDBRANCH  31  32
ENDBRANCH  27  31
BRANCH  28  34
HETATM   34  O5  UNL     1       7.605   7.635  11.972  1.00  0.00    -0.390 OA
HETATM   35  H38 UNL     1       7.496   7.940  11.043  1.00  0.00     0.210 HD
ENDBRANCH  28  34
BRANCH  29  36
HETATM   36  O6  UNL     1       6.770   6.286  14.459  1.00  0.00    -0.390 OA
HETATM   37  H40 UNL     1       7.266   6.295  15.297  1.00  0.00     0.210 HD
ENDBRANCH  29  36
BRANCH  30  38
HETATM   38  O7  UNL     1       5.671   9.139  15.859  1.00  0.00    -0.388 OA
HETATM   39  H42 UNL     1       5.988   9.907  15.351  1.00  0.00     0.210 HD
ENDBRANCH  30  38
ENDBRANCH  24  25
ENDBRANCH  13  24
BRANCH   1  40
HETATM   40  C7  UNL     1      -7.585   5.760  14.592  1.00  0.00    -0.014 C 
HETATM   41  C8  UNL     1      -7.058   4.849  15.707  1.00  0.00     0.010 C 
BRANCH  40  42
HETATM   42  C6  UNL     1      -8.006   4.903  13.369  1.00  0.00     0.008 C 
BRANCH  42  43
HETATM   43  C5  UNL     1      -7.311   3.542  13.235  1.00  0.00     0.028 C 
BRANCH  43  44
HETATM   44  C4  UNL     1      -6.041   3.669  12.442  1.00  0.00    -0.017 C 
HETATM   45  C2  UNL     1      -5.501   2.766  11.602  1.00  0.00    -0.028 C 
HETATM   46  C1  UNL     1      -6.021   1.399  11.276  1.00  0.00     0.051 C 
BRANCH  45  47
HETATM   47  C3  UNL     1      -4.227   3.142  10.910  1.00  0.00     0.265 C 
HETATM   48  O1  UNL     1      -4.165   3.572   9.764  1.00  0.00    -0.302 OA
ENDBRANCH  45  47
ENDBRANCH  43  44
ENDBRANCH  42  43
ENDBRANCH  40  42
ENDBRANCH   1  40
TORSDOF 12
ENDMDL
MODEL 7
REMARK minimizedAffinity -8.3942461
REMARK CNNscore 0.222875431
REMARK CNNaffinity 6.97458649
REMARK  12 active torsions:
REMARK  status: ('A' for Active; 'I' for Inactive)
REMARK    1  A    between atoms: C2_2  and  C3_3 
REMARK    2  A    between atoms: C4_5  and  C5_6 
REMARK    3  A    between atoms: C5_6  and  C6_7 
REMARK    4  A    between atoms: C6_7  and  C7_8 
REMARK    5  A    between atoms: C7_8  and  C9_10 
REMARK    6  A    between atoms: C21_22  and  O2_23 
REMARK    7  A    between atoms: O2_23  and  C22_24 
REMARK    8  A    between atoms: C23_26  and  C24_27 
REMARK    9  A    between atoms: C24_27  and  O4_28 
REMARK   10  A    between atoms: C25_29  and  O5_30 
REMARK   11  A    between atoms: C26_31  and  O6_32 
REMARK   12  A    between atoms: C27_33  and  O7_34 
ROOT
HETATM    1  C9  UNL     1      -0.180   7.730  13.529  1.00  0.00    -0.002 C 
HETATM    2  C10 UNL     1       0.221   7.792  15.059  1.00  0.00     0.006 C 
HETATM    3  C11 UNL     1      -1.084   7.532  15.893  1.00  0.00     0.011 C 
HETATM    4  C12 UNL     1      -2.061   6.998  14.834  1.00  0.00    -0.031 C 
HETATM    5  C13 UNL     1      -1.497   5.518  14.604  1.00  0.00     0.016 C 
HETATM    6  C14 UNL     1      -3.645   6.844  15.139  1.00  0.00     0.014 C 
HETATM    7  C15 UNL     1      -4.206   5.472  14.610  1.00  0.00     0.034 C 
HETATM    8  C16 UNL     1      -5.638   5.333  14.231  1.00  0.00    -0.022 C 
HETATM    9  C17 UNL     1      -6.520   6.335  14.183  1.00  0.00    -0.068 C 
HETATM   10  C18 UNL     1      -6.099   7.712  14.619  1.00  0.00     0.031 C 
HETATM   11  C19 UNL     1      -6.823   7.952  15.971  1.00  0.00     0.013 C 
HETATM   12  C20 UNL     1      -8.275   7.444  16.001  1.00  0.00     0.034 C 
HETATM   13  C21 UNL     1      -8.860   7.248  14.594  1.00  0.00     0.136 C 
HETATM   14  C28 UNL     1      -8.012   6.177  13.808  1.00  0.00     0.002 C 
HETATM   15  C29 UNL     1      -8.157   6.411  12.289  1.00  0.00     0.022 C 
HETATM   16  C30 UNL     1      -8.533   4.751  14.113  1.00  0.00     0.022 C 
HETATM   17  C31 UNL     1      -4.530   7.995  14.585  1.00  0.00     0.029 C 
HETATM   18  C32 UNL     1      -4.315   9.262  15.447  1.00  0.00     0.025 C 
HETATM   19  C33 UNL     1      -4.130   8.222  13.075  1.00  0.00     0.137 C 
HETATM   20  O8  UNL     1      -4.885   8.808  12.290  1.00  0.00    -0.297 OA
HETATM   21  C34 UNL     1      -2.740   7.754  12.563  1.00  0.00     0.089 C 
HETATM   22  C35 UNL     1      -1.706   8.034  13.644  1.00  0.00    -0.026 C 
HETATM   23  C36 UNL     1      -1.747   9.599  13.846  1.00  0.00     0.016 C 
ENDROOT
BRANCH  13  24
HETATM   24  O2  UNL     1     -10.227   6.849  14.756  1.00  0.00    -0.352 OA
BRANCH  24  25
HETATM   25  C22 UNL     1     -11.065   7.160  13.644  1.00  0.00     0.292 C 
HETATM   26  O3  UNL     1     -10.945   8.541  13.302  1.00  0.00    -0.348 OA
HETATM   27  C23 UNL     1     -11.416   9.451  14.303  1.00  0.00     0.179 C 
HETATM   28  C25 UNL     1     -12.211   8.827  15.472  1.00  0.00     0.180 C 
HETATM   29  C26 UNL     1     -13.186   7.773  14.942  1.00  0.00     0.183 C 
HETATM   30  C27 UNL     1     -12.537   6.808  13.935  1.00  0.00     0.204 C 
BRANCH  27  31
HETATM   31  C24 UNL     1     -10.224  10.273  14.816  1.00  0.00     0.198 C 
BRANCH  31  32
HETATM   32  O4  UNL     1     -10.204  10.317  16.241  1.00  0.00    -0.398 OA
HETATM   33  H36 UNL     1      -9.446  10.877  16.494  1.00  0.00     0.209 HD
ENDBRANCH  31  32
ENDBRANCH  27  31
BRANCH  28  34
HETATM   34  O5  UNL     1     -12.950   9.850  16.162  1.00  0.00    -0.390 OA
HETATM   35  H38 UNL     1     -12.327  10.599  16.297  1.00  0.00     0.210 HD
ENDBRANCH  28  34
BRANCH  29  36
HETATM   36  O6  UNL     1     -13.727   7.006  16.038  1.00  0.00    -0.390 OA
HETATM   37  H40 UNL     1     -14.594   6.673  15.747  1.00  0.00     0.210 HD
ENDBRANCH  29  36
BRANCH  30  38
HETATM   38  O7  UNL     1     -13.298   6.840  12.707  1.00  0.00    -0.388 OA
HETATM   39  H42 UNL     1     -13.216   7.736  12.333  1.00  0.00     0.210 HD
ENDBRANCH  30  38
ENDBRANCH  24  25
ENDBRANCH  13  24
BRANCH   1  40
HETATM   40  C7  UNL     1       0.777   8.565  12.634  1.00  0.00    -0.014 C 
HETATM   41  C8  UNL     1       0.390   8.491  11.152  1.00  0.00     0.010 C 
BRANCH  40  42
HETATM   42  C6  UNL     1       2.266   8.165  12.809  1.00  0.00     0.008 C 
BRANCH  42  43
HETATM   43  C5  UNL     1       3.145   8.294  11.558  1.00  0.00     0.028 C 
BRANCH  43  44
HETATM   44  C4  UNL     1       3.078   7.042  10.729  1.00  0.00    -0.017 C 
HETATM   45  C2  UNL     1       4.070   6.168  10.476  1.00  0.00    -0.028 C 
HETATM   46  C1  UNL     1       5.493   6.247  10.936  1.00  0.00     0.051 C 
BRANCH  45  47
HETATM   47  C3  UNL     1       3.741   4.977   9.629  1.00  0.00     0.265 C 
HETATM   48  O1  UNL     1       2.770   4.251   9.807  1.00  0.00    -0.302 OA
ENDBRANCH  45  47
ENDBRANCH  43  44
ENDBRANCH  42  43
ENDBRANCH  40  42
ENDBRANCH   1  40
TORSDOF 12
ENDMDL
MODEL 8
REMARK minimizedAffinity -8.39541435
REMARK CNNscore 0.222458735
REMARK CNNaffinity 6.80796957
REMARK  12 active torsions:
REMARK  status: ('A' for Active; 'I' for Inactive)
REMARK    1  A    between atoms: C2_2  and  C3_3 
REMARK    2  A    between atoms: C4_5  and  C5_6 
REMARK    3  A    between atoms: C5_6  and  C6_7 
REMARK    4  A    between atoms: C6_7  and  C7_8 
REMARK    5  A    between atoms: C7_8  and  C9_10 
REMARK    6  A    between atoms: C21_22  and  O2_23 
REMARK    7  A    between atoms: O2_23  and  C22_24 
REMARK    8  A    between atoms: C23_26  and  C24_27 
REMARK    9  A    between atoms: C24_27  and  O4_28 
REMARK   10  A    between atoms: C25_29  and  O5_30 
REMARK   11  A    between atoms: C26_31  and  O6_32 
REMARK   12  A    between atoms: C27_33  and  O7_34 
ROOT
HETATM    1  C9  UNL     1      -7.362   6.047  13.626  1.00  0.00    -0.002 C 
HETATM    2  C10 UNL     1      -7.674   5.329  15.002  1.00  0.00     0.006 C 
HETATM    3  C11 UNL     1      -6.799   6.029  16.102  1.00  0.00     0.011 C 
HETATM    4  C12 UNL     1      -6.314   7.301  15.390  1.00  0.00    -0.031 C 
HETATM    5  C13 UNL     1      -7.645   8.189  15.391  1.00  0.00     0.016 C 
HETATM    6  C14 UNL     1      -5.140   8.230  16.012  1.00  0.00     0.014 C 
HETATM    7  C15 UNL     1      -5.500   9.759  15.914  1.00  0.00     0.034 C 
HETATM    8  C16 UNL     1      -4.427  10.788  15.850  1.00  0.00    -0.022 C 
HETATM    9  C17 UNL     1      -3.120  10.530  15.747  1.00  0.00    -0.068 C 
HETATM   10  C18 UNL     1      -2.645   9.102  15.781  1.00  0.00     0.031 C 
HETATM   11  C19 UNL     1      -1.946   8.937  17.158  1.00  0.00     0.013 C 
HETATM   12  C20 UNL     1      -1.085  10.144  17.570  1.00  0.00     0.034 C 
HETATM   13  C21 UNL     1      -0.707  11.034  16.376  1.00  0.00     0.136 C 
HETATM   14  C28 UNL     1      -2.011  11.606  15.702  1.00  0.00     0.002 C 
HETATM   15  C29 UNL     1      -1.727  11.947  14.224  1.00  0.00     0.022 C 
HETATM   16  C30 UNL     1      -2.449  12.913  16.407  1.00  0.00     0.022 C 
HETATM   17  C31 UNL     1      -3.734   8.004  15.393  1.00  0.00     0.029 C 
HETATM   18  C32 UNL     1      -3.166   6.656  15.896  1.00  0.00     0.025 C 
HETATM   19  C33 UNL     1      -3.891   8.039  13.822  1.00  0.00     0.137 C 
HETATM   20  O8  UNL     1      -2.920   8.242  13.082  1.00  0.00    -0.297 OA
HETATM   21  C34 UNL     1      -5.275   7.759  13.176  1.00  0.00     0.089 C 
HETATM   22  C35 UNL     1      -5.957   6.645  13.955  1.00  0.00    -0.026 C 
HETATM   23  C36 UNL     1      -4.995   5.403  13.810  1.00  0.00     0.016 C 
ENDROOT
BRANCH  13  24
HETATM   24  O2  UNL     1       0.149  12.070  16.876  1.00  0.00    -0.352 OA
BRANCH  24  25
HETATM   25  C22 UNL     1       0.166  12.182  18.297  1.00  0.00     0.292 C 
HETATM   26  O3  UNL     1       0.784  13.407  18.693  1.00  0.00    -0.348 OA
HETATM   27  C23 UNL     1       2.174  13.514  18.361  1.00  0.00     0.179 C 
HETATM   28  C25 UNL     1       2.859  12.218  17.873  1.00  0.00     0.180 C 
HETATM   29  C26 UNL     1       2.413  11.031  18.731  1.00  0.00     0.183 C 
HETATM   30  C27 UNL     1       0.890  10.986  18.947  1.00  0.00     0.204 C 
BRANCH  27  31
HETATM   31  C24 UNL     1       2.348  14.653  17.346  1.00  0.00     0.198 C 
BRANCH  31  32
HETATM   32  O4  UNL     1       1.299  14.647  16.381  1.00  0.00    -0.398 OA
HETATM   33  H36 UNL     1       1.490  15.371  15.755  1.00  0.00     0.209 HD
ENDBRANCH  31  32
ENDBRANCH  27  31
BRANCH  28  34
HETATM   34  O5  UNL     1       4.287  12.356  17.965  1.00  0.00    -0.390 OA
HETATM   35  H38 UNL     1       4.507  13.235  17.584  1.00  0.00     0.210 HD
ENDBRANCH  28  34
BRANCH  29  36
HETATM   36  O6  UNL     1       2.831   9.794  18.117  1.00  0.00    -0.390 OA
HETATM   37  H40 UNL     1       2.918   9.140  18.833  1.00  0.00     0.210 HD
ENDBRANCH  29  36
BRANCH  30  38
HETATM   38  O7  UNL     1       0.625  10.967  20.367  1.00  0.00    -0.388 OA
HETATM   39  H42 UNL     1       0.937  11.813  20.736  1.00  0.00     0.210 HD
ENDBRANCH  30  38
ENDBRANCH  24  25
ENDBRANCH  13  24
BRANCH   1  40
HETATM   40  C7  UNL     1      -7.613   5.119  12.406  1.00  0.00    -0.014 C 
HETATM   41  C8  UNL     1      -8.724   5.655  11.495  1.00  0.00     0.010 C 
BRANCH  40  42
HETATM   42  C6  UNL     1      -7.931   3.657  12.819  1.00  0.00     0.008 C 
BRANCH  42  43
HETATM   43  C5  UNL     1      -6.957   2.591  12.305  1.00  0.00     0.028 C 
BRANCH  43  44
HETATM   44  C4  UNL     1      -5.900   3.211  11.434  1.00  0.00    -0.017 C 
HETATM   45  C2  UNL     1      -4.657   2.753  11.195  1.00  0.00    -0.028 C 
HETATM   46  C1  UNL     1      -4.012   1.527  11.765  1.00  0.00     0.051 C 
BRANCH  45  47
HETATM   47  C3  UNL     1      -3.794   3.550  10.265  1.00  0.00     0.265 C 
HETATM   48  O1  UNL     1      -2.597   3.749  10.435  1.00  0.00    -0.302 OA
ENDBRANCH  45  47
ENDBRANCH  43  44
ENDBRANCH  42  43
ENDBRANCH  40  42
ENDBRANCH   1  40
TORSDOF 12
ENDMDL
MODEL 9
REMARK minimizedAffinity -9.01218319
REMARK CNNscore 0.221072465
REMARK CNNaffinity 7.02870178
REMARK  12 active torsions:
REMARK  status: ('A' for Active; 'I' for Inactive)
REMARK    1  A    between atoms: C2_2  and  C3_3 
REMARK    2  A    between atoms: C4_5  and  C5_6 
REMARK    3  A    between atoms: C5_6  and  C6_7 
REMARK    4  A    between atoms: C6_7  and  C7_8 
REMARK    5  A    between atoms: C7_8  and  C9_10 
REMARK    6  A    between atoms: C21_22  and  O2_23 
REMARK    7  A    between atoms: O2_23  and  C22_24 
REMARK    8  A    between atoms: C23_26  and  C24_27 
REMARK    9  A    between atoms: C24_27  and  O4_28 
REMARK   10  A    between atoms: C25_29  and  O5_30 
REMARK   11  A    between atoms: C26_31  and  O6_32 
REMARK   12  A    between atoms: C27_33  and  O7_34 
ROOT
HETATM    1  C9  UNL     1      -4.708   6.710  14.612  1.00  0.00    -0.002 C 
HETATM    2  C10 UNL     1      -4.770   5.803  13.317  1.00  0.00     0.006 C 
HETATM    3  C11 UNL     1      -3.346   5.836  12.656  1.00  0.00     0.011 C 
HETATM    4  C12 UNL     1      -2.475   6.452  13.762  1.00  0.00    -0.031 C 
HETATM    5  C13 UNL     1      -2.352   5.227  14.784  1.00  0.00     0.016 C 
HETATM    6  C14 UNL     1      -0.964   6.961  13.470  1.00  0.00     0.014 C 
HETATM    7  C15 UNL     1       0.028   6.508  14.605  1.00  0.00     0.034 C 
HETATM    8  C16 UNL     1       1.259   7.293  14.894  1.00  0.00    -0.022 C 
HETATM    9  C17 UNL     1       1.570   8.466  14.337  1.00  0.00    -0.068 C 
HETATM   10  C18 UNL     1       0.678   9.037  13.268  1.00  0.00     0.031 C 
HETATM   11  C19 UNL     1       1.479   8.892  11.946  1.00  0.00     0.013 C 
HETATM   12  C20 UNL     1       2.976   9.217  12.085  1.00  0.00     0.034 C 
HETATM   13  C21 UNL     1       3.284  10.058  13.334  1.00  0.00     0.136 C 
HETATM   14  C28 UNL     1       2.862   9.265  14.628  1.00  0.00     0.002 C 
HETATM   15  C29 UNL     1       2.571  10.256  15.775  1.00  0.00     0.022 C 
HETATM   16  C30 UNL     1       4.016   8.341  15.090  1.00  0.00     0.022 C 
HETATM   17  C31 UNL     1      -0.822   8.494  13.261  1.00  0.00     0.029 C 
HETATM   18  C32 UNL     1      -1.398   8.875  11.876  1.00  0.00     0.025 C 
HETATM   19  C33 UNL     1      -1.582   9.211  14.445  1.00  0.00     0.137 C 
HETATM   20  O8  UNL     1      -1.348  10.389  14.740  1.00  0.00    -0.297 OA
HETATM   21  C34 UNL     1      -2.689   8.452  15.226  1.00  0.00     0.089 C 
HETATM   22  C35 UNL     1      -3.491   7.615  14.241  1.00  0.00    -0.026 C 
HETATM   23  C36 UNL     1      -4.114   8.661  13.236  1.00  0.00     0.016 C 
ENDROOT
BRANCH  13  24
HETATM   24  O2  UNL     1       4.686  10.356  13.308  1.00  0.00    -0.352 OA
BRANCH  24  25
HETATM   25  C22 UNL     1       5.103  11.121  12.179  1.00  0.00     0.292 C 
HETATM   26  O3  UNL     1       5.594  10.261  11.150  1.00  0.00    -0.348 OA
HETATM   27  C23 UNL     1       6.785   9.540  11.486  1.00  0.00     0.179 C 
HETATM   28  C25 UNL     1       7.503   9.978  12.781  1.00  0.00     0.180 C 
HETATM   29  C26 UNL     1       7.538  11.506  12.874  1.00  0.00     0.183 C 
HETATM   30  C27 UNL     1       6.177  12.156  12.567  1.00  0.00     0.204 C 
BRANCH  27  31
HETATM   31  C24 UNL     1       6.456   8.040  11.512  1.00  0.00     0.198 C 
BRANCH  31  32
HETATM   32  O4  UNL     1       7.644   7.252  11.482  1.00  0.00    -0.398 OA
HETATM   33  H36 UNL     1       7.361   6.318  11.469  1.00  0.00     0.209 HD
ENDBRANCH  31  32
ENDBRANCH  27  31
BRANCH  28  34
HETATM   34  O5  UNL     1       8.851   9.474  12.787  1.00  0.00    -0.390 OA
HETATM   35  H38 UNL     1       8.796   8.531  12.516  1.00  0.00     0.210 HD
ENDBRANCH  28  34
BRANCH  29  36
HETATM   36  O6  UNL     1       7.959  11.911  14.193  1.00  0.00    -0.390 OA
HETATM   37  H40 UNL     1       8.363  12.792  14.101  1.00  0.00     0.210 HD
ENDBRANCH  29  36
BRANCH  30  38
HETATM   38  O7  UNL     1       6.350  13.106  11.493  1.00  0.00    -0.388 OA
HETATM   39  H42 UNL     1       6.611  12.608  10.698  1.00  0.00     0.210 HD
ENDBRANCH  30  38
ENDBRANCH  24  25
ENDBRANCH  13  24
BRANCH   1  40
HETATM   40  C7  UNL     1      -6.098   7.290  14.994  1.00  0.00    -0.014 C 
HETATM   41  C8  UNL     1      -6.005   8.743  15.472  1.00  0.00     0.010 C 
BRANCH  40  42
HETATM   42  C6  UNL     1      -6.835   6.433  16.057  1.00  0.00     0.008 C 
BRANCH  42  43
HETATM   43  C5  UNL     1      -8.098   5.708  15.575  1.00  0.00     0.028 C 
BRANCH  43  44
HETATM   44  C4  UNL     1      -7.737   4.508  14.744  1.00  0.00    -0.017 C 
HETATM   45  C2  UNL     1      -7.849   4.365  13.410  1.00  0.00    -0.028 C 
HETATM   46  C1  UNL     1      -8.389   5.361  12.430  1.00  0.00     0.051 C 
BRANCH  45  47
HETATM   47  C3  UNL     1      -7.399   3.067  12.815  1.00  0.00     0.265 C 
HETATM   48  O1  UNL     1      -8.045   2.026  12.861  1.00  0.00    -0.302 OA
ENDBRANCH  45  47
ENDBRANCH  43  44
ENDBRANCH  42  43
ENDBRANCH  40  42
ENDBRANCH   1  40
TORSDOF 12
ENDMDL
