MODEL 1
REMARK minimizedAffinity -9.17217922
REMARK  7 active torsions:
REMARK  status: ('A' for Active; 'I' for Inactive)
REMARK    1  A    between atoms: O1_2  and  C2_3 
REMARK    2  A    between atoms: C2_3  and  C3_4 
REMARK       I    between atoms: C3_4  and  N1_6 
REMARK    3  A    between atoms: N1_6  and  C4_7 
REMARK    4  A    between atoms: C7_10  and  C8_11 
REMARK    5  A    between atoms: C9_15  and  C10_16 
REMARK    6  A    between atoms: N3_20  and  C14_21 
REMARK    7  A    between atoms: C14_21  and  C15_22 
ROOT
HETATM    1  C15 UNL     1      -3.213  50.630 -27.107  1.00  0.00    -0.029 A 
HETATM    2  C16 UNL     1      -3.457  49.403 -27.746  1.00  0.00     0.009 A 
HETATM    3  C17 UNL     1      -4.052  48.347 -27.061  1.00  0.00     0.002 A 
HETATM    4  C18 UNL     1      -4.400  48.497 -25.719  1.00  0.00     0.022 A 
HETATM    5  C19 UNL     1      -4.150  49.705 -25.062  1.00  0.00     0.045 A 
HETATM    6  C20 UNL     1      -4.499  49.852 -23.676  1.00  0.00     0.099 C 
HETATM    7  N4  UNL     1      -4.779  49.973 -22.555  1.00  0.00    -0.191 NA
HETATM    8  C21 UNL     1      -3.558  50.768 -25.754  1.00  0.00     0.031 A 
ENDROOT
BRANCH   1   9
HETATM    9  C14 UNL     1      -2.543  51.772 -27.848  1.00  0.00     0.312 C 
BRANCH   9  10
HETATM   10  N3  UNL     1      -1.638  52.556 -26.995  1.00  0.00     0.105 N 
HETATM   11  C10 UNL     1      -0.542  51.735 -26.422  1.00  0.00     0.299 C 
HETATM   12  C11 UNL     1       0.544  51.732 -27.498  1.00  0.00     0.046 C 
HETATM   13  C12 UNL     1       0.311  52.996 -28.315  1.00  0.00     0.033 C 
HETATM   14  C13 UNL     1      -0.957  53.616 -27.753  1.00  0.00     0.274 C 
BRANCH  11  15
HETATM   15  C9  UNL     1      -0.062  52.322 -25.126  1.00  0.00     0.182 A 
HETATM   16  O3  UNL     1       0.778  53.390 -25.224  1.00  0.00    -0.220 OA
HETATM   17  N2  UNL     1       1.147  53.726 -23.924  1.00  0.00    -0.242 N 
HETATM   18  C8  UNL     1       0.503  52.828 -23.165  1.00  0.00     0.139 A 
ATOM     19  H2  UNL     1       1.765  54.479 -23.621  1.00  0.00     0.196 HD
HETATM   20  N5  UNL     1      -0.275  51.947 -23.883  1.00  0.00    -0.321 N 
ATOM     21  H5  UNL     1      -0.869  51.193 -23.537  1.00  0.00     0.169 HD
BRANCH  18  22
HETATM   22  C7  UNL     1       0.615  52.753 -21.719  1.00  0.00     0.025 A 
HETATM   23  C6  UNL     1      -0.098  51.828 -20.959  1.00  0.00     0.020 A 
HETATM   24  C5  UNL     1       0.025  51.824 -19.565  1.00  0.00     0.050 A 
HETATM   25  C4  UNL     1       0.872  52.742 -18.961  1.00  0.00     0.107 A 
HETATM   26  N6  UNL     1       1.583  53.641 -19.672  1.00  0.00    -0.351 N 
HETATM   27  C22 UNL     1       1.438  53.629 -21.023  1.00  0.00     0.105 A 
ATOM     28  H6  UNL     1       2.206  54.305 -19.212  1.00  0.00     0.166 HD
BRANCH  25  29
HETATM   29  N1  UNL     1       1.061  52.850 -17.589  1.00  0.00    -0.311 N 
HETATM   30  C3  UNL     1       1.054  51.858 -16.635  1.00  0.00     0.246 C 
HETATM   31  O2  UNL     1       0.904  50.654 -16.825  1.00  0.00    -0.271 OA
HETATM   32  H6  UNL     1       1.273  53.793 -17.281  1.00  0.00     0.170 HD
BRANCH  30  33
HETATM   33  C2  UNL     1       1.200  52.428 -15.221  1.00  0.00     0.270 C 
BRANCH  33  34
HETATM   34  O1  UNL     1       2.271  51.842 -14.489  1.00  0.00    -0.387 OA
HETATM   35  C1  UNL     1       3.518  52.006 -15.160  1.00  0.00     0.202 C 
ENDBRANCH  33  34
ENDBRANCH  30  33
ENDBRANCH  25  29
ENDBRANCH  18  22
ENDBRANCH  11  15
ENDBRANCH   9  10
ENDBRANCH   1   9
TORSDOF 7
ENDMDL
MODEL 2
REMARK minimizedAffinity -9.0781641
REMARK  7 active torsions:
REMARK  status: ('A' for Active; 'I' for Inactive)
REMARK    1  A    between atoms: O1_2  and  C2_3 
REMARK    2  A    between atoms: C2_3  and  C3_4 
REMARK       I    between atoms: C3_4  and  N1_6 
REMARK    3  A    between atoms: N1_6  and  C4_7 
REMARK    4  A    between atoms: C7_10  and  C8_11 
REMARK    5  A    between atoms: C9_15  and  C10_16 
REMARK    6  A    between atoms: N3_20  and  C14_21 
REMARK    7  A    between atoms: C14_21  and  C15_22 
ROOT
HETATM    1  C15 UNL     1      -4.074  48.478 -26.601  1.00  0.00    -0.029 A 
HETATM    2  C16 UNL     1      -4.738  48.110 -27.782  1.00  0.00     0.009 A 
HETATM    3  C17 UNL     1      -6.068  47.698 -27.755  1.00  0.00     0.002 A 
HETATM    4  C18 UNL     1      -6.751  47.636 -26.542  1.00  0.00     0.022 A 
HETATM    5  C19 UNL     1      -6.102  47.983 -25.354  1.00  0.00     0.045 A 
HETATM    6  C20 UNL     1      -6.806  47.906 -24.103  1.00  0.00     0.099 C 
HETATM    7  N4  UNL     1      -7.372  47.843 -23.091  1.00  0.00    -0.191 NA
HETATM    8  C21 UNL     1      -4.766  48.403 -25.383  1.00  0.00     0.031 A 
ENDROOT
BRANCH   1   9
HETATM    9  C14 UNL     1      -2.617  48.903 -26.629  1.00  0.00     0.312 C 
BRANCH   9  10
HETATM   10  N3  UNL     1      -2.380  50.180 -25.941  1.00  0.00     0.105 N 
HETATM   11  C10 UNL     1      -1.017  50.715 -26.186  1.00  0.00     0.299 C 
HETATM   12  C11 UNL     1      -1.135  51.492 -27.498  1.00  0.00     0.046 C 
HETATM   13  C12 UNL     1      -2.601  51.888 -27.606  1.00  0.00     0.033 C 
HETATM   14  C13 UNL     1      -3.288  51.234 -26.420  1.00  0.00     0.274 C 
BRANCH  11  15
HETATM   15  C9  UNL     1      -0.574  51.583 -25.044  1.00  0.00     0.182 A 
HETATM   16  O3  UNL     1      -0.049  52.795 -25.379  1.00  0.00    -0.220 OA
HETATM   17  N2  UNL     1       0.352  53.397 -24.190  1.00  0.00    -0.242 N 
HETATM   18  C8  UNL     1       0.037  52.493 -23.250  1.00  0.00     0.139 A 
ATOM     19  H2  UNL     1       0.785  54.312 -24.062  1.00  0.00     0.196 HD
HETATM   20  N5  UNL     1      -0.559  51.356 -23.749  1.00  0.00    -0.321 N 
ATOM     21  H5  UNL     1      -0.903  50.541 -23.240  1.00  0.00     0.169 HD
BRANCH  18  22
HETATM   22  C7  UNL     1       0.310  52.661 -21.834  1.00  0.00     0.025 A 
HETATM   23  C6  UNL     1       1.173  53.642 -21.348  1.00  0.00     0.020 A 
HETATM   24  C5  UNL     1       1.423  53.736 -19.975  1.00  0.00     0.050 A 
HETATM   25  C4  UNL     1       0.794  52.849 -19.113  1.00  0.00     0.107 A 
HETATM   26  N6  UNL     1      -0.053  51.897 -19.553  1.00  0.00    -0.351 N 
HETATM   27  C22 UNL     1      -0.272  51.822 -20.892  1.00  0.00     0.105 A 
ATOM     28  H6  UNL     1      -0.513  51.257 -18.906  1.00  0.00     0.166 HD
BRANCH  25  29
HETATM   29  N1  UNL     1       0.979  52.829 -17.736  1.00  0.00    -0.311 N 
HETATM   30  C3  UNL     1       0.917  51.761 -16.871  1.00  0.00     0.246 C 
HETATM   31  O2  UNL     1       0.710  50.587 -17.164  1.00  0.00    -0.271 OA
HETATM   32  H6  UNL     1       1.235  53.731 -17.348  1.00  0.00     0.170 HD
BRANCH  30  33
HETATM   33  C2  UNL     1       1.082  52.201 -15.413  1.00  0.00     0.270 C 
BRANCH  33  34
HETATM   34  O1  UNL     1       2.403  52.016 -14.918  1.00  0.00    -0.387 OA
HETATM   35  C1  UNL     1       3.383  52.310 -15.911  1.00  0.00     0.202 C 
ENDBRANCH  33  34
ENDBRANCH  30  33
ENDBRANCH  25  29
ENDBRANCH  18  22
ENDBRANCH  11  15
ENDBRANCH   9  10
ENDBRANCH   1   9
TORSDOF 7
ENDMDL
MODEL 3
REMARK minimizedAffinity -9.03378582
REMARK  7 active torsions:
REMARK  status: ('A' for Active; 'I' for Inactive)
REMARK    1  A    between atoms: O1_2  and  C2_3 
REMARK    2  A    between atoms: C2_3  and  C3_4 
REMARK       I    between atoms: C3_4  and  N1_6 
REMARK    3  A    between atoms: N1_6  and  C4_7 
REMARK    4  A    between atoms: C7_10  and  C8_11 
REMARK    5  A    between atoms: C9_15  and  C10_16 
REMARK    6  A    between atoms: N3_20  and  C14_21 
REMARK    7  A    between atoms: C14_21  and  C15_22 
ROOT
HETATM    1  C15 UNL     1      -3.945  48.467 -26.554  1.00  0.00    -0.029 A 
HETATM    2  C16 UNL     1      -4.624  48.463 -25.324  1.00  0.00     0.009 A 
HETATM    3  C17 UNL     1      -5.961  48.081 -25.248  1.00  0.00     0.002 A 
HETATM    4  C18 UNL     1      -6.645  47.711 -26.404  1.00  0.00     0.022 A 
HETATM    5  C19 UNL     1      -5.991  47.724 -27.640  1.00  0.00     0.045 A 
HETATM    6  C20 UNL     1      -6.702  47.354 -28.832  1.00  0.00     0.099 C 
HETATM    7  N4  UNL     1      -7.275  47.056 -29.797  1.00  0.00    -0.191 NA
HETATM    8  C21 UNL     1      -4.644  48.102 -27.714  1.00  0.00     0.031 A 
ENDROOT
BRANCH   1   9
HETATM    9  C14 UNL     1      -2.495  48.906 -26.639  1.00  0.00     0.312 C 
BRANCH   9  10
HETATM   10  N3  UNL     1      -2.236  50.167 -25.930  1.00  0.00     0.105 N 
HETATM   11  C10 UNL     1      -0.885  50.713 -26.214  1.00  0.00     0.299 C 
HETATM   12  C11 UNL     1      -1.055  51.520 -27.501  1.00  0.00     0.046 C 
HETATM   13  C12 UNL     1      -2.525  51.913 -27.545  1.00  0.00     0.033 C 
HETATM   14  C13 UNL     1      -3.165  51.228 -26.349  1.00  0.00     0.274 C 
BRANCH  11  15
HETATM   15  C9  UNL     1      -0.401  51.556 -25.069  1.00  0.00     0.182 A 
HETATM   16  O3  UNL     1       0.282  52.687 -25.402  1.00  0.00    -0.220 OA
HETATM   17  N2  UNL     1       0.689  53.272 -24.206  1.00  0.00    -0.242 N 
HETATM   18  C8  UNL     1       0.219  52.439 -23.265  1.00  0.00     0.139 A 
ATOM     19  H2  UNL     1       1.221  54.132 -24.076  1.00  0.00     0.196 HD
HETATM   20  N5  UNL     1      -0.482  51.367 -23.770  1.00  0.00    -0.321 N 
ATOM     21  H5  UNL     1      -0.948  50.614 -23.263  1.00  0.00     0.169 HD
BRANCH  18  22
HETATM   22  C7  UNL     1       0.435  52.615 -21.841  1.00  0.00     0.025 A 
HETATM   23  C6  UNL     1       1.097  53.723 -21.314  1.00  0.00     0.020 A 
HETATM   24  C5  UNL     1       1.306  53.824 -19.934  1.00  0.00     0.050 A 
HETATM   25  C4  UNL     1       0.836  52.814 -19.106  1.00  0.00     0.107 A 
HETATM   26  N6  UNL     1       0.182  51.737 -19.586  1.00  0.00    -0.351 N 
HETATM   27  C22 UNL     1       0.001  51.660 -20.931  1.00  0.00     0.105 A 
ATOM     28  H6  UNL     1      -0.163  51.007 -18.963  1.00  0.00     0.166 HD
BRANCH  25  29
HETATM   29  N1  UNL     1       1.000  52.791 -17.727  1.00  0.00    -0.311 N 
HETATM   30  C3  UNL     1       0.872  51.731 -16.859  1.00  0.00     0.246 C 
HETATM   31  O2  UNL     1       0.611  50.568 -17.151  1.00  0.00    -0.271 OA
HETATM   32  H6  UNL     1       1.296  53.681 -17.338  1.00  0.00     0.170 HD
BRANCH  30  33
HETATM   33  C2  UNL     1       1.039  52.168 -15.401  1.00  0.00     0.270 C 
BRANCH  33  34
HETATM   34  O1  UNL     1       0.903  51.095 -14.475  1.00  0.00    -0.387 OA
HETATM   35  C1  UNL     1       2.169  50.545 -14.119  1.00  0.00     0.202 C 
ENDBRANCH  33  34
ENDBRANCH  30  33
ENDBRANCH  25  29
ENDBRANCH  18  22
ENDBRANCH  11  15
ENDBRANCH   9  10
ENDBRANCH   1   9
TORSDOF 7
ENDMDL
MODEL 4
REMARK minimizedAffinity -8.83896255
REMARK  7 active torsions:
REMARK  status: ('A' for Active; 'I' for Inactive)
REMARK    1  A    between atoms: O1_2  and  C2_3 
REMARK    2  A    between atoms: C2_3  and  C3_4 
REMARK       I    between atoms: C3_4  and  N1_6 
REMARK    3  A    between atoms: N1_6  and  C4_7 
REMARK    4  A    between atoms: C7_10  and  C8_11 
REMARK    5  A    between atoms: C9_15  and  C10_16 
REMARK    6  A    between atoms: N3_20  and  C14_21 
REMARK    7  A    between atoms: C14_21  and  C15_22 
ROOT
HETATM    1  C15 UNL     1       0.100  51.680 -20.546  1.00  0.00    -0.029 A 
HETATM    2  C16 UNL     1       0.557  52.663 -19.652  1.00  0.00     0.009 A 
HETATM    3  C17 UNL     1       1.063  53.873 -20.120  1.00  0.00     0.002 A 
HETATM    4  C18 UNL     1       1.132  54.114 -21.491  1.00  0.00     0.022 A 
HETATM    5  C19 UNL     1       0.697  53.141 -22.396  1.00  0.00     0.045 A 
HETATM    6  C20 UNL     1       0.781  53.388 -23.809  1.00  0.00     0.099 C 
HETATM    7  N4  UNL     1       0.849  53.584 -24.952  1.00  0.00    -0.191 NA
HETATM    8  C21 UNL     1       0.183  51.927 -21.924  1.00  0.00     0.031 A 
ENDROOT
BRANCH   1   9
HETATM    9  C14 UNL     1      -0.428  50.352 -20.035  1.00  0.00     0.312 C 
BRANCH   9  10
HETATM   10  N3  UNL     1      -1.693  49.957 -20.670  1.00  0.00     0.105 N 
HETATM   11  C10 UNL     1      -1.502  48.945 -21.739  1.00  0.00     0.299 C 
HETATM   12  C11 UNL     1      -1.500  47.603 -21.007  1.00  0.00     0.046 C 
HETATM   13  C12 UNL     1      -2.284  47.838 -19.723  1.00  0.00     0.033 C 
HETATM   14  C13 UNL     1      -2.609  49.322 -19.711  1.00  0.00     0.274 C 
BRANCH  11  15
HETATM   15  C9  UNL     1      -2.599  49.038 -22.761  1.00  0.00     0.182 A 
HETATM   16  O3  UNL     1      -3.755  49.631 -22.350  1.00  0.00    -0.220 OA
HETATM   17  N2  UNL     1      -4.644  49.549 -23.418  1.00  0.00    -0.242 N 
HETATM   18  C8  UNL     1      -3.947  48.912 -24.369  1.00  0.00     0.139 A 
ATOM     19  H2  UNL     1      -5.604  49.894 -23.465  1.00  0.00     0.196 HD
HETATM   20  N5  UNL     1      -2.659  48.594 -23.998  1.00  0.00    -0.321 N 
ATOM     21  H5  UNL     1      -1.934  48.131 -24.545  1.00  0.00     0.169 HD
BRANCH  18  22
HETATM   22  C7  UNL     1      -4.482  48.557 -25.671  1.00  0.00     0.025 A 
HETATM   23  C6  UNL     1      -3.719  48.615 -26.836  1.00  0.00     0.020 A 
HETATM   24  C5  UNL     1      -4.297  48.292 -28.069  1.00  0.00     0.050 A 
HETATM   25  C4  UNL     1      -5.629  47.907 -28.108  1.00  0.00     0.107 A 
HETATM   26  N6  UNL     1      -6.389  47.831 -26.996  1.00  0.00    -0.351 N 
HETATM   27  C22 UNL     1      -5.804  48.158 -25.813  1.00  0.00     0.105 A 
ATOM     28  H6  UNL     1      -7.365  47.539 -27.041  1.00  0.00     0.166 HD
BRANCH  25  29
HETATM   29  N1  UNL     1      -6.318  47.584 -29.270  1.00  0.00    -0.311 N 
HETATM   30  C3  UNL     1      -5.972  47.833 -30.578  1.00  0.00     0.246 C 
HETATM   31  O2  UNL     1      -4.946  48.376 -30.977  1.00  0.00    -0.271 OA
HETATM   32  H6  UNL     1      -7.169  47.056 -29.104  1.00  0.00     0.170 HD
BRANCH  30  33
HETATM   33  C2  UNL     1      -7.072  47.398 -31.550  1.00  0.00     0.270 C 
BRANCH  33  34
HETATM   34  O1  UNL     1      -8.131  48.343 -31.657  1.00  0.00    -0.387 OA
HETATM   35  C1  UNL     1      -9.404  47.728 -31.471  1.00  0.00     0.202 C 
ENDBRANCH  33  34
ENDBRANCH  30  33
ENDBRANCH  25  29
ENDBRANCH  18  22
ENDBRANCH  11  15
ENDBRANCH   9  10
ENDBRANCH   1   9
TORSDOF 7
ENDMDL
MODEL 5
REMARK minimizedAffinity -8.754282
REMARK  7 active torsions:
REMARK  status: ('A' for Active; 'I' for Inactive)
REMARK    1  A    between atoms: O1_2  and  C2_3 
REMARK    2  A    between atoms: C2_3  and  C3_4 
REMARK       I    between atoms: C3_4  and  N1_6 
REMARK    3  A    between atoms: N1_6  and  C4_7 
REMARK    4  A    between atoms: C7_10  and  C8_11 
REMARK    5  A    between atoms: C9_15  and  C10_16 
REMARK    6  A    between atoms: N3_20  and  C14_21 
REMARK    7  A    between atoms: C14_21  and  C15_22 
ROOT
HETATM    1  C15 UNL     1      -2.820  50.747 -26.935  1.00  0.00    -0.029 A 
HETATM    2  C16 UNL     1      -2.858  50.407 -25.573  1.00  0.00     0.009 A 
HETATM    3  C17 UNL     1      -3.569  49.292 -25.135  1.00  0.00     0.002 A 
HETATM    4  C18 UNL     1      -4.264  48.507 -26.053  1.00  0.00     0.022 A 
HETATM    5  C19 UNL     1      -4.251  48.838 -27.411  1.00  0.00     0.045 A 
HETATM    6  C20 UNL     1      -4.978  48.034 -28.353  1.00  0.00     0.099 C 
HETATM    7  N4  UNL     1      -5.567  47.386 -29.116  1.00  0.00    -0.191 NA
HETATM    8  C21 UNL     1      -3.531  49.956 -27.851  1.00  0.00     0.031 A 
ENDROOT
BRANCH   1   9
HETATM    9  C14 UNL     1      -2.065  51.976 -27.408  1.00  0.00     0.312 C 
BRANCH   9  10
HETATM   10  N3  UNL     1      -1.189  52.543 -26.373  1.00  0.00     0.105 N 
HETATM   11  C10 UNL     1      -0.466  51.499 -25.604  1.00  0.00     0.299 C 
HETATM   12  C11 UNL     1       0.781  51.198 -26.436  1.00  0.00     0.046 C 
HETATM   13  C12 UNL     1       1.035  52.455 -27.258  1.00  0.00     0.033 C 
HETATM   14  C13 UNL     1      -0.131  53.381 -26.955  1.00  0.00     0.274 C 
BRANCH  11  15
HETATM   15  C9  UNL     1      -0.131  51.991 -24.226  1.00  0.00     0.182 A 
HETATM   16  O3  UNL     1       0.593  53.144 -24.159  1.00  0.00    -0.220 OA
HETATM   17  N2  UNL     1       0.845  53.376 -22.809  1.00  0.00    -0.242 N 
HETATM   18  C8  UNL     1       0.257  52.342 -22.190  1.00  0.00     0.139 A 
ATOM     19  H2  UNL     1       1.359  54.152 -22.390  1.00  0.00     0.196 HD
HETATM   20  N5  UNL     1      -0.377  51.468 -23.044  1.00  0.00    -0.321 N 
ATOM     21  H5  UNL     1      -0.905  50.625 -22.817  1.00  0.00     0.169 HD
BRANCH  18  22
HETATM   22  C7  UNL     1       0.290  52.127 -20.754  1.00  0.00     0.025 A 
HETATM   23  C6  UNL     1      -0.175  50.955 -20.161  1.00  0.00     0.020 A 
HETATM   24  C5  UNL     1      -0.149  50.817 -18.769  1.00  0.00     0.050 A 
HETATM   25  C4  UNL     1       0.355  51.855 -17.998  1.00  0.00     0.107 A 
HETATM   26  N6  UNL     1       0.822  52.996 -18.545  1.00  0.00    -0.351 N 
HETATM   27  C22 UNL     1       0.777  53.107 -19.899  1.00  0.00     0.105 A 
ATOM     28  H6  UNL     1       1.195  53.747 -17.964  1.00  0.00     0.166 HD
BRANCH  25  29
HETATM   29  N1  UNL     1       0.413  51.844 -16.610  1.00  0.00    -0.311 N 
HETATM   30  C3  UNL     1       1.457  52.197 -15.786  1.00  0.00     0.246 C 
HETATM   31  O2  UNL     1       2.554  52.628 -16.130  1.00  0.00    -0.271 OA
HETATM   32  H6  UNL     1      -0.460  51.575 -16.169  1.00  0.00     0.170 HD
BRANCH  30  33
HETATM   33  C2  UNL     1       1.132  51.935 -14.313  1.00  0.00     0.270 C 
BRANCH  33  34
HETATM   34  O1  UNL     1       1.546  50.648 -13.868  1.00  0.00    -0.387 OA
HETATM   35  C1  UNL     1       2.966  50.547 -13.797  1.00  0.00     0.202 C 
ENDBRANCH  33  34
ENDBRANCH  30  33
ENDBRANCH  25  29
ENDBRANCH  18  22
ENDBRANCH  11  15
ENDBRANCH   9  10
ENDBRANCH   1   9
TORSDOF 7
ENDMDL
MODEL 6
REMARK minimizedAffinity -8.62460327
REMARK  7 active torsions:
REMARK  status: ('A' for Active; 'I' for Inactive)
REMARK    1  A    between atoms: O1_2  and  C2_3 
REMARK    2  A    between atoms: C2_3  and  C3_4 
REMARK       I    between atoms: C3_4  and  N1_6 
REMARK    3  A    between atoms: N1_6  and  C4_7 
REMARK    4  A    between atoms: C7_10  and  C8_11 
REMARK    5  A    between atoms: C9_15  and  C10_16 
REMARK    6  A    between atoms: N3_20  and  C14_21 
REMARK    7  A    between atoms: C14_21  and  C15_22 
ROOT
HETATM    1  C15 UNL     1       0.074  52.570 -20.645  1.00  0.00    -0.029 A 
HETATM    2  C16 UNL     1       0.891  53.605 -20.162  1.00  0.00     0.009 A 
HETATM    3  C17 UNL     1       1.596  54.426 -21.039  1.00  0.00     0.002 A 
HETATM    4  C18 UNL     1       1.505  54.215 -22.414  1.00  0.00     0.022 A 
HETATM    5  C19 UNL     1       0.710  53.180 -22.912  1.00  0.00     0.045 A 
HETATM    6  C20 UNL     1       0.627  52.957 -24.329  1.00  0.00     0.099 C 
HETATM    7  N4  UNL     1       0.561  52.774 -25.475  1.00  0.00    -0.191 NA
HETATM    8  C21 UNL     1      -0.004  52.359 -22.030  1.00  0.00     0.031 A 
ENDROOT
BRANCH   1   9
HETATM    9  C14 UNL     1      -0.675  51.661 -19.688  1.00  0.00     0.312 C 
BRANCH   9  10
HETATM   10  N3  UNL     1      -1.881  51.071 -20.284  1.00  0.00     0.105 N 
HETATM   11  C10 UNL     1      -1.817  49.590 -20.352  1.00  0.00     0.299 C 
HETATM   12  C11 UNL     1      -2.313  49.116 -18.985  1.00  0.00     0.046 C 
HETATM   13  C12 UNL     1      -3.193  50.242 -18.459  1.00  0.00     0.033 C 
HETATM   14  C13 UNL     1      -3.081  51.358 -19.484  1.00  0.00     0.274 C 
BRANCH  11  15
HETATM   15  C9  UNL     1      -2.664  49.072 -21.479  1.00  0.00     0.182 A 
HETATM   16  O3  UNL     1      -3.520  48.058 -21.170  1.00  0.00    -0.220 OA
HETATM   17  N2  UNL     1      -4.148  47.693 -22.358  1.00  0.00    -0.242 N 
HETATM   18  C8  UNL     1      -3.610  48.515 -23.271  1.00  0.00     0.139 A 
ATOM     19  H2  UNL     1      -4.852  46.969 -22.500  1.00  0.00     0.196 HD
HETATM   20  N5  UNL     1      -2.693  49.401 -22.752  1.00  0.00    -0.321 N 
ATOM     21  H5  UNL     1      -2.167  50.130 -23.234  1.00  0.00     0.169 HD
BRANCH  18  22
HETATM   22  C7  UNL     1      -3.930  48.480 -24.687  1.00  0.00     0.025 A 
HETATM   23  C6  UNL     1      -2.951  48.533 -25.678  1.00  0.00     0.020 A 
HETATM   24  C5  UNL     1      -3.321  48.529 -27.028  1.00  0.00     0.050 A 
HETATM   25  C4  UNL     1      -4.667  48.461 -27.358  1.00  0.00     0.107 A 
HETATM   26  N6  UNL     1      -5.635  48.397 -26.421  1.00  0.00    -0.351 N 
HETATM   27  C22 UNL     1      -5.248  48.411 -25.118  1.00  0.00     0.105 A 
ATOM     28  H6  UNL     1      -6.619  48.341 -26.680  1.00  0.00     0.166 HD
BRANCH  25  29
HETATM   29  N1  UNL     1      -5.156  48.471 -28.657  1.00  0.00    -0.311 N 
HETATM   30  C3  UNL     1      -6.076  47.630 -29.241  1.00  0.00     0.246 C 
HETATM   31  O2  UNL     1      -6.674  46.705 -28.701  1.00  0.00    -0.271 OA
HETATM   32  H6  UNL     1      -4.804  49.240 -29.219  1.00  0.00     0.170 HD
BRANCH  30  33
HETATM   33  C2  UNL     1      -6.255  47.932 -30.732  1.00  0.00     0.270 C 
BRANCH  33  34
HETATM   34  O1  UNL     1      -5.022  48.090 -31.425  1.00  0.00    -0.387 OA
HETATM   35  C1  UNL     1      -4.594  46.869 -32.024  1.00  0.00     0.202 C 
ENDBRANCH  33  34
ENDBRANCH  30  33
ENDBRANCH  25  29
ENDBRANCH  18  22
ENDBRANCH  11  15
ENDBRANCH   9  10
ENDBRANCH   1   9
TORSDOF 7
ENDMDL
MODEL 7
REMARK minimizedAffinity -8.51535416
REMARK  7 active torsions:
REMARK  status: ('A' for Active; 'I' for Inactive)
REMARK    1  A    between atoms: O1_2  and  C2_3 
REMARK    2  A    between atoms: C2_3  and  C3_4 
REMARK       I    between atoms: C3_4  and  N1_6 
REMARK    3  A    between atoms: N1_6  and  C4_7 
REMARK    4  A    between atoms: C7_10  and  C8_11 
REMARK    5  A    between atoms: C9_15  and  C10_16 
REMARK    6  A    between atoms: N3_20  and  C14_21 
REMARK    7  A    between atoms: C14_21  and  C15_22 
ROOT
HETATM    1  C15 UNL     1      -1.426  51.469 -24.291  1.00  0.00    -0.029 A 
HETATM    2  C16 UNL     1      -2.243  50.705 -25.140  1.00  0.00     0.009 A 
HETATM    3  C17 UNL     1      -1.772  50.259 -26.373  1.00  0.00     0.002 A 
HETATM    4  C18 UNL     1      -0.479  50.582 -26.781  1.00  0.00     0.022 A 
HETATM    5  C19 UNL     1       0.343  51.355 -25.956  1.00  0.00     0.045 A 
HETATM    6  C20 UNL     1       1.672  51.697 -26.385  1.00  0.00     0.099 C 
HETATM    7  N4  UNL     1       2.745  51.975 -26.731  1.00  0.00    -0.191 NA
HETATM    8  C21 UNL     1      -0.129  51.798 -24.715  1.00  0.00     0.031 A 
ENDROOT
BRANCH   1   9
HETATM    9  C14 UNL     1      -1.948  51.975 -22.959  1.00  0.00     0.312 C 
BRANCH   9  10
HETATM   10  N3  UNL     1      -1.049  51.670 -21.838  1.00  0.00     0.105 N 
HETATM   11  C10 UNL     1      -1.617  52.071 -20.526  1.00  0.00     0.299 C 
HETATM   12  C11 UNL     1      -2.483  50.884 -20.100  1.00  0.00     0.046 C 
HETATM   13  C12 UNL     1      -1.901  49.676 -20.820  1.00  0.00     0.033 C 
HETATM   14  C13 UNL     1      -0.803  50.225 -21.715  1.00  0.00     0.274 C 
BRANCH  11  15
HETATM   15  C9  UNL     1      -0.523  52.365 -19.541  1.00  0.00     0.182 A 
HETATM   16  O3  UNL     1       0.416  53.268 -19.937  1.00  0.00    -0.220 OA
HETATM   17  N2  UNL     1       1.357  53.337 -18.914  1.00  0.00    -0.242 N 
HETATM   18  C8  UNL     1       0.902  52.468 -17.999  1.00  0.00     0.139 A 
ATOM     19  H2  UNL     1       2.197  53.914 -18.870  1.00  0.00     0.196 HD
HETATM   20  N5  UNL     1      -0.280  51.856 -18.352  1.00  0.00    -0.321 N 
ATOM     21  H5  UNL     1      -0.830  51.179 -17.823  1.00  0.00     0.169 HD
BRANCH  18  22
HETATM   22  C7  UNL     1       1.585  52.163 -16.755  1.00  0.00     0.025 A 
HETATM   23  C6  UNL     1       2.903  52.544 -16.510  1.00  0.00     0.020 A 
HETATM   24  C5  UNL     1       3.521  52.194 -15.304  1.00  0.00     0.050 A 
HETATM   25  C4  UNL     1       2.800  51.476 -14.362  1.00  0.00     0.107 A 
HETATM   26  N6  UNL     1       1.520  51.103 -14.566  1.00  0.00    -0.351 N 
HETATM   27  C22 UNL     1       0.947  51.449 -15.749  1.00  0.00     0.105 A 
ATOM     28  H6  UNL     1       1.002  50.580 -13.860  1.00  0.00     0.166 HD
BRANCH  25  29
HETATM   29  N1  UNL     1       3.309  51.053 -13.141  1.00  0.00    -0.311 N 
HETATM   30  C3  UNL     1       4.241  50.073 -12.885  1.00  0.00     0.246 C 
HETATM   31  O2  UNL     1       4.836  49.389 -13.713  1.00  0.00    -0.271 OA
HETATM   32  H6  UNL     1       2.961  51.584 -12.349  1.00  0.00     0.170 HD
BRANCH  30  33
HETATM   33  C2  UNL     1       4.441  49.857 -11.382  1.00  0.00     0.270 C 
BRANCH  33  34
HETATM   34  O1  UNL     1       5.780  49.518 -11.038  1.00  0.00    -0.387 OA
HETATM   35  C1  UNL     1       6.379  50.514 -10.213  1.00  0.00     0.202 C 
ENDBRANCH  33  34
ENDBRANCH  30  33
ENDBRANCH  25  29
ENDBRANCH  18  22
ENDBRANCH  11  15
ENDBRANCH   9  10
ENDBRANCH   1   9
TORSDOF 7
ENDMDL
MODEL 8
REMARK minimizedAffinity -8.47432804
REMARK  7 active torsions:
REMARK  status: ('A' for Active; 'I' for Inactive)
REMARK    1  A    between atoms: O1_2  and  C2_3 
REMARK    2  A    between atoms: C2_3  and  C3_4 
REMARK       I    between atoms: C3_4  and  N1_6 
REMARK    3  A    between atoms: N1_6  and  C4_7 
REMARK    4  A    between atoms: C7_10  and  C8_11 
REMARK    5  A    between atoms: C9_15  and  C10_16 
REMARK    6  A    between atoms: N3_20  and  C14_21 
REMARK    7  A    between atoms: C14_21  and  C15_22 
ROOT
HETATM    1  C15 UNL     1       0.653  53.323 -23.790  1.00  0.00    -0.029 A 
HETATM    2  C16 UNL     1       1.287  54.399 -23.146  1.00  0.00     0.009 A 
HETATM    3  C17 UNL     1       1.517  54.374 -21.773  1.00  0.00     0.002 A 
HETATM    4  C18 UNL     1       1.103  53.277 -21.019  1.00  0.00     0.022 A 
HETATM    5  C19 UNL     1       0.456  52.204 -21.639  1.00  0.00     0.045 A 
HETATM    6  C20 UNL     1       0.020  51.080 -20.858  1.00  0.00     0.099 C 
HETATM    7  N4  UNL     1      -0.335  50.171 -20.227  1.00  0.00    -0.191 NA
HETATM    8  C21 UNL     1       0.232  52.228 -23.022  1.00  0.00     0.031 A 
ENDROOT
BRANCH   1   9
HETATM    9  C14 UNL     1       0.382  53.362 -25.282  1.00  0.00     0.312 C 
BRANCH   9  10
HETATM   10  N3  UNL     1      -0.081  52.073 -25.814  1.00  0.00     0.105 N 
HETATM   11  C10 UNL     1      -0.977  52.230 -26.988  1.00  0.00     0.299 C 
HETATM   12  C11 UNL     1      -0.033  52.337 -28.186  1.00  0.00     0.046 C 
HETATM   13  C12 UNL     1       1.249  51.634 -27.758  1.00  0.00     0.033 C 
HETATM   14  C13 UNL     1       1.037  51.252 -26.303  1.00  0.00     0.274 C 
BRANCH  11  15
HETATM   15  C9  UNL     1      -1.914  51.062 -27.100  1.00  0.00     0.182 A 
HETATM   16  O3  UNL     1      -1.655  50.002 -26.285  1.00  0.00    -0.220 OA
HETATM   17  N2  UNL     1      -2.591  49.021 -26.599  1.00  0.00    -0.242 N 
HETATM   18  C8  UNL     1      -3.324  49.577 -27.575  1.00  0.00     0.139 A 
ATOM     19  H2  UNL     1      -2.695  48.095 -26.183  1.00  0.00     0.196 HD
HETATM   20  N5  UNL     1      -2.939  50.858 -27.900  1.00  0.00    -0.321 N 
ATOM     21  H5  UNL     1      -3.346  51.491 -28.588  1.00  0.00     0.169 HD
BRANCH  18  22
HETATM   22  C7  UNL     1      -4.413  48.904 -28.259  1.00  0.00     0.025 A 
HETATM   23  C6  UNL     1      -5.237  47.976 -27.626  1.00  0.00     0.020 A 
HETATM   24  C5  UNL     1      -6.251  47.333 -28.345  1.00  0.00     0.050 A 
HETATM   25  C4  UNL     1      -6.426  47.643 -29.686  1.00  0.00     0.107 A 
HETATM   26  N6  UNL     1      -5.651  48.544 -30.323  1.00  0.00    -0.351 N 
HETATM   27  C22 UNL     1      -4.668  49.147 -29.603  1.00  0.00     0.105 A 
ATOM     28  H6  UNL     1      -5.796  48.765 -31.308  1.00  0.00     0.166 HD
BRANCH  25  29
HETATM   29  N1  UNL     1      -7.381  47.058 -30.508  1.00  0.00    -0.311 N 
HETATM   30  C3  UNL     1      -7.233  46.545 -31.776  1.00  0.00     0.246 C 
HETATM   31  O2  UNL     1      -6.194  46.479 -32.427  1.00  0.00    -0.271 OA
HETATM   32  H6  UNL     1      -8.294  46.972 -30.072  1.00  0.00     0.170 HD
BRANCH  30  33
HETATM   33  C2  UNL     1      -8.571  46.088 -32.364  1.00  0.00     0.270 C 
BRANCH  33  34
HETATM   34  O1  UNL     1      -9.539  47.129 -32.432  1.00  0.00    -0.387 OA
HETATM   35  C1  UNL     1     -10.813  46.695 -31.964  1.00  0.00     0.202 C 
ENDBRANCH  33  34
ENDBRANCH  30  33
ENDBRANCH  25  29
ENDBRANCH  18  22
ENDBRANCH  11  15
ENDBRANCH   9  10
ENDBRANCH   1   9
TORSDOF 7
ENDMDL
MODEL 9
REMARK minimizedAffinity -8.22051144
REMARK  7 active torsions:
REMARK  status: ('A' for Active; 'I' for Inactive)
REMARK    1  A    between atoms: O1_2  and  C2_3 
REMARK    2  A    between atoms: C2_3  and  C3_4 
REMARK       I    between atoms: C3_4  and  N1_6 
REMARK    3  A    between atoms: N1_6  and  C4_7 
REMARK    4  A    between atoms: C7_10  and  C8_11 
REMARK    5  A    between atoms: C9_15  and  C10_16 
REMARK    6  A    between atoms: N3_20  and  C14_21 
REMARK    7  A    between atoms: C14_21  and  C15_22 
ROOT
HETATM    1  C15 UNL     1       0.302  51.934 -21.147  1.00  0.00    -0.029 A 
HETATM    2  C16 UNL     1       0.922  52.924 -20.366  1.00  0.00     0.009 A 
HETATM    3  C17 UNL     1       1.394  54.098 -20.946  1.00  0.00     0.002 A 
HETATM    4  C18 UNL     1       1.266  54.295 -22.320  1.00  0.00     0.022 A 
HETATM    5  C19 UNL     1       0.666  53.315 -23.116  1.00  0.00     0.045 A 
HETATM    6  C20 UNL     1       0.546  53.516 -24.533  1.00  0.00     0.099 C 
HETATM    7  N4  UNL     1       0.450  53.676 -25.680  1.00  0.00    -0.191 NA
HETATM    8  C21 UNL     1       0.186  52.137 -22.530  1.00  0.00     0.031 A 
ENDROOT
BRANCH   1   9
HETATM    9  C14 UNL     1      -0.191  50.644 -20.517  1.00  0.00     0.312 C 
BRANCH   9  10
HETATM   10  N3  UNL     1      -1.509  50.230 -21.018  1.00  0.00     0.105 N 
HETATM   11  C10 UNL     1      -1.418  49.151 -22.034  1.00  0.00     0.299 C 
HETATM   12  C11 UNL     1      -1.366  47.856 -21.223  1.00  0.00     0.046 C 
HETATM   13  C12 UNL     1      -2.037  48.181 -19.895  1.00  0.00     0.033 C 
HETATM   14  C13 UNL     1      -2.346  49.668 -19.948  1.00  0.00     0.274 C 
BRANCH  11  15
HETATM   15  C9  UNL     1      -2.597  49.197 -22.964  1.00  0.00     0.182 A 
HETATM   16  O3  UNL     1      -3.690  49.877 -22.516  1.00  0.00    -0.220 OA
HETATM   17  N2  UNL     1      -4.672  49.736 -23.493  1.00  0.00    -0.242 N 
HETATM   18  C8  UNL     1      -4.085  48.982 -24.434  1.00  0.00     0.139 A 
ATOM     19  H2  UNL     1      -5.618  50.117 -23.492  1.00  0.00     0.196 HD
HETATM   20  N5  UNL     1      -2.782  48.643 -24.143  1.00  0.00    -0.321 N 
ATOM     21  H5  UNL     1      -2.125  48.099 -24.702  1.00  0.00     0.169 HD
BRANCH  18  22
HETATM   22  C7  UNL     1      -4.745  48.532 -25.645  1.00  0.00     0.025 A 
HETATM   23  C6  UNL     1      -4.124  48.562 -26.893  1.00  0.00     0.020 A 
HETATM   24  C5  UNL     1      -4.821  48.145 -28.032  1.00  0.00     0.050 A 
HETATM   25  C4  UNL     1      -6.127  47.695 -27.896  1.00  0.00     0.107 A 
HETATM   26  N6  UNL     1      -6.749  47.645 -26.701  1.00  0.00    -0.351 N 
HETATM   27  C22 UNL     1      -6.052  48.063 -25.612  1.00  0.00     0.105 A 
ATOM     28  H6  UNL     1      -7.707  47.305 -26.618  1.00  0.00     0.166 HD
BRANCH  25  29
HETATM   29  N1  UNL     1      -6.925  47.277 -28.953  1.00  0.00    -0.311 N 
HETATM   30  C3  UNL     1      -7.882  46.289 -28.974  1.00  0.00     0.246 C 
HETATM   31  O2  UNL     1      -8.241  45.591 -28.030  1.00  0.00    -0.271 OA
HETATM   32  H6  UNL     1      -6.795  47.819 -29.801  1.00  0.00     0.170 HD
BRANCH  30  33
HETATM   33  C2  UNL     1      -8.456  46.083 -30.379  1.00  0.00     0.270 C 
BRANCH  33  34
HETATM   34  O1  UNL     1      -9.767  46.615 -30.533  1.00  0.00    -0.387 OA
HETATM   35  C1  UNL     1     -10.757  45.591 -30.503  1.00  0.00     0.202 C 
ENDBRANCH  33  34
ENDBRANCH  30  33
ENDBRANCH  25  29
ENDBRANCH  18  22
ENDBRANCH  11  15
ENDBRANCH   9  10
ENDBRANCH   1   9
TORSDOF 7
ENDMDL
