MODEL 1
REMARK minimizedAffinity -6.80849934
REMARK CNNscore 0.554249167
REMARK CNNaffinity 6.56455231
REMARK  8 active torsions:
REMARK  status: ('A' for Active; 'I' for Inactive)
REMARK    1  A    between atoms: C4_4  and  C5_5 
REMARK    2  A    between atoms: C5_5  and  C6_6 
REMARK    3  A    between atoms: C6_6  and  C7_7 
REMARK    4  A    between atoms: C7_7  and  C9_9 
REMARK    5  A    between atoms: C21_21  and  C22_22 
REMARK    6  A    between atoms: C22_22  and  C23_23 
REMARK    7  A    between atoms: C23_23  and  C24_24 
REMARK    8  A    between atoms: C24_24  and  O1_25 
ROOT
HETATM    1  C9  UNL     1      -3.584  52.066 -10.906  1.00  0.00    -0.002 C 
HETATM    2  C10 UNL     1      -3.954  53.539 -10.591  1.00  0.00     0.006 C 
HETATM    3  C11 UNL     1      -2.635  54.348 -10.609  1.00  0.00     0.011 C 
HETATM    4  C12 UNL     1      -1.566  53.317 -10.195  1.00  0.00    -0.032 C 
HETATM    5  C13 UNL     1      -1.712  53.175  -8.656  1.00  0.00     0.016 C 
HETATM    6  C14 UNL     1      -0.087  53.647 -10.562  1.00  0.00     0.003 C 
HETATM    7  C15 UNL     1       0.446  54.982 -10.016  1.00  0.00     0.010 C 
HETATM    8  C16 UNL     1       1.804  55.299 -10.641  1.00  0.00     0.035 C 
HETATM    9  C17 UNL     1       2.837  54.181 -10.426  1.00  0.00    -0.073 C 
HETATM   10  C18 UNL     1       4.012  54.461  -9.799  1.00  0.00    -0.085 C 
HETATM   11  C19 UNL     1       4.266  55.797  -9.120  1.00  0.00     0.043 C 
HETATM   12  C20 UNL     1       5.215  53.570  -9.648  1.00  0.00     0.043 C 
HETATM   13  C21 UNL     1       2.297  52.857 -11.049  1.00  0.00     0.023 C 
HETATM   14  C25 UNL     1       0.933  52.440 -10.315  1.00  0.00    -0.032 C 
HETATM   15  C26 UNL     1       1.227  52.203  -8.807  1.00  0.00     0.016 C 
HETATM   16  C27 UNL     1       0.335  51.110 -10.903  1.00  0.00     0.011 C 
HETATM   17  C28 UNL     1      -1.179  50.861 -10.659  1.00  0.00     0.011 C 
HETATM   18  C29 UNL     1      -2.023  52.079 -11.052  1.00  0.00    -0.032 C 
HETATM   19  C30 UNL     1      -1.811  52.267 -12.611  1.00  0.00     0.016 C 
ENDROOT
BRANCH   1  20
HETATM   20  C7  UNL     1      -4.308  50.920 -10.142  1.00  0.00    -0.014 C 
HETATM   21  C8  UNL     1      -3.380  50.340  -9.061  1.00  0.00     0.010 C 
BRANCH  20  22
HETATM   22  C6  UNL     1      -5.013  49.792 -10.924  1.00  0.00     0.008 C 
BRANCH  22  23
HETATM   23  C5  UNL     1      -6.198  49.093 -10.247  1.00  0.00     0.028 C 
BRANCH  23  24
HETATM   24  C4  UNL     1      -7.021  48.334 -11.255  1.00  0.00    -0.025 C 
HETATM   25  C2  UNL     1      -8.351  48.116 -11.244  1.00  0.00    -0.091 C 
HETATM   26  C1  UNL     1      -9.000  47.292 -12.325  1.00  0.00     0.042 C 
HETATM   27  C3  UNL     1      -9.308  48.642 -10.211  1.00  0.00     0.042 C 
ENDBRANCH  23  24
ENDBRANCH  22  23
ENDBRANCH  20  22
ENDBRANCH   1  20
BRANCH  13  28
HETATM   28  C22 UNL     1       3.266  51.702 -11.432  1.00  0.00     0.012 C 
BRANCH  28  29
HETATM   29  C23 UNL     1       3.222  51.097 -12.836  1.00  0.00     0.027 C 
BRANCH  29  30
HETATM   30  C24 UNL     1       3.803  49.685 -12.846  1.00  0.00     0.164 C 
BRANCH  30  31
HETATM   31  O1  UNL     1       5.017  49.664 -13.585  1.00  0.00    -0.401 OA
HETATM   32  H42 UNL     1       4.824  50.004 -14.476  1.00  0.00     0.209 HD
ENDBRANCH  30  31
ENDBRANCH  29  30
ENDBRANCH  28  29
ENDBRANCH  13  28
TORSDOF 8
ENDMDL
MODEL 2
REMARK minimizedAffinity -6.56616688
REMARK CNNscore 0.459201008
REMARK CNNaffinity 6.53174162
REMARK  8 active torsions:
REMARK  status: ('A' for Active; 'I' for Inactive)
REMARK    1  A    between atoms: C4_4  and  C5_5 
REMARK    2  A    between atoms: C5_5  and  C6_6 
REMARK    3  A    between atoms: C6_6  and  C7_7 
REMARK    4  A    between atoms: C7_7  and  C9_9 
REMARK    5  A    between atoms: C21_21  and  C22_22 
REMARK    6  A    between atoms: C22_22  and  C23_23 
REMARK    7  A    between atoms: C23_23  and  C24_24 
REMARK    8  A    between atoms: C24_24  and  O1_25 
ROOT
HETATM    1  C9  UNL     1      -0.531  53.875 -10.020  1.00  0.00    -0.002 C 
HETATM    2  C10 UNL     1      -1.260  55.031  -9.286  1.00  0.00     0.006 C 
HETATM    3  C11 UNL     1      -0.165  55.981  -8.743  1.00  0.00     0.011 C 
HETATM    4  C12 UNL     1       1.044  55.053  -8.511  1.00  0.00    -0.032 C 
HETATM    5  C13 UNL     1       0.732  54.301  -7.189  1.00  0.00     0.016 C 
HETATM    6  C14 UNL     1       2.446  55.728  -8.423  1.00  0.00     0.003 C 
HETATM    7  C15 UNL     1       2.591  56.812  -7.341  1.00  0.00     0.010 C 
HETATM    8  C16 UNL     1       3.913  57.556  -7.519  1.00  0.00     0.035 C 
HETATM    9  C17 UNL     1       5.132  56.621  -7.506  1.00  0.00    -0.073 C 
HETATM   10  C18 UNL     1       6.122  56.816  -6.593  1.00  0.00    -0.085 C 
HETATM   11  C19 UNL     1       5.979  57.805  -5.447  1.00  0.00     0.043 C 
HETATM   12  C20 UNL     1       7.464  56.138  -6.524  1.00  0.00     0.043 C 
HETATM   13  C21 UNL     1       4.990  55.576  -8.656  1.00  0.00     0.023 C 
HETATM   14  C25 UNL     1       3.670  54.697  -8.417  1.00  0.00    -0.032 C 
HETATM   15  C26 UNL     1       3.809  53.942  -7.064  1.00  0.00     0.016 C 
HETATM   16  C27 UNL     1       3.467  53.624  -9.548  1.00  0.00     0.011 C 
HETATM   17  C28 UNL     1       2.029  53.065  -9.726  1.00  0.00     0.011 C 
HETATM   18  C29 UNL     1       0.993  54.190  -9.826  1.00  0.00    -0.032 C 
HETATM   19  C30 UNL     1       1.360  55.000 -11.137  1.00  0.00     0.016 C 
ENDROOT
BRANCH   1  20
HETATM   20  C7  UNL     1      -1.074  52.424  -9.879  1.00  0.00    -0.014 C 
HETATM   21  C8  UNL     1      -0.826  51.641 -11.180  1.00  0.00     0.010 C 
BRANCH  20  22
HETATM   22  C6  UNL     1      -2.505  52.181  -9.355  1.00  0.00     0.008 C 
BRANCH  22  23
HETATM   23  C5  UNL     1      -3.671  52.637 -10.240  1.00  0.00     0.028 C 
BRANCH  23  24
HETATM   24  C4  UNL     1      -4.281  51.468 -10.968  1.00  0.00    -0.025 C 
HETATM   25  C2  UNL     1      -4.364  50.187 -10.557  1.00  0.00    -0.091 C 
HETATM   26  C1  UNL     1      -4.977  49.136 -11.444  1.00  0.00     0.042 C 
HETATM   27  C3  UNL     1      -3.886  49.669  -9.228  1.00  0.00     0.042 C 
ENDBRANCH  23  24
ENDBRANCH  22  23
ENDBRANCH  20  22
ENDBRANCH   1  20
BRANCH  13  28
HETATM   28  C22 UNL     1       6.234  54.830  -9.215  1.00  0.00     0.012 C 
BRANCH  28  29
HETATM   29  C23 UNL     1       6.776  53.593  -8.496  1.00  0.00     0.027 C 
BRANCH  29  30
HETATM   30  C24 UNL     1       6.615  52.341  -9.355  1.00  0.00     0.164 C 
BRANCH  30  31
HETATM   31  O1  UNL     1       7.715  51.465  -9.147  1.00  0.00    -0.401 OA
HETATM   32  H42 UNL     1       8.527  51.961  -9.343  1.00  0.00     0.209 HD
ENDBRANCH  30  31
ENDBRANCH  29  30
ENDBRANCH  28  29
ENDBRANCH  13  28
TORSDOF 8
ENDMDL
MODEL 3
REMARK minimizedAffinity -6.44244337
REMARK CNNscore 0.426432818
REMARK CNNaffinity 7.04352522
REMARK  8 active torsions:
REMARK  status: ('A' for Active; 'I' for Inactive)
REMARK    1  A    between atoms: C4_4  and  C5_5 
REMARK    2  A    between atoms: C5_5  and  C6_6 
REMARK    3  A    between atoms: C6_6  and  C7_7 
REMARK    4  A    between atoms: C7_7  and  C9_9 
REMARK    5  A    between atoms: C21_21  and  C22_22 
REMARK    6  A    between atoms: C22_22  and  C23_23 
REMARK    7  A    between atoms: C23_23  and  C24_24 
REMARK    8  A    between atoms: C24_24  and  O1_25 
ROOT
HETATM    1  C9  UNL     1       0.019  51.878 -11.525  1.00  0.00    -0.002 C 
HETATM    2  C10 UNL     1       1.053  50.725 -11.442  1.00  0.00     0.006 C 
HETATM    3  C11 UNL     1       2.106  51.140 -10.386  1.00  0.00     0.011 C 
HETATM    4  C12 UNL     1       2.104  52.680 -10.451  1.00  0.00    -0.032 C 
HETATM    5  C13 UNL     1       2.920  53.034 -11.724  1.00  0.00     0.016 C 
HETATM    6  C14 UNL     1       2.681  53.440  -9.219  1.00  0.00     0.003 C 
HETATM    7  C15 UNL     1       4.128  53.081  -8.840  1.00  0.00     0.010 C 
HETATM    8  C16 UNL     1       4.486  53.701  -7.490  1.00  0.00     0.035 C 
HETATM    9  C17 UNL     1       4.286  55.225  -7.461  1.00  0.00    -0.073 C 
HETATM   10  C18 UNL     1       5.336  56.036  -7.154  1.00  0.00    -0.085 C 
HETATM   11  C19 UNL     1       6.755  55.506  -7.032  1.00  0.00     0.043 C 
HETATM   12  C20 UNL     1       5.314  57.518  -6.898  1.00  0.00     0.043 C 
HETATM   13  C21 UNL     1       2.796  55.553  -7.782  1.00  0.00     0.023 C 
HETATM   14  C25 UNL     1       2.437  55.021  -9.251  1.00  0.00    -0.032 C 
HETATM   15  C26 UNL     1       3.346  55.746 -10.284  1.00  0.00     0.016 C 
HETATM   16  C27 UNL     1       0.942  55.320  -9.634  1.00  0.00     0.011 C 
HETATM   17  C28 UNL     1       0.327  54.452 -10.767  1.00  0.00     0.011 C 
HETATM   18  C29 UNL     1       0.557  52.957 -10.522  1.00  0.00    -0.032 C 
HETATM   19  C30 UNL     1      -0.216  52.615  -9.182  1.00  0.00     0.016 C 
ENDROOT
BRANCH   1  20
HETATM   20  C7  UNL     1      -0.552  52.288 -12.913  1.00  0.00    -0.014 C 
HETATM   21  C8  UNL     1      -1.860  51.527 -13.189  1.00  0.00     0.010 C 
BRANCH  20  22
HETATM   22  C6  UNL     1       0.361  52.283 -14.158  1.00  0.00     0.008 C 
BRANCH  22  23
HETATM   23  C5  UNL     1       1.206  51.029 -14.412  1.00  0.00     0.028 C 
BRANCH  23  24
HETATM   24  C4  UNL     1       2.605  51.401 -14.829  1.00  0.00    -0.025 C 
HETATM   25  C2  UNL     1       2.989  52.079 -15.929  1.00  0.00    -0.091 C 
HETATM   26  C1  UNL     1       4.449  52.325 -16.205  1.00  0.00     0.042 C 
HETATM   27  C3  UNL     1       2.061  52.652 -16.963  1.00  0.00     0.042 C 
ENDBRANCH  23  24
ENDBRANCH  22  23
ENDBRANCH  20  22
ENDBRANCH   1  20
BRANCH  13  28
HETATM   28  C22 UNL     1       2.169  56.913  -7.360  1.00  0.00     0.012 C 
BRANCH  28  29
HETATM   29  C23 UNL     1       1.337  57.011  -6.080  1.00  0.00     0.027 C 
BRANCH  29  30
HETATM   30  C24 UNL     1       0.701  55.667  -5.732  1.00  0.00     0.164 C 
BRANCH  30  31
HETATM   31  O1  UNL     1      -0.549  55.536  -6.394  1.00  0.00    -0.401 OA
HETATM   32  H42 UNL     1      -1.099  56.296  -6.139  1.00  0.00     0.209 HD
ENDBRANCH  30  31
ENDBRANCH  29  30
ENDBRANCH  28  29
ENDBRANCH  13  28
TORSDOF 8
ENDMDL
MODEL 4
REMARK minimizedAffinity -9.84623146
REMARK CNNscore 0.368482411
REMARK CNNaffinity 7.41307211
REMARK  8 active torsions:
REMARK  status: ('A' for Active; 'I' for Inactive)
REMARK    1  A    between atoms: C4_4  and  C5_5 
REMARK    2  A    between atoms: C5_5  and  C6_6 
REMARK    3  A    between atoms: C6_6  and  C7_7 
REMARK    4  A    between atoms: C7_7  and  C9_9 
REMARK    5  A    between atoms: C21_21  and  C22_22 
REMARK    6  A    between atoms: C22_22  and  C23_23 
REMARK    7  A    between atoms: C23_23  and  C24_24 
REMARK    8  A    between atoms: C24_24  and  O1_25 
ROOT
HETATM    1  C9  UNL     1      -4.072  50.541 -24.576  1.00  0.00    -0.002 C 
HETATM    2  C10 UNL     1      -5.358  50.106 -23.825  1.00  0.00     0.006 C 
HETATM    3  C11 UNL     1      -5.104  50.356 -22.318  1.00  0.00     0.011 C 
HETATM    4  C12 UNL     1      -3.578  50.199 -22.172  1.00  0.00    -0.032 C 
HETATM    5  C13 UNL     1      -3.323  48.667 -22.185  1.00  0.00     0.016 C 
HETATM    6  C14 UNL     1      -2.920  50.839 -20.912  1.00  0.00     0.003 C 
HETATM    7  C15 UNL     1      -3.479  50.362 -19.561  1.00  0.00     0.010 C 
HETATM    8  C16 UNL     1      -2.930  51.231 -18.431  1.00  0.00     0.035 C 
HETATM    9  C17 UNL     1      -1.394  51.265 -18.394  1.00  0.00    -0.073 C 
HETATM   10  C18 UNL     1      -0.738  50.873 -17.267  1.00  0.00    -0.085 C 
HETATM   11  C19 UNL     1      -1.459  50.210 -16.104  1.00  0.00     0.043 C 
HETATM   12  C20 UNL     1       0.729  50.996 -16.962  1.00  0.00     0.043 C 
HETATM   13  C21 UNL     1      -0.860  51.816 -19.751  1.00  0.00     0.023 C 
HETATM   14  C25 UNL     1      -1.320  50.843 -20.940  1.00  0.00    -0.032 C 
HETATM   15  C26 UNL     1      -0.714  49.432 -20.696  1.00  0.00     0.016 C 
HETATM   16  C27 UNL     1      -0.814  51.348 -22.340  1.00  0.00     0.011 C 
HETATM   17  C28 UNL     1      -1.575  50.818 -23.587  1.00  0.00     0.011 C 
HETATM   18  C29 UNL     1      -3.091  50.992 -23.440  1.00  0.00    -0.032 C 
HETATM   19  C30 UNL     1      -3.340  52.555 -23.353  1.00  0.00     0.016 C 
ENDROOT
BRANCH   1  20
HETATM   20  C7  UNL     1      -3.571  49.690 -25.779  1.00  0.00    -0.014 C 
HETATM   21  C8  UNL     1      -4.280  48.325 -25.789  1.00  0.00     0.010 C 
BRANCH  20  22
HETATM   22  C6  UNL     1      -2.057  49.526 -26.033  1.00  0.00     0.008 C 
BRANCH  22  23
HETATM   23  C5  UNL     1      -1.367  50.581 -26.907  1.00  0.00     0.028 C 
BRANCH  23  24
HETATM   24  C4  UNL     1       0.070  50.762 -26.494  1.00  0.00    -0.025 C 
HETATM   25  C2  UNL     1       1.035  51.454 -27.131  1.00  0.00    -0.091 C 
HETATM   26  C1  UNL     1       2.438  51.492 -26.585  1.00  0.00     0.042 C 
HETATM   27  C3  UNL     1       0.845  52.243 -28.397  1.00  0.00     0.042 C 
ENDBRANCH  23  24
ENDBRANCH  22  23
ENDBRANCH  20  22
ENDBRANCH   1  20
BRANCH  13  28
HETATM   28  C22 UNL     1       0.567  52.425 -19.860  1.00  0.00     0.012 C 
BRANCH  28  29
HETATM   29  C23 UNL     1       0.753  53.872 -20.321  1.00  0.00     0.027 C 
BRANCH  29  30
HETATM   30  C24 UNL     1       1.318  53.930 -21.738  1.00  0.00     0.164 C 
BRANCH  30  31
HETATM   31  O1  UNL     1       2.117  55.096 -21.894  1.00  0.00    -0.401 OA
HETATM   32  H42 UNL     1       1.563  55.863 -21.672  1.00  0.00     0.209 HD
ENDBRANCH  30  31
ENDBRANCH  29  30
ENDBRANCH  28  29
ENDBRANCH  13  28
TORSDOF 8
ENDMDL
MODEL 5
REMARK minimizedAffinity -7.61609411
REMARK CNNscore 0.349755853
REMARK CNNaffinity 6.75604677
REMARK  8 active torsions:
REMARK  status: ('A' for Active; 'I' for Inactive)
REMARK    1  A    between atoms: C4_4  and  C5_5 
REMARK    2  A    between atoms: C5_5  and  C6_6 
REMARK    3  A    between atoms: C6_6  and  C7_7 
REMARK    4  A    between atoms: C7_7  and  C9_9 
REMARK    5  A    between atoms: C21_21  and  C22_22 
REMARK    6  A    between atoms: C22_22  and  C23_23 
REMARK    7  A    between atoms: C23_23  and  C24_24 
REMARK    8  A    between atoms: C24_24  and  O1_25 
ROOT
HETATM    1  C9  UNL     1      -1.154  49.729 -14.771  1.00  0.00    -0.002 C 
HETATM    2  C10 UNL     1      -1.786  48.313 -14.816  1.00  0.00     0.006 C 
HETATM    3  C11 UNL     1      -1.782  47.865 -16.297  1.00  0.00     0.011 C 
HETATM    4  C12 UNL     1      -1.870  49.189 -17.082  1.00  0.00    -0.032 C 
HETATM    5  C13 UNL     1      -3.360  49.619 -16.988  1.00  0.00     0.016 C 
HETATM    6  C14 UNL     1      -1.417  49.160 -18.572  1.00  0.00     0.003 C 
HETATM    7  C15 UNL     1      -2.149  48.144 -19.465  1.00  0.00     0.010 C 
HETATM    8  C16 UNL     1      -1.454  48.042 -20.822  1.00  0.00     0.035 C 
HETATM    9  C17 UNL     1      -1.337  49.397 -21.537  1.00  0.00    -0.073 C 
HETATM   10  C18 UNL     1      -1.875  49.553 -22.778  1.00  0.00    -0.085 C 
HETATM   11  C19 UNL     1      -2.768  48.496 -23.408  1.00  0.00     0.043 C 
HETATM   12  C20 UNL     1      -1.719  50.721 -23.712  1.00  0.00     0.043 C 
HETATM   13  C21 UNL     1      -0.532  50.384 -20.637  1.00  0.00     0.023 C 
HETATM   14  C25 UNL     1      -1.314  50.603 -19.254  1.00  0.00    -0.032 C 
HETATM   15  C26 UNL     1      -2.707  51.222 -19.559  1.00  0.00     0.016 C 
HETATM   16  C27 UNL     1      -0.549  51.589 -18.298  1.00  0.00     0.011 C 
HETATM   17  C28 UNL     1      -0.902  51.508 -16.788  1.00  0.00     0.011 C 
HETATM   18  C29 UNL     1      -0.846  50.066 -16.271  1.00  0.00    -0.032 C 
HETATM   19  C30 UNL     1       0.661  49.606 -16.437  1.00  0.00     0.016 C 
ENDROOT
BRANCH   1  20
HETATM   20  C7  UNL     1      -1.756  50.800 -13.816  1.00  0.00    -0.014 C 
HETATM   21  C8  UNL     1      -3.144  51.233 -14.320  1.00  0.00     0.010 C 
BRANCH  20  22
HETATM   22  C6  UNL     1      -0.916  52.025 -13.398  1.00  0.00     0.008 C 
BRANCH  22  23
HETATM   23  C5  UNL     1      -1.098  52.556 -11.971  1.00  0.00     0.028 C 
BRANCH  23  24
HETATM   24  C4  UNL     1       0.120  53.323 -11.525  1.00  0.00    -0.025 C 
HETATM   25  C2  UNL     1       0.164  54.467 -10.815  1.00  0.00    -0.091 C 
HETATM   26  C1  UNL     1       1.484  55.118 -10.493  1.00  0.00     0.042 C 
HETATM   27  C3  UNL     1      -1.032  55.200 -10.273  1.00  0.00     0.042 C 
ENDBRANCH  23  24
ENDBRANCH  22  23
ENDBRANCH  20  22
ENDBRANCH   1  20
BRANCH  13  28
HETATM   28  C22 UNL     1       0.170  51.630 -21.248  1.00  0.00     0.012 C 
BRANCH  28  29
HETATM   29  C23 UNL     1       1.083  52.499 -20.382  1.00  0.00     0.027 C 
BRANCH  29  30
HETATM   30  C24 UNL     1       0.840  53.984 -20.642  1.00  0.00     0.164 C 
BRANCH  30  31
HETATM   31  O1  UNL     1       1.988  54.566 -21.245  1.00  0.00    -0.401 OA
HETATM   32  H42 UNL     1       2.744  54.400 -20.657  1.00  0.00     0.209 HD
ENDBRANCH  30  31
ENDBRANCH  29  30
ENDBRANCH  28  29
ENDBRANCH  13  28
TORSDOF 8
ENDMDL
MODEL 6
REMARK minimizedAffinity -9.37380028
REMARK CNNscore 0.282324404
REMARK CNNaffinity 6.81309843
REMARK  8 active torsions:
REMARK  status: ('A' for Active; 'I' for Inactive)
REMARK    1  A    between atoms: C4_4  and  C5_5 
REMARK    2  A    between atoms: C5_5  and  C6_6 
REMARK    3  A    between atoms: C6_6  and  C7_7 
REMARK    4  A    between atoms: C7_7  and  C9_9 
REMARK    5  A    between atoms: C21_21  and  C22_22 
REMARK    6  A    between atoms: C22_22  and  C23_23 
REMARK    7  A    between atoms: C23_23  and  C24_24 
REMARK    8  A    between atoms: C24_24  and  O1_25 
ROOT
HETATM    1  C9  UNL     1      -3.451  50.644 -24.989  1.00  0.00    -0.002 C 
HETATM    2  C10 UNL     1      -4.768  50.096 -24.378  1.00  0.00     0.006 C 
HETATM    3  C11 UNL     1      -4.674  50.305 -22.847  1.00  0.00     0.011 C 
HETATM    4  C12 UNL     1      -3.161  50.245 -22.560  1.00  0.00    -0.032 C 
HETATM    5  C13 UNL     1      -2.800  48.735 -22.597  1.00  0.00     0.016 C 
HETATM    6  C14 UNL     1      -2.669  50.878 -21.224  1.00  0.00     0.003 C 
HETATM    7  C15 UNL     1      -3.317  50.315 -19.948  1.00  0.00     0.010 C 
HETATM    8  C16 UNL     1      -2.939  51.175 -18.744  1.00  0.00     0.035 C 
HETATM    9  C17 UNL     1      -1.419  51.309 -18.559  1.00  0.00    -0.073 C 
HETATM   10  C18 UNL     1      -0.846  50.920 -17.387  1.00  0.00    -0.085 C 
HETATM   11  C19 UNL     1      -1.624  50.167 -16.320  1.00  0.00     0.043 C 
HETATM   12  C20 UNL     1       0.575  51.128 -16.939  1.00  0.00     0.043 C 
HETATM   13  C21 UNL     1      -0.800  51.946 -19.841  1.00  0.00     0.023 C 
HETATM   14  C25 UNL     1      -1.078  50.989 -21.098  1.00  0.00    -0.032 C 
HETATM   15  C26 UNL     1      -0.401  49.614 -20.842  1.00  0.00     0.016 C 
HETATM   16  C27 UNL     1      -0.480  51.580 -22.427  1.00  0.00     0.011 C 
HETATM   17  C28 UNL     1      -1.082  51.048 -23.757  1.00  0.00     0.011 C 
HETATM   18  C29 UNL     1      -2.614  51.115 -23.751  1.00  0.00    -0.032 C 
HETATM   19  C30 UNL     1      -2.978  52.654 -23.639  1.00  0.00     0.016 C 
ENDROOT
BRANCH   1  20
HETATM   20  C7  UNL     1      -2.781  49.874 -26.164  1.00  0.00    -0.014 C 
HETATM   21  C8  UNL     1      -2.740  50.763 -27.419  1.00  0.00     0.010 C 
BRANCH  20  22
HETATM   22  C6  UNL     1      -3.245  48.445 -26.518  1.00  0.00     0.008 C 
BRANCH  22  23
HETATM   23  C5  UNL     1      -4.157  48.278 -27.740  1.00  0.00     0.028 C 
BRANCH  23  24
HETATM   24  C4  UNL     1      -5.552  47.897 -27.319  1.00  0.00    -0.025 C 
HETATM   25  C2  UNL     1      -6.533  47.371 -28.080  1.00  0.00    -0.091 C 
HETATM   26  C1  UNL     1      -7.890  47.090 -27.491  1.00  0.00     0.042 C 
HETATM   27  C3  UNL     1      -6.404  47.009 -29.533  1.00  0.00     0.042 C 
ENDBRANCH  23  24
ENDBRANCH  22  23
ENDBRANCH  20  22
ENDBRANCH   1  20
BRANCH  13  28
HETATM   28  C22 UNL     1       0.585  52.651 -19.793  1.00  0.00     0.012 C 
BRANCH  28  29
HETATM   29  C23 UNL     1       0.758  54.047 -20.396  1.00  0.00     0.027 C 
BRANCH  29  30
HETATM   30  C24 UNL     1       1.853  54.055 -21.461  1.00  0.00     0.164 C 
BRANCH  30  31
HETATM   31  O1  UNL     1       1.824  55.283 -22.176  1.00  0.00    -0.401 OA
HETATM   32  H42 UNL     1       0.931  55.387 -22.546  1.00  0.00     0.209 HD
ENDBRANCH  30  31
ENDBRANCH  29  30
ENDBRANCH  28  29
ENDBRANCH  13  28
TORSDOF 8
ENDMDL
MODEL 7
REMARK minimizedAffinity -6.74840498
REMARK CNNscore 0.261670679
REMARK CNNaffinity 6.27157259
REMARK  8 active torsions:
REMARK  status: ('A' for Active; 'I' for Inactive)
REMARK    1  A    between atoms: C4_4  and  C5_5 
REMARK    2  A    between atoms: C5_5  and  C6_6 
REMARK    3  A    between atoms: C6_6  and  C7_7 
REMARK    4  A    between atoms: C7_7  and  C9_9 
REMARK    5  A    between atoms: C21_21  and  C22_22 
REMARK    6  A    between atoms: C22_22  and  C23_23 
REMARK    7  A    between atoms: C23_23  and  C24_24 
REMARK    8  A    between atoms: C24_24  and  O1_25 
ROOT
HETATM    1  C9  UNL     1       1.444  53.792 -11.269  1.00  0.00    -0.002 C 
HETATM    2  C10 UNL     1      -0.001  54.235 -10.918  1.00  0.00     0.006 C 
HETATM    3  C11 UNL     1       0.115  55.316  -9.816  1.00  0.00     0.011 C 
HETATM    4  C12 UNL     1       1.416  54.949  -9.077  1.00  0.00    -0.032 C 
HETATM    5  C13 UNL     1       1.042  53.749  -8.165  1.00  0.00     0.016 C 
HETATM    6  C14 UNL     1       2.088  56.072  -8.230  1.00  0.00     0.003 C 
HETATM    7  C15 UNL     1       1.200  56.699  -7.142  1.00  0.00     0.010 C 
HETATM    8  C16 UNL     1       1.883  57.935  -6.557  1.00  0.00     0.035 C 
HETATM    9  C17 UNL     1       3.284  57.637  -6.000  1.00  0.00    -0.073 C 
HETATM   10  C18 UNL     1       3.563  57.913  -4.696  1.00  0.00    -0.085 C 
HETATM   11  C19 UNL     1       2.482  58.319  -3.708  1.00  0.00     0.043 C 
HETATM   12  C20 UNL     1       4.900  57.866  -4.008  1.00  0.00     0.043 C 
HETATM   13  C21 UNL     1       4.179  57.067  -7.142  1.00  0.00     0.023 C 
HETATM   14  C25 UNL     1       3.544  55.697  -7.683  1.00  0.00    -0.032 C 
HETATM   15  C26 UNL     1       3.500  54.669  -6.517  1.00  0.00     0.016 C 
HETATM   16  C27 UNL     1       4.402  55.071  -8.843  1.00  0.00     0.011 C 
HETATM   17  C28 UNL     1       3.679  54.062  -9.776  1.00  0.00     0.011 C 
HETATM   18  C29 UNL     1       2.352  54.624 -10.299  1.00  0.00    -0.032 C 
HETATM   19  C30 UNL     1       2.734  55.893 -11.167  1.00  0.00     0.016 C 
ENDROOT
BRANCH   1  20
HETATM   20  C7  UNL     1       1.732  52.288 -11.544  1.00  0.00    -0.014 C 
HETATM   21  C8  UNL     1       1.629  51.485 -10.237  1.00  0.00     0.010 C 
BRANCH  20  22
HETATM   22  C6  UNL     1       2.984  51.874 -12.347  1.00  0.00     0.008 C 
BRANCH  22  23
HETATM   23  C5  UNL     1       2.810  50.799 -13.426  1.00  0.00     0.028 C 
BRANCH  23  24
HETATM   24  C4  UNL     1       2.160  51.375 -14.657  1.00  0.00    -0.025 C 
HETATM   25  C2  UNL     1       2.751  52.020 -15.682  1.00  0.00    -0.091 C 
HETATM   26  C1  UNL     1       1.928  52.568 -16.819  1.00  0.00     0.042 C 
HETATM   27  C3  UNL     1       4.229  52.257 -15.821  1.00  0.00     0.042 C 
ENDBRANCH  23  24
ENDBRANCH  22  23
ENDBRANCH  20  22
ENDBRANCH   1  20
BRANCH  13  28
HETATM   28  C22 UNL     1       5.730  57.127  -7.046  1.00  0.00     0.012 C 
BRANCH  28  29
HETATM   29  C23 UNL     1       6.476  56.223  -6.063  1.00  0.00     0.027 C 
BRANCH  29  30
HETATM   30  C24 UNL     1       7.244  55.126  -6.797  1.00  0.00     0.164 C 
BRANCH  30  31
HETATM   31  O1  UNL     1       7.496  55.524  -8.138  1.00  0.00    -0.401 OA
HETATM   32  H42 UNL     1       6.639  55.731  -8.549  1.00  0.00     0.209 HD
ENDBRANCH  30  31
ENDBRANCH  29  30
ENDBRANCH  28  29
ENDBRANCH  13  28
TORSDOF 8
ENDMDL
MODEL 8
REMARK minimizedAffinity -7.64327097
REMARK CNNscore 0.241960943
REMARK CNNaffinity 6.56620932
REMARK  8 active torsions:
REMARK  status: ('A' for Active; 'I' for Inactive)
REMARK    1  A    between atoms: C4_4  and  C5_5 
REMARK    2  A    between atoms: C5_5  and  C6_6 
REMARK    3  A    between atoms: C6_6  and  C7_7 
REMARK    4  A    between atoms: C7_7  and  C9_9 
REMARK    5  A    between atoms: C21_21  and  C22_22 
REMARK    6  A    between atoms: C22_22  and  C23_23 
REMARK    7  A    between atoms: C23_23  and  C24_24 
REMARK    8  A    between atoms: C24_24  and  O1_25 
ROOT
HETATM    1  C9  UNL     1      -1.171  52.014 -21.874  1.00  0.00    -0.002 C 
HETATM    2  C10 UNL     1      -2.301  52.423 -22.856  1.00  0.00     0.006 C 
HETATM    3  C11 UNL     1      -3.463  51.421 -22.648  1.00  0.00     0.011 C 
HETATM    4  C12 UNL     1      -2.757  50.133 -22.179  1.00  0.00    -0.032 C 
HETATM    5  C13 UNL     1      -2.157  49.506 -23.466  1.00  0.00     0.016 C 
HETATM    6  C14 UNL     1      -3.631  49.082 -21.431  1.00  0.00     0.003 C 
HETATM    7  C15 UNL     1      -4.863  48.578 -22.202  1.00  0.00     0.010 C 
HETATM    8  C16 UNL     1      -5.757  47.751 -21.280  1.00  0.00     0.035 C 
HETATM    9  C17 UNL     1      -5.016  46.574 -20.625  1.00  0.00    -0.073 C 
HETATM   10  C18 UNL     1      -5.474  45.305 -20.805  1.00  0.00    -0.085 C 
HETATM   11  C19 UNL     1      -6.580  44.980 -21.796  1.00  0.00     0.043 C 
HETATM   12  C20 UNL     1      -5.011  44.049 -20.119  1.00  0.00     0.043 C 
HETATM   13  C21 UNL     1      -3.814  47.123 -19.795  1.00  0.00     0.023 C 
HETATM   14  C25 UNL     1      -2.797  47.886 -20.772  1.00  0.00    -0.032 C 
HETATM   15  C26 UNL     1      -2.261  46.878 -21.827  1.00  0.00     0.016 C 
HETATM   16  C27 UNL     1      -1.561  48.467 -19.992  1.00  0.00     0.011 C 
HETATM   17  C28 UNL     1      -0.783  49.621 -20.683  1.00  0.00     0.011 C 
HETATM   18  C29 UNL     1      -1.724  50.735 -21.156  1.00  0.00    -0.032 C 
HETATM   19  C30 UNL     1      -2.391  51.322 -19.844  1.00  0.00     0.016 C 
ENDROOT
BRANCH   1  20
HETATM   20  C7  UNL     1       0.310  52.092 -22.346  1.00  0.00    -0.014 C 
HETATM   21  C8  UNL     1       0.967  53.372 -21.803  1.00  0.00     0.010 C 
BRANCH  20  22
HETATM   22  C6  UNL     1       0.661  51.881 -23.834  1.00  0.00     0.008 C 
BRANCH  22  23
HETATM   23  C5  UNL     1       0.713  53.123 -24.732  1.00  0.00     0.028 C 
BRANCH  23  24
HETATM   24  C4  UNL     1       0.381  52.768 -26.158  1.00  0.00    -0.025 C 
HETATM   25  C2  UNL     1       1.152  52.115 -27.050  1.00  0.00    -0.091 C 
HETATM   26  C1  UNL     1       0.665  51.882 -28.457  1.00  0.00     0.042 C 
HETATM   27  C3  UNL     1       2.520  51.558 -26.772  1.00  0.00     0.042 C 
ENDBRANCH  23  24
ENDBRANCH  22  23
ENDBRANCH  20  22
ENDBRANCH   1  20
BRANCH  13  28
HETATM   28  C22 UNL     1      -3.183  46.279 -18.651  1.00  0.00     0.012 C 
BRANCH  28  29
HETATM   29  C23 UNL     1      -3.064  46.864 -17.242  1.00  0.00     0.027 C 
BRANCH  29  30
HETATM   30  C24 UNL     1      -4.131  47.928 -16.995  1.00  0.00     0.164 C 
BRANCH  30  31
HETATM   31  O1  UNL     1      -3.628  48.924 -16.114  1.00  0.00    -0.401 OA
HETATM   32  H42 UNL     1      -3.338  48.478 -15.301  1.00  0.00     0.209 HD
ENDBRANCH  30  31
ENDBRANCH  29  30
ENDBRANCH  28  29
ENDBRANCH  13  28
TORSDOF 8
ENDMDL
MODEL 9
REMARK minimizedAffinity -8.04054165
REMARK CNNscore 0.1841598
REMARK CNNaffinity 6.17098761
REMARK  8 active torsions:
REMARK  status: ('A' for Active; 'I' for Inactive)
REMARK    1  A    between atoms: C4_4  and  C5_5 
REMARK    2  A    between atoms: C5_5  and  C6_6 
REMARK    3  A    between atoms: C6_6  and  C7_7 
REMARK    4  A    between atoms: C7_7  and  C9_9 
REMARK    5  A    between atoms: C21_21  and  C22_22 
REMARK    6  A    between atoms: C22_22  and  C23_23 
REMARK    7  A    between atoms: C23_23  and  C24_24 
REMARK    8  A    between atoms: C24_24  and  O1_25 
ROOT
HETATM    1  C9  UNL     1      -0.454  50.298 -21.135  1.00  0.00    -0.002 C 
HETATM    2  C10 UNL     1      -0.427  50.533 -19.602  1.00  0.00     0.006 C 
HETATM    3  C11 UNL     1      -1.698  49.866 -19.022  1.00  0.00     0.011 C 
HETATM    4  C12 UNL     1      -2.713  49.942 -20.179  1.00  0.00    -0.032 C 
HETATM    5  C13 UNL     1      -3.219  51.410 -20.181  1.00  0.00     0.016 C 
HETATM    6  C14 UNL     1      -3.923  48.961 -20.124  1.00  0.00     0.003 C 
HETATM    7  C15 UNL     1      -4.789  49.053 -18.856  1.00  0.00     0.010 C 
HETATM    8  C16 UNL     1      -5.780  47.890 -18.812  1.00  0.00     0.035 C 
HETATM    9  C17 UNL     1      -6.668  47.813 -20.064  1.00  0.00    -0.073 C 
HETATM   10  C18 UNL     1      -8.022  47.859 -19.933  1.00  0.00    -0.085 C 
HETATM   11  C19 UNL     1      -8.694  48.186 -18.609  1.00  0.00     0.043 C 
HETATM   12  C20 UNL     1      -9.061  47.624 -20.995  1.00  0.00     0.043 C 
HETATM   13  C21 UNL     1      -5.764  47.652 -21.325  1.00  0.00     0.023 C 
HETATM   14  C25 UNL     1      -4.803  48.930 -21.459  1.00  0.00    -0.032 C 
HETATM   15  C26 UNL     1      -5.681  50.202 -21.627  1.00  0.00     0.016 C 
HETATM   16  C27 UNL     1      -3.862  48.826 -22.714  1.00  0.00     0.011 C 
HETATM   17  C28 UNL     1      -2.578  49.700 -22.694  1.00  0.00     0.011 C 
HETATM   18  C29 UNL     1      -1.795  49.525 -21.387  1.00  0.00    -0.032 C 
HETATM   19  C30 UNL     1      -1.344  48.007 -21.354  1.00  0.00     0.016 C 
ENDROOT
BRANCH   1  20
HETATM   20  C7  UNL     1       0.004  51.440 -22.087  1.00  0.00    -0.014 C 
HETATM   21  C8  UNL     1       0.239  52.731 -21.285  1.00  0.00     0.010 C 
BRANCH  20  22
HETATM   22  C6  UNL     1      -0.784  51.732 -23.382  1.00  0.00     0.008 C 
BRANCH  22  23
HETATM   23  C5  UNL     1      -0.275  52.865 -24.281  1.00  0.00     0.028 C 
BRANCH  23  24
HETATM   24  C4  UNL     1       1.013  52.474 -24.959  1.00  0.00    -0.025 C 
HETATM   25  C2  UNL     1       1.177  51.651 -26.013  1.00  0.00    -0.091 C 
HETATM   26  C1  UNL     1       2.556  51.342 -26.535  1.00  0.00     0.042 C 
HETATM   27  C3  UNL     1       0.066  50.977 -26.770  1.00  0.00     0.042 C 
ENDBRANCH  23  24
ENDBRANCH  22  23
ENDBRANCH  20  22
ENDBRANCH   1  20
BRANCH  13  28
HETATM   28  C22 UNL     1      -6.336  47.068 -22.648  1.00  0.00     0.012 C 
BRANCH  28  29
HETATM   29  C23 UNL     1      -7.126  47.962 -23.606  1.00  0.00     0.027 C 
BRANCH  29  30
HETATM   30  C24 UNL     1      -6.876  47.568 -25.060  1.00  0.00     0.164 C 
BRANCH  30  31
HETATM   31  O1  UNL     1      -5.929  48.450 -25.647  1.00  0.00    -0.401 OA
HETATM   32  H42 UNL     1      -6.271  49.355 -25.549  1.00  0.00     0.209 HD
ENDBRANCH  30  31
ENDBRANCH  29  30
ENDBRANCH  28  29
ENDBRANCH  13  28
TORSDOF 8
ENDMDL
