MODEL 1
REMARK minimizedAffinity -8.54281616
REMARK CNNscore 0.374514699
REMARK CNNaffinity 7.31902456
REMARK  13 active torsions:
REMARK  status: ('A' for Active; 'I' for Inactive)
REMARK    1  A    between atoms: O1_2  and  C2_3 
REMARK    2  A    between atoms: C12_14  and  C13_15 
REMARK    3  A    between atoms: C13_15  and  C15_17 
REMARK    4  A    between atoms: C15_17  and  C16_18 
REMARK    5  A    between atoms: C17_19  and  C18_20 
REMARK    6  A    between atoms: C18_20  and  O3_23 
REMARK    7  A    between atoms: C29_32  and  O4_33 
REMARK    8  A    between atoms: O4_33  and  C30_34 
REMARK    9  A    between atoms: C31_36  and  C32_37 
REMARK   10  A    between atoms: C32_37  and  O6_38 
REMARK   11  A    between atoms: C33_39  and  O7_40 
REMARK   12  A    between atoms: C34_41  and  O8_42 
REMARK   13  A    between atoms: C35_43  and  O9_44 
ROOT
HETATM    1  C2  UNL     1      -3.383   5.380  13.351  1.00  0.00     0.270 C 
HETATM    2  O2  UNL     1      -2.136   5.823  13.932  1.00  0.00    -0.344 OA
HETATM    3  C3  UNL     1      -2.359   7.117  14.530  1.00  0.00     0.095 C 
HETATM    4  C4  UNL     1      -2.799   6.787  15.954  1.00  0.00     0.008 C 
HETATM    5  C5  UNL     1      -4.049   6.388  16.234  1.00  0.00    -0.021 C 
HETATM    6  C6  UNL     1      -5.087   6.203  15.145  1.00  0.00     0.030 C 
HETATM    7  C7  UNL     1      -4.477   6.454  13.697  1.00  0.00     0.024 C 
HETATM    8  C8  UNL     1      -5.576   6.433  12.604  1.00  0.00     0.016 C 
HETATM    9  C9  UNL     1      -6.899   7.143  12.938  1.00  0.00     0.011 C 
HETATM   10  C10 UNL     1      -7.473   6.677  14.287  1.00  0.00    -0.032 C 
HETATM   11  C11 UNL     1      -7.810   5.156  14.167  1.00  0.00     0.016 C 
HETATM   12  C12 UNL     1      -8.726   7.416  14.854  1.00  0.00    -0.002 C 
HETATM   13  C22 UNL     1      -8.631   7.080  16.378  1.00  0.00     0.006 C 
HETATM   14  C23 UNL     1      -7.184   6.628  16.670  1.00  0.00     0.011 C 
HETATM   15  C24 UNL     1      -6.403   7.015  15.401  1.00  0.00    -0.029 C 
HETATM   16  C25 UNL     1      -6.108   8.548  15.550  1.00  0.00     0.016 C 
HETATM   17  C26 UNL     1      -3.549   7.696  13.726  1.00  0.00     0.039 C 
HETATM   18  C27 UNL     1      -3.177   8.240  12.336  1.00  0.00     0.011 C 
HETATM   19  C28 UNL     1      -1.980   9.173  12.386  1.00  0.00     0.033 C 
HETATM   20  C29 UNL     1      -0.771   8.477  13.016  1.00  0.00     0.136 C 
HETATM   21  C36 UNL     1      -1.066   8.006  14.477  1.00  0.00     0.014 C 
HETATM   22  C37 UNL     1       0.171   7.224  14.988  1.00  0.00     0.021 C 
HETATM   23  C38 UNL     1      -1.227   9.263  15.372  1.00  0.00     0.021 C 
ENDROOT
BRANCH  20  24
HETATM   24  O4  UNL     1      -0.425   7.342  12.208  1.00  0.00    -0.352 OA
BRANCH  24  25
HETATM   25  C30 UNL     1       0.874   7.434  11.612  1.00  0.00     0.292 C 
HETATM   26  O5  UNL     1       0.788   7.867  10.261  1.00  0.00    -0.348 OA
HETATM   27  C31 UNL     1       2.079   8.018   9.660  1.00  0.00     0.179 C 
HETATM   28  C33 UNL     1       2.863   6.690   9.668  1.00  0.00     0.180 C 
HETATM   29  C34 UNL     1       2.865   6.023  11.044  1.00  0.00     0.183 C 
HETATM   30  C35 UNL     1       1.469   6.018  11.661  1.00  0.00     0.204 C 
BRANCH  27  31
HETATM   31  C32 UNL     1       1.878   8.511   8.214  1.00  0.00     0.198 C 
BRANCH  31  32
HETATM   32  O6  UNL     1       3.066   8.995   7.607  1.00  0.00    -0.398 OA
HETATM   33  H50 UNL     1       3.833   8.576   8.061  1.00  0.00     0.209 HD
ENDBRANCH  31  32
ENDBRANCH  27  31
BRANCH  28  34
HETATM   34  O7  UNL     1       4.214   6.930   9.254  1.00  0.00    -0.390 OA
HETATM   35  H52 UNL     1       4.725   7.021  10.084  1.00  0.00     0.210 HD
ENDBRANCH  28  34
BRANCH  29  36
HETATM   36  O8  UNL     1       3.774   6.738  11.904  1.00  0.00    -0.390 OA
HETATM   37  H54 UNL     1       3.620   6.353  12.794  1.00  0.00     0.210 HD
ENDBRANCH  29  36
BRANCH  30  38
HETATM   38  O9  UNL     1       1.559   5.545  13.012  1.00  0.00    -0.388 OA
HETATM   39  H56 UNL     1       0.661   5.678  13.388  1.00  0.00     0.210 HD
ENDBRANCH  30  38
ENDBRANCH  24  25
ENDBRANCH  20  24
BRANCH   1  40
HETATM   40  O1  UNL     1      -3.763   4.081  13.792  1.00  0.00    -0.365 OA
HETATM   41  C1  UNL     1      -4.063   3.218  12.711  1.00  0.00     0.204 C 
ENDBRANCH   1  40
BRANCH  12  42
HETATM   42  C13 UNL     1     -10.142   7.120  14.277  1.00  0.00    -0.010 C 
HETATM   43  C14 UNL     1     -10.110   6.880  12.760  1.00  0.00     0.010 C 
BRANCH  42  44
HETATM   44  C15 UNL     1     -11.111   8.286  14.615  1.00  0.00     0.031 C 
BRANCH  44  45
HETATM   45  C16 UNL     1     -12.523   7.827  14.875  1.00  0.00    -0.027 C 
HETATM   46  C17 UNL     1     -13.017   6.677  14.386  1.00  0.00     0.006 C 
BRANCH  46  47
HETATM   47  C18 UNL     1     -14.421   6.116  14.543  1.00  0.00     0.070 C 
HETATM   48  C19 UNL     1     -15.013   6.561  15.893  1.00  0.00     0.050 C 
HETATM   49  C20 UNL     1     -15.386   6.569  13.432  1.00  0.00     0.050 C 
BRANCH  47  50
HETATM   50  O3  UNL     1     -14.375   4.681  14.420  1.00  0.00    -0.382 OA
HETATM   51  C21 UNL     1     -15.462   3.946  14.964  1.00  0.00     0.202 C 
ENDBRANCH  47  50
ENDBRANCH  46  47
ENDBRANCH  44  45
ENDBRANCH  42  44
ENDBRANCH  12  42
TORSDOF 13
ENDMDL
MODEL 2
REMARK minimizedAffinity -8.14657021
REMARK CNNscore 0.345552593
REMARK CNNaffinity 7.61137581
REMARK  13 active torsions:
REMARK  status: ('A' for Active; 'I' for Inactive)
REMARK    1  A    between atoms: O1_2  and  C2_3 
REMARK    2  A    between atoms: C12_14  and  C13_15 
REMARK    3  A    between atoms: C13_15  and  C15_17 
REMARK    4  A    between atoms: C15_17  and  C16_18 
REMARK    5  A    between atoms: C17_19  and  C18_20 
REMARK    6  A    between atoms: C18_20  and  O3_23 
REMARK    7  A    between atoms: C29_32  and  O4_33 
REMARK    8  A    between atoms: O4_33  and  C30_34 
REMARK    9  A    between atoms: C31_36  and  C32_37 
REMARK   10  A    between atoms: C32_37  and  O6_38 
REMARK   11  A    between atoms: C33_39  and  O7_40 
REMARK   12  A    between atoms: C34_41  and  O8_42 
REMARK   13  A    between atoms: C35_43  and  O9_44 
ROOT
HETATM    1  C2  UNL     1      -3.372   5.264  13.309  1.00  0.00     0.270 C 
HETATM    2  O2  UNL     1      -2.152   5.721  13.933  1.00  0.00    -0.344 OA
HETATM    3  C3  UNL     1      -2.422   6.991  14.562  1.00  0.00     0.095 C 
HETATM    4  C4  UNL     1      -2.889   6.608  15.964  1.00  0.00     0.008 C 
HETATM    5  C5  UNL     1      -4.135   6.169  16.201  1.00  0.00    -0.021 C 
HETATM    6  C6  UNL     1      -5.140   5.990  15.081  1.00  0.00     0.030 C 
HETATM    7  C7  UNL     1      -4.501   6.299  13.657  1.00  0.00     0.024 C 
HETATM    8  C8  UNL     1      -5.573   6.282  12.536  1.00  0.00     0.016 C 
HETATM    9  C9  UNL     1      -6.921   6.949  12.856  1.00  0.00     0.011 C 
HETATM   10  C10 UNL     1      -7.516   6.429  14.176  1.00  0.00    -0.032 C 
HETATM   11  C11 UNL     1      -7.810   4.904  14.004  1.00  0.00     0.016 C 
HETATM   12  C12 UNL     1      -8.801   7.119  14.732  1.00  0.00    -0.002 C 
HETATM   13  C22 UNL     1      -8.736   6.742  16.248  1.00  0.00     0.006 C 
HETATM   14  C23 UNL     1      -7.285   6.318  16.564  1.00  0.00     0.011 C 
HETATM   15  C24 UNL     1      -6.482   6.761  15.326  1.00  0.00    -0.029 C 
HETATM   16  C25 UNL     1      -6.231   8.297  15.527  1.00  0.00     0.016 C 
HETATM   17  C26 UNL     1      -3.607   7.562  13.745  1.00  0.00     0.039 C 
HETATM   18  C27 UNL     1      -3.215   8.156  12.381  1.00  0.00     0.011 C 
HETATM   19  C28 UNL     1      -2.044   9.117  12.488  1.00  0.00     0.033 C 
HETATM   20  C29 UNL     1      -0.833   8.434  13.128  1.00  0.00     0.136 C 
HETATM   21  C36 UNL     1      -1.152   7.913  14.568  1.00  0.00     0.014 C 
HETATM   22  C37 UNL     1       0.092   7.147  15.087  1.00  0.00     0.021 C 
HETATM   23  C38 UNL     1      -1.368   9.138  15.493  1.00  0.00     0.021 C 
ENDROOT
BRANCH  20  24
HETATM   24  O4  UNL     1      -0.439   7.332  12.297  1.00  0.00    -0.352 OA
BRANCH  24  25
HETATM   25  C30 UNL     1       0.855   7.493  11.703  1.00  0.00     0.292 C 
HETATM   26  O5  UNL     1       0.746   7.858  10.333  1.00  0.00    -0.348 OA
HETATM   27  C31 UNL     1       2.027   8.077   9.732  1.00  0.00     0.179 C 
HETATM   28  C33 UNL     1       2.908   6.813   9.803  1.00  0.00     0.180 C 
HETATM   29  C34 UNL     1       2.949   6.210  11.208  1.00  0.00     0.183 C 
HETATM   30  C35 UNL     1       1.553   6.129  11.818  1.00  0.00     0.204 C 
BRANCH  27  31
HETATM   31  C32 UNL     1       1.800   8.488   8.264  1.00  0.00     0.198 C 
BRANCH  31  32
HETATM   32  O6  UNL     1       2.995   8.823   7.575  1.00  0.00    -0.398 OA
HETATM   33  H50 UNL     1       3.744   8.369   8.025  1.00  0.00     0.209 HD
ENDBRANCH  31  32
ENDBRANCH  27  31
BRANCH  28  34
HETATM   34  O7  UNL     1       4.240   7.134   9.383  1.00  0.00    -0.390 OA
HETATM   35  H52 UNL     1       4.736   7.300  10.211  1.00  0.00     0.210 HD
ENDBRANCH  28  34
BRANCH  29  36
HETATM   36  O8  UNL     1       3.796   7.029  12.037  1.00  0.00    -0.390 OA
HETATM   37  H54 UNL     1       3.664   6.674  12.943  1.00  0.00     0.210 HD
ENDBRANCH  29  36
BRANCH  30  38
HETATM   38  O9  UNL     1       1.668   5.725  13.190  1.00  0.00    -0.388 OA
HETATM   39  H56 UNL     1       0.760   5.808  13.556  1.00  0.00     0.210 HD
ENDBRANCH  30  38
ENDBRANCH  24  25
ENDBRANCH  20  24
BRANCH   1  40
HETATM   40  O1  UNL     1      -3.729   3.943  13.702  1.00  0.00    -0.365 OA
HETATM   41  C1  UNL     1      -3.801   3.059  12.599  1.00  0.00     0.204 C 
ENDBRANCH   1  40
BRANCH  12  42
HETATM   42  C13 UNL     1     -10.195   6.805  14.111  1.00  0.00    -0.010 C 
HETATM   43  C14 UNL     1     -10.240   7.112  12.606  1.00  0.00     0.010 C 
BRANCH  42  44
HETATM   44  C15 UNL     1     -11.303   7.600  14.855  1.00  0.00     0.031 C 
BRANCH  44  45
HETATM   45  C16 UNL     1     -11.007   9.074  14.959  1.00  0.00    -0.027 C 
HETATM   46  C17 UNL     1     -11.032   9.741  16.126  1.00  0.00     0.006 C 
BRANCH  46  47
HETATM   47  C18 UNL     1     -10.789  11.222  16.366  1.00  0.00     0.070 C 
HETATM   48  C19 UNL     1      -9.648  11.717  15.459  1.00  0.00     0.050 C 
HETATM   49  C20 UNL     1     -12.026  12.096  16.089  1.00  0.00     0.050 C 
BRANCH  47  50
HETATM   50  O3  UNL     1     -10.500  11.435  17.762  1.00  0.00    -0.382 OA
HETATM   51  C21 UNL     1     -11.238  10.669  18.704  1.00  0.00     0.202 C 
ENDBRANCH  47  50
ENDBRANCH  46  47
ENDBRANCH  44  45
ENDBRANCH  42  44
ENDBRANCH  12  42
TORSDOF 13
ENDMDL
MODEL 3
REMARK minimizedAffinity -8.24543285
REMARK CNNscore 0.339370608
REMARK CNNaffinity 7.06763697
REMARK  13 active torsions:
REMARK  status: ('A' for Active; 'I' for Inactive)
REMARK    1  A    between atoms: O1_2  and  C2_3 
REMARK    2  A    between atoms: C12_14  and  C13_15 
REMARK    3  A    between atoms: C13_15  and  C15_17 
REMARK    4  A    between atoms: C15_17  and  C16_18 
REMARK    5  A    between atoms: C17_19  and  C18_20 
REMARK    6  A    between atoms: C18_20  and  O3_23 
REMARK    7  A    between atoms: C29_32  and  O4_33 
REMARK    8  A    between atoms: O4_33  and  C30_34 
REMARK    9  A    between atoms: C31_36  and  C32_37 
REMARK   10  A    between atoms: C32_37  and  O6_38 
REMARK   11  A    between atoms: C33_39  and  O7_40 
REMARK   12  A    between atoms: C34_41  and  O8_42 
REMARK   13  A    between atoms: C35_43  and  O9_44 
ROOT
HETATM    1  C2  UNL     1      -2.372   9.299  13.877  1.00  0.00     0.270 C 
HETATM    2  O2  UNL     1      -3.721   8.845  13.632  1.00  0.00    -0.344 OA
HETATM    3  C3  UNL     1      -4.346   8.598  14.909  1.00  0.00     0.095 C 
HETATM    4  C4  UNL     1      -4.963   9.946  15.276  1.00  0.00     0.008 C 
HETATM    5  C5  UNL     1      -4.226  10.950  15.774  1.00  0.00    -0.021 C 
HETATM    6  C6  UNL     1      -2.728  10.818  15.965  1.00  0.00     0.030 C 
HETATM    7  C7  UNL     1      -2.185   9.421  15.432  1.00  0.00     0.024 C 
HETATM    8  C8  UNL     1      -0.688   9.220  15.784  1.00  0.00     0.016 C 
HETATM    9  C9  UNL     1      -0.243   9.652  17.192  1.00  0.00     0.011 C 
HETATM   10  C10 UNL     1      -0.683  11.091  17.513  1.00  0.00    -0.032 C 
HETATM   11  C11 UNL     1       0.038  12.049  16.511  1.00  0.00     0.016 C 
HETATM   12  C12 UNL     1      -0.455  11.629  18.960  1.00  0.00    -0.002 C 
HETATM   13  C22 UNL     1      -1.494  12.796  19.034  1.00  0.00     0.006 C 
HETATM   14  C23 UNL     1      -2.529  12.573  17.911  1.00  0.00     0.011 C 
HETATM   15  C24 UNL     1      -2.261  11.136  17.427  1.00  0.00    -0.029 C 
HETATM   16  C25 UNL     1      -2.978  10.209  18.470  1.00  0.00     0.016 C 
HETATM   17  C26 UNL     1      -3.155   8.286  15.849  1.00  0.00     0.039 C 
HETATM   18  C27 UNL     1      -2.575   6.869  15.696  1.00  0.00     0.011 C 
HETATM   19  C28 UNL     1      -3.654   5.801  15.723  1.00  0.00     0.033 C 
HETATM   20  C29 UNL     1      -4.703   6.056  14.637  1.00  0.00     0.136 C 
HETATM   21  C36 UNL     1      -5.404   7.442  14.820  1.00  0.00     0.014 C 
HETATM   22  C37 UNL     1      -6.365   7.656  13.622  1.00  0.00     0.021 C 
HETATM   23  C38 UNL     1      -6.266   7.387  16.107  1.00  0.00     0.021 C 
ENDROOT
BRANCH  20  24
HETATM   24  O4  UNL     1      -4.056   6.013  13.357  1.00  0.00    -0.352 OA
BRANCH  24  25
HETATM   25  C30 UNL     1      -4.591   5.018  12.475  1.00  0.00     0.292 C 
HETATM   26  O5  UNL     1      -5.713   4.370  13.057  1.00  0.00    -0.348 OA
HETATM   27  C31 UNL     1      -6.298   3.408  12.171  1.00  0.00     0.179 C 
HETATM   28  C33 UNL     1      -5.285   2.313  11.780  1.00  0.00     0.180 C 
HETATM   29  C34 UNL     1      -3.950   2.894  11.312  1.00  0.00     0.183 C 
HETATM   30  C35 UNL     1      -3.465   3.996  12.250  1.00  0.00     0.204 C 
BRANCH  27  31
HETATM   31  C32 UNL     1      -7.514   2.783  12.881  1.00  0.00     0.198 C 
BRANCH  31  32
HETATM   32  O6  UNL     1      -8.609   3.674  13.025  1.00  0.00    -0.398 OA
HETATM   33  H50 UNL     1      -8.536   4.363  12.326  1.00  0.00     0.209 HD
ENDBRANCH  31  32
ENDBRANCH  27  31
BRANCH  28  34
HETATM   34  O7  UNL     1      -5.840   1.498  10.740  1.00  0.00    -0.390 OA
HETATM   35  H52 UNL     1      -5.481   1.865   9.907  1.00  0.00     0.210 HD
ENDBRANCH  28  34
BRANCH  29  36
HETATM   36  O8  UNL     1      -4.117   3.424   9.983  1.00  0.00    -0.390 OA
HETATM   37  H54 UNL     1      -3.277   3.901   9.805  1.00  0.00     0.210 HD
ENDBRANCH  29  36
BRANCH  30  38
HETATM   38  O9  UNL     1      -2.310   4.622  11.674  1.00  0.00    -0.388 OA
HETATM   39  H56 UNL     1      -2.121   5.391  12.256  1.00  0.00     0.210 HD
ENDBRANCH  30  38
ENDBRANCH  24  25
ENDBRANCH  20  24
BRANCH   1  40
HETATM   40  O1  UNL     1      -2.076  10.523  13.213  1.00  0.00    -0.365 OA
HETATM   41  C1  UNL     1      -1.109  11.287  13.911  1.00  0.00     0.204 C 
ENDBRANCH   1  40
BRANCH  12  42
HETATM   42  C13 UNL     1       0.963  12.080  19.419  1.00  0.00    -0.010 C 
HETATM   43  C14 UNL     1       1.698  10.976  20.195  1.00  0.00     0.010 C 
BRANCH  42  44
HETATM   44  C15 UNL     1       0.863  13.367  20.283  1.00  0.00     0.031 C 
BRANCH  44  45
HETATM   45  C16 UNL     1       1.884  13.420  21.390  1.00  0.00    -0.027 C 
HETATM   46  C17 UNL     1       2.897  14.304  21.404  1.00  0.00     0.006 C 
BRANCH  46  47
HETATM   47  C18 UNL     1       4.006  14.443  22.433  1.00  0.00     0.070 C 
HETATM   48  C19 UNL     1       5.129  15.335  21.873  1.00  0.00     0.050 C 
HETATM   49  C20 UNL     1       3.531  15.060  23.762  1.00  0.00     0.050 C 
BRANCH  47  50
HETATM   50  O3  UNL     1       4.486  13.133  22.793  1.00  0.00    -0.382 OA
HETATM   51  C21 UNL     1       5.865  12.864  22.583  1.00  0.00     0.202 C 
ENDBRANCH  47  50
ENDBRANCH  46  47
ENDBRANCH  44  45
ENDBRANCH  42  44
ENDBRANCH  12  42
TORSDOF 13
ENDMDL
MODEL 4
REMARK minimizedAffinity -7.63279867
REMARK CNNscore 0.319137543
REMARK CNNaffinity 6.38079643
REMARK  13 active torsions:
REMARK  status: ('A' for Active; 'I' for Inactive)
REMARK    1  A    between atoms: O1_2  and  C2_3 
REMARK    2  A    between atoms: C12_14  and  C13_15 
REMARK    3  A    between atoms: C13_15  and  C15_17 
REMARK    4  A    between atoms: C15_17  and  C16_18 
REMARK    5  A    between atoms: C17_19  and  C18_20 
REMARK    6  A    between atoms: C18_20  and  O3_23 
REMARK    7  A    between atoms: C29_32  and  O4_33 
REMARK    8  A    between atoms: O4_33  and  C30_34 
REMARK    9  A    between atoms: C31_36  and  C32_37 
REMARK   10  A    between atoms: C32_37  and  O6_38 
REMARK   11  A    between atoms: C33_39  and  O7_40 
REMARK   12  A    between atoms: C34_41  and  O8_42 
REMARK   13  A    between atoms: C35_43  and  O9_44 
ROOT
HETATM    1  C2  UNL     1      -1.470  12.483  14.452  1.00  0.00     0.270 C 
HETATM    2  O2  UNL     1      -1.750  11.193  13.865  1.00  0.00    -0.344 OA
HETATM    3  C3  UNL     1      -2.108  10.287  14.929  1.00  0.00     0.095 C 
HETATM    4  C4  UNL     1      -3.620  10.456  15.054  1.00  0.00     0.008 C 
HETATM    5  C5  UNL     1      -4.166  11.502  15.694  1.00  0.00    -0.021 C 
HETATM    6  C6  UNL     1      -3.311  12.600  16.295  1.00  0.00     0.030 C 
HETATM    7  C7  UNL     1      -1.764  12.378  15.992  1.00  0.00     0.024 C 
HETATM    8  C8  UNL     1      -0.883  13.403  16.752  1.00  0.00     0.016 C 
HETATM    9  C9  UNL     1      -1.273  13.709  18.208  1.00  0.00     0.011 C 
HETATM   10  C10 UNL     1      -2.760  14.081  18.334  1.00  0.00    -0.032 C 
HETATM   11  C11 UNL     1      -2.996  15.400  17.530  1.00  0.00     0.016 C 
HETATM   12  C12 UNL     1      -3.359  14.261  19.764  1.00  0.00    -0.002 C 
HETATM   13  C22 UNL     1      -4.886  14.051  19.499  1.00  0.00     0.006 C 
HETATM   14  C23 UNL     1      -5.031  13.325  18.145  1.00  0.00     0.011 C 
HETATM   15  C24 UNL     1      -3.604  12.849  17.815  1.00  0.00    -0.029 C 
HETATM   16  C25 UNL     1      -3.400  11.542  18.658  1.00  0.00     0.016 C 
HETATM   17  C26 UNL     1      -1.402  10.882  16.173  1.00  0.00     0.039 C 
HETATM   18  C27 UNL     1       0.108  10.601  16.246  1.00  0.00     0.011 C 
HETATM   19  C28 UNL     1       0.431   9.134  16.020  1.00  0.00     0.033 C 
HETATM   20  C29 UNL     1      -0.126   8.653  14.677  1.00  0.00     0.136 C 
HETATM   21  C36 UNL     1      -1.680   8.814  14.601  1.00  0.00     0.014 C 
HETATM   22  C37 UNL     1      -2.135   8.404  13.176  1.00  0.00     0.021 C 
HETATM   23  C38 UNL     1      -2.323   7.819  15.602  1.00  0.00     0.021 C 
ENDROOT
BRANCH  20  24
HETATM   24  O4  UNL     1       0.486   9.417  13.628  1.00  0.00    -0.352 OA
BRANCH  24  25
HETATM   25  C30 UNL     1       1.091   8.614  12.608  1.00  0.00     0.292 C 
HETATM   26  O5  UNL     1       0.310   8.622  11.420  1.00  0.00    -0.348 OA
HETATM   27  C31 UNL     1       0.923   7.868  10.368  1.00  0.00     0.179 C 
HETATM   28  C33 UNL     1       1.126   6.394  10.775  1.00  0.00     0.180 C 
HETATM   29  C34 UNL     1       1.795   6.254  12.143  1.00  0.00     0.183 C 
HETATM   30  C35 UNL     1       1.156   7.185  13.171  1.00  0.00     0.204 C 
BRANCH  27  31
HETATM   31  C32 UNL     1       0.016   7.959   9.126  1.00  0.00     0.198 C 
BRANCH  31  32
HETATM   32  O6  UNL     1      -0.386   9.283   8.810  1.00  0.00    -0.398 OA
HETATM   33  H50 UNL     1       0.281   9.902   9.187  1.00  0.00     0.209 HD
ENDBRANCH  31  32
ENDBRANCH  27  31
BRANCH  28  34
HETATM   34  O7  UNL     1       1.923   5.731   9.786  1.00  0.00    -0.390 OA
HETATM   35  H52 UNL     1       2.838   5.758  10.133  1.00  0.00     0.210 HD
ENDBRANCH  28  34
BRANCH  29  36
HETATM   36  O8  UNL     1       3.195   6.566  12.008  1.00  0.00    -0.390 OA
HETATM   37  H54 UNL     1       3.527   6.598  12.931  1.00  0.00     0.210 HD
ENDBRANCH  29  36
BRANCH  30  38
HETATM   38  O9  UNL     1       1.928   7.144  14.379  1.00  0.00    -0.388 OA
HETATM   39  H56 UNL     1       1.544   7.845  14.950  1.00  0.00     0.210 HD
ENDBRANCH  30  38
ENDBRANCH  24  25
ENDBRANCH  20  24
BRANCH   1  40
HETATM   40  O1  UNL     1      -2.212  13.535  13.845  1.00  0.00    -0.365 OA
HETATM   41  C1  UNL     1      -1.386  14.622  13.470  1.00  0.00     0.204 C 
ENDBRANCH   1  40
BRANCH  12  42
HETATM   42  C13 UNL     1      -3.081  15.561  20.577  1.00  0.00    -0.010 C 
HETATM   43  C14 UNL     1      -1.584  15.752  20.867  1.00  0.00     0.010 C 
BRANCH  42  44
HETATM   44  C15 UNL     1      -3.887  15.546  21.904  1.00  0.00     0.031 C 
BRANCH  44  45
HETATM   45  C16 UNL     1      -3.128  16.130  23.066  1.00  0.00    -0.027 C 
HETATM   46  C17 UNL     1      -3.430  15.853  24.347  1.00  0.00     0.006 C 
BRANCH  46  47
HETATM   47  C18 UNL     1      -2.773  16.395  25.605  1.00  0.00     0.070 C 
HETATM   48  C19 UNL     1      -2.533  17.909  25.458  1.00  0.00     0.050 C 
HETATM   49  C20 UNL     1      -3.612  16.171  26.877  1.00  0.00     0.050 C 
BRANCH  47  50
HETATM   50  O3  UNL     1      -1.548  15.675  25.848  1.00  0.00    -0.382 OA
HETATM   51  C21 UNL     1      -1.635  14.477  26.606  1.00  0.00     0.202 C 
ENDBRANCH  47  50
ENDBRANCH  46  47
ENDBRANCH  44  45
ENDBRANCH  42  44
ENDBRANCH  12  42
TORSDOF 13
ENDMDL
MODEL 5
REMARK minimizedAffinity -6.86892843
REMARK CNNscore 0.31653586
REMARK CNNaffinity 6.32312822
REMARK  13 active torsions:
REMARK  status: ('A' for Active; 'I' for Inactive)
REMARK    1  A    between atoms: O1_2  and  C2_3 
REMARK    2  A    between atoms: C12_14  and  C13_15 
REMARK    3  A    between atoms: C13_15  and  C15_17 
REMARK    4  A    between atoms: C15_17  and  C16_18 
REMARK    5  A    between atoms: C17_19  and  C18_20 
REMARK    6  A    between atoms: C18_20  and  O3_23 
REMARK    7  A    between atoms: C29_32  and  O4_33 
REMARK    8  A    between atoms: O4_33  and  C30_34 
REMARK    9  A    between atoms: C31_36  and  C32_37 
REMARK   10  A    between atoms: C32_37  and  O6_38 
REMARK   11  A    between atoms: C33_39  and  O7_40 
REMARK   12  A    between atoms: C34_41  and  O8_42 
REMARK   13  A    between atoms: C35_43  and  O9_44 
ROOT
HETATM    1  C2  UNL     1       2.822  10.278  18.926  1.00  0.00     0.270 C 
HETATM    2  O2  UNL     1       4.080  10.951  19.149  1.00  0.00    -0.344 OA
HETATM    3  C3  UNL     1       4.034  12.221  18.466  1.00  0.00     0.095 C 
HETATM    4  C4  UNL     1       3.447  13.171  19.508  1.00  0.00     0.008 C 
HETATM    5  C5  UNL     1       2.131  13.207  19.771  1.00  0.00    -0.021 C 
HETATM    6  C6  UNL     1       1.156  12.278  19.076  1.00  0.00     0.030 C 
HETATM    7  C7  UNL     1       1.899  11.254  18.111  1.00  0.00     0.024 C 
HETATM    8  C8  UNL     1       0.890  10.425  17.276  1.00  0.00     0.016 C 
HETATM    9  C9  UNL     1      -0.318  11.181  16.696  1.00  0.00     0.011 C 
HETATM   10  C10 UNL     1      -1.053  11.994  17.775  1.00  0.00    -0.032 C 
HETATM   11  C11 UNL     1      -1.627  10.991  18.826  1.00  0.00     0.016 C 
HETATM   12  C12 UNL     1      -2.204  12.949  17.326  1.00  0.00    -0.002 C 
HETATM   13  C22 UNL     1      -2.273  13.951  18.526  1.00  0.00     0.006 C 
HETATM   14  C23 UNL     1      -0.944  13.842  19.304  1.00  0.00     0.011 C 
HETATM   15  C24 UNL     1      -0.023  13.034  18.372  1.00  0.00    -0.029 C 
HETATM   16  C25 UNL     1       0.510  14.070  17.321  1.00  0.00     0.016 C 
HETATM   17  C26 UNL     1       3.014  11.989  17.324  1.00  0.00     0.039 C 
HETATM   18  C27 UNL     1       3.567  11.200  16.125  1.00  0.00     0.011 C 
HETATM   19  C28 UNL     1       4.895  11.751  15.637  1.00  0.00     0.033 C 
HETATM   20  C29 UNL     1       5.926  11.773  16.769  1.00  0.00     0.136 C 
HETATM   21  C36 UNL     1       5.456  12.660  17.968  1.00  0.00     0.014 C 
HETATM   22  C37 UNL     1       6.508  12.534  19.099  1.00  0.00     0.021 C 
HETATM   23  C38 UNL     1       5.442  14.140  17.504  1.00  0.00     0.021 C 
ENDROOT
BRANCH  20  24
HETATM   24  O4  UNL     1       6.135  10.428  17.222  1.00  0.00    -0.352 OA
BRANCH  24  25
HETATM   25  C30 UNL     1       7.423   9.899  16.883  1.00  0.00     0.292 C 
HETATM   26  O5  UNL     1       8.292  10.926  16.425  1.00  0.00    -0.348 OA
HETATM   27  C31 UNL     1       9.603  10.429  16.130  1.00  0.00     0.179 C 
HETATM   28  C33 UNL     1       9.561   9.341  15.038  1.00  0.00     0.180 C 
HETATM   29  C34 UNL     1       8.513   8.265  15.327  1.00  0.00     0.183 C 
HETATM   30  C35 UNL     1       7.185   8.885  15.753  1.00  0.00     0.204 C 
BRANCH  27  31
HETATM   31  C32 UNL     1      10.470  11.616  15.669  1.00  0.00     0.198 C 
BRANCH  31  32
HETATM   32  O6  UNL     1       9.919  12.331  14.573  1.00  0.00    -0.398 OA
HETATM   33  H50 UNL     1       8.945  12.186  14.572  1.00  0.00     0.209 HD
ENDBRANCH  31  32
ENDBRANCH  27  31
BRANCH  28  34
HETATM   34  O7  UNL     1      10.852   8.729  14.924  1.00  0.00    -0.390 OA
HETATM   35  H52 UNL     1      10.801   7.919  15.471  1.00  0.00     0.210 HD
ENDBRANCH  28  34
BRANCH  29  36
HETATM   36  O8  UNL     1       9.007   7.407  16.374  1.00  0.00    -0.390 OA
HETATM   37  H54 UNL     1       8.240   6.840  16.605  1.00  0.00     0.210 HD
ENDBRANCH  29  36
BRANCH  30  38
HETATM   38  O9  UNL     1       6.299   7.840  16.179  1.00  0.00    -0.388 OA
HETATM   39  H56 UNL     1       5.517   8.305  16.550  1.00  0.00     0.210 HD
ENDBRANCH  30  38
ENDBRANCH  24  25
ENDBRANCH  20  24
BRANCH   1  40
HETATM   40  O1  UNL     1       2.203   9.857  20.137  1.00  0.00    -0.365 OA
HETATM   41  C1  UNL     1       3.112   9.836  21.222  1.00  0.00     0.204 C 
ENDBRANCH   1  40
BRANCH  12  42
HETATM   42  C13 UNL     1      -3.606  12.377  16.962  1.00  0.00    -0.010 C 
HETATM   43  C14 UNL     1      -4.690  12.831  17.951  1.00  0.00     0.010 C 
BRANCH  42  44
HETATM   44  C15 UNL     1      -3.551  10.827  16.899  1.00  0.00     0.031 C 
BRANCH  44  45
HETATM   45  C16 UNL     1      -3.564  10.289  15.492  1.00  0.00    -0.027 C 
HETATM   46  C17 UNL     1      -3.444   8.979  15.211  1.00  0.00     0.006 C 
BRANCH  46  47
HETATM   47  C18 UNL     1      -3.407   8.311  13.846  1.00  0.00     0.070 C 
HETATM   48  C19 UNL     1      -4.809   8.346  13.210  1.00  0.00     0.050 C 
HETATM   49  C20 UNL     1      -2.426   8.980  12.866  1.00  0.00     0.050 C 
BRANCH  47  50
HETATM   50  O3  UNL     1      -2.913   6.965  13.991  1.00  0.00    -0.382 OA
HETATM   51  C21 UNL     1      -1.804   6.767  14.856  1.00  0.00     0.202 C 
ENDBRANCH  47  50
ENDBRANCH  46  47
ENDBRANCH  44  45
ENDBRANCH  42  44
ENDBRANCH  12  42
TORSDOF 13
ENDMDL
MODEL 6
REMARK minimizedAffinity -7.68332958
REMARK CNNscore 0.307073653
REMARK CNNaffinity 7.3643012
REMARK  13 active torsions:
REMARK  status: ('A' for Active; 'I' for Inactive)
REMARK    1  A    between atoms: O1_2  and  C2_3 
REMARK    2  A    between atoms: C12_14  and  C13_15 
REMARK    3  A    between atoms: C13_15  and  C15_17 
REMARK    4  A    between atoms: C15_17  and  C16_18 
REMARK    5  A    between atoms: C17_19  and  C18_20 
REMARK    6  A    between atoms: C18_20  and  O3_23 
REMARK    7  A    between atoms: C29_32  and  O4_33 
REMARK    8  A    between atoms: O4_33  and  C30_34 
REMARK    9  A    between atoms: C31_36  and  C32_37 
REMARK   10  A    between atoms: C32_37  and  O6_38 
REMARK   11  A    between atoms: C33_39  and  O7_40 
REMARK   12  A    between atoms: C34_41  and  O8_42 
REMARK   13  A    between atoms: C35_43  and  O9_44 
ROOT
HETATM    1  C2  UNL     1      -0.957   9.300  12.451  1.00  0.00     0.270 C 
HETATM    2  O2  UNL     1       0.402   8.812  12.422  1.00  0.00    -0.344 OA
HETATM    3  C3  UNL     1       0.547   7.837  13.476  1.00  0.00     0.095 C 
HETATM    4  C4  UNL     1       0.157   6.521  12.807  1.00  0.00     0.008 C 
HETATM    5  C5  UNL     1      -1.126   6.183  12.604  1.00  0.00    -0.021 C 
HETATM    6  C6  UNL     1      -2.262   7.109  12.990  1.00  0.00     0.030 C 
HETATM    7  C7  UNL     1      -1.728   8.496  13.559  1.00  0.00     0.024 C 
HETATM    8  C8  UNL     1      -2.885   9.368  14.111  1.00  0.00     0.016 C 
HETATM    9  C9  UNL     1      -3.967   8.646  14.933  1.00  0.00     0.011 C 
HETATM   10  C10 UNL     1      -4.525   7.421  14.189  1.00  0.00    -0.032 C 
HETATM   11  C11 UNL     1      -5.227   7.925  12.888  1.00  0.00     0.016 C 
HETATM   12  C12 UNL     1      -5.513   6.481  14.949  1.00  0.00    -0.002 C 
HETATM   13  C22 UNL     1      -5.380   5.152  14.134  1.00  0.00     0.006 C 
HETATM   14  C23 UNL     1      -4.065   5.227  13.328  1.00  0.00     0.011 C 
HETATM   15  C24 UNL     1      -3.319   6.432  13.930  1.00  0.00    -0.029 C 
HETATM   16  C25 UNL     1      -2.652   5.889  15.242  1.00  0.00     0.016 C 
HETATM   17  C26 UNL     1      -0.530   8.248  14.510  1.00  0.00     0.039 C 
HETATM   18  C27 UNL     1      -0.151   9.459  15.379  1.00  0.00     0.011 C 
HETATM   19  C28 UNL     1       1.235   9.321  15.983  1.00  0.00     0.033 C 
HETATM   20  C29 UNL     1       2.289   9.112  14.892  1.00  0.00     0.136 C 
HETATM   21  C36 UNL     1       2.007   7.823  14.051  1.00  0.00     0.014 C 
HETATM   22  C37 UNL     1       3.057   7.755  12.912  1.00  0.00     0.021 C 
HETATM   23  C38 UNL     1       2.226   6.589  14.963  1.00  0.00     0.021 C 
ENDROOT
BRANCH  20  24
HETATM   24  O4  UNL     1       2.284  10.257  14.027  1.00  0.00    -0.352 OA
BRANCH  24  25
HETATM   25  C30 UNL     1       3.538  10.949  13.981  1.00  0.00     0.292 C 
HETATM   26  O5  UNL     1       4.506  10.307  14.799  1.00  0.00    -0.348 OA
HETATM   27  C31 UNL     1       5.784  10.950  14.726  1.00  0.00     0.179 C 
HETATM   28  C33 UNL     1       5.700  12.421  15.181  1.00  0.00     0.180 C 
HETATM   29  C34 UNL     1       4.557  13.177  14.502  1.00  0.00     0.183 C 
HETATM   30  C35 UNL     1       3.267  12.363  14.518  1.00  0.00     0.204 C 
BRANCH  27  31
HETATM   31  C32 UNL     1       6.763  10.168  15.624  1.00  0.00     0.198 C 
BRANCH  31  32
HETATM   32  O6  UNL     1       6.176   9.045  16.262  1.00  0.00    -0.398 OA
HETATM   33  H50 UNL     1       5.400   8.760  15.727  1.00  0.00     0.209 HD
ENDBRANCH  31  32
ENDBRANCH  27  31
BRANCH  28  34
HETATM   34  O7  UNL     1       6.941  13.080  14.898  1.00  0.00    -0.390 OA
HETATM   35  H52 UNL     1       6.802  13.532  14.041  1.00  0.00     0.210 HD
ENDBRANCH  28  34
BRANCH  29  36
HETATM   36  O8  UNL     1       4.936  13.463  13.142  1.00  0.00    -0.390 OA
HETATM   37  H54 UNL     1       4.116  13.813  12.730  1.00  0.00     0.210 HD
ENDBRANCH  29  36
BRANCH  30  38
HETATM   38  O9  UNL     1       2.282  13.036  13.721  1.00  0.00    -0.388 OA
HETATM   39  H56 UNL     1       1.525  12.411  13.671  1.00  0.00     0.210 HD
ENDBRANCH  30  38
ENDBRANCH  24  25
ENDBRANCH  20  24
BRANCH   1  40
HETATM   40  O1  UNL     1      -1.602   9.204  11.185  1.00  0.00    -0.365 OA
HETATM   41  C1  UNL     1      -0.702   8.838  10.155  1.00  0.00     0.204 C 
ENDBRANCH   1  40
BRANCH  12  42
HETATM   42  C13 UNL     1      -7.001   6.897  15.148  1.00  0.00    -0.010 C 
HETATM   43  C14 UNL     1      -7.388   6.964  16.634  1.00  0.00     0.010 C 
BRANCH  42  44
HETATM   44  C15 UNL     1      -7.937   5.915  14.393  1.00  0.00     0.031 C 
BRANCH  44  45
HETATM   45  C16 UNL     1      -9.142   6.588  13.791  1.00  0.00    -0.027 C 
HETATM   46  C17 UNL     1     -10.231   6.913  14.510  1.00  0.00     0.006 C 
BRANCH  46  47
HETATM   47  C18 UNL     1     -11.518   7.560  14.026  1.00  0.00     0.070 C 
HETATM   48  C19 UNL     1     -11.480   7.714  12.494  1.00  0.00     0.050 C 
HETATM   49  C20 UNL     1     -12.779   6.753  14.388  1.00  0.00     0.050 C 
BRANCH  47  50
HETATM   50  O3  UNL     1     -11.693   8.825  14.692  1.00  0.00    -0.382 OA
HETATM   51  C21 UNL     1     -12.122   9.924  13.901  1.00  0.00     0.202 C 
ENDBRANCH  47  50
ENDBRANCH  46  47
ENDBRANCH  44  45
ENDBRANCH  42  44
ENDBRANCH  12  42
TORSDOF 13
ENDMDL
MODEL 7
REMARK minimizedAffinity -6.79746437
REMARK CNNscore 0.285758197
REMARK CNNaffinity 6.38942671
REMARK  13 active torsions:
REMARK  status: ('A' for Active; 'I' for Inactive)
REMARK    1  A    between atoms: O1_2  and  C2_3 
REMARK    2  A    between atoms: C12_14  and  C13_15 
REMARK    3  A    between atoms: C13_15  and  C15_17 
REMARK    4  A    between atoms: C15_17  and  C16_18 
REMARK    5  A    between atoms: C17_19  and  C18_20 
REMARK    6  A    between atoms: C18_20  and  O3_23 
REMARK    7  A    between atoms: C29_32  and  O4_33 
REMARK    8  A    between atoms: O4_33  and  C30_34 
REMARK    9  A    between atoms: C31_36  and  C32_37 
REMARK   10  A    between atoms: C32_37  and  O6_38 
REMARK   11  A    between atoms: C33_39  and  O7_40 
REMARK   12  A    between atoms: C34_41  and  O8_42 
REMARK   13  A    between atoms: C35_43  and  O9_44 
ROOT
HETATM    1  C2  UNL     1      -0.233  10.709  16.519  1.00  0.00     0.270 C 
HETATM    2  O2  UNL     1      -1.074  11.553  17.336  1.00  0.00    -0.344 OA
HETATM    3  C3  UNL     1      -2.397  11.551  16.762  1.00  0.00     0.095 C 
HETATM    4  C4  UNL     1      -3.084  10.368  17.440  1.00  0.00     0.008 C 
HETATM    5  C5  UNL     1      -2.860   9.103  17.052  1.00  0.00    -0.021 C 
HETATM    6  C6  UNL     1      -1.881   8.772  15.944  1.00  0.00     0.030 C 
HETATM    7  C7  UNL     1      -1.138  10.072  15.404  1.00  0.00     0.024 C 
HETATM    8  C8  UNL     1      -0.269   9.755  14.160  1.00  0.00     0.016 C 
HETATM    9  C9  UNL     1      -0.879   8.813  13.109  1.00  0.00     0.011 C 
HETATM   10  C10 UNL     1      -1.402   7.513  13.744  1.00  0.00    -0.032 C 
HETATM   11  C11 UNL     1      -0.184   6.753  14.360  1.00  0.00     0.016 C 
HETATM   12  C12 UNL     1      -2.199   6.518  12.843  1.00  0.00    -0.002 C 
HETATM   13  C22 UNL     1      -3.004   5.699  13.906  1.00  0.00     0.006 C 
HETATM   14  C23 UNL     1      -3.019   6.519  15.215  1.00  0.00     0.011 C 
HETATM   15  C24 UNL     1      -2.513   7.912  14.797  1.00  0.00    -0.029 C 
HETATM   16  C25 UNL     1      -3.756   8.628  14.163  1.00  0.00     0.016 C 
HETATM   17  C26 UNL     1      -2.151  11.237  15.266  1.00  0.00     0.039 C 
HETATM   18  C27 UNL     1      -1.636  12.428  14.440  1.00  0.00     0.011 C 
HETATM   19  C28 UNL     1      -2.466  13.681  14.658  1.00  0.00     0.033 C 
HETATM   20  C29 UNL     1      -2.511  14.055  16.143  1.00  0.00     0.136 C 
HETATM   21  C36 UNL     1      -3.135  12.914  17.012  1.00  0.00     0.014 C 
HETATM   22  C37 UNL     1      -3.039  13.337  18.500  1.00  0.00     0.021 C 
HETATM   23  C38 UNL     1      -4.640  12.796  16.654  1.00  0.00     0.021 C 
ENDROOT
BRANCH  20  24
HETATM   24  O4  UNL     1      -1.172  14.316  16.588  1.00  0.00    -0.352 OA
BRANCH  24  25
HETATM   25  C30 UNL     1      -0.859  15.712  16.683  1.00  0.00     0.292 C 
HETATM   26  O5  UNL     1      -2.027  16.508  16.535  1.00  0.00    -0.348 OA
HETATM   27  C31 UNL     1      -1.747  17.905  16.680  1.00  0.00     0.179 C 
HETATM   28  C33 UNL     1      -0.726  18.387  15.630  1.00  0.00     0.180 C 
HETATM   29  C34 UNL     1       0.508  17.486  15.560  1.00  0.00     0.183 C 
HETATM   30  C35 UNL     1       0.116  16.011  15.534  1.00  0.00     0.204 C 
BRANCH  27  31
HETATM   31  C32 UNL     1      -3.073  18.675  16.528  1.00  0.00     0.198 C 
BRANCH  31  32
HETATM   32  O6  UNL     1      -4.212  17.834  16.426  1.00  0.00    -0.398 OA
HETATM   33  H50 UNL     1      -3.993  16.972  16.851  1.00  0.00     0.209 HD
ENDBRANCH  31  32
ENDBRANCH  27  31
BRANCH  28  34
HETATM   34  O7  UNL     1      -0.319  19.727  15.939  1.00  0.00    -0.390 OA
HETATM   35  H52 UNL     1       0.518  19.632  16.437  1.00  0.00     0.210 HD
ENDBRANCH  28  34
BRANCH  29  36
HETATM   36  O8  UNL     1       1.338  17.748  16.708  1.00  0.00    -0.390 OA
HETATM   37  H54 UNL     1       2.025  17.047  16.676  1.00  0.00     0.210 HD
ENDBRANCH  29  36
BRANCH  30  38
HETATM   38  O9  UNL     1       1.303  15.213  15.646  1.00  0.00    -0.388 OA
HETATM   39  H56 UNL     1       0.980  14.290  15.745  1.00  0.00     0.210 HD
ENDBRANCH  30  38
ENDBRANCH  24  25
ENDBRANCH  20  24
BRANCH   1  40
HETATM   40  O1  UNL     1       0.447   9.714  17.277  1.00  0.00    -0.365 OA
HETATM   41  C1  UNL     1       1.851   9.898  17.260  1.00  0.00     0.204 C 
ENDBRANCH   1  40
BRANCH  12  42
HETATM   42  C13 UNL     1      -1.451   5.592  11.838  1.00  0.00    -0.010 C 
HETATM   43  C14 UNL     1      -1.690   4.104  12.135  1.00  0.00     0.010 C 
BRANCH  42  44
HETATM   44  C15 UNL     1       0.070   5.905  11.852  1.00  0.00     0.031 C 
BRANCH  44  45
HETATM   45  C16 UNL     1       0.550   6.574  10.590  1.00  0.00    -0.027 C 
HETATM   46  C17 UNL     1       1.647   6.171   9.925  1.00  0.00     0.006 C 
BRANCH  46  47
HETATM   47  C18 UNL     1       2.256   6.772   8.669  1.00  0.00     0.070 C 
HETATM   48  C19 UNL     1       1.190   7.582   7.908  1.00  0.00     0.050 C 
HETATM   49  C20 UNL     1       3.445   7.708   8.955  1.00  0.00     0.050 C 
BRANCH  47  50
HETATM   50  O3  UNL     1       2.812   5.717   7.860  1.00  0.00    -0.382 OA
HETATM   51  C21 UNL     1       3.493   4.669   8.535  1.00  0.00     0.202 C 
ENDBRANCH  47  50
ENDBRANCH  46  47
ENDBRANCH  44  45
ENDBRANCH  42  44
ENDBRANCH  12  42
TORSDOF 13
ENDMDL
MODEL 8
REMARK minimizedAffinity -7.08009386
REMARK CNNscore 0.209776446
REMARK CNNaffinity 6.30896235
REMARK  13 active torsions:
REMARK  status: ('A' for Active; 'I' for Inactive)
REMARK    1  A    between atoms: O1_2  and  C2_3 
REMARK    2  A    between atoms: C12_14  and  C13_15 
REMARK    3  A    between atoms: C13_15  and  C15_17 
REMARK    4  A    between atoms: C15_17  and  C16_18 
REMARK    5  A    between atoms: C17_19  and  C18_20 
REMARK    6  A    between atoms: C18_20  and  O3_23 
REMARK    7  A    between atoms: C29_32  and  O4_33 
REMARK    8  A    between atoms: O4_33  and  C30_34 
REMARK    9  A    between atoms: C31_36  and  C32_37 
REMARK   10  A    between atoms: C32_37  and  O6_38 
REMARK   11  A    between atoms: C33_39  and  O7_40 
REMARK   12  A    between atoms: C34_41  and  O8_42 
REMARK   13  A    between atoms: C35_43  and  O9_44 
ROOT
HETATM    1  C2  UNL     1       2.826  10.724  18.203  1.00  0.00     0.270 C 
HETATM    2  O2  UNL     1       3.336  10.579  19.546  1.00  0.00    -0.344 OA
HETATM    3  C3  UNL     1       2.698  11.573  20.375  1.00  0.00     0.095 C 
HETATM    4  C4  UNL     1       1.438  10.873  20.876  1.00  0.00     0.008 C 
HETATM    5  C5  UNL     1       0.347  10.743  20.106  1.00  0.00    -0.021 C 
HETATM    6  C6  UNL     1       0.317  11.249  18.678  1.00  0.00     0.030 C 
HETATM    7  C7  UNL     1       1.723  11.843  18.231  1.00  0.00     0.024 C 
HETATM    8  C8  UNL     1       1.641  12.514  16.836  1.00  0.00     0.016 C 
HETATM    9  C9  UNL     1       0.398  13.374  16.552  1.00  0.00     0.011 C 
HETATM   10  C10 UNL     1      -0.904  12.614  16.861  1.00  0.00    -0.032 C 
HETATM   11  C11 UNL     1      -0.988  11.389  15.895  1.00  0.00     0.016 C 
HETATM   12  C12 UNL     1      -2.253  13.396  16.784  1.00  0.00    -0.002 C 
HETATM   13  C22 UNL     1      -3.185  12.513  17.678  1.00  0.00     0.006 C 
HETATM   14  C23 UNL     1      -2.282  11.622  18.558  1.00  0.00     0.011 C 
HETATM   15  C24 UNL     1      -0.875  12.226  18.394  1.00  0.00    -0.029 C 
HETATM   16  C25 UNL     1      -0.843  13.463  19.359  1.00  0.00     0.016 C 
HETATM   17  C26 UNL     1       2.322  12.697  19.378  1.00  0.00     0.039 C 
HETATM   18  C27 UNL     1       3.497  13.594  18.953  1.00  0.00     0.011 C 
HETATM   19  C28 UNL     1       4.298  14.094  20.142  1.00  0.00     0.033 C 
HETATM   20  C29 UNL     1       4.812  12.924  20.985  1.00  0.00     0.136 C 
HETATM   21  C36 UNL     1       3.641  12.046  21.537  1.00  0.00     0.014 C 
HETATM   22  C37 UNL     1       4.260  10.835  22.282  1.00  0.00     0.021 C 
HETATM   23  C38 UNL     1       2.853  12.882  22.578  1.00  0.00     0.021 C 
ENDROOT
BRANCH  20  24
HETATM   24  O4  UNL     1       5.672  12.116  20.169  1.00  0.00    -0.352 OA
BRANCH  24  25
HETATM   25  C30 UNL     1       7.067  12.324  20.420  1.00  0.00     0.292 C 
HETATM   26  O5  UNL     1       7.335  13.688  20.716  1.00  0.00    -0.348 OA
HETATM   27  C31 UNL     1       8.716  13.911  21.023  1.00  0.00     0.179 C 
HETATM   28  C33 UNL     1       9.628  13.507  19.847  1.00  0.00     0.180 C 
HETATM   29  C34 UNL     1       9.303  12.113  19.310  1.00  0.00     0.183 C 
HETATM   30  C35 UNL     1       7.799  11.924  19.129  1.00  0.00     0.204 C 
BRANCH  27  31
HETATM   31  C32 UNL     1       8.896  15.406  21.351  1.00  0.00     0.198 C 
BRANCH  31  32
HETATM   32  O6  UNL     1      10.144  15.710  21.956  1.00  0.00    -0.398 OA
HETATM   33  H50 UNL     1      10.786  15.008  21.701  1.00  0.00     0.209 HD
ENDBRANCH  31  32
ENDBRANCH  27  31
BRANCH  28  34
HETATM   34  O7  UNL     1      10.997  13.548  20.268  1.00  0.00    -0.390 OA
HETATM   35  H52 UNL     1      11.218  12.626  20.512  1.00  0.00     0.210 HD
ENDBRANCH  28  34
BRANCH  29  36
HETATM   36  O8  UNL     1       9.809  11.131  20.235  1.00  0.00    -0.390 OA
HETATM   37  H54 UNL     1       9.446  10.279  19.908  1.00  0.00     0.210 HD
ENDBRANCH  29  36
BRANCH  30  38
HETATM   38  O9  UNL     1       7.539  10.553  18.796  1.00  0.00    -0.388 OA
HETATM   39  H56 UNL     1       6.561  10.469  18.812  1.00  0.00     0.210 HD
ENDBRANCH  30  38
ENDBRANCH  24  25
ENDBRANCH  20  24
BRANCH   1  40
HETATM   40  O1  UNL     1       2.322   9.503  17.672  1.00  0.00    -0.365 OA
HETATM   41  C1  UNL     1       2.735   9.293  16.333  1.00  0.00     0.204 C 
ENDBRANCH   1  40
BRANCH  12  42
HETATM   42  C13 UNL     1      -2.901  13.716  15.404  1.00  0.00    -0.010 C 
HETATM   43  C14 UNL     1      -2.576  15.142  14.930  1.00  0.00     0.010 C 
BRANCH  42  44
HETATM   44  C15 UNL     1      -4.438  13.510  15.473  1.00  0.00     0.031 C 
BRANCH  44  45
HETATM   45  C16 UNL     1      -5.212  14.802  15.436  1.00  0.00    -0.027 C 
HETATM   46  C17 UNL     1      -6.531  14.855  15.179  1.00  0.00     0.006 C 
BRANCH  46  47
HETATM   47  C18 UNL     1      -7.420  16.083  15.079  1.00  0.00     0.070 C 
HETATM   48  C19 UNL     1      -7.697  16.643  16.486  1.00  0.00     0.050 C 
HETATM   49  C20 UNL     1      -6.805  17.214  14.233  1.00  0.00     0.050 C 
BRANCH  47  50
HETATM   50  O3  UNL     1      -8.635  15.734  14.388  1.00  0.00    -0.382 OA
HETATM   51  C21 UNL     1      -8.918  14.352  14.226  1.00  0.00     0.202 C 
ENDBRANCH  47  50
ENDBRANCH  46  47
ENDBRANCH  44  45
ENDBRANCH  42  44
ENDBRANCH  12  42
TORSDOF 13
ENDMDL
MODEL 9
REMARK minimizedAffinity -7.56573009
REMARK CNNscore 0.189140096
REMARK CNNaffinity 5.98073578
REMARK  13 active torsions:
REMARK  status: ('A' for Active; 'I' for Inactive)
REMARK    1  A    between atoms: O1_2  and  C2_3 
REMARK    2  A    between atoms: C12_14  and  C13_15 
REMARK    3  A    between atoms: C13_15  and  C15_17 
REMARK    4  A    between atoms: C15_17  and  C16_18 
REMARK    5  A    between atoms: C17_19  and  C18_20 
REMARK    6  A    between atoms: C18_20  and  O3_23 
REMARK    7  A    between atoms: C29_32  and  O4_33 
REMARK    8  A    between atoms: O4_33  and  C30_34 
REMARK    9  A    between atoms: C31_36  and  C32_37 
REMARK   10  A    between atoms: C32_37  and  O6_38 
REMARK   11  A    between atoms: C33_39  and  O7_40 
REMARK   12  A    between atoms: C34_41  and  O8_42 
REMARK   13  A    between atoms: C35_43  and  O9_44 
ROOT
HETATM    1  C2  UNL     1       2.575  10.385  19.696  1.00  0.00     0.270 C 
HETATM    2  O2  UNL     1       3.644  11.183  20.250  1.00  0.00    -0.344 OA
HETATM    3  C3  UNL     1       3.569  12.498  19.660  1.00  0.00     0.095 C 
HETATM    4  C4  UNL     1       2.637  13.263  20.597  1.00  0.00     0.008 C 
HETATM    5  C5  UNL     1       1.304  13.111  20.547  1.00  0.00    -0.021 C 
HETATM    6  C6  UNL     1       0.650  12.140  19.585  1.00  0.00     0.030 C 
HETATM    7  C7  UNL     1       1.726  11.314  18.754  1.00  0.00     0.024 C 
HETATM    8  C8  UNL     1       1.057  10.451  17.654  1.00  0.00     0.016 C 
HETATM    9  C9  UNL     1      -0.087  11.105  16.860  1.00  0.00     0.011 C 
HETATM   10  C10 UNL     1      -1.152  11.713  17.789  1.00  0.00    -0.032 C 
HETATM   11  C11 UNL     1      -1.796  10.550  18.609  1.00  0.00     0.016 C 
HETATM   12  C12 UNL     1      -2.297  12.558  17.148  1.00  0.00    -0.002 C 
HETATM   13  C22 UNL     1      -2.773  13.422  18.362  1.00  0.00     0.006 C 
HETATM   14  C23 UNL     1      -1.649  13.403  19.420  1.00  0.00     0.011 C 
HETATM   15  C24 UNL     1      -0.438  12.810  18.677  1.00  0.00    -0.029 C 
HETATM   16  C25 UNL     1       0.162  14.000  17.850  1.00  0.00     0.016 C 
HETATM   17  C26 UNL     1       2.873  12.254  18.299  1.00  0.00     0.039 C 
HETATM   18  C27 UNL     1       3.785  11.658  17.212  1.00  0.00     0.011 C 
HETATM   19  C28 UNL     1       5.095  12.414  17.085  1.00  0.00     0.033 C 
HETATM   20  C29 UNL     1       5.836  12.454  18.425  1.00  0.00     0.136 C 
HETATM   21  C36 UNL     1       4.989  13.156  19.537  1.00  0.00     0.014 C 
HETATM   22  C37 UNL     1       5.771  13.051  20.872  1.00  0.00     0.021 C 
HETATM   23  C38 UNL     1       4.868  14.660  19.181  1.00  0.00     0.021 C 
ENDROOT
BRANCH  20  24
HETATM   24  O4  UNL     1       6.128  11.107  18.825  1.00  0.00    -0.352 OA
BRANCH  24  25
HETATM   25  C30 UNL     1       7.513  10.759  18.709  1.00  0.00     0.292 C 
HETATM   26  O5  UNL     1       8.345  11.812  19.178  1.00  0.00    -0.348 OA
HETATM   27  C31 UNL     1       9.733  11.467  19.121  1.00  0.00     0.179 C 
HETATM   28  C33 UNL     1      10.175  11.138  17.681  1.00  0.00     0.180 C 
HETATM   29  C34 UNL     1       9.235  10.145  16.996  1.00  0.00     0.183 C 
HETATM   30  C35 UNL     1       7.772  10.526  17.213  1.00  0.00     0.204 C 
BRANCH  27  31
HETATM   31  C32 UNL     1      10.544  12.657  19.669  1.00  0.00     0.198 C 
BRANCH  31  32
HETATM   32  O6  UNL     1      10.611  12.696  21.087  1.00  0.00    -0.398 OA
HETATM   33  H50 UNL     1      10.472  11.781  21.424  1.00  0.00     0.209 HD
ENDBRANCH  31  32
ENDBRANCH  27  31
BRANCH  28  34
HETATM   34  O7  UNL     1      11.503  10.599  17.699  1.00  0.00    -0.390 OA
HETATM   35  H52 UNL     1      11.386   9.628  17.687  1.00  0.00     0.210 HD
ENDBRANCH  28  34
BRANCH  29  36
HETATM   36  O8  UNL     1       9.480   8.830  17.531  1.00  0.00    -0.390 OA
HETATM   37  H54 UNL     1       8.757   8.278  17.161  1.00  0.00     0.210 HD
ENDBRANCH  29  36
BRANCH  30  38
HETATM   38  O9  UNL     1       6.938   9.475  16.705  1.00  0.00    -0.388 OA
HETATM   39  H56 UNL     1       6.027   9.719  16.980  1.00  0.00     0.210 HD
ENDBRANCH  30  38
ENDBRANCH  24  25
ENDBRANCH  20  24
BRANCH   1  40
HETATM   40  O1  UNL     1       1.769   9.775  20.698  1.00  0.00    -0.365 OA
HETATM   41  C1  UNL     1       2.494   9.530  21.890  1.00  0.00     0.204 C 
ENDBRANCH   1  40
BRANCH  12  42
HETATM   42  C13 UNL     1      -3.488  11.855  16.430  1.00  0.00    -0.010 C 
HETATM   43  C14 UNL     1      -4.796  12.650  16.567  1.00  0.00     0.010 C 
BRANCH  42  44
HETATM   44  C15 UNL     1      -3.673  10.417  16.984  1.00  0.00     0.031 C 
BRANCH  44  45
HETATM   45  C16 UNL     1      -4.116   9.430  15.935  1.00  0.00    -0.027 C 
HETATM   46  C17 UNL     1      -3.250   8.710  15.200  1.00  0.00     0.006 C 
BRANCH  46  47
HETATM   47  C18 UNL     1      -3.559   7.712  14.096  1.00  0.00     0.070 C 
HETATM   48  C19 UNL     1      -4.784   8.186  13.293  1.00  0.00     0.050 C 
HETATM   49  C20 UNL     1      -2.394   7.516  13.108  1.00  0.00     0.050 C 
BRANCH  47  50
HETATM   50  O3  UNL     1      -3.764   6.410  14.677  1.00  0.00    -0.382 OA
HETATM   51  C21 UNL     1      -3.371   5.283  13.907  1.00  0.00     0.202 C 
ENDBRANCH  47  50
ENDBRANCH  46  47
ENDBRANCH  44  45
ENDBRANCH  42  44
ENDBRANCH  12  42
TORSDOF 13
ENDMDL
