MODEL 1
REMARK minimizedAffinity -9.28393173
REMARK CNNscore 0.483152986
REMARK CNNaffinity 6.73909569
REMARK  11 active torsions:
REMARK  status: ('A' for Active; 'I' for Inactive)
REMARK    1  A    between atoms: C2_2  and  C3_3 
REMARK    2  A    between atoms: C3_3  and  N1_4 
REMARK       I    between atoms: N1_4  and  C4_5 
REMARK    3  A    between atoms: C4_5  and  C5_7 
REMARK       I    between atoms: N2_8  and  C6_9 
REMARK    4  A    between atoms: C6_9  and  C7_11 
REMARK    5  A    between atoms: C7_11  and  O3_12 
REMARK    6  A    between atoms: C7_11  and  C8_13 
REMARK    7  A    between atoms: C8_13  and  C9_14 
REMARK    8  A    between atoms: C8_13  and  N3_21 
REMARK    9  A    between atoms: C9_14  and  C10_15 
REMARK       I    between atoms: N3_21  and  C16_22 
REMARK   10  A    between atoms: C16_22  and  C17_24 
REMARK   11  A    between atoms: C21_28  and  O5_29 
ROOT
HETATM    1  C8  UNL     1      -2.536   5.953  14.234  1.00  0.00     0.127 C 
ENDROOT
BRANCH   1   2
HETATM    2  C7  UNL     1      -1.011   5.652  14.251  1.00  0.00     0.233 C 
BRANCH   2   3
HETATM    3  C6  UNL     1      -0.209   6.499  13.238  1.00  0.00     0.252 C 
HETATM    4  N2  UNL     1       0.156   7.800  13.567  1.00  0.00    -0.326 N 
HETATM    5  C5  UNL     1       0.904   8.609  12.582  1.00  0.00     0.198 C 
HETATM    6  C24 UNL     1       0.610   8.114  14.907  1.00  0.00     0.201 C 
HETATM    7  C25 UNL     1       2.408   8.448  12.896  1.00  0.00     0.032 C 
HETATM    8  S1  UNL     1       2.413   8.347  14.755  1.00  0.00    -0.137 SA
HETATM    9  C26 UNL     1       3.240   9.685  12.535  1.00  0.00     0.029 C 
HETATM   10  C27 UNL     1       3.068   7.170  12.374  1.00  0.00     0.029 C 
HETATM   11  O2  UNL     1       0.122   5.975  12.169  1.00  0.00    -0.270 OA
BRANCH   5  12
HETATM   12  C4  UNL     1       0.324   8.539  11.139  1.00  0.00     0.242 C 
HETATM   13  N1  UNL     1       1.153   8.144  10.119  1.00  0.00    -0.356 N 
HETATM   14  H6  UNL     1       2.147   8.062  10.257  1.00  0.00     0.162 HD
HETATM   15  O1  UNL     1      -0.832   8.904  10.904  1.00  0.00    -0.271 OA
BRANCH  13  16
HETATM   16  C3  UNL     1       0.678   8.146   8.757  1.00  0.00     0.149 C 
BRANCH  16  17
HETATM   17  C2  UNL     1       1.822   7.981   7.802  1.00  0.00    -0.018 C 
HETATM   18  C1  UNL     1       1.882   7.153   6.749  1.00  0.00     0.008 C 
ENDBRANCH  16  17
ENDBRANCH  13  16
ENDBRANCH   5  12
ENDBRANCH   2   3
BRANCH   2  19
HETATM   19  O3  UNL     1      -0.403   5.745  15.539  1.00  0.00    -0.384 OA
HETATM   20  H9  UNL     1       0.520   5.449  15.428  1.00  0.00     0.210 HD
ENDBRANCH   2  19
ENDBRANCH   1   2
BRANCH   1  21
HETATM   21  C9  UNL     1      -3.103   6.289  15.638  1.00  0.00     0.066 C 
BRANCH  21  22
HETATM   22  C10 UNL     1      -3.379   7.764  15.837  1.00  0.00    -0.056 A 
HETATM   23  C11 UNL     1      -4.559   8.331  15.334  1.00  0.00     0.007 A 
HETATM   24  C12 UNL     1      -4.817   9.692  15.498  1.00  0.00     0.001 A 
HETATM   25  C13 UNL     1      -3.899  10.501  16.165  1.00  0.00     0.000 A 
HETATM   26  C14 UNL     1      -2.725   9.946  16.674  1.00  0.00     0.001 A 
HETATM   27  C15 UNL     1      -2.467   8.584  16.513  1.00  0.00     0.007 A 
ENDBRANCH  21  22
ENDBRANCH   1  21
BRANCH   1  28
HETATM   28  N3  UNL     1      -3.278   4.824  13.647  1.00  0.00    -0.349 N 
HETATM   29  C16 UNL     1      -4.471   5.013  12.979  1.00  0.00     0.252 C 
HETATM   30  O4  UNL     1      -5.000   6.104  12.808  1.00  0.00    -0.268 OA
HETATM   31  H18 UNL     1      -3.010   3.874  13.880  1.00  0.00     0.163 HD
BRANCH  29  32
HETATM   32  C17 UNL     1      -5.145   3.772  12.527  1.00  0.00     0.040 A 
HETATM   33  C18 UNL     1      -4.395   2.920  11.701  1.00  0.00     0.018 A 
HETATM   34  C19 UNL     1      -4.969   1.758  11.192  1.00  0.00     0.004 A 
HETATM   35  C20 UNL     1      -6.289   1.442  11.506  1.00  0.00     0.037 A 
HETATM   36  C21 UNL     1      -7.024   2.283  12.345  1.00  0.00     0.072 A 
HETATM   37  C22 UNL     1      -6.466   3.447  12.891  1.00  0.00    -0.013 A 
HETATM   38  C23 UNL     1      -7.264   4.305  13.835  1.00  0.00     0.052 C 
BRANCH  36  39
HETATM   39  O5  UNL     1      -8.319   1.965  12.652  1.00  0.00    -0.360 OA
HETATM   40  H22 UNL     1      -8.511   1.071  12.325  1.00  0.00     0.217 HD
ENDBRANCH  36  39
ENDBRANCH  29  32
ENDBRANCH   1  28
TORSDOF 11
ENDMDL
MODEL 2
REMARK minimizedAffinity -8.91503525
REMARK CNNscore 0.29369539
REMARK CNNaffinity 6.85282707
REMARK  11 active torsions:
REMARK  status: ('A' for Active; 'I' for Inactive)
REMARK    1  A    between atoms: C2_2  and  C3_3 
REMARK    2  A    between atoms: C3_3  and  N1_4 
REMARK       I    between atoms: N1_4  and  C4_5 
REMARK    3  A    between atoms: C4_5  and  C5_7 
REMARK       I    between atoms: N2_8  and  C6_9 
REMARK    4  A    between atoms: C6_9  and  C7_11 
REMARK    5  A    between atoms: C7_11  and  O3_12 
REMARK    6  A    between atoms: C7_11  and  C8_13 
REMARK    7  A    between atoms: C8_13  and  C9_14 
REMARK    8  A    between atoms: C8_13  and  N3_21 
REMARK    9  A    between atoms: C9_14  and  C10_15 
REMARK       I    between atoms: N3_21  and  C16_22 
REMARK   10  A    between atoms: C16_22  and  C17_24 
REMARK   11  A    between atoms: C21_28  and  O5_29 
ROOT
HETATM    1  C8  UNL     1      -0.299   7.417  12.191  1.00  0.00     0.127 C 
ENDROOT
BRANCH   1   2
HETATM    2  C7  UNL     1      -0.089   8.144  13.550  1.00  0.00     0.233 C 
BRANCH   2   3
HETATM    3  C6  UNL     1      -1.362   8.845  14.071  1.00  0.00     0.252 C 
HETATM    4  N2  UNL     1      -1.596   8.917  15.440  1.00  0.00    -0.326 N 
HETATM    5  C5  UNL     1      -2.829   9.572  15.926  1.00  0.00     0.198 C 
HETATM    6  C24 UNL     1      -0.503   9.186  16.353  1.00  0.00     0.201 C 
HETATM    7  C25 UNL     1      -2.482  11.046  16.232  1.00  0.00     0.032 C 
HETATM    8  S1  UNL     1      -0.744  10.913  16.887  1.00  0.00    -0.137 SA
HETATM    9  C26 UNL     1      -3.320  11.644  17.368  1.00  0.00     0.029 C 
HETATM   10  C27 UNL     1      -2.438  11.987  15.026  1.00  0.00     0.029 C 
HETATM   11  O2  UNL     1      -2.124   9.363  13.247  1.00  0.00    -0.270 OA
BRANCH   5  12
HETATM   12  C4  UNL     1      -4.115   9.140  15.162  1.00  0.00     0.242 C 
HETATM   13  N1  UNL     1      -5.116   8.519  15.867  1.00  0.00    -0.356 N 
HETATM   14  H6  UNL     1      -4.967   8.195  16.809  1.00  0.00     0.162 HD
HETATM   15  O1  UNL     1      -4.202   9.284  13.939  1.00  0.00    -0.271 OA
BRANCH  13  16
HETATM   16  C3  UNL     1      -6.287   8.029  15.183  1.00  0.00     0.149 C 
BRANCH  16  17
HETATM   17  C2  UNL     1      -7.086   7.135  16.083  1.00  0.00    -0.018 C 
HETATM   18  C1  UNL     1      -6.850   5.843  16.353  1.00  0.00     0.008 C 
ENDBRANCH  16  17
ENDBRANCH  13  16
ENDBRANCH   5  12
ENDBRANCH   2   3
BRANCH   2  19
HETATM   19  O3  UNL     1       0.462   7.325  14.581  1.00  0.00    -0.384 OA
HETATM   20  H9  UNL     1       0.626   7.914  15.341  1.00  0.00     0.210 HD
ENDBRANCH   2  19
ENDBRANCH   1   2
BRANCH   1  21
HETATM   21  C9  UNL     1      -0.151   8.362  10.971  1.00  0.00     0.066 C 
BRANCH  21  22
HETATM   22  C10 UNL     1       0.724   7.794   9.874  1.00  0.00    -0.056 A 
HETATM   23  C11 UNL     1       0.655   8.322   8.576  1.00  0.00     0.007 A 
HETATM   24  C12 UNL     1       1.446   7.796   7.554  1.00  0.00     0.001 A 
HETATM   25  C13 UNL     1       2.314   6.738   7.818  1.00  0.00     0.000 A 
HETATM   26  C14 UNL     1       2.395   6.210   9.106  1.00  0.00     0.001 A 
HETATM   27  C15 UNL     1       1.606   6.737  10.129  1.00  0.00     0.007 A 
ENDBRANCH  21  22
ENDBRANCH   1  21
BRANCH   1  28
HETATM   28  N3  UNL     1      -1.612   6.752  12.159  1.00  0.00    -0.349 N 
HETATM   29  C16 UNL     1      -1.795   5.489  12.683  1.00  0.00     0.252 C 
HETATM   30  O4  UNL     1      -0.912   4.830  13.216  1.00  0.00    -0.268 OA
HETATM   31  H18 UNL     1      -2.358   7.144  11.594  1.00  0.00     0.163 HD
BRANCH  29  32
HETATM   32  C17 UNL     1      -3.150   4.916  12.493  1.00  0.00     0.040 A 
HETATM   33  C18 UNL     1      -4.143   5.356  13.381  1.00  0.00     0.018 A 
HETATM   34  C19 UNL     1      -5.431   4.831  13.303  1.00  0.00     0.004 A 
HETATM   35  C20 UNL     1      -5.731   3.870  12.340  1.00  0.00     0.037 A 
HETATM   36  C21 UNL     1      -4.743   3.452  11.445  1.00  0.00     0.072 A 
HETATM   37  C22 UNL     1      -3.445   3.979  11.484  1.00  0.00    -0.013 A 
HETATM   38  C23 UNL     1      -2.417   3.549  10.473  1.00  0.00     0.052 C 
BRANCH  36  39
HETATM   39  O5  UNL     1      -5.045   2.510  10.499  1.00  0.00    -0.360 OA
HETATM   40  H22 UNL     1      -6.003   2.354  10.503  1.00  0.00     0.217 HD
ENDBRANCH  36  39
ENDBRANCH  29  32
ENDBRANCH   1  28
TORSDOF 11
ENDMDL
MODEL 3
REMARK minimizedAffinity -8.46265984
REMARK CNNscore 0.286433876
REMARK CNNaffinity 6.58958054
REMARK  11 active torsions:
REMARK  status: ('A' for Active; 'I' for Inactive)
REMARK    1  A    between atoms: C2_2  and  C3_3 
REMARK    2  A    between atoms: C3_3  and  N1_4 
REMARK       I    between atoms: N1_4  and  C4_5 
REMARK    3  A    between atoms: C4_5  and  C5_7 
REMARK       I    between atoms: N2_8  and  C6_9 
REMARK    4  A    between atoms: C6_9  and  C7_11 
REMARK    5  A    between atoms: C7_11  and  O3_12 
REMARK    6  A    between atoms: C7_11  and  C8_13 
REMARK    7  A    between atoms: C8_13  and  C9_14 
REMARK    8  A    between atoms: C8_13  and  N3_21 
REMARK    9  A    between atoms: C9_14  and  C10_15 
REMARK       I    between atoms: N3_21  and  C16_22 
REMARK   10  A    between atoms: C16_22  and  C17_24 
REMARK   11  A    between atoms: C21_28  and  O5_29 
ROOT
HETATM    1  C8  UNL     1      -7.416   5.398  14.991  1.00  0.00     0.127 C 
ENDROOT
BRANCH   1   2
HETATM    2  C7  UNL     1      -6.395   5.895  16.052  1.00  0.00     0.233 C 
BRANCH   2   3
HETATM    3  C6  UNL     1      -5.520   7.068  15.557  1.00  0.00     0.252 C 
HETATM    4  N2  UNL     1      -4.149   6.890  15.411  1.00  0.00    -0.326 N 
HETATM    5  C5  UNL     1      -3.319   8.026  14.957  1.00  0.00     0.198 C 
HETATM    6  C24 UNL     1      -3.628   5.652  14.867  1.00  0.00     0.201 C 
HETATM    7  C25 UNL     1      -3.173   7.910  13.423  1.00  0.00     0.032 C 
HETATM    8  S1  UNL     1      -3.088   6.066  13.175  1.00  0.00    -0.137 SA
HETATM    9  C26 UNL     1      -1.848   8.472  12.895  1.00  0.00     0.029 C 
HETATM   10  C27 UNL     1      -4.356   8.421  12.598  1.00  0.00     0.029 C 
HETATM   11  O2  UNL     1      -6.079   8.131  15.262  1.00  0.00    -0.270 OA
BRANCH   5  12
HETATM   12  C4  UNL     1      -3.635   9.366  15.684  1.00  0.00     0.242 C 
HETATM   13  N1  UNL     1      -3.534   9.407  17.052  1.00  0.00    -0.356 N 
HETATM   14  H6  UNL     1      -3.427   8.564  17.593  1.00  0.00     0.162 HD
HETATM   15  O1  UNL     1      -4.039  10.348  15.053  1.00  0.00    -0.271 OA
BRANCH  13  16
HETATM   16  C3  UNL     1      -3.897  10.604  17.770  1.00  0.00     0.149 C 
BRANCH  16  17
HETATM   17  C2  UNL     1      -2.686  11.230  18.394  1.00  0.00    -0.018 C 
HETATM   18  C1  UNL     1      -2.545  12.507  18.777  1.00  0.00     0.008 C 
ENDBRANCH  16  17
ENDBRANCH  13  16
ENDBRANCH   5  12
ENDBRANCH   2   3
BRANCH   2  19
HETATM   19  O3  UNL     1      -6.967   6.227  17.317  1.00  0.00    -0.384 OA
HETATM   20  H9  UNL     1      -6.221   6.435  17.910  1.00  0.00     0.210 HD
ENDBRANCH   2  19
ENDBRANCH   1   2
BRANCH   1  21
HETATM   21  C9  UNL     1      -6.882   5.507  13.539  1.00  0.00     0.066 C 
BRANCH  21  22
HETATM   22  C10 UNL     1      -6.686   4.164  12.869  1.00  0.00    -0.056 A 
HETATM   23  C11 UNL     1      -7.558   3.103  13.153  1.00  0.00     0.007 A 
HETATM   24  C12 UNL     1      -7.377   1.857  12.553  1.00  0.00     0.001 A 
HETATM   25  C13 UNL     1      -6.324   1.657  11.663  1.00  0.00     0.000 A 
HETATM   26  C14 UNL     1      -5.454   2.706  11.369  1.00  0.00     0.001 A 
HETATM   27  C15 UNL     1      -5.636   3.954  11.967  1.00  0.00     0.007 A 
ENDBRANCH  21  22
ENDBRANCH   1  21
BRANCH   1  28
HETATM   28  N3  UNL     1      -8.689   6.128  15.118  1.00  0.00    -0.349 N 
HETATM   29  C16 UNL     1      -9.396   6.543  14.008  1.00  0.00     0.252 C 
HETATM   30  O4  UNL     1      -9.048   6.339  12.852  1.00  0.00    -0.268 OA
HETATM   31  H18 UNL     1      -8.971   6.489  16.023  1.00  0.00     0.163 HD
BRANCH  29  32
HETATM   32  C17 UNL     1     -10.608   7.347  14.296  1.00  0.00     0.040 A 
HETATM   33  C18 UNL     1     -11.842   6.711  14.092  1.00  0.00     0.018 A 
HETATM   34  C19 UNL     1     -13.030   7.410  14.292  1.00  0.00     0.004 A 
HETATM   35  C20 UNL     1     -12.990   8.742  14.697  1.00  0.00     0.037 A 
HETATM   36  C21 UNL     1     -11.760   9.364  14.919  1.00  0.00     0.072 A 
HETATM   37  C22 UNL     1     -10.549   8.680  14.749  1.00  0.00    -0.013 A 
HETATM   38  C23 UNL     1      -9.240   9.359  15.048  1.00  0.00     0.052 C 
BRANCH  36  39
HETATM   39  O5  UNL     1     -11.728  10.672  15.320  1.00  0.00    -0.360 OA
HETATM   40  H22 UNL     1     -12.631  10.959  15.534  1.00  0.00     0.217 HD
ENDBRANCH  36  39
ENDBRANCH  29  32
ENDBRANCH   1  28
TORSDOF 11
ENDMDL
MODEL 4
REMARK minimizedAffinity -8.03491116
REMARK CNNscore 0.261965156
REMARK CNNaffinity 6.44721794
REMARK  11 active torsions:
REMARK  status: ('A' for Active; 'I' for Inactive)
REMARK    1  A    between atoms: C2_2  and  C3_3 
REMARK    2  A    between atoms: C3_3  and  N1_4 
REMARK       I    between atoms: N1_4  and  C4_5 
REMARK    3  A    between atoms: C4_5  and  C5_7 
REMARK       I    between atoms: N2_8  and  C6_9 
REMARK    4  A    between atoms: C6_9  and  C7_11 
REMARK    5  A    between atoms: C7_11  and  O3_12 
REMARK    6  A    between atoms: C7_11  and  C8_13 
REMARK    7  A    between atoms: C8_13  and  C9_14 
REMARK    8  A    between atoms: C8_13  and  N3_21 
REMARK    9  A    between atoms: C9_14  and  C10_15 
REMARK       I    between atoms: N3_21  and  C16_22 
REMARK   10  A    between atoms: C16_22  and  C17_24 
REMARK   11  A    between atoms: C21_28  and  O5_29 
ROOT
HETATM    1  C8  UNL     1       1.180   6.346  12.598  1.00  0.00     0.127 C 
ENDROOT
BRANCH   1   2
HETATM    2  C7  UNL     1       1.263   7.898  12.629  1.00  0.00     0.233 C 
BRANCH   2   3
HETATM    3  C6  UNL     1       0.371   8.537  13.715  1.00  0.00     0.252 C 
HETATM    4  N2  UNL     1      -0.632   9.427  13.345  1.00  0.00    -0.326 N 
HETATM    5  C5  UNL     1      -1.465  10.049  14.395  1.00  0.00     0.198 C 
HETATM    6  C24 UNL     1      -1.435   9.172  12.166  1.00  0.00     0.201 C 
HETATM    7  C25 UNL     1      -2.735   9.183  14.554  1.00  0.00     0.032 C 
HETATM    8  S1  UNL     1      -3.057   8.634  12.804  1.00  0.00    -0.137 SA
HETATM    9  C26 UNL     1      -3.969   9.988  14.981  1.00  0.00     0.029 C 
HETATM   10  C27 UNL     1      -2.581   7.919  15.401  1.00  0.00     0.029 C 
HETATM   11  O2  UNL     1       0.551   8.203  14.891  1.00  0.00    -0.270 OA
BRANCH   5  12
HETATM   12  C4  UNL     1      -0.651  10.597  15.604  1.00  0.00     0.242 C 
HETATM   13  N1  UNL     1      -0.850  10.026  16.837  1.00  0.00    -0.356 N 
HETATM   14  H6  UNL     1      -1.614   9.392  17.001  1.00  0.00     0.162 HD
HETATM   15  O1  UNL     1       0.098  11.569  15.474  1.00  0.00    -0.271 OA
BRANCH  13  16
HETATM   16  C3  UNL     1      -0.178  10.558  17.998  1.00  0.00     0.149 C 
BRANCH  16  17
HETATM   17  C2  UNL     1      -1.174  11.104  18.976  1.00  0.00    -0.018 C 
HETATM   18  C1  UNL     1      -2.474  11.348  18.755  1.00  0.00     0.008 C 
ENDBRANCH  16  17
ENDBRANCH  13  16
ENDBRANCH   5  12
ENDBRANCH   2   3
BRANCH   2  19
HETATM   19  O3  UNL     1       2.588   8.418  12.732  1.00  0.00    -0.384 OA
HETATM   20  H9  UNL     1       2.510   9.388  12.650  1.00  0.00     0.210 HD
ENDBRANCH   2  19
ENDBRANCH   1   2
BRANCH   1  21
HETATM   21  C9  UNL     1       1.905   5.725  11.376  1.00  0.00     0.066 C 
BRANCH  21  22
HETATM   22  C10 UNL     1       1.987   6.660  10.188  1.00  0.00    -0.056 A 
HETATM   23  C11 UNL     1       0.815   7.074   9.537  1.00  0.00     0.007 A 
HETATM   24  C12 UNL     1       0.881   7.923   8.433  1.00  0.00     0.001 A 
HETATM   25  C13 UNL     1       2.116   8.368   7.967  1.00  0.00     0.000 A 
HETATM   26  C14 UNL     1       3.287   7.968   8.610  1.00  0.00     0.001 A 
HETATM   27  C15 UNL     1       3.223   7.120   9.716  1.00  0.00     0.007 A 
ENDBRANCH  21  22
ENDBRANCH   1  21
BRANCH   1  28
HETATM   28  N3  UNL     1      -0.225   5.904  12.630  1.00  0.00    -0.349 N 
HETATM   29  C16 UNL     1      -0.569   4.579  12.458  1.00  0.00     0.252 C 
HETATM   30  O4  UNL     1       0.237   3.675  12.280  1.00  0.00    -0.268 OA
HETATM   31  H18 UNL     1      -0.968   6.595  12.603  1.00  0.00     0.163 HD
BRANCH  29  32
HETATM   32  C17 UNL     1      -2.026   4.304  12.422  1.00  0.00     0.040 A 
HETATM   33  C18 UNL     1      -2.846   5.191  13.137  1.00  0.00     0.018 A 
HETATM   34  C19 UNL     1      -4.221   4.977  13.195  1.00  0.00     0.004 A 
HETATM   35  C20 UNL     1      -4.780   3.881  12.541  1.00  0.00     0.037 A 
HETATM   36  C21 UNL     1      -3.962   3.015  11.813  1.00  0.00     0.072 A 
HETATM   37  C22 UNL     1      -2.579   3.217  11.717  1.00  0.00    -0.013 A 
HETATM   38  C23 UNL     1      -1.730   2.298  10.882  1.00  0.00     0.052 C 
BRANCH  36  39
HETATM   39  O5  UNL     1      -4.519   1.943  11.171  1.00  0.00    -0.360 OA
HETATM   40  H22 UNL     1      -5.486   2.020  11.207  1.00  0.00     0.217 HD
ENDBRANCH  36  39
ENDBRANCH  29  32
ENDBRANCH   1  28
TORSDOF 11
ENDMDL
MODEL 5
REMARK minimizedAffinity -8.56946659
REMARK CNNscore 0.261604667
REMARK CNNaffinity 6.71393967
REMARK  11 active torsions:
REMARK  status: ('A' for Active; 'I' for Inactive)
REMARK    1  A    between atoms: C2_2  and  C3_3 
REMARK    2  A    between atoms: C3_3  and  N1_4 
REMARK       I    between atoms: N1_4  and  C4_5 
REMARK    3  A    between atoms: C4_5  and  C5_7 
REMARK       I    between atoms: N2_8  and  C6_9 
REMARK    4  A    between atoms: C6_9  and  C7_11 
REMARK    5  A    between atoms: C7_11  and  O3_12 
REMARK    6  A    between atoms: C7_11  and  C8_13 
REMARK    7  A    between atoms: C8_13  and  C9_14 
REMARK    8  A    between atoms: C8_13  and  N3_21 
REMARK    9  A    between atoms: C9_14  and  C10_15 
REMARK       I    between atoms: N3_21  and  C16_22 
REMARK   10  A    between atoms: C16_22  and  C17_24 
REMARK   11  A    between atoms: C21_28  and  O5_29 
ROOT
HETATM    1  C8  UNL     1      -1.078   5.444  12.893  1.00  0.00     0.127 C 
ENDROOT
BRANCH   1   2
HETATM    2  C7  UNL     1      -0.829   6.093  14.284  1.00  0.00     0.233 C 
BRANCH   2   3
HETATM    3  C6  UNL     1      -1.649   7.382  14.513  1.00  0.00     0.252 C 
HETATM    4  N2  UNL     1      -1.583   8.030  15.741  1.00  0.00    -0.326 N 
HETATM    5  C5  UNL     1      -2.388   9.250  15.956  1.00  0.00     0.198 C 
HETATM    6  C24 UNL     1      -0.316   8.148  16.436  1.00  0.00     0.201 C 
HETATM    7  C25 UNL     1      -1.489  10.463  15.629  1.00  0.00     0.032 C 
HETATM    8  S1  UNL     1       0.177   9.892  16.233  1.00  0.00    -0.137 SA
HETATM    9  C26 UNL     1      -1.833  11.713  16.449  1.00  0.00     0.029 C 
HETATM   10  C27 UNL     1      -1.338  10.804  14.145  1.00  0.00     0.029 C 
HETATM   11  O2  UNL     1      -2.316   7.826  13.572  1.00  0.00    -0.270 OA
BRANCH   5  12
HETATM   12  C4  UNL     1      -3.862   9.126  15.469  1.00  0.00     0.242 C 
HETATM   13  N1  UNL     1      -4.562   7.990  15.790  1.00  0.00    -0.356 N 
HETATM   14  H6  UNL     1      -4.100   7.185  16.179  1.00  0.00     0.162 HD
HETATM   15  O1  UNL     1      -4.364   9.993  14.747  1.00  0.00    -0.271 OA
BRANCH  13  16
HETATM   16  C3  UNL     1      -5.901   7.799  15.288  1.00  0.00     0.149 C 
BRANCH  16  17
HETATM   17  C2  UNL     1      -6.628   6.776  16.109  1.00  0.00    -0.018 C 
HETATM   18  C1  UNL     1      -7.771   6.951  16.788  1.00  0.00     0.008 C 
ENDBRANCH  16  17
ENDBRANCH  13  16
ENDBRANCH   5  12
ENDBRANCH   2   3
BRANCH   2  19
HETATM   19  O3  UNL     1      -1.008   5.210  15.391  1.00  0.00    -0.384 OA
HETATM   20  H9  UNL     1      -0.737   5.708  16.185  1.00  0.00     0.210 HD
ENDBRANCH   2  19
ENDBRANCH   1   2
BRANCH   1  21
HETATM   21  C9  UNL     1      -1.010   6.465  11.728  1.00  0.00     0.066 C 
BRANCH  21  22
HETATM   22  C10 UNL     1       0.269   6.373  10.923  1.00  0.00    -0.056 A 
HETATM   23  C11 UNL     1       1.217   5.382  11.221  1.00  0.00     0.007 A 
HETATM   24  C12 UNL     1       2.405   5.297  10.495  1.00  0.00     0.001 A 
HETATM   25  C13 UNL     1       2.659   6.199   9.464  1.00  0.00     0.000 A 
HETATM   26  C14 UNL     1       1.722   7.183   9.155  1.00  0.00     0.001 A 
HETATM   27  C15 UNL     1       0.531   7.268   9.879  1.00  0.00     0.007 A 
ENDBRANCH  21  22
ENDBRANCH   1  21
BRANCH   1  28
HETATM   28  N3  UNL     1      -2.373   4.744  12.875  1.00  0.00    -0.349 N 
HETATM   29  C16 UNL     1      -2.704   3.864  11.865  1.00  0.00     0.252 C 
HETATM   30  O4  UNL     1      -1.969   3.584  10.926  1.00  0.00    -0.268 OA
HETATM   31  H18 UNL     1      -3.108   5.033  13.512  1.00  0.00     0.163 HD
BRANCH  29  32
HETATM   32  C17 UNL     1      -4.077   3.309  11.935  1.00  0.00     0.040 A 
HETATM   33  C18 UNL     1      -4.241   1.991  11.481  1.00  0.00     0.018 A 
HETATM   34  C19 UNL     1      -5.507   1.410  11.467  1.00  0.00     0.004 A 
HETATM   35  C20 UNL     1      -6.609   2.140  11.906  1.00  0.00     0.037 A 
HETATM   36  C21 UNL     1      -6.437   3.444  12.377  1.00  0.00     0.072 A 
HETATM   37  C22 UNL     1      -5.172   4.046  12.425  1.00  0.00    -0.013 A 
HETATM   38  C23 UNL     1      -5.009   5.432  12.987  1.00  0.00     0.052 C 
BRANCH  36  39
HETATM   39  O5  UNL     1      -7.523   4.153  12.810  1.00  0.00    -0.360 OA
HETATM   40  H22 UNL     1      -8.291   3.561  12.853  1.00  0.00     0.217 HD
ENDBRANCH  36  39
ENDBRANCH  29  32
ENDBRANCH   1  28
TORSDOF 11
ENDMDL
MODEL 6
REMARK minimizedAffinity -9.12799549
REMARK CNNscore 0.229384378
REMARK CNNaffinity 6.73609734
REMARK  11 active torsions:
REMARK  status: ('A' for Active; 'I' for Inactive)
REMARK    1  A    between atoms: C2_2  and  C3_3 
REMARK    2  A    between atoms: C3_3  and  N1_4 
REMARK       I    between atoms: N1_4  and  C4_5 
REMARK    3  A    between atoms: C4_5  and  C5_7 
REMARK       I    between atoms: N2_8  and  C6_9 
REMARK    4  A    between atoms: C6_9  and  C7_11 
REMARK    5  A    between atoms: C7_11  and  O3_12 
REMARK    6  A    between atoms: C7_11  and  C8_13 
REMARK    7  A    between atoms: C8_13  and  C9_14 
REMARK    8  A    between atoms: C8_13  and  N3_21 
REMARK    9  A    between atoms: C9_14  and  C10_15 
REMARK       I    between atoms: N3_21  and  C16_22 
REMARK   10  A    between atoms: C16_22  and  C17_24 
REMARK   11  A    between atoms: C21_28  and  O5_29 
ROOT
HETATM    1  C8  UNL     1      -4.257   7.329  14.797  1.00  0.00     0.127 C 
ENDROOT
BRANCH   1   2
HETATM    2  C7  UNL     1      -2.889   6.938  15.423  1.00  0.00     0.233 C 
BRANCH   2   3
HETATM    3  C6  UNL     1      -1.684   7.610  14.728  1.00  0.00     0.252 C 
HETATM    4  N2  UNL     1      -1.495   8.982  14.853  1.00  0.00    -0.326 N 
HETATM    5  C5  UNL     1      -0.351   9.617  14.167  1.00  0.00     0.198 C 
HETATM    6  C24 UNL     1      -1.732   9.638  16.124  1.00  0.00     0.201 C 
HETATM    7  C25 UNL     1       0.816   9.688  15.177  1.00  0.00     0.032 C 
HETATM    8  S1  UNL     1      -0.073  10.015  16.780  1.00  0.00    -0.137 SA
HETATM    9  C26 UNL     1       1.742  10.889  14.951  1.00  0.00     0.029 C 
HETATM   10  C27 UNL     1       1.620   8.400  15.362  1.00  0.00     0.029 C 
HETATM   11  O2  UNL     1      -0.891   6.892  14.108  1.00  0.00    -0.270 OA
BRANCH   5  12
HETATM   12  C4  UNL     1      -0.171   9.161  12.689  1.00  0.00     0.242 C 
HETATM   13  N1  UNL     1       1.045   8.650  12.306  1.00  0.00    -0.356 N 
HETATM   14  H6  UNL     1       1.851   8.719  12.904  1.00  0.00     0.162 HD
HETATM   15  O1  UNL     1      -1.073   9.325  11.862  1.00  0.00    -0.271 OA
BRANCH  13  16
HETATM   16  C3  UNL     1       1.279   8.293  10.928  1.00  0.00     0.149 C 
BRANCH  16  17
HETATM   17  C2  UNL     1      -0.015   8.236  10.173  1.00  0.00    -0.018 C 
HETATM   18  C1  UNL     1      -0.198   8.474   8.867  1.00  0.00     0.008 C 
ENDBRANCH  16  17
ENDBRANCH  13  16
ENDBRANCH   5  12
ENDBRANCH   2   3
BRANCH   2  19
HETATM   19  O3  UNL     1      -2.802   7.142  16.833  1.00  0.00    -0.384 OA
HETATM   20  H9  UNL     1      -1.940   6.778  17.110  1.00  0.00     0.210 HD
ENDBRANCH   2  19
ENDBRANCH   1   2
BRANCH   1  21
HETATM   21  C9  UNL     1      -5.137   8.180  15.749  1.00  0.00     0.066 C 
BRANCH  21  22
HETATM   22  C10 UNL     1      -6.606   7.819  15.691  1.00  0.00    -0.056 A 
HETATM   23  C11 UNL     1      -7.065   6.647  16.311  1.00  0.00     0.007 A 
HETATM   24  C12 UNL     1      -8.414   6.297  16.251  1.00  0.00     0.001 A 
HETATM   25  C13 UNL     1      -9.318   7.112  15.573  1.00  0.00     0.000 A 
HETATM   26  C14 UNL     1      -8.873   8.282  14.959  1.00  0.00     0.001 A 
HETATM   27  C15 UNL     1      -7.525   8.635  15.020  1.00  0.00     0.007 A 
ENDBRANCH  21  22
ENDBRANCH   1  21
BRANCH   1  28
HETATM   28  N3  UNL     1      -4.992   6.126  14.371  1.00  0.00    -0.349 N 
HETATM   29  C16 UNL     1      -4.655   5.444  13.220  1.00  0.00     0.252 C 
HETATM   30  O4  UNL     1      -3.735   5.761  12.475  1.00  0.00    -0.268 OA
HETATM   31  H18 UNL     1      -5.866   5.886  14.826  1.00  0.00     0.163 HD
BRANCH  29  32
HETATM   32  C17 UNL     1      -5.545   4.309  12.874  1.00  0.00     0.040 A 
HETATM   33  C18 UNL     1      -6.772   4.250  13.552  1.00  0.00     0.018 A 
HETATM   34  C19 UNL     1      -7.645   3.190  13.323  1.00  0.00     0.004 A 
HETATM   35  C20 UNL     1      -7.298   2.189  12.418  1.00  0.00     0.037 A 
HETATM   36  C21 UNL     1      -6.085   2.264  11.730  1.00  0.00     0.072 A 
HETATM   37  C22 UNL     1      -5.196   3.331  11.923  1.00  0.00    -0.013 A 
HETATM   38  C23 UNL     1      -3.921   3.414  11.129  1.00  0.00     0.052 C 
BRANCH  36  39
HETATM   39  O5  UNL     1      -5.752   1.280  10.841  1.00  0.00    -0.360 OA
HETATM   40  H22 UNL     1      -6.519   0.700  10.709  1.00  0.00     0.217 HD
ENDBRANCH  36  39
ENDBRANCH  29  32
ENDBRANCH   1  28
TORSDOF 11
ENDMDL
MODEL 7
REMARK minimizedAffinity -8.37746525
REMARK CNNscore 0.197017476
REMARK CNNaffinity 6.33373499
REMARK  11 active torsions:
REMARK  status: ('A' for Active; 'I' for Inactive)
REMARK    1  A    between atoms: C2_2  and  C3_3 
REMARK    2  A    between atoms: C3_3  and  N1_4 
REMARK       I    between atoms: N1_4  and  C4_5 
REMARK    3  A    between atoms: C4_5  and  C5_7 
REMARK       I    between atoms: N2_8  and  C6_9 
REMARK    4  A    between atoms: C6_9  and  C7_11 
REMARK    5  A    between atoms: C7_11  and  O3_12 
REMARK    6  A    between atoms: C7_11  and  C8_13 
REMARK    7  A    between atoms: C8_13  and  C9_14 
REMARK    8  A    between atoms: C8_13  and  N3_21 
REMARK    9  A    between atoms: C9_14  and  C10_15 
REMARK       I    between atoms: N3_21  and  C16_22 
REMARK   10  A    between atoms: C16_22  and  C17_24 
REMARK   11  A    between atoms: C21_28  and  O5_29 
ROOT
HETATM    1  C8  UNL     1      -1.768   7.370  15.212  1.00  0.00     0.127 C 
ENDROOT
BRANCH   1   2
HETATM    2  C7  UNL     1      -0.343   6.748  15.223  1.00  0.00     0.233 C 
BRANCH   2   3
HETATM    3  C6  UNL     1       0.525   7.186  14.023  1.00  0.00     0.252 C 
HETATM    4  N2  UNL     1       1.028   6.227  13.151  1.00  0.00    -0.326 N 
HETATM    5  C5  UNL     1       1.875   6.657  12.019  1.00  0.00     0.198 C 
HETATM    6  C24 UNL     1       0.207   5.102  12.751  1.00  0.00     0.201 C 
HETATM    7  C25 UNL     1       0.955   6.829  10.790  1.00  0.00     0.032 C 
HETATM    8  S1  UNL     1      -0.282   5.459  11.030  1.00  0.00    -0.137 SA
HETATM    9  C26 UNL     1       1.659   6.537   9.458  1.00  0.00     0.029 C 
HETATM   10  C27 UNL     1       0.169   8.139  10.721  1.00  0.00     0.029 C 
HETATM   11  O2  UNL     1       0.715   8.395  13.849  1.00  0.00    -0.270 OA
BRANCH   5  12
HETATM   12  C4  UNL     1       2.975   7.687  12.410  1.00  0.00     0.242 C 
HETATM   13  N1  UNL     1       3.738   7.437  13.524  1.00  0.00    -0.356 N 
HETATM   14  H6  UNL     1       3.494   6.704  14.170  1.00  0.00     0.162 HD
HETATM   15  O1  UNL     1       3.108   8.741  11.780  1.00  0.00    -0.271 OA
BRANCH  13  16
HETATM   16  C3  UNL     1       4.710   8.405  13.969  1.00  0.00     0.149 C 
BRANCH  16  17
HETATM   17  C2  UNL     1       6.076   8.048  13.464  1.00  0.00    -0.018 C 
HETATM   18  C1  UNL     1       7.004   7.317  14.098  1.00  0.00     0.008 C 
ENDBRANCH  16  17
ENDBRANCH  13  16
ENDBRANCH   5  12
ENDBRANCH   2   3
BRANCH   2  19
HETATM   19  O3  UNL     1       0.383   6.948  16.435  1.00  0.00    -0.384 OA
HETATM   20  H9  UNL     1       1.211   6.439  16.347  1.00  0.00     0.210 HD
ENDBRANCH   2  19
ENDBRANCH   1   2
BRANCH   1  21
HETATM   21  C9  UNL     1      -2.179   7.964  16.584  1.00  0.00     0.066 C 
BRANCH  21  22
HETATM   22  C10 UNL     1      -2.694   9.384  16.493  1.00  0.00    -0.056 A 
HETATM   23  C11 UNL     1      -3.964   9.638  15.953  1.00  0.00     0.007 A 
HETATM   24  C12 UNL     1      -4.442  10.944  15.851  1.00  0.00     0.001 A 
HETATM   25  C13 UNL     1      -3.658  12.011  16.286  1.00  0.00     0.000 A 
HETATM   26  C14 UNL     1      -2.397  11.770  16.829  1.00  0.00     0.001 A 
HETATM   27  C15 UNL     1      -1.918  10.464  16.935  1.00  0.00     0.007 A 
ENDBRANCH  21  22
ENDBRANCH   1  21
BRANCH   1  28
HETATM   28  N3  UNL     1      -2.762   6.375  14.774  1.00  0.00    -0.349 N 
HETATM   29  C16 UNL     1      -3.538   6.577  13.652  1.00  0.00     0.252 C 
HETATM   30  O4  UNL     1      -3.467   7.565  12.932  1.00  0.00    -0.268 OA
HETATM   31  H18 UNL     1      -3.010   5.610  15.392  1.00  0.00     0.163 HD
BRANCH  29  32
HETATM   32  C17 UNL     1      -4.557   5.531  13.392  1.00  0.00     0.040 A 
HETATM   33  C18 UNL     1      -4.170   4.479  12.548  1.00  0.00     0.018 A 
HETATM   34  C19 UNL     1      -5.082   3.480  12.214  1.00  0.00     0.004 A 
HETATM   35  C20 UNL     1      -6.379   3.528  12.720  1.00  0.00     0.037 A 
HETATM   36  C21 UNL     1      -6.752   4.566  13.577  1.00  0.00     0.072 A 
HETATM   37  C22 UNL     1      -5.850   5.572  13.950  1.00  0.00    -0.013 A 
HETATM   38  C23 UNL     1      -6.264   6.648  14.916  1.00  0.00     0.052 C 
BRANCH  36  39
HETATM   39  O5  UNL     1      -8.026   4.606  14.073  1.00  0.00    -0.360 OA
HETATM   40  H22 UNL     1      -8.479   3.777  13.848  1.00  0.00     0.217 HD
ENDBRANCH  36  39
ENDBRANCH  29  32
ENDBRANCH   1  28
TORSDOF 11
ENDMDL
MODEL 8
REMARK minimizedAffinity -8.12575817
REMARK CNNscore 0.188672647
REMARK CNNaffinity 6.32671356
REMARK  11 active torsions:
REMARK  status: ('A' for Active; 'I' for Inactive)
REMARK    1  A    between atoms: C2_2  and  C3_3 
REMARK    2  A    between atoms: C3_3  and  N1_4 
REMARK       I    between atoms: N1_4  and  C4_5 
REMARK    3  A    between atoms: C4_5  and  C5_7 
REMARK       I    between atoms: N2_8  and  C6_9 
REMARK    4  A    between atoms: C6_9  and  C7_11 
REMARK    5  A    between atoms: C7_11  and  O3_12 
REMARK    6  A    between atoms: C7_11  and  C8_13 
REMARK    7  A    between atoms: C8_13  and  C9_14 
REMARK    8  A    between atoms: C8_13  and  N3_21 
REMARK    9  A    between atoms: C9_14  and  C10_15 
REMARK       I    between atoms: N3_21  and  C16_22 
REMARK   10  A    between atoms: C16_22  and  C17_24 
REMARK   11  A    between atoms: C21_28  and  O5_29 
ROOT
HETATM    1  C8  UNL     1      -2.011   6.571  14.716  1.00  0.00     0.127 C 
ENDROOT
BRANCH   1   2
HETATM    2  C7  UNL     1      -0.511   6.382  15.079  1.00  0.00     0.233 C 
BRANCH   2   3
HETATM    3  C6  UNL     1       0.452   6.930  14.003  1.00  0.00     0.252 C 
HETATM    4  N2  UNL     1       0.576   8.304  13.826  1.00  0.00    -0.326 N 
HETATM    5  C5  UNL     1       1.484   8.816  12.779  1.00  0.00     0.198 C 
HETATM    6  C24 UNL     1       0.601   9.187  14.974  1.00  0.00     0.201 C 
HETATM    7  C25 UNL     1       2.848   9.102  13.446  1.00  0.00     0.032 C 
HETATM    8  S1  UNL     1       2.340   9.715  15.130  1.00  0.00    -0.137 SA
HETATM    9  C26 UNL     1       3.616  10.254  12.788  1.00  0.00     0.029 C 
HETATM   10  C27 UNL     1       3.754   7.888  13.663  1.00  0.00     0.029 C 
HETATM   11  O2  UNL     1       1.122   6.121  13.351  1.00  0.00    -0.270 OA
BRANCH   5  12
HETATM   12  C4  UNL     1       1.342   8.087  11.410  1.00  0.00     0.242 C 
HETATM   13  N1  UNL     1       2.450   7.473  10.879  1.00  0.00    -0.356 N 
HETATM   14  H6  UNL     1       3.366   7.625  11.266  1.00  0.00     0.162 HD
HETATM   15  O1  UNL     1       0.281   8.125  10.780  1.00  0.00    -0.271 OA
BRANCH  13  16
HETATM   16  C3  UNL     1       2.382   6.859   9.576  1.00  0.00     0.149 C 
BRANCH  16  17
HETATM   17  C2  UNL     1       2.630   7.876   8.502  1.00  0.00    -0.018 C 
HETATM   18  C1  UNL     1       2.245   7.806   7.220  1.00  0.00     0.008 C 
ENDBRANCH  16  17
ENDBRANCH  13  16
ENDBRANCH   5  12
ENDBRANCH   2   3
BRANCH   2  19
HETATM   19  O3  UNL     1      -0.141   6.896  16.358  1.00  0.00    -0.384 OA
HETATM   20  H9  UNL     1       0.789   6.637  16.499  1.00  0.00     0.210 HD
ENDBRANCH   2  19
ENDBRANCH   1   2
BRANCH   1  21
HETATM   21  C9  UNL     1      -2.888   6.942  15.940  1.00  0.00     0.066 C 
BRANCH  21  22
HETATM   22  C10 UNL     1      -4.330   7.227  15.581  1.00  0.00    -0.056 A 
HETATM   23  C11 UNL     1      -5.309   6.239  15.769  1.00  0.00     0.007 A 
HETATM   24  C12 UNL     1      -6.639   6.486  15.427  1.00  0.00     0.001 A 
HETATM   25  C13 UNL     1      -7.006   7.721  14.896  1.00  0.00     0.000 A 
HETATM   26  C14 UNL     1      -6.042   8.711  14.711  1.00  0.00     0.001 A 
HETATM   27  C15 UNL     1      -4.712   8.467  15.054  1.00  0.00     0.007 A 
ENDBRANCH  21  22
ENDBRANCH   1  21
BRANCH   1  28
HETATM   28  N3  UNL     1      -2.541   5.361  14.064  1.00  0.00    -0.349 N 
HETATM   29  C16 UNL     1      -3.208   5.424  12.859  1.00  0.00     0.252 C 
HETATM   30  O4  UNL     1      -3.406   6.458  12.233  1.00  0.00    -0.268 OA
HETATM   31  H18 UNL     1      -2.575   4.489  14.581  1.00  0.00     0.163 HD
BRANCH  29  32
HETATM   32  C17 UNL     1      -3.763   4.136  12.376  1.00  0.00     0.040 A 
HETATM   33  C18 UNL     1      -5.160   4.012  12.398  1.00  0.00     0.018 A 
HETATM   34  C19 UNL     1      -5.761   2.817  12.007  1.00  0.00     0.004 A 
HETATM   35  C20 UNL     1      -4.971   1.747  11.593  1.00  0.00     0.037 A 
HETATM   36  C21 UNL     1      -3.582   1.884  11.552  1.00  0.00     0.072 A 
HETATM   37  C22 UNL     1      -2.950   3.081  11.918  1.00  0.00    -0.013 A 
HETATM   38  C23 UNL     1      -1.456   3.217  11.813  1.00  0.00     0.052 C 
BRANCH  36  39
HETATM   39  O5  UNL     1      -2.812   0.831  11.142  1.00  0.00    -0.360 OA
HETATM   40  H22 UNL     1      -3.390   0.136  10.787  1.00  0.00     0.217 HD
ENDBRANCH  36  39
ENDBRANCH  29  32
ENDBRANCH   1  28
TORSDOF 11
ENDMDL
MODEL 9
REMARK minimizedAffinity -7.65598869
REMARK CNNscore 0.186921909
REMARK CNNaffinity 6.40619421
REMARK  11 active torsions:
REMARK  status: ('A' for Active; 'I' for Inactive)
REMARK    1  A    between atoms: C2_2  and  C3_3 
REMARK    2  A    between atoms: C3_3  and  N1_4 
REMARK       I    between atoms: N1_4  and  C4_5 
REMARK    3  A    between atoms: C4_5  and  C5_7 
REMARK       I    between atoms: N2_8  and  C6_9 
REMARK    4  A    between atoms: C6_9  and  C7_11 
REMARK    5  A    between atoms: C7_11  and  O3_12 
REMARK    6  A    between atoms: C7_11  and  C8_13 
REMARK    7  A    between atoms: C8_13  and  C9_14 
REMARK    8  A    between atoms: C8_13  and  N3_21 
REMARK    9  A    between atoms: C9_14  and  C10_15 
REMARK       I    between atoms: N3_21  and  C16_22 
REMARK   10  A    between atoms: C16_22  and  C17_24 
REMARK   11  A    between atoms: C21_28  and  O5_29 
ROOT
HETATM    1  C8  UNL     1      -6.360   4.444  12.485  1.00  0.00     0.127 C 
ENDROOT
BRANCH   1   2
HETATM    2  C7  UNL     1      -7.479   4.171  13.529  1.00  0.00     0.233 C 
BRANCH   2   3
HETATM    3  C6  UNL     1      -8.362   5.404  13.817  1.00  0.00     0.252 C 
HETATM    4  N2  UNL     1      -8.781   5.662  15.118  1.00  0.00    -0.326 N 
HETATM    5  C5  UNL     1      -9.643   6.833  15.378  1.00  0.00     0.198 C 
HETATM    6  C24 UNL     1      -7.872   5.464  16.229  1.00  0.00     0.201 C 
HETATM    7  C25 UNL     1      -8.723   8.006  15.783  1.00  0.00     0.032 C 
HETATM    8  S1  UNL     1      -7.389   7.143  16.754  1.00  0.00    -0.137 SA
HETATM    9  C26 UNL     1      -9.386   8.991  16.755  1.00  0.00     0.029 C 
HETATM   10  C27 UNL     1      -8.036   8.746  14.634  1.00  0.00     0.029 C 
HETATM   11  O2  UNL     1      -8.640   6.158  12.877  1.00  0.00    -0.270 OA
BRANCH   5  12
HETATM   12  C4  UNL     1     -10.822   6.984  14.372  1.00  0.00     0.242 C 
HETATM   13  N1  UNL     1     -11.974   6.273  14.605  1.00  0.00    -0.356 N 
HETATM   14  H6  UNL     1     -12.008   5.549  15.302  1.00  0.00     0.162 HD
HETATM   15  O1  UNL     1     -10.698   7.664  13.350  1.00  0.00    -0.271 OA
BRANCH  13  16
HETATM   16  C3  UNL     1     -13.057   6.320  13.654  1.00  0.00     0.149 C 
BRANCH  16  17
HETATM   17  C2  UNL     1     -14.319   5.793  14.270  1.00  0.00    -0.018 C 
HETATM   18  C1  UNL     1     -14.925   6.243  15.378  1.00  0.00     0.008 C 
ENDBRANCH  16  17
ENDBRANCH  13  16
ENDBRANCH   5  12
ENDBRANCH   2   3
BRANCH   2  19
HETATM   19  O3  UNL     1      -8.309   3.049  13.229  1.00  0.00    -0.384 OA
HETATM   20  H9  UNL     1      -8.902   2.933  13.995  1.00  0.00     0.210 HD
ENDBRANCH   2  19
ENDBRANCH   1   2
BRANCH   1  21
HETATM   21  C9  UNL     1      -6.136   3.257  11.513  1.00  0.00     0.066 C 
BRANCH  21  22
HETATM   22  C10 UNL     1      -4.675   2.942  11.277  1.00  0.00    -0.056 A 
HETATM   23  C11 UNL     1      -4.099   1.804  11.862  1.00  0.00     0.007 A 
HETATM   24  C12 UNL     1      -2.749   1.512  11.664  1.00  0.00     0.001 A 
HETATM   25  C13 UNL     1      -1.961   2.352  10.881  1.00  0.00     0.000 A 
HETATM   26  C14 UNL     1      -2.524   3.483  10.291  1.00  0.00     0.001 A 
HETATM   27  C15 UNL     1      -3.874   3.775  10.485  1.00  0.00     0.007 A 
ENDBRANCH  21  22
ENDBRANCH   1  21
BRANCH   1  28
HETATM   28  N3  UNL     1      -5.097   4.789  13.160  1.00  0.00    -0.349 N 
HETATM   29  C16 UNL     1      -4.699   6.100  13.321  1.00  0.00     0.252 C 
HETATM   30  O4  UNL     1      -5.345   7.069  12.938  1.00  0.00    -0.268 OA
HETATM   31  H18 UNL     1      -4.421   4.060  13.359  1.00  0.00     0.163 HD
BRANCH  29  32
HETATM   32  C17 UNL     1      -3.362   6.284  13.935  1.00  0.00     0.040 A 
HETATM   33  C18 UNL     1      -2.346   5.428  13.485  1.00  0.00     0.018 A 
HETATM   34  C19 UNL     1      -1.073   5.501  14.046  1.00  0.00     0.004 A 
HETATM   35  C20 UNL     1      -0.811   6.426  15.053  1.00  0.00     0.037 A 
HETATM   36  C21 UNL     1      -1.821   7.290  15.482  1.00  0.00     0.072 A 
HETATM   37  C22 UNL     1      -3.105   7.256  14.921  1.00  0.00    -0.013 A 
HETATM   38  C23 UNL     1      -4.157   8.235  15.366  1.00  0.00     0.052 C 
BRANCH  36  39
HETATM   39  O5  UNL     1      -1.556   8.200  16.470  1.00  0.00    -0.360 OA
HETATM   40  H22 UNL     1      -0.602   8.202  16.650  1.00  0.00     0.217 HD
ENDBRANCH  36  39
ENDBRANCH  29  32
ENDBRANCH   1  28
TORSDOF 11
ENDMDL
