MODEL 1
REMARK minimizedAffinity -6.69940615
REMARK CNNscore 0.735034764
REMARK CNNaffinity 7.23216105
REMARK  5 active torsions:
REMARK  status: ('A' for Active; 'I' for Inactive)
REMARK    1  A    between atoms: C2_2  and  C3_3 
REMARK    2  A    between atoms: C8_8  and  C9_9 
REMARK    3  A    between atoms: C9_9  and  C11_11 
REMARK    4  A    between atoms: C11_11  and  C12_12 
REMARK    5  A    between atoms: C12_12  and  C13_13 
ROOT
HETATM    1  C3  UNL     1       1.860  55.203  -8.213  1.00  0.00    -0.032 C 
HETATM    2  C4  UNL     1       0.588  54.742  -7.399  1.00  0.00     0.011 C 
HETATM    3  C5  UNL     1      -0.146  53.485  -7.913  1.00  0.00     0.011 C 
HETATM    4  C6  UNL     1      -0.497  53.629  -9.401  1.00  0.00    -0.032 C 
HETATM    5  C7  UNL     1      -1.454  54.854  -9.542  1.00  0.00     0.016 C 
HETATM    6  C8  UNL     1      -1.129  52.399 -10.112  1.00  0.00    -0.002 C 
HETATM    7  C17 UNL     1      -0.852  52.695 -11.613  1.00  0.00     0.006 C 
HETATM    8  C18 UNL     1       0.287  53.754 -11.655  1.00  0.00     0.011 C 
HETATM    9  C19 UNL     1       0.856  53.768 -10.215  1.00  0.00    -0.032 C 
HETATM   10  C20 UNL     1       1.795  52.517 -10.157  1.00  0.00     0.016 C 
HETATM   11  C21 UNL     1       1.600  55.073  -9.767  1.00  0.00     0.003 C 
HETATM   12  C22 UNL     1       2.835  55.442 -10.586  1.00  0.00     0.006 C 
HETATM   13  C23 UNL     1       4.189  54.918 -10.133  1.00  0.00     0.006 C 
HETATM   14  C24 UNL     1       4.370  54.367  -8.702  1.00  0.00     0.005 C 
HETATM   15  C25 UNL     1       3.105  54.330  -7.780  1.00  0.00    -0.000 C 
HETATM   16  C26 UNL     1       3.488  54.404  -6.282  1.00  0.00     0.013 C 
HETATM   17  C27 UNL     1       4.717  53.562  -5.986  1.00  0.00     0.079 C 
HETATM   18  C28 UNL     1       5.924  54.141  -6.676  1.00  0.00     0.135 C 
HETATM   19  O1  UNL     1       7.034  54.044  -6.150  1.00  0.00    -0.297 OA
HETATM   20  C29 UNL     1       5.721  54.833  -8.033  1.00  0.00     0.017 C 
HETATM   21  C30 UNL     1       6.920  54.424  -8.924  1.00  0.00     0.023 C 
HETATM   22  C31 UNL     1       5.802  56.348  -7.782  1.00  0.00     0.023 C 
ENDROOT
BRANCH   6  23
HETATM   23  C9  UNL     1      -2.526  51.841  -9.718  1.00  0.00    -0.014 C 
HETATM   24  C10 UNL     1      -2.349  50.682  -8.717  1.00  0.00     0.010 C 
BRANCH  23  25
HETATM   25  C11 UNL     1      -3.603  51.494 -10.773  1.00  0.00     0.008 C 
BRANCH  25  26
HETATM   26  C12 UNL     1      -4.947  50.877 -10.376  1.00  0.00     0.028 C 
BRANCH  26  27
HETATM   27  C13 UNL     1      -5.217  49.504 -10.921  1.00  0.00    -0.025 C 
HETATM   28  C14 UNL     1      -6.404  48.873 -10.993  1.00  0.00    -0.091 C 
HETATM   29  C15 UNL     1      -7.707  49.431 -10.492  1.00  0.00     0.042 C 
HETATM   30  C16 UNL     1      -6.507  47.496 -11.594  1.00  0.00     0.042 C 
ENDBRANCH  26  27
ENDBRANCH  25  26
ENDBRANCH  23  25
ENDBRANCH   6  23
BRANCH   1  31
HETATM   31  C2  UNL     1       2.161  56.699  -7.830  1.00  0.00     0.006 C 
HETATM   32  C1  UNL     1       1.327  57.338  -6.720  1.00  0.00     0.006 C 
ENDBRANCH   1  31
TORSDOF 5
ENDMDL
MODEL 2
REMARK minimizedAffinity -6.92908764
REMARK CNNscore 0.601605952
REMARK CNNaffinity 7.18345022
REMARK  5 active torsions:
REMARK  status: ('A' for Active; 'I' for Inactive)
REMARK    1  A    between atoms: C2_2  and  C3_3 
REMARK    2  A    between atoms: C8_8  and  C9_9 
REMARK    3  A    between atoms: C9_9  and  C11_11 
REMARK    4  A    between atoms: C11_11  and  C12_12 
REMARK    5  A    between atoms: C12_12  and  C13_13 
ROOT
HETATM    1  C3  UNL     1       2.328  55.915  -7.637  1.00  0.00    -0.032 C 
HETATM    2  C4  UNL     1       0.982  55.601  -6.873  1.00  0.00     0.011 C 
HETATM    3  C5  UNL     1       0.134  54.432  -7.417  1.00  0.00     0.011 C 
HETATM    4  C6  UNL     1      -0.140  54.609  -8.917  1.00  0.00    -0.032 C 
HETATM    5  C7  UNL     1      -0.949  55.932  -9.095  1.00  0.00     0.016 C 
HETATM    6  C8  UNL     1      -0.877  53.454  -9.654  1.00  0.00    -0.002 C 
HETATM    7  C17 UNL     1      -0.510  53.712 -11.142  1.00  0.00     0.006 C 
HETATM    8  C18 UNL     1       0.741  54.639 -11.138  1.00  0.00     0.011 C 
HETATM    9  C19 UNL     1       1.251  54.594  -9.678  1.00  0.00    -0.032 C 
HETATM   10  C20 UNL     1       2.041  53.247  -9.584  1.00  0.00     0.016 C 
HETATM   11  C21 UNL     1       2.116  55.810  -9.199  1.00  0.00     0.003 C 
HETATM   12  C22 UNL     1       3.417  56.036  -9.969  1.00  0.00     0.006 C 
HETATM   13  C23 UNL     1       4.684  55.367  -9.464  1.00  0.00     0.006 C 
HETATM   14  C24 UNL     1       4.747  54.804  -8.027  1.00  0.00     0.005 C 
HETATM   15  C25 UNL     1       3.451  54.911  -7.155  1.00  0.00    -0.000 C 
HETATM   16  C26 UNL     1       3.781  54.947  -5.643  1.00  0.00     0.013 C 
HETATM   17  C27 UNL     1       4.896  53.975  -5.300  1.00  0.00     0.079 C 
HETATM   18  C28 UNL     1       6.186  54.414  -5.941  1.00  0.00     0.135 C 
HETATM   19  O1  UNL     1       7.257  54.196  -5.373  1.00  0.00    -0.297 OA
HETATM   20  C29 UNL     1       6.114  55.120  -7.305  1.00  0.00     0.017 C 
HETATM   21  C30 UNL     1       7.295  54.577  -8.148  1.00  0.00     0.023 C 
HETATM   22  C31 UNL     1       6.353  56.617  -7.049  1.00  0.00     0.023 C 
ENDROOT
BRANCH   6  23
HETATM   23  C9  UNL     1      -2.341  53.056  -9.315  1.00  0.00    -0.014 C 
HETATM   24  C10 UNL     1      -2.411  51.538  -9.060  1.00  0.00     0.010 C 
BRANCH  23  25
HETATM   25  C11 UNL     1      -3.541  53.524 -10.172  1.00  0.00     0.008 C 
BRANCH  25  26
HETATM   26  C12 UNL     1      -4.246  52.580 -11.151  1.00  0.00     0.028 C 
BRANCH  26  27
HETATM   27  C13 UNL     1      -3.550  52.370 -12.465  1.00  0.00    -0.025 C 
HETATM   28  C14 UNL     1      -3.111  51.206 -12.980  1.00  0.00    -0.091 C 
HETATM   29  C15 UNL     1      -3.210  49.871 -12.295  1.00  0.00     0.042 C 
HETATM   30  C16 UNL     1      -2.448  51.165 -14.331  1.00  0.00     0.042 C 
ENDBRANCH  26  27
ENDBRANCH  25  26
ENDBRANCH  23  25
ENDBRANCH   6  23
BRANCH   1  31
HETATM   31  C2  UNL     1       2.778  57.370  -7.241  1.00  0.00     0.006 C 
HETATM   32  C1  UNL     1       2.256  57.951  -5.927  1.00  0.00     0.006 C 
ENDBRANCH   1  31
TORSDOF 5
ENDMDL
MODEL 3
REMARK minimizedAffinity -6.35462046
REMARK CNNscore 0.522029519
REMARK CNNaffinity 5.95321894
REMARK  5 active torsions:
REMARK  status: ('A' for Active; 'I' for Inactive)
REMARK    1  A    between atoms: C2_2  and  C3_3 
REMARK    2  A    between atoms: C8_8  and  C9_9 
REMARK    3  A    between atoms: C9_9  and  C11_11 
REMARK    4  A    between atoms: C11_11  and  C12_12 
REMARK    5  A    between atoms: C12_12  and  C13_13 
ROOT
HETATM    1  C3  UNL     1     -14.263  44.833 -25.541  1.00  0.00    -0.032 C 
HETATM    2  C4  UNL     1     -13.127  45.731 -24.909  1.00  0.00     0.011 C 
HETATM    3  C5  UNL     1     -12.338  46.635 -25.880  1.00  0.00     0.011 C 
HETATM    4  C6  UNL     1     -11.774  45.817 -27.050  1.00  0.00    -0.032 C 
HETATM    5  C7  UNL     1     -10.795  44.757 -26.454  1.00  0.00     0.016 C 
HETATM    6  C8  UNL     1     -11.057  46.595 -28.190  1.00  0.00    -0.002 C 
HETATM    7  C17 UNL     1     -11.110  45.589 -29.373  1.00  0.00     0.006 C 
HETATM    8  C18 UNL     1     -12.221  44.554 -29.028  1.00  0.00     0.011 C 
HETATM    9  C19 UNL     1     -12.993  45.194 -27.849  1.00  0.00    -0.032 C 
HETATM   10  C20 UNL     1     -13.942  46.237 -28.527  1.00  0.00     0.016 C 
HETATM   11  C21 UNL     1     -13.781  44.215 -26.913  1.00  0.00     0.003 C 
HETATM   12  C22 UNL     1     -14.881  43.399 -27.590  1.00  0.00     0.006 C 
HETATM   13  C23 UNL     1     -16.291  43.967 -27.621  1.00  0.00     0.006 C 
HETATM   14  C24 UNL     1     -16.683  45.125 -26.679  1.00  0.00     0.005 C 
HETATM   15  C25 UNL     1     -15.566  45.705 -25.747  1.00  0.00    -0.000 C 
HETATM   16  C26 UNL     1     -16.162  46.336 -24.465  1.00  0.00     0.013 C 
HETATM   17  C27 UNL     1     -17.429  47.114 -24.773  1.00  0.00     0.079 C 
HETATM   18  C28 UNL     1     -18.517  46.180 -25.231  1.00  0.00     0.135 C 
HETATM   19  O1  UNL     1     -19.693  46.431 -24.961  1.00  0.00    -0.297 OA
HETATM   20  C29 UNL     1     -18.112  44.936 -26.037  1.00  0.00     0.017 C 
HETATM   21  C30 UNL     1     -19.174  44.766 -27.153  1.00  0.00     0.023 C 
HETATM   22  C31 UNL     1     -18.215  43.731 -25.087  1.00  0.00     0.023 C 
ENDROOT
BRANCH   6  23
HETATM   23  C9  UNL     1      -9.738  47.383 -27.953  1.00  0.00    -0.014 C 
HETATM   24  C10 UNL     1      -9.794  48.068 -26.574  1.00  0.00     0.010 C 
BRANCH  23  25
HETATM   25  C11 UNL     1      -9.145  48.338 -29.016  1.00  0.00     0.008 C 
BRANCH  25  26
HETATM   26  C12 UNL     1      -9.712  48.410 -30.437  1.00  0.00     0.028 C 
BRANCH  26  27
HETATM   27  C13 UNL     1      -8.701  48.317 -31.543  1.00  0.00    -0.025 C 
HETATM   28  C14 UNL     1      -8.732  47.497 -32.612  1.00  0.00    -0.091 C 
HETATM   29  C15 UNL     1      -9.798  46.471 -32.877  1.00  0.00     0.042 C 
HETATM   30  C16 UNL     1      -7.643  47.546 -33.650  1.00  0.00     0.042 C 
ENDBRANCH  26  27
ENDBRANCH  25  26
ENDBRANCH  23  25
ENDBRANCH   6  23
BRANCH   1  31
HETATM   31  C2  UNL     1     -14.602  43.691 -24.513  1.00  0.00     0.006 C 
HETATM   32  C1  UNL     1     -13.892  43.708 -23.159  1.00  0.00     0.006 C 
ENDBRANCH   1  31
TORSDOF 5
ENDMDL
MODEL 4
REMARK minimizedAffinity -6.48936367
REMARK CNNscore 0.426372707
REMARK CNNaffinity 6.6717701
REMARK  5 active torsions:
REMARK  status: ('A' for Active; 'I' for Inactive)
REMARK    1  A    between atoms: C2_2  and  C3_3 
REMARK    2  A    between atoms: C8_8  and  C9_9 
REMARK    3  A    between atoms: C9_9  and  C11_11 
REMARK    4  A    between atoms: C11_11  and  C12_12 
REMARK    5  A    between atoms: C12_12  and  C13_13 
ROOT
HETATM    1  C3  UNL     1       0.509  52.772  -8.752  1.00  0.00    -0.032 C 
HETATM    2  C4  UNL     1       0.504  53.646  -7.437  1.00  0.00     0.011 C 
HETATM    3  C5  UNL     1       1.252  54.996  -7.500  1.00  0.00     0.011 C 
HETATM    4  C6  UNL     1       2.691  54.799  -7.997  1.00  0.00    -0.032 C 
HETATM    5  C7  UNL     1       3.421  53.875  -6.972  1.00  0.00     0.016 C 
HETATM    6  C8  UNL     1       3.547  56.074  -8.240  1.00  0.00    -0.002 C 
HETATM    7  C17 UNL     1       4.660  55.560  -9.194  1.00  0.00     0.006 C 
HETATM    8  C18 UNL     1       4.137  54.229  -9.812  1.00  0.00     0.011 C 
HETATM    9  C19 UNL     1       2.629  54.210  -9.468  1.00  0.00    -0.032 C 
HETATM   10  C20 UNL     1       1.976  55.155 -10.531  1.00  0.00     0.016 C 
HETATM   11  C21 UNL     1       1.934  52.805  -9.435  1.00  0.00     0.003 C 
HETATM   12  C22 UNL     1       1.956  52.029 -10.751  1.00  0.00     0.006 C 
HETATM   13  C23 UNL     1       0.796  52.206 -11.717  1.00  0.00     0.006 C 
HETATM   14  C24 UNL     1      -0.530  52.832 -11.233  1.00  0.00     0.005 C 
HETATM   15  C25 UNL     1      -0.599  53.310  -9.744  1.00  0.00    -0.000 C 
HETATM   16  C26 UNL     1      -2.050  53.290  -9.204  1.00  0.00     0.013 C 
HETATM   17  C27 UNL     1      -3.032  53.788 -10.249  1.00  0.00     0.079 C 
HETATM   18  C28 UNL     1      -3.088  52.833 -11.411  1.00  0.00     0.135 C 
HETATM   19  O1  UNL     1      -4.145  52.676 -12.025  1.00  0.00    -0.297 OA
HETATM   20  C29 UNL     1      -1.801  52.085 -11.797  1.00  0.00     0.017 C 
HETATM   21  C30 UNL     1      -1.753  52.055 -13.345  1.00  0.00     0.023 C 
HETATM   22  C31 UNL     1      -1.951  50.641 -11.291  1.00  0.00     0.023 C 
ENDROOT
BRANCH   6  23
HETATM   23  C9  UNL     1       3.954  57.031  -7.084  1.00  0.00    -0.014 C 
HETATM   24  C10 UNL     1       2.995  58.238  -7.059  1.00  0.00     0.010 C 
BRANCH  23  25
HETATM   25  C11 UNL     1       5.416  57.489  -6.869  1.00  0.00     0.008 C 
BRANCH  25  26
HETATM   26  C12 UNL     1       6.071  57.461  -5.484  1.00  0.00     0.028 C 
BRANCH  26  27
HETATM   27  C13 UNL     1       7.020  58.588  -5.194  1.00  0.00    -0.025 C 
HETATM   28  C14 UNL     1       8.356  58.511  -5.036  1.00  0.00    -0.091 C 
HETATM   29  C15 UNL     1       9.156  57.240  -5.088  1.00  0.00     0.042 C 
HETATM   30  C16 UNL     1       9.171  59.749  -4.770  1.00  0.00     0.042 C 
ENDBRANCH  26  27
ENDBRANCH  25  26
ENDBRANCH  23  25
ENDBRANCH   6  23
BRANCH   1  31
HETATM   31  C2  UNL     1       0.127  51.298  -8.353  1.00  0.00     0.006 C 
HETATM   32  C1  UNL     1      -0.473  51.063  -6.966  1.00  0.00     0.006 C 
ENDBRANCH   1  31
TORSDOF 5
ENDMDL
MODEL 5
REMARK minimizedAffinity -7.04234266
REMARK CNNscore 0.414081216
REMARK CNNaffinity 6.33709764
REMARK  5 active torsions:
REMARK  status: ('A' for Active; 'I' for Inactive)
REMARK    1  A    between atoms: C2_2  and  C3_3 
REMARK    2  A    between atoms: C8_8  and  C9_9 
REMARK    3  A    between atoms: C9_9  and  C11_11 
REMARK    4  A    between atoms: C11_11  and  C12_12 
REMARK    5  A    between atoms: C12_12  and  C13_13 
ROOT
HETATM    1  C3  UNL     1      -1.541  51.095 -11.080  1.00  0.00    -0.032 C 
HETATM    2  C4  UNL     1      -0.012  50.991 -10.698  1.00  0.00     0.011 C 
HETATM    3  C5  UNL     1       0.497  51.963  -9.611  1.00  0.00     0.011 C 
HETATM    4  C6  UNL     1       0.139  53.413  -9.965  1.00  0.00    -0.032 C 
HETATM    5  C7  UNL     1       0.851  53.758 -11.311  1.00  0.00     0.016 C 
HETATM    6  C8  UNL     1       0.469  54.510  -8.913  1.00  0.00    -0.002 C 
HETATM    7  C17 UNL     1      -0.465  55.678  -9.337  1.00  0.00     0.006 C 
HETATM    8  C18 UNL     1      -1.571  55.058 -10.240  1.00  0.00     0.011 C 
HETATM    9  C19 UNL     1      -1.440  53.532 -10.020  1.00  0.00    -0.032 C 
HETATM   10  C20 UNL     1      -2.171  53.273  -8.660  1.00  0.00     0.016 C 
HETATM   11  C21 UNL     1      -1.991  52.608 -11.160  1.00  0.00     0.003 C 
HETATM   12  C22 UNL     1      -3.483  52.746 -11.456  1.00  0.00     0.006 C 
HETATM   13  C23 UNL     1      -4.456  51.843 -10.716  1.00  0.00     0.006 C 
HETATM   14  C24 UNL     1      -3.946  50.580  -9.990  1.00  0.00     0.005 C 
HETATM   15  C25 UNL     1      -2.404  50.311 -10.012  1.00  0.00    -0.000 C 
HETATM   16  C26 UNL     1      -2.084  48.803  -9.868  1.00  0.00     0.013 C 
HETATM   17  C27 UNL     1      -2.995  48.143  -8.848  1.00  0.00     0.079 C 
HETATM   18  C28 UNL     1      -4.418  48.145  -9.341  1.00  0.00     0.135 C 
HETATM   19  O1  UNL     1      -5.170  47.215  -9.044  1.00  0.00    -0.297 OA
HETATM   20  C29 UNL     1      -4.885  49.330 -10.201  1.00  0.00     0.017 C 
HETATM   21  C30 UNL     1      -6.326  49.669  -9.744  1.00  0.00     0.023 C 
HETATM   22  C31 UNL     1      -4.946  48.834 -11.655  1.00  0.00     0.023 C 
ENDROOT
BRANCH   6  23
HETATM   23  C9  UNL     1       1.928  54.849  -8.499  1.00  0.00    -0.014 C 
HETATM   24  C10 UNL     1       2.106  54.581  -6.991  1.00  0.00     0.010 C 
BRANCH  23  25
HETATM   25  C11 UNL     1       2.613  56.176  -8.903  1.00  0.00     0.008 C 
BRANCH  25  26
HETATM   26  C12 UNL     1       3.554  56.260 -10.110  1.00  0.00     0.028 C 
BRANCH  26  27
HETATM   27  C13 UNL     1       4.724  55.319 -10.086  1.00  0.00    -0.025 C 
HETATM   28  C14 UNL     1       5.655  55.198  -9.120  1.00  0.00    -0.091 C 
HETATM   29  C15 UNL     1       5.712  56.033  -7.872  1.00  0.00     0.042 C 
HETATM   30  C16 UNL     1       6.759  54.181  -9.240  1.00  0.00     0.042 C 
ENDBRANCH  26  27
ENDBRANCH  25  26
ENDBRANCH  23  25
ENDBRANCH   6  23
BRANCH   1  31
HETATM   31  C2  UNL     1      -1.738  50.390 -12.474  1.00  0.00     0.006 C 
HETATM   32  C1  UNL     1      -1.050  51.004 -13.693  1.00  0.00     0.006 C 
ENDBRANCH   1  31
TORSDOF 5
ENDMDL
MODEL 6
REMARK minimizedAffinity -6.51419878
REMARK CNNscore 0.388451338
REMARK CNNaffinity 6.02251244
REMARK  5 active torsions:
REMARK  status: ('A' for Active; 'I' for Inactive)
REMARK    1  A    between atoms: C2_2  and  C3_3 
REMARK    2  A    between atoms: C8_8  and  C9_9 
REMARK    3  A    between atoms: C9_9  and  C11_11 
REMARK    4  A    between atoms: C11_11  and  C12_12 
REMARK    5  A    between atoms: C12_12  and  C13_13 
ROOT
HETATM    1  C3  UNL     1       3.480  55.083  -9.328  1.00  0.00    -0.032 C 
HETATM    2  C4  UNL     1       4.589  55.731  -8.409  1.00  0.00     0.011 C 
HETATM    3  C5  UNL     1       4.225  55.931  -6.921  1.00  0.00     0.011 C 
HETATM    4  C6  UNL     1       2.906  56.704  -6.782  1.00  0.00    -0.032 C 
HETATM    5  C7  UNL     1       3.112  58.108  -7.435  1.00  0.00     0.016 C 
HETATM    6  C8  UNL     1       2.327  56.883  -5.350  1.00  0.00    -0.002 C 
HETATM    7  C17 UNL     1       0.830  57.196  -5.626  1.00  0.00     0.006 C 
HETATM    8  C18 UNL     1       0.535  56.717  -7.077  1.00  0.00     0.011 C 
HETATM    9  C19 UNL     1       1.756  55.843  -7.451  1.00  0.00    -0.032 C 
HETATM   10  C20 UNL     1       1.474  54.466  -6.761  1.00  0.00     0.016 C 
HETATM   11  C21 UNL     1       2.057  55.675  -8.981  1.00  0.00     0.003 C 
HETATM   12  C22 UNL     1       0.948  55.017  -9.801  1.00  0.00     0.006 C 
HETATM   13  C23 UNL     1       0.972  53.507  -9.975  1.00  0.00     0.006 C 
HETATM   14  C24 UNL     1       2.260  52.710  -9.671  1.00  0.00     0.005 C 
HETATM   15  C25 UNL     1       3.495  53.513  -9.141  1.00  0.00    -0.000 C 
HETATM   16  C26 UNL     1       4.828  52.808  -9.490  1.00  0.00     0.013 C 
HETATM   17  C27 UNL     1       4.717  51.304  -9.313  1.00  0.00     0.079 C 
HETATM   18  C28 UNL     1       3.754  50.730 -10.317  1.00  0.00     0.135 C 
HETATM   19  O1  UNL     1       3.941  49.598 -10.767  1.00  0.00    -0.297 OA
HETATM   20  C29 UNL     1       2.552  51.588 -10.742  1.00  0.00     0.017 C 
HETATM   21  C30 UNL     1       1.339  50.631 -10.848  1.00  0.00     0.023 C 
HETATM   22  C31 UNL     1       2.861  52.132 -12.146  1.00  0.00     0.023 C 
ENDROOT
BRANCH   6  23
HETATM   23  C9  UNL     1       3.061  57.710  -4.257  1.00  0.00    -0.014 C 
HETATM   24  C10 UNL     1       2.024  58.486  -3.421  1.00  0.00     0.010 C 
BRANCH  23  25
HETATM   25  C11 UNL     1       4.283  58.603  -4.579  1.00  0.00     0.008 C 
BRANCH  25  26
HETATM   26  C12 UNL     1       5.717  58.076  -4.463  1.00  0.00     0.028 C 
BRANCH  26  27
HETATM   27  C13 UNL     1       6.800  59.098  -4.656  1.00  0.00    -0.025 C 
HETATM   28  C14 UNL     1       8.101  58.869  -4.921  1.00  0.00    -0.091 C 
HETATM   29  C15 UNL     1       8.728  57.508  -5.037  1.00  0.00     0.042 C 
HETATM   30  C16 UNL     1       9.059  60.015  -5.111  1.00  0.00     0.042 C 
ENDBRANCH  26  27
ENDBRANCH  25  26
ENDBRANCH  23  25
ENDBRANCH   6  23
BRANCH   1  31
HETATM   31  C2  UNL     1       3.853  55.396 -10.825  1.00  0.00     0.006 C 
HETATM   32  C1  UNL     1       3.608  56.812 -11.346  1.00  0.00     0.006 C 
ENDBRANCH   1  31
TORSDOF 5
ENDMDL
MODEL 7
REMARK minimizedAffinity -6.81389713
REMARK CNNscore 0.382436395
REMARK CNNaffinity 5.68023872
REMARK  5 active torsions:
REMARK  status: ('A' for Active; 'I' for Inactive)
REMARK    1  A    between atoms: C2_2  and  C3_3 
REMARK    2  A    between atoms: C8_8  and  C9_9 
REMARK    3  A    between atoms: C9_9  and  C11_11 
REMARK    4  A    between atoms: C11_11  and  C12_12 
REMARK    5  A    between atoms: C12_12  and  C13_13 
ROOT
HETATM    1  C3  UNL     1     -12.861  44.955 -26.054  1.00  0.00    -0.032 C 
HETATM    2  C4  UNL     1     -11.608  45.758 -25.525  1.00  0.00     0.011 C 
HETATM    3  C5  UNL     1     -10.945  46.739 -26.517  1.00  0.00     0.011 C 
HETATM    4  C6  UNL     1     -10.600  46.032 -27.835  1.00  0.00    -0.032 C 
HETATM    5  C7  UNL     1      -9.582  44.895 -27.506  1.00  0.00     0.016 C 
HETATM    6  C8  UNL     1     -10.039  46.905 -28.992  1.00  0.00    -0.002 C 
HETATM    7  C17 UNL     1     -10.313  46.026 -30.245  1.00  0.00     0.006 C 
HETATM    8  C18 UNL     1     -11.396  44.987 -29.831  1.00  0.00     0.011 C 
HETATM    9  C19 UNL     1     -11.951  45.520 -28.489  1.00  0.00    -0.032 C 
HETATM   10  C20 UNL     1     -12.953  46.648 -28.904  1.00  0.00     0.016 C 
HETATM   11  C21 UNL     1     -12.621  44.469 -27.539  1.00  0.00     0.003 C 
HETATM   12  C22 UNL     1     -13.843  43.751 -28.110  1.00  0.00     0.006 C 
HETATM   13  C23 UNL     1     -15.218  44.350 -27.863  1.00  0.00     0.006 C 
HETATM   14  C24 UNL     1     -15.416  45.415 -26.763  1.00  0.00     0.005 C 
HETATM   15  C25 UNL     1     -14.147  45.872 -25.967  1.00  0.00    -0.000 C 
HETATM   16  C26 UNL     1     -14.512  46.382 -24.552  1.00  0.00     0.013 C 
HETATM   17  C27 UNL     1     -15.781  47.216 -24.579  1.00  0.00     0.079 C 
HETATM   18  C28 UNL     1     -16.962  46.358 -24.948  1.00  0.00     0.135 C 
HETATM   19  O1  UNL     1     -18.072  46.606 -24.472  1.00  0.00    -0.297 OA
HETATM   20  C29 UNL     1     -16.734  45.193 -25.925  1.00  0.00     0.017 C 
HETATM   21  C30 UNL     1     -17.961  45.162 -26.870  1.00  0.00     0.023 C 
HETATM   22  C31 UNL     1     -16.734  43.901 -25.093  1.00  0.00     0.023 C 
ENDROOT
BRANCH   6  23
HETATM   23  C9  UNL     1      -8.670  47.635 -28.891  1.00  0.00    -0.014 C 
HETATM   24  C10 UNL     1      -8.679  48.867 -29.818  1.00  0.00     0.010 C 
BRANCH  23  25
HETATM   25  C11 UNL     1      -7.324  46.881 -28.996  1.00  0.00     0.008 C 
BRANCH  25  26
HETATM   26  C12 UNL     1      -5.995  47.553 -28.634  1.00  0.00     0.028 C 
BRANCH  26  27
HETATM   27  C13 UNL     1      -5.783  47.822 -27.173  1.00  0.00    -0.025 C 
HETATM   28  C14 UNL     1      -4.658  48.265 -26.579  1.00  0.00    -0.091 C 
HETATM   29  C15 UNL     1      -3.362  48.542 -27.290  1.00  0.00     0.042 C 
HETATM   30  C16 UNL     1      -4.617  48.508 -25.094  1.00  0.00     0.042 C 
ENDBRANCH  26  27
ENDBRANCH  25  26
ENDBRANCH  23  25
ENDBRANCH   6  23
BRANCH   1  31
HETATM   31  C2  UNL     1     -13.080  43.722 -25.102  1.00  0.00     0.006 C 
HETATM   32  C1  UNL     1     -12.153  43.572 -23.895  1.00  0.00     0.006 C 
ENDBRANCH   1  31
TORSDOF 5
ENDMDL
MODEL 8
REMARK minimizedAffinity -6.42286062
REMARK CNNscore 0.349827021
REMARK CNNaffinity 5.85704803
REMARK  5 active torsions:
REMARK  status: ('A' for Active; 'I' for Inactive)
REMARK    1  A    between atoms: C2_2  and  C3_3 
REMARK    2  A    between atoms: C8_8  and  C9_9 
REMARK    3  A    between atoms: C9_9  and  C11_11 
REMARK    4  A    between atoms: C11_11  and  C12_12 
REMARK    5  A    between atoms: C12_12  and  C13_13 
ROOT
HETATM    1  C3  UNL     1       3.267  55.038  -9.307  1.00  0.00    -0.032 C 
HETATM    2  C4  UNL     1       4.277  55.644  -8.255  1.00  0.00     0.011 C 
HETATM    3  C5  UNL     1       3.755  55.811  -6.811  1.00  0.00     0.011 C 
HETATM    4  C6  UNL     1       2.440  56.601  -6.794  1.00  0.00    -0.032 C 
HETATM    5  C7  UNL     1       2.733  58.017  -7.381  1.00  0.00     0.016 C 
HETATM    6  C8  UNL     1       1.710  56.752  -5.428  1.00  0.00    -0.002 C 
HETATM    7  C17 UNL     1       0.256  57.095  -5.856  1.00  0.00     0.006 C 
HETATM    8  C18 UNL     1       0.115  56.659  -7.344  1.00  0.00     0.011 C 
HETATM    9  C19 UNL     1       1.358  55.775  -7.607  1.00  0.00    -0.032 C 
HETATM   10  C20 UNL     1       0.985  54.386  -6.991  1.00  0.00     0.016 C 
HETATM   11  C21 UNL     1       1.821  55.643  -9.099  1.00  0.00     0.003 C 
HETATM   12  C22 UNL     1       0.800  55.024 -10.053  1.00  0.00     0.006 C 
HETATM   13  C23 UNL     1       0.824  53.519 -10.264  1.00  0.00     0.006 C 
HETATM   14  C24 UNL     1       2.060  52.694  -9.846  1.00  0.00     0.005 C 
HETATM   15  C25 UNL     1       3.240  53.463  -9.162  1.00  0.00    -0.000 C 
HETATM   16  C26 UNL     1       4.594  52.747  -9.384  1.00  0.00     0.013 C 
HETATM   17  C27 UNL     1       4.445  51.240  -9.261  1.00  0.00     0.079 C 
HETATM   18  C28 UNL     1       3.590  50.708 -10.380  1.00  0.00     0.135 C 
HETATM   19  O1  UNL     1       3.811  49.585 -10.838  1.00  0.00    -0.297 OA
HETATM   20  C29 UNL     1       2.453  51.596 -10.909  1.00  0.00     0.017 C 
HETATM   21  C30 UNL     1       1.246  50.661 -11.172  1.00  0.00     0.023 C 
HETATM   22  C31 UNL     1       2.920  52.171 -12.256  1.00  0.00     0.023 C 
ENDROOT
BRANCH   6  23
HETATM   23  C9  UNL     1       2.332  57.538  -4.240  1.00  0.00    -0.014 C 
HETATM   24  C10 UNL     1       1.204  58.063  -3.330  1.00  0.00     0.010 C 
BRANCH  23  25
HETATM   25  C11 UNL     1       3.419  58.620  -4.445  1.00  0.00     0.008 C 
BRANCH  25  26
HETATM   26  C12 UNL     1       3.559  59.810  -3.490  1.00  0.00     0.028 C 
BRANCH  26  27
HETATM   27  C13 UNL     1       4.216  61.030  -4.067  1.00  0.00    -0.025 C 
HETATM   28  C14 UNL     1       3.961  62.317  -3.762  1.00  0.00    -0.091 C 
HETATM   29  C15 UNL     1       2.916  62.778  -2.785  1.00  0.00     0.042 C 
HETATM   30  C16 UNL     1       4.732  63.430  -4.420  1.00  0.00     0.042 C 
ENDBRANCH  26  27
ENDBRANCH  25  26
ENDBRANCH  23  25
ENDBRANCH   6  23
BRANCH   1  31
HETATM   31  C2  UNL     1       3.804  55.383 -10.745  1.00  0.00     0.006 C 
HETATM   32  C1  UNL     1       3.610  56.809 -11.261  1.00  0.00     0.006 C 
ENDBRANCH   1  31
TORSDOF 5
ENDMDL
MODEL 9
REMARK minimizedAffinity -6.15282536
REMARK CNNscore 0.328289628
REMARK CNNaffinity 5.79800034
REMARK  5 active torsions:
REMARK  status: ('A' for Active; 'I' for Inactive)
REMARK    1  A    between atoms: C2_2  and  C3_3 
REMARK    2  A    between atoms: C8_8  and  C9_9 
REMARK    3  A    between atoms: C9_9  and  C11_11 
REMARK    4  A    between atoms: C11_11  and  C12_12 
REMARK    5  A    between atoms: C12_12  and  C13_13 
ROOT
HETATM    1  C3  UNL     1      -8.970  47.474 -29.475  1.00  0.00    -0.032 C 
HETATM    2  C4  UNL     1      -9.094  48.457 -28.246  1.00  0.00     0.011 C 
HETATM    3  C5  UNL     1      -9.267  47.809 -26.855  1.00  0.00     0.011 C 
HETATM    4  C6  UNL     1     -10.438  46.817 -26.858  1.00  0.00    -0.032 C 
HETATM    5  C7  UNL     1     -11.734  47.621 -27.194  1.00  0.00     0.016 C 
HETATM    6  C8  UNL     1     -10.673  45.980 -25.568  1.00  0.00    -0.002 C 
HETATM    7  C17 UNL     1     -11.518  44.784 -26.089  1.00  0.00     0.006 C 
HETATM    8  C18 UNL     1     -11.315  44.733 -27.631  1.00  0.00     0.011 C 
HETATM    9  C19 UNL     1     -10.106  45.664 -27.893  1.00  0.00    -0.032 C 
HETATM   10  C20 UNL     1      -8.859  44.790 -27.532  1.00  0.00     0.016 C 
HETATM   11  C21 UNL     1      -9.990  46.276 -29.331  1.00  0.00     0.003 C 
HETATM   12  C22 UNL     1      -9.847  45.264 -30.468  1.00  0.00     0.006 C 
HETATM   13  C23 UNL     1      -8.450  44.847 -30.897  1.00  0.00     0.006 C 
HETATM   14  C24 UNL     1      -7.225  45.690 -30.480  1.00  0.00     0.005 C 
HETATM   15  C25 UNL     1      -7.486  46.937 -29.570  1.00  0.00    -0.000 C 
HETATM   16  C26 UNL     1      -6.392  48.017 -29.754  1.00  0.00     0.013 C 
HETATM   17  C27 UNL     1      -5.014  47.390 -29.874  1.00  0.00     0.079 C 
HETATM   18  C28 UNL     1      -4.916  46.585 -31.142  1.00  0.00     0.135 C 
HETATM   19  O1  UNL     1      -3.839  46.509 -31.737  1.00  0.00    -0.297 OA
HETATM   20  C29 UNL     1      -6.180  45.871 -31.648  1.00  0.00     0.017 C 
HETATM   21  C30 UNL     1      -5.727  44.485 -32.171  1.00  0.00     0.023 C 
HETATM   22  C31 UNL     1      -6.710  46.686 -32.838  1.00  0.00     0.023 C 
ENDROOT
BRANCH   6  23
HETATM   23  C9  UNL     1     -11.079  46.635 -24.218  1.00  0.00    -0.014 C 
HETATM   24  C10 UNL     1      -9.823  46.820 -23.343  1.00  0.00     0.010 C 
BRANCH  23  25
HETATM   25  C11 UNL     1     -12.264  46.113 -23.371  1.00  0.00     0.008 C 
BRANCH  25  26
HETATM   26  C12 UNL     1     -13.384  47.044 -22.896  1.00  0.00     0.028 C 
BRANCH  26  27
HETATM   27  C13 UNL     1     -14.226  46.522 -21.769  1.00  0.00    -0.025 C 
HETATM   28  C14 UNL     1     -14.493  47.132 -20.597  1.00  0.00    -0.091 C 
HETATM   29  C15 UNL     1     -13.948  48.470 -20.182  1.00  0.00     0.042 C 
HETATM   30  C16 UNL     1     -15.382  46.476 -19.574  1.00  0.00     0.042 C 
ENDBRANCH  26  27
ENDBRANCH  25  26
ENDBRANCH  23  25
ENDBRANCH   6  23
BRANCH   1  31
HETATM   31  C2  UNL     1      -9.272  48.297 -30.782  1.00  0.00     0.006 C 
HETATM   32  C1  UNL     1      -8.953  49.792 -30.779  1.00  0.00     0.006 C 
ENDBRANCH   1  31
TORSDOF 5
ENDMDL
