MODEL 1
REMARK minimizedAffinity -9.59226227
REMARK CNNscore 0.852823853
REMARK CNNaffinity 7.42416716
REMARK  11 active torsions:
REMARK  status: ('A' for Active; 'I' for Inactive)
REMARK    1  A    between atoms: C2_2  and  C3_3 
REMARK    2  A    between atoms: C2_2  and  C10_11 
REMARK    3  A    between atoms: C4_4  and  C5_5 
REMARK    4  A    between atoms: C5_5  and  C7_7 
REMARK    5  A    between atoms: C7_7  and  C9_9 
REMARK    6  A    between atoms: C9_9  and  O1_10 
REMARK    7  A    between atoms: C11_12  and  O2_13 
REMARK    8  A    between atoms: C12_14  and  O3_15 
REMARK    9  A    between atoms: C23_26  and  O4_27 
REMARK   10  A    between atoms: C26_30  and  O5_31 
REMARK   11  A    between atoms: C28_33  and  O6_34 
ROOT
HETATM    1  C10 UNL     1      -2.291  48.033 -20.464  1.00  0.00     0.033 C 
HETATM    2  C11 UNL     1      -3.564  47.324 -21.022  1.00  0.00     0.152 C 
HETATM    3  C12 UNL     1      -3.779  47.889 -22.457  1.00  0.00     0.155 C 
HETATM    4  C13 UNL     1      -2.554  48.774 -22.697  1.00  0.00     0.060 C 
HETATM    5  C14 UNL     1      -2.217  49.361 -21.289  1.00  0.00    -0.028 C 
HETATM    6  C15 UNL     1      -3.194  50.436 -20.755  1.00  0.00     0.016 C 
HETATM    7  C16 UNL     1      -0.814  49.986 -21.383  1.00  0.00     0.011 C 
HETATM    8  C17 UNL     1      -0.737  51.046 -22.501  1.00  0.00     0.009 C 
HETATM    9  C18 UNL     1      -1.146  50.477 -23.888  1.00  0.00     0.029 C 
HETATM   10  C19 UNL     1      -0.940  51.479 -25.092  1.00  0.00    -0.031 C 
HETATM   11  C20 UNL     1      -1.773  52.773 -24.896  1.00  0.00     0.016 C 
HETATM   12  C21 UNL     1       0.567  51.898 -25.185  1.00  0.00     0.012 C 
HETATM   13  C22 UNL     1       1.173  51.863 -26.597  1.00  0.00     0.032 C 
HETATM   14  C23 UNL     1       0.223  52.344 -27.687  1.00  0.00     0.118 C 
HETATM   15  C24 UNL     1      -1.137  51.632 -27.657  1.00  0.00     0.039 C 
HETATM   16  C25 UNL     1      -1.325  50.739 -26.412  1.00  0.00     0.025 C 
HETATM   17  C26 UNL     1      -2.728  50.108 -26.368  1.00  0.00     0.126 C 
HETATM   18  C27 UNL     1      -2.871  49.138 -25.191  1.00  0.00     0.071 C 
HETATM   19  C28 UNL     1      -2.561  49.804 -23.845  1.00  0.00     0.071 C 
ENDROOT
BRANCH   1  20
HETATM   20  C2  UNL     1      -2.049  48.031 -18.928  1.00  0.00     0.011 C 
HETATM   21  C1  UNL     1      -3.235  47.379 -18.195  1.00  0.00     0.015 C 
BRANCH  20  22
HETATM   22  C3  UNL     1      -1.607  49.319 -18.269  1.00  0.00    -0.026 C 
HETATM   23  C4  UNL     1      -0.471  49.526 -17.586  1.00  0.00    -0.026 C 
BRANCH  23  24
HETATM   24  C5  UNL     1      -0.121  50.832 -16.910  1.00  0.00     0.009 C 
HETATM   25  C6  UNL     1       0.482  50.522 -15.535  1.00  0.00     0.014 C 
BRANCH  24  26
HETATM   26  C7  UNL     1       0.770  51.740 -17.801  1.00  0.00     0.012 C 
HETATM   27  C8  UNL     1       1.748  52.622 -17.015  1.00  0.00     0.012 C 
BRANCH  26  28
HETATM   28  C9  UNL     1      -0.088  52.606 -18.738  1.00  0.00     0.168 C 
BRANCH  28  29
HETATM   29  O1  UNL     1       0.649  53.749 -19.155  1.00  0.00    -0.400 OA
HETATM   30  H17 UNL     1       0.062  54.275 -19.720  1.00  0.00     0.209 HD
ENDBRANCH  28  29
ENDBRANCH  26  28
ENDBRANCH  24  26
ENDBRANCH  23  24
ENDBRANCH  20  22
ENDBRANCH   1  20
BRANCH   2  31
HETATM   31  O2  UNL     1      -4.727  47.497 -20.233  1.00  0.00    -0.393 OA
HETATM   32  H20 UNL     1      -5.297  48.133 -20.714  1.00  0.00     0.210 HD
ENDBRANCH   2  31
BRANCH   3  33
HETATM   33  O3  UNL     1      -4.995  48.637 -22.540  1.00  0.00    -0.392 OA
HETATM   34  H22 UNL     1      -5.600  48.125 -23.101  1.00  0.00     0.210 HD
ENDBRANCH   3  33
BRANCH  19  35
HETATM   35  O6  UNL     1      -3.582  50.769 -23.637  1.00  0.00    -0.389 OA
HETATM   36  H48 UNL     1      -4.363  50.302 -23.272  1.00  0.00     0.210 HD
ENDBRANCH  19  35
BRANCH  17  37
HETATM   37  O5  UNL     1      -2.973  49.367 -27.570  1.00  0.00    -0.395 OA
HETATM   38  H45 UNL     1      -2.241  48.733 -27.686  1.00  0.00     0.210 HD
ENDBRANCH  17  37
BRANCH  14  39
HETATM   39  O4  UNL     1       0.022  53.752 -27.560  1.00  0.00    -0.396 OA
HETATM   40  H40 UNL     1       0.894  54.183 -27.614  1.00  0.00     0.210 HD
ENDBRANCH  14  39
TORSDOF 11
ENDMDL
MODEL 2
REMARK minimizedAffinity -7.64629698
REMARK CNNscore 0.763776004
REMARK CNNaffinity 6.57249069
REMARK  11 active torsions:
REMARK  status: ('A' for Active; 'I' for Inactive)
REMARK    1  A    between atoms: C2_2  and  C3_3 
REMARK    2  A    between atoms: C2_2  and  C10_11 
REMARK    3  A    between atoms: C4_4  and  C5_5 
REMARK    4  A    between atoms: C5_5  and  C7_7 
REMARK    5  A    between atoms: C7_7  and  C9_9 
REMARK    6  A    between atoms: C9_9  and  O1_10 
REMARK    7  A    between atoms: C11_12  and  O2_13 
REMARK    8  A    between atoms: C12_14  and  O3_15 
REMARK    9  A    between atoms: C23_26  and  O4_27 
REMARK   10  A    between atoms: C26_30  and  O5_31 
REMARK   11  A    between atoms: C28_33  and  O6_34 
ROOT
HETATM    1  C10 UNL     1       3.085  56.622  -8.918  1.00  0.00     0.033 C 
HETATM    2  C11 UNL     1       4.122  55.992  -9.898  1.00  0.00     0.152 C 
HETATM    3  C12 UNL     1       3.372  54.851 -10.645  1.00  0.00     0.155 C 
HETATM    4  C13 UNL     1       1.925  54.978 -10.165  1.00  0.00     0.060 C 
HETATM    5  C14 UNL     1       2.049  55.472  -8.688  1.00  0.00    -0.028 C 
HETATM    6  C15 UNL     1       2.555  54.426  -7.666  1.00  0.00     0.016 C 
HETATM    7  C16 UNL     1       0.650  55.940  -8.249  1.00  0.00     0.011 C 
HETATM    8  C17 UNL     1      -0.402  54.824  -8.414  1.00  0.00     0.009 C 
HETATM    9  C18 UNL     1      -0.468  54.281  -9.869  1.00  0.00     0.029 C 
HETATM   10  C19 UNL     1      -1.631  53.244 -10.126  1.00  0.00    -0.031 C 
HETATM   11  C20 UNL     1      -1.490  52.000  -9.211  1.00  0.00     0.016 C 
HETATM   12  C21 UNL     1      -3.016  53.907  -9.811  1.00  0.00     0.012 C 
HETATM   13  C22 UNL     1      -4.112  53.672 -10.863  1.00  0.00     0.032 C 
HETATM   14  C23 UNL     1      -4.104  52.269 -11.458  1.00  0.00     0.118 C 
HETATM   15  C24 UNL     1      -2.728  51.853 -11.999  1.00  0.00     0.039 C 
HETATM   16  C25 UNL     1      -1.609  52.853 -11.638  1.00  0.00     0.025 C 
HETATM   17  C26 UNL     1      -0.230  52.367 -12.119  1.00  0.00     0.126 C 
HETATM   18  C27 UNL     1       0.858  53.412 -11.856  1.00  0.00     0.071 C 
HETATM   19  C28 UNL     1       0.938  53.812 -10.379  1.00  0.00     0.071 C 
ENDROOT
BRANCH   1  20
HETATM   20  C2  UNL     1       3.605  57.479  -7.729  1.00  0.00     0.011 C 
HETATM   21  C1  UNL     1       5.019  57.029  -7.318  1.00  0.00     0.015 C 
BRANCH  20  22
HETATM   22  C3  UNL     1       2.698  57.678  -6.536  1.00  0.00    -0.026 C 
HETATM   23  C4  UNL     1       2.884  57.205  -5.294  1.00  0.00    -0.026 C 
BRANCH  23  24
HETATM   24  C5  UNL     1       1.904  57.403  -4.161  1.00  0.00     0.009 C 
HETATM   25  C6  UNL     1       2.132  58.794  -3.558  1.00  0.00     0.014 C 
BRANCH  24  26
HETATM   26  C7  UNL     1       0.437  57.134  -4.593  1.00  0.00     0.012 C 
HETATM   27  C8  UNL     1      -0.609  57.883  -3.757  1.00  0.00     0.012 C 
BRANCH  26  28
HETATM   28  C9  UNL     1       0.131  55.628  -4.598  1.00  0.00     0.168 C 
BRANCH  28  29
HETATM   29  O1  UNL     1      -1.239  55.410  -4.912  1.00  0.00    -0.400 OA
HETATM   30  H17 UNL     1      -1.391  54.452  -4.879  1.00  0.00     0.209 HD
ENDBRANCH  28  29
ENDBRANCH  26  28
ENDBRANCH  24  26
ENDBRANCH  23  24
ENDBRANCH  20  22
ENDBRANCH   1  20
BRANCH   2  31
HETATM   31  O2  UNL     1       5.296  55.501  -9.276  1.00  0.00    -0.393 OA
HETATM   32  H20 UNL     1       5.224  54.523  -9.278  1.00  0.00     0.210 HD
ENDBRANCH   2  31
BRANCH   3  33
HETATM   33  O3  UNL     1       3.926  53.572 -10.323  1.00  0.00    -0.392 OA
HETATM   34  H22 UNL     1       4.362  53.247 -11.126  1.00  0.00     0.210 HD
ENDBRANCH   3  33
BRANCH  19  35
HETATM   35  O6  UNL     1       1.378  52.657  -9.680  1.00  0.00    -0.389 OA
HETATM   36  H48 UNL     1       2.354  52.613  -9.762  1.00  0.00     0.210 HD
ENDBRANCH  19  35
BRANCH  17  37
HETATM   37  O5  UNL     1      -0.260  52.120 -13.531  1.00  0.00    -0.395 OA
HETATM   38  H45 UNL     1      -0.587  52.927 -13.970  1.00  0.00     0.210 HD
ENDBRANCH  17  37
BRANCH  14  39
HETATM   39  O4  UNL     1      -4.528  51.328 -10.473  1.00  0.00    -0.396 OA
HETATM   40  H40 UNL     1      -5.415  51.594 -10.169  1.00  0.00     0.210 HD
ENDBRANCH  14  39
TORSDOF 11
ENDMDL
MODEL 3
REMARK minimizedAffinity -7.9295826
REMARK CNNscore 0.729453206
REMARK CNNaffinity 6.35330772
REMARK  11 active torsions:
REMARK  status: ('A' for Active; 'I' for Inactive)
REMARK    1  A    between atoms: C2_2  and  C3_3 
REMARK    2  A    between atoms: C2_2  and  C10_11 
REMARK    3  A    between atoms: C4_4  and  C5_5 
REMARK    4  A    between atoms: C5_5  and  C7_7 
REMARK    5  A    between atoms: C7_7  and  C9_9 
REMARK    6  A    between atoms: C9_9  and  O1_10 
REMARK    7  A    between atoms: C11_12  and  O2_13 
REMARK    8  A    between atoms: C12_14  and  O3_15 
REMARK    9  A    between atoms: C23_26  and  O4_27 
REMARK   10  A    between atoms: C26_30  and  O5_31 
REMARK   11  A    between atoms: C28_33  and  O6_34 
ROOT
HETATM    1  C10 UNL     1       0.996  52.059 -13.223  1.00  0.00     0.033 C 
HETATM    2  C11 UNL     1      -0.555  52.109 -13.060  1.00  0.00     0.152 C 
HETATM    3  C12 UNL     1      -0.827  52.938 -11.772  1.00  0.00     0.155 C 
HETATM    4  C13 UNL     1       0.556  53.435 -11.348  1.00  0.00     0.060 C 
HETATM    5  C14 UNL     1       1.527  52.286 -11.769  1.00  0.00    -0.028 C 
HETATM    6  C15 UNL     1       1.457  50.997 -10.914  1.00  0.00     0.016 C 
HETATM    7  C16 UNL     1       2.957  52.846 -11.682  1.00  0.00     0.011 C 
HETATM    8  C17 UNL     1       3.268  53.399 -10.276  1.00  0.00     0.009 C 
HETATM    9  C18 UNL     1       2.255  54.489  -9.829  1.00  0.00     0.029 C 
HETATM   10  C19 UNL     1       2.615  55.195  -8.463  1.00  0.00    -0.031 C 
HETATM   11  C20 UNL     1       2.682  54.170  -7.300  1.00  0.00     0.016 C 
HETATM   12  C21 UNL     1       4.020  55.880  -8.570  1.00  0.00     0.012 C 
HETATM   13  C22 UNL     1       4.097  57.313  -8.021  1.00  0.00     0.032 C 
HETATM   14  C23 UNL     1       3.285  57.530  -6.750  1.00  0.00     0.118 C 
HETATM   15  C24 UNL     1       1.825  57.072  -6.882  1.00  0.00     0.039 C 
HETATM   16  C25 UNL     1       1.549  56.304  -8.192  1.00  0.00     0.025 C 
HETATM   17  C26 UNL     1       0.101  55.785  -8.257  1.00  0.00     0.126 C 
HETATM   18  C27 UNL     1      -0.198  55.120  -9.604  1.00  0.00     0.071 C 
HETATM   19  C28 UNL     1       0.775  53.979  -9.921  1.00  0.00     0.071 C 
ENDROOT
BRANCH   1  20
HETATM   20  C2  UNL     1       1.616  50.966 -14.140  1.00  0.00     0.011 C 
HETATM   21  C1  UNL     1       3.069  51.325 -14.499  1.00  0.00     0.015 C 
BRANCH  20  22
HETATM   22  C3  UNL     1       0.826  50.507 -15.344  1.00  0.00    -0.026 C 
HETATM   23  C4  UNL     1       0.886  51.009 -16.587  1.00  0.00    -0.026 C 
BRANCH  23  24
HETATM   24  C5  UNL     1       0.025  50.528 -17.733  1.00  0.00     0.009 C 
HETATM   25  C6  UNL     1      -1.246  49.896 -17.154  1.00  0.00     0.014 C 
BRANCH  24  26
HETATM   26  C7  UNL     1      -0.243  51.644 -18.779  1.00  0.00     0.012 C 
HETATM   27  C8  UNL     1      -0.129  51.175 -20.236  1.00  0.00     0.012 C 
BRANCH  26  28
HETATM   28  C9  UNL     1       0.670  52.857 -18.541  1.00  0.00     0.168 C 
BRANCH  28  29
HETATM   29  O1  UNL     1       0.114  54.013 -19.153  1.00  0.00    -0.400 OA
HETATM   30  H17 UNL     1       0.734  54.744 -18.999  1.00  0.00     0.209 HD
ENDBRANCH  28  29
ENDBRANCH  26  28
ENDBRANCH  24  26
ENDBRANCH  23  24
ENDBRANCH  20  22
ENDBRANCH   1  20
BRANCH   2  31
HETATM   31  O2  UNL     1      -1.179  50.840 -12.985  1.00  0.00    -0.393 OA
HETATM   32  H20 UNL     1      -1.435  50.711 -12.047  1.00  0.00     0.210 HD
ENDBRANCH   2  31
BRANCH   3  33
HETATM   33  O3  UNL     1      -1.433  52.132 -10.757  1.00  0.00    -0.392 OA
HETATM   34  H22 UNL     1      -2.344  52.451 -10.655  1.00  0.00     0.210 HD
ENDBRANCH   3  33
BRANCH  19  35
HETATM   35  O6  UNL     1       0.521  52.965  -8.960  1.00  0.00    -0.389 OA
HETATM   36  H48 UNL     1      -0.251  52.447  -9.271  1.00  0.00     0.210 HD
ENDBRANCH  19  35
BRANCH  17  37
HETATM   37  O5  UNL     1      -0.819  56.872  -8.096  1.00  0.00    -0.395 OA
HETATM   38  H45 UNL     1      -0.598  57.553  -8.758  1.00  0.00     0.210 HD
ENDBRANCH  17  37
BRANCH  14  39
HETATM   39  O4  UNL     1       3.901  56.837  -5.664  1.00  0.00    -0.396 OA
HETATM   40  H40 UNL     1       4.814  57.167  -5.580  1.00  0.00     0.210 HD
ENDBRANCH  14  39
TORSDOF 11
ENDMDL
MODEL 4
REMARK minimizedAffinity -9.20505428
REMARK CNNscore 0.709937036
REMARK CNNaffinity 7.16236687
REMARK  11 active torsions:
REMARK  status: ('A' for Active; 'I' for Inactive)
REMARK    1  A    between atoms: C2_2  and  C3_3 
REMARK    2  A    between atoms: C2_2  and  C10_11 
REMARK    3  A    between atoms: C4_4  and  C5_5 
REMARK    4  A    between atoms: C5_5  and  C7_7 
REMARK    5  A    between atoms: C7_7  and  C9_9 
REMARK    6  A    between atoms: C9_9  and  O1_10 
REMARK    7  A    between atoms: C11_12  and  O2_13 
REMARK    8  A    between atoms: C12_14  and  O3_15 
REMARK    9  A    between atoms: C23_26  and  O4_27 
REMARK   10  A    between atoms: C26_30  and  O5_31 
REMARK   11  A    between atoms: C28_33  and  O6_34 
ROOT
HETATM    1  C10 UNL     1      -4.998  47.581 -22.303  1.00  0.00     0.033 C 
HETATM    2  C11 UNL     1      -6.175  47.414 -23.314  1.00  0.00     0.152 C 
HETATM    3  C12 UNL     1      -5.793  48.259 -24.565  1.00  0.00     0.155 C 
HETATM    4  C13 UNL     1      -4.373  48.745 -24.268  1.00  0.00     0.060 C 
HETATM    5  C14 UNL     1      -4.346  48.941 -22.719  1.00  0.00    -0.028 C 
HETATM    6  C15 UNL     1      -5.138  50.157 -22.180  1.00  0.00     0.016 C 
HETATM    7  C16 UNL     1      -2.872  49.105 -22.309  1.00  0.00     0.011 C 
HETATM    8  C17 UNL     1      -2.195  50.265 -23.066  1.00  0.00     0.009 C 
HETATM    9  C18 UNL     1      -2.291  50.104 -24.608  1.00  0.00     0.029 C 
HETATM   10  C19 UNL     1      -1.484  51.186 -25.429  1.00  0.00    -0.031 C 
HETATM   11  C20 UNL     1      -1.985  52.620 -25.116  1.00  0.00     0.016 C 
HETATM   12  C21 UNL     1       0.034  51.123 -25.046  1.00  0.00     0.012 C 
HETATM   13  C22 UNL     1       1.013  51.148 -26.230  1.00  0.00     0.032 C 
HETATM   14  C23 UNL     1       0.593  52.084 -27.357  1.00  0.00     0.118 C 
HETATM   15  C24 UNL     1      -0.844  51.839 -27.839  1.00  0.00     0.039 C 
HETATM   16  C25 UNL     1      -1.620  50.846 -26.947  1.00  0.00     0.025 C 
HETATM   17  C26 UNL     1      -3.081  50.686 -27.406  1.00  0.00     0.126 C 
HETATM   18  C27 UNL     1      -3.813  49.620 -26.586  1.00  0.00     0.071 C 
HETATM   19  C28 UNL     1      -3.773  49.910 -25.081  1.00  0.00     0.071 C 
ENDROOT
BRANCH   1  20
HETATM   20  C2  UNL     1      -5.244  47.235 -20.807  1.00  0.00     0.011 C 
HETATM   21  C1  UNL     1      -6.627  47.740 -20.358  1.00  0.00     0.015 C 
BRANCH  20  22
HETATM   22  C3  UNL     1      -4.161  47.567 -19.806  1.00  0.00    -0.026 C 
HETATM   23  C4  UNL     1      -4.111  48.635 -18.997  1.00  0.00    -0.026 C 
BRANCH  23  24
HETATM   24  C5  UNL     1      -2.965  48.926 -18.054  1.00  0.00     0.009 C 
HETATM   25  C6  UNL     1      -2.564  47.621 -17.358  1.00  0.00     0.014 C 
BRANCH  24  26
HETATM   26  C7  UNL     1      -1.789  49.654 -18.760  1.00  0.00     0.012 C 
HETATM   27  C8  UNL     1      -0.515  49.752 -17.911  1.00  0.00     0.012 C 
BRANCH  26  28
HETATM   28  C9  UNL     1      -2.213  51.051 -19.241  1.00  0.00     0.168 C 
BRANCH  28  29
HETATM   29  O1  UNL     1      -2.893  51.740 -18.200  1.00  0.00    -0.400 OA
HETATM   30  H17 UNL     1      -3.162  52.601 -18.557  1.00  0.00     0.209 HD
ENDBRANCH  28  29
ENDBRANCH  26  28
ENDBRANCH  24  26
ENDBRANCH  23  24
ENDBRANCH  20  22
ENDBRANCH   1  20
BRANCH   2  31
HETATM   31  O2  UNL     1      -7.441  47.800 -22.812  1.00  0.00    -0.393 OA
HETATM   32  H20 UNL     1      -7.660  48.656 -23.237  1.00  0.00     0.210 HD
ENDBRANCH   2  31
BRANCH   3  33
HETATM   33  O3  UNL     1      -6.699  49.352 -24.745  1.00  0.00    -0.392 OA
HETATM   34  H22 UNL     1      -7.211  49.159 -25.547  1.00  0.00     0.210 HD
ENDBRANCH   3  33
BRANCH  19  35
HETATM   35  O6  UNL     1      -4.533  51.093 -24.886  1.00  0.00    -0.389 OA
HETATM   36  H48 UNL     1      -5.479  50.837 -24.852  1.00  0.00     0.210 HD
ENDBRANCH  19  35
BRANCH  17  37
HETATM   37  O5  UNL     1      -3.124  50.281 -28.780  1.00  0.00    -0.395 OA
HETATM   38  H45 UNL     1      -2.574  49.481 -28.874  1.00  0.00     0.210 HD
ENDBRANCH  17  37
BRANCH  14  39
HETATM   39  O4  UNL     1       0.721  53.439 -26.927  1.00  0.00    -0.396 OA
HETATM   40  H40 UNL     1       1.647  53.579 -26.656  1.00  0.00     0.210 HD
ENDBRANCH  14  39
TORSDOF 11
ENDMDL
MODEL 5
REMARK minimizedAffinity -9.13858986
REMARK CNNscore 0.690986156
REMARK CNNaffinity 6.55723715
REMARK  11 active torsions:
REMARK  status: ('A' for Active; 'I' for Inactive)
REMARK    1  A    between atoms: C2_2  and  C3_3 
REMARK    2  A    between atoms: C2_2  and  C10_11 
REMARK    3  A    between atoms: C4_4  and  C5_5 
REMARK    4  A    between atoms: C5_5  and  C7_7 
REMARK    5  A    between atoms: C7_7  and  C9_9 
REMARK    6  A    between atoms: C9_9  and  O1_10 
REMARK    7  A    between atoms: C11_12  and  O2_13 
REMARK    8  A    between atoms: C12_14  and  O3_15 
REMARK    9  A    between atoms: C23_26  and  O4_27 
REMARK   10  A    between atoms: C26_30  and  O5_31 
REMARK   11  A    between atoms: C28_33  and  O6_34 
ROOT
HETATM    1  C10 UNL     1      -4.997  47.549 -22.307  1.00  0.00     0.033 C 
HETATM    2  C11 UNL     1      -6.193  47.414 -23.300  1.00  0.00     0.152 C 
HETATM    3  C12 UNL     1      -5.821  48.274 -24.543  1.00  0.00     0.155 C 
HETATM    4  C13 UNL     1      -4.389  48.734 -24.264  1.00  0.00     0.060 C 
HETATM    5  C14 UNL     1      -4.332  48.906 -22.713  1.00  0.00    -0.028 C 
HETATM    6  C15 UNL     1      -5.097  50.124 -22.141  1.00  0.00     0.016 C 
HETATM    7  C16 UNL     1      -2.849  49.041 -22.326  1.00  0.00     0.011 C 
HETATM    8  C17 UNL     1      -2.168  50.204 -23.077  1.00  0.00     0.009 C 
HETATM    9  C18 UNL     1      -2.293  50.069 -24.620  1.00  0.00     0.029 C 
HETATM   10  C19 UNL     1      -1.484  51.152 -25.438  1.00  0.00    -0.031 C 
HETATM   11  C20 UNL     1      -1.959  52.588 -25.094  1.00  0.00     0.016 C 
HETATM   12  C21 UNL     1       0.039  51.061 -25.082  1.00  0.00     0.012 C 
HETATM   13  C22 UNL     1       0.997  51.090 -26.283  1.00  0.00     0.032 C 
HETATM   14  C23 UNL     1       0.572  52.050 -27.388  1.00  0.00     0.118 C 
HETATM   15  C24 UNL     1      -0.877  51.833 -27.848  1.00  0.00     0.039 C 
HETATM   16  C25 UNL     1      -1.652  50.838 -26.958  1.00  0.00     0.025 C 
HETATM   17  C26 UNL     1      -3.123  50.707 -27.393  1.00  0.00     0.126 C 
HETATM   18  C27 UNL     1      -3.857  49.638 -26.578  1.00  0.00     0.071 C 
HETATM   19  C28 UNL     1      -3.786  49.903 -25.070  1.00  0.00     0.071 C 
ENDROOT
BRANCH   1  20
HETATM   20  C2  UNL     1      -5.222  47.182 -20.813  1.00  0.00     0.011 C 
HETATM   21  C1  UNL     1      -4.187  46.140 -20.352  1.00  0.00     0.015 C 
BRANCH  20  22
HETATM   22  C3  UNL     1      -6.623  46.837 -20.361  1.00  0.00    -0.026 C 
HETATM   23  C4  UNL     1      -7.186  47.136 -19.181  1.00  0.00    -0.026 C 
BRANCH  23  24
HETATM   24  C5  UNL     1      -8.580  46.711 -18.781  1.00  0.00     0.009 C 
HETATM   25  C6  UNL     1      -8.469  45.671 -17.660  1.00  0.00     0.014 C 
BRANCH  24  26
HETATM   26  C7  UNL     1      -9.490  47.920 -18.433  1.00  0.00     0.012 C 
HETATM   27  C8  UNL     1      -8.722  49.198 -18.071  1.00  0.00     0.012 C 
BRANCH  26  28
HETATM   28  C9  UNL     1     -10.480  47.563 -17.313  1.00  0.00     0.168 C 
BRANCH  28  29
HETATM   29  O1  UNL     1     -10.181  48.310 -16.141  1.00  0.00    -0.400 OA
HETATM   30  H17 UNL     1     -10.812  48.034 -15.457  1.00  0.00     0.209 HD
ENDBRANCH  28  29
ENDBRANCH  26  28
ENDBRANCH  24  26
ENDBRANCH  23  24
ENDBRANCH  20  22
ENDBRANCH   1  20
BRANCH   2  31
HETATM   31  O2  UNL     1      -7.445  47.811 -22.769  1.00  0.00    -0.393 OA
HETATM   32  H20 UNL     1      -7.658  48.677 -23.177  1.00  0.00     0.210 HD
ENDBRANCH   2  31
BRANCH   3  33
HETATM   33  O3  UNL     1      -6.714  49.383 -24.690  1.00  0.00    -0.392 OA
HETATM   34  H22 UNL     1      -7.243  49.211 -25.486  1.00  0.00     0.210 HD
ENDBRANCH   3  33
BRANCH  19  35
HETATM   35  O6  UNL     1      -4.525  51.094 -24.842  1.00  0.00    -0.389 OA
HETATM   36  H48 UNL     1      -5.474  50.851 -24.796  1.00  0.00     0.210 HD
ENDBRANCH  19  35
BRANCH  17  37
HETATM   37  O5  UNL     1      -3.196  50.324 -28.773  1.00  0.00    -0.395 OA
HETATM   38  H45 UNL     1      -2.660  49.518 -28.889  1.00  0.00     0.210 HD
ENDBRANCH  17  37
BRANCH  14  39
HETATM   39  O4  UNL     1       0.727  53.396 -26.938  1.00  0.00    -0.396 OA
HETATM   40  H40 UNL     1       1.659  53.519 -26.682  1.00  0.00     0.210 HD
ENDBRANCH  14  39
TORSDOF 11
ENDMDL
MODEL 6
REMARK minimizedAffinity -8.75815201
REMARK CNNscore 0.684241354
REMARK CNNaffinity 6.70903778
REMARK  11 active torsions:
REMARK  status: ('A' for Active; 'I' for Inactive)
REMARK    1  A    between atoms: C2_2  and  C3_3 
REMARK    2  A    between atoms: C2_2  and  C10_11 
REMARK    3  A    between atoms: C4_4  and  C5_5 
REMARK    4  A    between atoms: C5_5  and  C7_7 
REMARK    5  A    between atoms: C7_7  and  C9_9 
REMARK    6  A    between atoms: C9_9  and  O1_10 
REMARK    7  A    between atoms: C11_12  and  O2_13 
REMARK    8  A    between atoms: C12_14  and  O3_15 
REMARK    9  A    between atoms: C23_26  and  O4_27 
REMARK   10  A    between atoms: C26_30  and  O5_31 
REMARK   11  A    between atoms: C28_33  and  O6_34 
ROOT
HETATM    1  C10 UNL     1      -5.204  47.465 -22.360  1.00  0.00     0.033 C 
HETATM    2  C11 UNL     1      -6.319  47.282 -23.436  1.00  0.00     0.152 C 
HETATM    3  C12 UNL     1      -5.896  48.158 -24.651  1.00  0.00     0.155 C 
HETATM    4  C13 UNL     1      -4.508  48.678 -24.271  1.00  0.00     0.060 C 
HETATM    5  C14 UNL     1      -4.569  48.850 -22.719  1.00  0.00    -0.028 C 
HETATM    6  C15 UNL     1      -5.423  50.034 -22.206  1.00  0.00     0.016 C 
HETATM    7  C16 UNL     1      -3.125  49.046 -22.228  1.00  0.00     0.011 C 
HETATM    8  C17 UNL     1      -2.441  50.238 -22.930  1.00  0.00     0.009 C 
HETATM    9  C18 UNL     1      -2.449  50.100 -24.477  1.00  0.00     0.029 C 
HETATM   10  C19 UNL     1      -1.631  51.216 -25.237  1.00  0.00    -0.031 C 
HETATM   11  C20 UNL     1      -2.189  52.631 -24.930  1.00  0.00     0.016 C 
HETATM   12  C21 UNL     1      -0.134  51.189 -24.774  1.00  0.00     0.012 C 
HETATM   13  C22 UNL     1       0.905  51.260 -25.903  1.00  0.00     0.032 C 
HETATM   14  C23 UNL     1       0.520  52.203 -27.037  1.00  0.00     0.118 C 
HETATM   15  C24 UNL     1      -0.881  51.926 -27.599  1.00  0.00     0.039 C 
HETATM   16  C25 UNL     1      -1.676  50.898 -26.765  1.00  0.00     0.025 C 
HETATM   17  C26 UNL     1      -3.105  50.706 -27.304  1.00  0.00     0.126 C 
HETATM   18  C27 UNL     1      -3.850  49.606 -26.541  1.00  0.00     0.071 C 
HETATM   19  C28 UNL     1      -3.898  49.872 -25.033  1.00  0.00     0.071 C 
ENDROOT
BRANCH   1  20
HETATM   20  C2  UNL     1      -5.519  47.088 -20.885  1.00  0.00     0.011 C 
HETATM   21  C1  UNL     1      -6.305  48.218 -20.196  1.00  0.00     0.015 C 
BRANCH  20  22
HETATM   22  C3  UNL     1      -4.394  46.564 -20.021  1.00  0.00    -0.026 C 
HETATM   23  C4  UNL     1      -4.452  45.540 -19.156  1.00  0.00    -0.026 C 
BRANCH  23  24
HETATM   24  C5  UNL     1      -3.295  45.105 -18.287  1.00  0.00     0.009 C 
HETATM   25  C6  UNL     1      -3.109  46.139 -17.171  1.00  0.00     0.014 C 
BRANCH  24  26
HETATM   26  C7  UNL     1      -3.452  43.646 -17.778  1.00  0.00     0.012 C 
HETATM   27  C8  UNL     1      -2.212  43.096 -17.062  1.00  0.00     0.012 C 
BRANCH  26  28
HETATM   28  C9  UNL     1      -3.865  42.704 -18.921  1.00  0.00     0.168 C 
BRANCH  28  29
HETATM   29  O1  UNL     1      -2.801  41.812 -19.225  1.00  0.00    -0.400 OA
HETATM   30  H17 UNL     1      -3.097  41.258 -19.965  1.00  0.00     0.209 HD
ENDBRANCH  28  29
ENDBRANCH  26  28
ENDBRANCH  24  26
ENDBRANCH  23  24
ENDBRANCH  20  22
ENDBRANCH   1  20
BRANCH   2  31
HETATM   31  O2  UNL     1      -7.621  47.625 -22.997  1.00  0.00    -0.393 OA
HETATM   32  H20 UNL     1      -7.841  48.482 -23.420  1.00  0.00     0.210 HD
ENDBRANCH   2  31
BRANCH   3  33
HETATM   33  O3  UNL     1      -6.821  49.228 -24.863  1.00  0.00    -0.392 OA
HETATM   34  H22 UNL     1      -7.284  49.035 -25.694  1.00  0.00     0.210 HD
ENDBRANCH   3  33
BRANCH  19  35
HETATM   35  O6  UNL     1      -4.701  51.030 -24.861  1.00  0.00    -0.389 OA
HETATM   36  H48 UNL     1      -5.640  50.748 -24.882  1.00  0.00     0.210 HD
ENDBRANCH  19  35
BRANCH  17  37
HETATM   37  O5  UNL     1      -3.063  50.322 -28.685  1.00  0.00    -0.395 OA
HETATM   38  H45 UNL     1      -2.486  49.539 -28.761  1.00  0.00     0.210 HD
ENDBRANCH  17  37
BRANCH  14  39
HETATM   39  O4  UNL     1       0.587  53.554 -26.579  1.00  0.00    -0.396 OA
HETATM   40  H40 UNL     1       1.492  53.715 -26.258  1.00  0.00     0.210 HD
ENDBRANCH  14  39
TORSDOF 11
ENDMDL
MODEL 7
REMARK minimizedAffinity -8.64005375
REMARK CNNscore 0.67325151
REMARK CNNaffinity 6.43837547
REMARK  11 active torsions:
REMARK  status: ('A' for Active; 'I' for Inactive)
REMARK    1  A    between atoms: C2_2  and  C3_3 
REMARK    2  A    between atoms: C2_2  and  C10_11 
REMARK    3  A    between atoms: C4_4  and  C5_5 
REMARK    4  A    between atoms: C5_5  and  C7_7 
REMARK    5  A    between atoms: C7_7  and  C9_9 
REMARK    6  A    between atoms: C9_9  and  O1_10 
REMARK    7  A    between atoms: C11_12  and  O2_13 
REMARK    8  A    between atoms: C12_14  and  O3_15 
REMARK    9  A    between atoms: C23_26  and  O4_27 
REMARK   10  A    between atoms: C26_30  and  O5_31 
REMARK   11  A    between atoms: C28_33  and  O6_34 
ROOT
HETATM    1  C10 UNL     1      -6.826  47.423 -29.662  1.00  0.00     0.033 C 
HETATM    2  C11 UNL     1      -5.656  48.135 -30.411  1.00  0.00     0.152 C 
HETATM    3  C12 UNL     1      -5.950  47.967 -31.930  1.00  0.00     0.155 C 
HETATM    4  C13 UNL     1      -7.327  47.301 -31.973  1.00  0.00     0.060 C 
HETATM    5  C14 UNL     1      -7.355  46.386 -30.708  1.00  0.00    -0.028 C 
HETATM    6  C15 UNL     1      -6.469  45.119 -30.773  1.00  0.00     0.016 C 
HETATM    7  C16 UNL     1      -8.814  45.945 -30.500  1.00  0.00     0.011 C 
HETATM    8  C17 UNL     1      -9.382  45.244 -31.751  1.00  0.00     0.009 C 
HETATM    9  C18 UNL     1      -9.283  46.130 -33.024  1.00  0.00     0.029 C 
HETATM   10  C19 UNL     1      -9.985  45.520 -34.300  1.00  0.00    -0.031 C 
HETATM   11  C20 UNL     1      -9.367  44.150 -34.683  1.00  0.00     0.016 C 
HETATM   12  C21 UNL     1     -11.507  45.287 -34.011  1.00  0.00     0.012 C 
HETATM   13  C22 UNL     1     -12.467  45.764 -35.112  1.00  0.00     0.032 C 
HETATM   14  C23 UNL     1     -11.956  45.513 -36.526  1.00  0.00     0.118 C 
HETATM   15  C24 UNL     1     -10.540  46.058 -36.760  1.00  0.00     0.039 C 
HETATM   16  C25 UNL     1      -9.861  46.553 -35.465  1.00  0.00     0.025 C 
HETATM   17  C26 UNL     1      -8.414  47.014 -35.717  1.00  0.00     0.126 C 
HETATM   18  C27 UNL     1      -7.784  47.605 -34.453  1.00  0.00     0.071 C 
HETATM   19  C28 UNL     1      -7.817  46.629 -33.272  1.00  0.00     0.071 C 
ENDROOT
BRANCH   1  20
HETATM   20  C2  UNL     1      -6.627  47.027 -28.172  1.00  0.00     0.011 C 
HETATM   21  C1  UNL     1      -7.941  46.490 -27.577  1.00  0.00     0.015 C 
BRANCH  20  22
HETATM   22  C3  UNL     1      -5.944  48.014 -27.252  1.00  0.00    -0.026 C 
HETATM   23  C4  UNL     1      -4.623  48.199 -27.107  1.00  0.00    -0.026 C 
BRANCH  23  24
HETATM   24  C5  UNL     1      -4.011  49.173 -26.126  1.00  0.00     0.009 C 
HETATM   25  C6  UNL     1      -3.810  48.453 -24.787  1.00  0.00     0.014 C 
BRANCH  24  26
HETATM   26  C7  UNL     1      -2.727  49.845 -26.682  1.00  0.00     0.012 C 
HETATM   27  C8  UNL     1      -1.784  50.385 -25.599  1.00  0.00     0.012 C 
BRANCH  26  28
HETATM   28  C9  UNL     1      -3.076  50.958 -27.684  1.00  0.00     0.168 C 
BRANCH  28  29
HETATM   29  O1  UNL     1      -3.446  50.391 -28.933  1.00  0.00    -0.400 OA
HETATM   30  H17 UNL     1      -3.631  51.128 -29.537  1.00  0.00     0.209 HD
ENDBRANCH  28  29
ENDBRANCH  26  28
ENDBRANCH  24  26
ENDBRANCH  23  24
ENDBRANCH  20  22
ENDBRANCH   1  20
BRANCH   2  31
HETATM   31  O2  UNL     1      -4.367  47.644 -30.089  1.00  0.00    -0.393 OA
HETATM   32  H20 UNL     1      -4.072  47.112 -30.859  1.00  0.00     0.210 HD
ENDBRANCH   2  31
BRANCH   3  33
HETATM   33  O3  UNL     1      -4.953  47.159 -32.563  1.00  0.00    -0.392 OA
HETATM   34  H22 UNL     1      -4.449  47.746 -33.149  1.00  0.00     0.210 HD
ENDBRANCH   3  33
BRANCH  19  35
HETATM   35  O6  UNL     1      -6.961  45.553 -33.625  1.00  0.00    -0.389 OA
HETATM   36  H48 UNL     1      -6.041  45.826 -33.425  1.00  0.00     0.210 HD
ENDBRANCH  19  35
BRANCH  17  37
HETATM   37  O5  UNL     1      -8.389  48.029 -36.729  1.00  0.00    -0.395 OA
HETATM   38  H45 UNL     1      -9.004  48.736 -36.459  1.00  0.00     0.210 HD
ENDBRANCH  17  37
BRANCH  14  39
HETATM   39  O4  UNL     1     -11.974  44.112 -36.799  1.00  0.00    -0.396 OA
HETATM   40  H40 UNL     1     -12.887  43.796 -36.676  1.00  0.00     0.210 HD
ENDBRANCH  14  39
TORSDOF 11
ENDMDL
MODEL 8
REMARK minimizedAffinity -8.39809799
REMARK CNNscore 0.66492492
REMARK CNNaffinity 6.44486475
REMARK  11 active torsions:
REMARK  status: ('A' for Active; 'I' for Inactive)
REMARK    1  A    between atoms: C2_2  and  C3_3 
REMARK    2  A    between atoms: C2_2  and  C10_11 
REMARK    3  A    between atoms: C4_4  and  C5_5 
REMARK    4  A    between atoms: C5_5  and  C7_7 
REMARK    5  A    between atoms: C7_7  and  C9_9 
REMARK    6  A    between atoms: C9_9  and  O1_10 
REMARK    7  A    between atoms: C11_12  and  O2_13 
REMARK    8  A    between atoms: C12_14  and  O3_15 
REMARK    9  A    between atoms: C23_26  and  O4_27 
REMARK   10  A    between atoms: C26_30  and  O5_31 
REMARK   11  A    between atoms: C28_33  and  O6_34 
ROOT
HETATM    1  C10 UNL     1      -4.828  47.467 -22.385  1.00  0.00     0.033 C 
HETATM    2  C11 UNL     1      -6.060  47.370 -23.337  1.00  0.00     0.152 C 
HETATM    3  C12 UNL     1      -5.736  48.278 -24.558  1.00  0.00     0.155 C 
HETATM    4  C13 UNL     1      -4.295  48.730 -24.315  1.00  0.00     0.060 C 
HETATM    5  C14 UNL     1      -4.180  48.841 -22.761  1.00  0.00    -0.028 C 
HETATM    6  C15 UNL     1      -4.924  50.034 -22.114  1.00  0.00     0.016 C 
HETATM    7  C16 UNL     1      -2.684  48.964 -22.425  1.00  0.00     0.011 C 
HETATM    8  C17 UNL     1      -2.032  50.157 -23.154  1.00  0.00     0.009 C 
HETATM    9  C18 UNL     1      -2.214  50.083 -24.695  1.00  0.00     0.029 C 
HETATM   10  C19 UNL     1      -1.438  51.198 -25.500  1.00  0.00    -0.031 C 
HETATM   11  C20 UNL     1      -1.901  52.619 -25.082  1.00  0.00     0.016 C 
HETATM   12  C21 UNL     1       0.098  51.097 -25.205  1.00  0.00     0.012 C 
HETATM   13  C22 UNL     1       1.011  51.176 -26.439  1.00  0.00     0.032 C 
HETATM   14  C23 UNL     1       0.544  52.178 -27.488  1.00  0.00     0.118 C 
HETATM   15  C24 UNL     1      -0.921  51.976 -27.903  1.00  0.00     0.039 C 
HETATM   16  C25 UNL     1      -1.662  50.944 -27.024  1.00  0.00     0.025 C 
HETATM   17  C26 UNL     1      -3.147  50.827 -27.409  1.00  0.00     0.126 C 
HETATM   18  C27 UNL     1      -3.850  49.726 -26.609  1.00  0.00     0.071 C 
HETATM   19  C28 UNL     1      -3.722  49.931 -25.096  1.00  0.00     0.071 C 
ENDROOT
BRANCH   1  20
HETATM   20  C2  UNL     1      -4.997  47.042 -20.899  1.00  0.00     0.011 C 
HETATM   21  C1  UNL     1      -3.693  47.285 -20.117  1.00  0.00     0.015 C 
BRANCH  20  22
HETATM   22  C3  UNL     1      -5.597  45.687 -20.603  1.00  0.00    -0.026 C 
HETATM   23  C4  UNL     1      -6.822  45.436 -20.116  1.00  0.00    -0.026 C 
BRANCH  23  24
HETATM   24  C5  UNL     1      -7.335  44.050 -19.798  1.00  0.00     0.009 C 
HETATM   25  C6  UNL     1      -8.548  44.182 -18.870  1.00  0.00     0.014 C 
BRANCH  24  26
HETATM   26  C7  UNL     1      -7.605  43.211 -21.076  1.00  0.00     0.012 C 
HETATM   27  C8  UNL     1      -9.090  42.926 -21.335  1.00  0.00     0.012 C 
BRANCH  26  28
HETATM   28  C9  UNL     1      -6.810  41.896 -21.051  1.00  0.00     0.168 C 
BRANCH  28  29
HETATM   29  O1  UNL     1      -5.542  42.105 -20.442  1.00  0.00    -0.400 OA
HETATM   30  H17 UNL     1      -5.068  41.258 -20.472  1.00  0.00     0.209 HD
ENDBRANCH  28  29
ENDBRANCH  26  28
ENDBRANCH  24  26
ENDBRANCH  23  24
ENDBRANCH  20  22
ENDBRANCH   1  20
BRANCH   2  31
HETATM   31  O2  UNL     1      -7.291  47.742 -22.745  1.00  0.00    -0.393 OA
HETATM   32  H20 UNL     1      -7.521  48.623 -23.110  1.00  0.00     0.210 HD
ENDBRANCH   2  31
BRANCH   3  33
HETATM   33  O3  UNL     1      -6.634  49.390 -24.629  1.00  0.00    -0.392 OA
HETATM   34  H22 UNL     1      -7.192  49.247 -25.410  1.00  0.00     0.210 HD
ENDBRANCH   3  33
BRANCH  19  35
HETATM   35  O6  UNL     1      -4.454  51.111 -24.795  1.00  0.00    -0.389 OA
HETATM   36  H48 UNL     1      -5.400  50.864 -24.722  1.00  0.00     0.210 HD
ENDBRANCH  19  35
BRANCH  17  37
HETATM   37  O5  UNL     1      -3.272  50.499 -28.799  1.00  0.00    -0.395 OA
HETATM   38  H45 UNL     1      -2.739  49.698 -28.967  1.00  0.00     0.210 HD
ENDBRANCH  17  37
BRANCH  14  39
HETATM   39  O4  UNL     1       0.715  53.505 -26.992  1.00  0.00    -0.396 OA
HETATM   40  H40 UNL     1       1.656  53.620 -26.766  1.00  0.00     0.210 HD
ENDBRANCH  14  39
TORSDOF 11
ENDMDL
MODEL 9
REMARK minimizedAffinity -7.7782135
REMARK CNNscore 0.663356721
REMARK CNNaffinity 5.83861589
REMARK  11 active torsions:
REMARK  status: ('A' for Active; 'I' for Inactive)
REMARK    1  A    between atoms: C2_2  and  C3_3 
REMARK    2  A    between atoms: C2_2  and  C10_11 
REMARK    3  A    between atoms: C4_4  and  C5_5 
REMARK    4  A    between atoms: C5_5  and  C7_7 
REMARK    5  A    between atoms: C7_7  and  C9_9 
REMARK    6  A    between atoms: C9_9  and  O1_10 
REMARK    7  A    between atoms: C11_12  and  O2_13 
REMARK    8  A    between atoms: C12_14  and  O3_15 
REMARK    9  A    between atoms: C23_26  and  O4_27 
REMARK   10  A    between atoms: C26_30  and  O5_31 
REMARK   11  A    between atoms: C28_33  and  O6_34 
ROOT
HETATM    1  C10 UNL     1      -1.240  50.771 -17.939  1.00  0.00     0.033 C 
HETATM    2  C11 UNL     1      -2.661  50.131 -17.863  1.00  0.00     0.152 C 
HETATM    3  C12 UNL     1      -3.081  50.190 -16.366  1.00  0.00     0.155 C 
HETATM    4  C13 UNL     1      -1.956  50.978 -15.692  1.00  0.00     0.060 C 
HETATM    5  C14 UNL     1      -0.674  50.584 -16.493  1.00  0.00    -0.028 C 
HETATM    6  C15 UNL     1      -0.144  49.149 -16.254  1.00  0.00     0.016 C 
HETATM    7  C16 UNL     1       0.431  51.579 -16.096  1.00  0.00     0.011 C 
HETATM    8  C17 UNL     1       0.665  51.594 -14.572  1.00  0.00     0.009 C 
HETATM    9  C18 UNL     1      -0.631  51.911 -13.775  1.00  0.00     0.029 C 
HETATM   10  C19 UNL     1      -0.416  52.087 -12.220  1.00  0.00    -0.031 C 
HETATM   11  C20 UNL     1       0.173  50.801 -11.584  1.00  0.00     0.016 C 
HETATM   12  C21 UNL     1       0.596  53.253 -11.951  1.00  0.00     0.012 C 
HETATM   13  C22 UNL     1       0.179  54.246 -10.854  1.00  0.00     0.032 C 
HETATM   14  C23 UNL     1      -0.502  53.592  -9.658  1.00  0.00     0.118 C 
HETATM   15  C24 UNL     1      -1.678  52.688 -10.055  1.00  0.00     0.039 C 
HETATM   16  C25 UNL     1      -1.787  52.471 -11.580  1.00  0.00     0.025 C 
HETATM   17  C26 UNL     1      -2.921  51.494 -11.939  1.00  0.00     0.126 C 
HETATM   18  C27 UNL     1      -3.094  51.369 -13.456  1.00  0.00     0.071 C 
HETATM   19  C28 UNL     1      -1.801  50.941 -14.158  1.00  0.00     0.071 C 
ENDROOT
BRANCH   1  20
HETATM   20  C2  UNL     1      -0.357  50.484 -19.187  1.00  0.00     0.011 C 
HETATM   21  C1  UNL     1       0.079  51.801 -19.853  1.00  0.00     0.015 C 
BRANCH  20  22
HETATM   22  C3  UNL     1      -0.847  49.468 -20.194  1.00  0.00    -0.026 C 
HETATM   23  C4  UNL     1      -1.368  49.720 -21.405  1.00  0.00    -0.026 C 
BRANCH  23  24
HETATM   24  C5  UNL     1      -1.884  48.650 -22.339  1.00  0.00     0.009 C 
HETATM   25  C6  UNL     1      -1.885  47.311 -21.593  1.00  0.00     0.014 C 
BRANCH  24  26
HETATM   26  C7  UNL     1      -3.253  49.025 -22.969  1.00  0.00     0.012 C 
HETATM   27  C8  UNL     1      -3.380  48.658 -24.454  1.00  0.00     0.012 C 
BRANCH  26  28
HETATM   28  C9  UNL     1      -3.567  50.515 -22.763  1.00  0.00     0.168 C 
BRANCH  28  29
HETATM   29  O1  UNL     1      -4.785  50.662 -22.046  1.00  0.00    -0.400 OA
HETATM   30  H17 UNL     1      -4.954  51.615 -21.963  1.00  0.00     0.209 HD
ENDBRANCH  28  29
ENDBRANCH  26  28
ENDBRANCH  24  26
ENDBRANCH  23  24
ENDBRANCH  20  22
ENDBRANCH   1  20
BRANCH   2  31
HETATM   31  O2  UNL     1      -2.736  48.806 -18.357  1.00  0.00    -0.393 OA
HETATM   32  H20 UNL     1      -2.814  48.222 -17.573  1.00  0.00     0.210 HD
ENDBRANCH   2  31
BRANCH   3  33
HETATM   33  O3  UNL     1      -3.210  48.876 -15.814  1.00  0.00    -0.392 OA
HETATM   34  H22 UNL     1      -4.155  48.737 -15.644  1.00  0.00     0.210 HD
ENDBRANCH   3  33
BRANCH  19  35
HETATM   35  O6  UNL     1      -1.533  49.617 -13.720  1.00  0.00    -0.389 OA
HETATM   36  H48 UNL     1      -2.077  49.008 -14.263  1.00  0.00     0.210 HD
ENDBRANCH  19  35
BRANCH  17  37
HETATM   37  O5  UNL     1      -4.163  51.961 -11.399  1.00  0.00    -0.395 OA
HETATM   38  H45 UNL     1      -4.298  52.878 -11.705  1.00  0.00     0.210 HD
ENDBRANCH  17  37
BRANCH  14  39
HETATM   39  O4  UNL     1       0.453  52.828  -8.922  1.00  0.00    -0.396 OA
HETATM   40  H40 UNL     1       1.172  53.428  -8.654  1.00  0.00     0.210 HD
ENDBRANCH  14  39
TORSDOF 11
ENDMDL
