MODEL 1
REMARK minimizedAffinity -9.96309566
REMARK  4 active torsions:
REMARK  status: ('A' for Active; 'I' for Inactive)
REMARK    1  A    between atoms: C4_4  and  C5_5 
REMARK    2  A    between atoms: C22_22  and  C23_23 
REMARK    3  A    between atoms: C23_23  and  O2_25 
REMARK    4  A    between atoms: C28_30  and  O3_31 
ROOT
HETATM    1  C5  UNL     1      -2.079  50.063 -24.253  1.00  0.00     0.032 C 
HETATM    2  C6  UNL     1      -3.259  49.734 -23.289  1.00  0.00     0.014 C 
HETATM    3  C7  UNL     1      -4.168  48.561 -23.705  1.00  0.00     0.007 C 
HETATM    4  C8  UNL     1      -5.300  48.309 -22.707  1.00  0.00     0.007 C 
HETATM    5  C9  UNL     1      -4.812  48.219 -21.250  1.00  0.00     0.007 C 
HETATM    6  C10 UNL     1      -5.920  47.788 -20.235  1.00  0.00    -0.018 C 
HETATM    7  C11 UNL     1      -7.141  48.736 -20.199  1.00  0.00     0.020 C 
HETATM    8  C12 UNL     1      -6.492  46.389 -20.375  1.00  0.00    -0.020 C 
HETATM    9  C13 UNL     1      -6.630  45.789 -19.178  1.00  0.00    -0.021 C 
HETATM   10  C14 UNL     1      -6.056  46.613 -18.041  1.00  0.00    -0.026 C 
HETATM   11  C15 UNL     1      -7.130  47.291 -17.189  1.00  0.00     0.019 C 
HETATM   12  C16 UNL     1      -5.183  45.735 -17.128  1.00  0.00     0.019 C 
HETATM   13  C17 UNL     1      -5.182  47.564 -18.886  1.00  0.00     0.009 C 
HETATM   14  C18 UNL     1      -4.616  48.851 -18.313  1.00  0.00     0.007 C 
HETATM   15  C19 UNL     1      -3.543  49.383 -19.289  1.00  0.00     0.011 C 
HETATM   16  C20 UNL     1      -3.983  49.504 -20.799  1.00  0.00    -0.021 C 
HETATM   17  C21 UNL     1      -4.841  50.803 -20.873  1.00  0.00     0.017 C 
HETATM   18  C22 UNL     1      -2.724  49.643 -21.799  1.00  0.00     0.057 C 
HETATM   19  C24 UNL     1      -1.816  50.899 -21.515  1.00  0.00     0.023 C 
HETATM   20  C25 UNL     1      -1.893  52.012 -22.559  1.00  0.00     0.022 C 
HETATM   21  C26 UNL     1      -1.599  51.531 -24.002  1.00  0.00     0.060 C 
HETATM   22  C27 UNL     1      -0.128  51.690 -24.383  1.00  0.00     0.081 C 
HETATM   23  C28 UNL     1      -0.054  53.120 -24.858  1.00  0.00     0.267 C 
HETATM   24  O4  UNL     1      -1.301  53.383 -25.475  1.00  0.00    -0.289 OA
HETATM   25  C29 UNL     1      -2.241  52.557 -24.932  1.00  0.00     0.270 C 
HETATM   26  O5  UNL     1      -3.438  52.672 -25.145  1.00  0.00    -0.264 OA
ENDROOT
BRANCH   1  27
HETATM   27  C4  UNL     1      -2.381  49.775 -25.713  1.00  0.00    -0.018 C 
HETATM   28  C2  UNL     1      -3.378  49.032 -26.235  1.00  0.00    -0.091 C 
HETATM   29  C1  UNL     1      -3.516  48.893 -27.731  1.00  0.00     0.042 C 
HETATM   30  C3  UNL     1      -4.434  48.295 -25.458  1.00  0.00     0.042 C 
ENDBRANCH   1  27
BRANCH  23  31
HETATM   31  O3  UNL     1       1.008  53.316 -25.768  1.00  0.00    -0.371 OA
HETATM   32  H42 UNL     1       0.858  52.702 -26.506  1.00  0.00     0.212 HD
ENDBRANCH  23  31
BRANCH  18  33
HETATM   33  C23 UNL     1      -1.753  48.447 -21.573  1.00  0.00     0.149 C 
HETATM   34  O1  UNL     1      -0.711  48.480 -20.934  1.00  0.00    -0.649 OA
BRANCH  33  35
HETATM   35  O2  UNL     1      -2.102  47.286 -22.142  1.00  0.00    -0.776 OA
HETATM   36  H34 UNL     1      -1.397  46.662 -21.865  1.00  0.00     0.167 HD
ENDBRANCH  33  35
ENDBRANCH  18  33
TORSDOF 4
ENDMDL
MODEL 2
REMARK minimizedAffinity -9.54956818
REMARK  4 active torsions:
REMARK  status: ('A' for Active; 'I' for Inactive)
REMARK    1  A    between atoms: C4_4  and  C5_5 
REMARK    2  A    between atoms: C22_22  and  C23_23 
REMARK    3  A    between atoms: C23_23  and  O2_25 
REMARK    4  A    between atoms: C28_30  and  O3_31 
ROOT
HETATM    1  C5  UNL     1      -4.871  48.098 -21.994  1.00  0.00     0.032 C 
HETATM    2  C6  UNL     1      -3.875  49.214 -22.433  1.00  0.00     0.014 C 
HETATM    3  C7  UNL     1      -2.378  48.891 -22.270  1.00  0.00     0.007 C 
HETATM    4  C8  UNL     1      -1.473  50.039 -22.719  1.00  0.00     0.007 C 
HETATM    5  C9  UNL     1      -1.833  50.582 -24.114  1.00  0.00     0.007 C 
HETATM    6  C10 UNL     1      -0.818  51.633 -24.668  1.00  0.00    -0.018 C 
HETATM    7  C11 UNL     1      -0.657  52.883 -23.772  1.00  0.00     0.020 C 
HETATM    8  C12 UNL     1       0.593  51.156 -24.962  1.00  0.00    -0.020 C 
HETATM    9  C13 UNL     1       1.048  51.648 -26.130  1.00  0.00    -0.021 C 
HETATM   10  C14 UNL     1      -0.011  52.426 -26.889  1.00  0.00    -0.026 C 
HETATM   11  C15 UNL     1       0.194  53.940 -26.824  1.00  0.00     0.019 C 
HETATM   12  C16 UNL     1      -0.038  51.995 -28.365  1.00  0.00     0.019 C 
HETATM   13  C17 UNL     1      -1.249  51.891 -26.139  1.00  0.00     0.009 C 
HETATM   14  C18 UNL     1      -2.601  52.574 -26.236  1.00  0.00     0.007 C 
HETATM   15  C19 UNL     1      -3.667  51.621 -25.653  1.00  0.00     0.011 C 
HETATM   16  C20 UNL     1      -3.359  51.034 -24.222  1.00  0.00    -0.021 C 
HETATM   17  C21 UNL     1      -3.694  52.185 -23.225  1.00  0.00     0.017 C 
HETATM   18  C22 UNL     1      -4.270  49.748 -23.873  1.00  0.00     0.057 C 
HETATM   19  C24 UNL     1      -5.819  50.036 -23.894  1.00  0.00     0.023 C 
HETATM   20  C25 UNL     1      -6.503  50.035 -22.528  1.00  0.00     0.022 C 
HETATM   21  C26 UNL     1      -6.274  48.733 -21.719  1.00  0.00     0.060 C 
HETATM   22  C27 UNL     1      -7.384  47.706 -21.939  1.00  0.00     0.081 C 
HETATM   23  C28 UNL     1      -8.435  48.124 -20.941  1.00  0.00     0.267 C 
HETATM   24  O4  UNL     1      -7.724  48.635 -19.828  1.00  0.00    -0.289 OA
HETATM   25  C29 UNL     1      -6.512  49.093 -20.256  1.00  0.00     0.270 C 
HETATM   26  O5  UNL     1      -5.753  49.740 -19.551  1.00  0.00    -0.264 OA
ENDROOT
BRANCH   1  27
HETATM   27  C4  UNL     1      -4.367  47.243 -20.845  1.00  0.00    -0.018 C 
HETATM   28  C2  UNL     1      -4.585  45.932 -20.614  1.00  0.00    -0.091 C 
HETATM   29  C1  UNL     1      -3.963  45.261 -19.415  1.00  0.00     0.042 C 
HETATM   30  C3  UNL     1      -5.412  45.008 -21.465  1.00  0.00     0.042 C 
ENDBRANCH   1  27
BRANCH  23  31
HETATM   31  O3  UNL     1      -9.256  47.042 -20.559  1.00  0.00    -0.371 OA
HETATM   32  H42 UNL     1      -8.666  46.362 -20.192  1.00  0.00     0.212 HD
ENDBRANCH  23  31
BRANCH  18  33
HETATM   33  C23 UNL     1      -4.096  48.676 -24.989  1.00  0.00     0.149 C 
HETATM   34  O1  UNL     1      -3.031  48.263 -25.428  1.00  0.00    -0.649 OA
BRANCH  33  35
HETATM   35  O2  UNL     1      -5.223  48.176 -25.509  1.00  0.00    -0.776 OA
HETATM   36  H34 UNL     1      -4.913  47.509 -26.158  1.00  0.00     0.167 HD
ENDBRANCH  33  35
ENDBRANCH  18  33
TORSDOF 4
ENDMDL
MODEL 3
REMARK minimizedAffinity -9.53711414
REMARK  4 active torsions:
REMARK  status: ('A' for Active; 'I' for Inactive)
REMARK    1  A    between atoms: C4_4  and  C5_5 
REMARK    2  A    between atoms: C22_22  and  C23_23 
REMARK    3  A    between atoms: C23_23  and  O2_25 
REMARK    4  A    between atoms: C28_30  and  O3_31 
ROOT
HETATM    1  C5  UNL     1      -1.398  52.340 -24.471  1.00  0.00     0.032 C 
HETATM    2  C6  UNL     1      -1.795  51.204 -23.479  1.00  0.00     0.014 C 
HETATM    3  C7  UNL     1      -1.570  51.500 -21.984  1.00  0.00     0.007 C 
HETATM    4  C8  UNL     1      -1.981  50.334 -21.083  1.00  0.00     0.007 C 
HETATM    5  C9  UNL     1      -3.389  49.796 -21.396  1.00  0.00     0.007 C 
HETATM    6  C10 UNL     1      -3.900  48.724 -20.379  1.00  0.00    -0.018 C 
HETATM    7  C11 UNL     1      -2.997  47.473 -20.278  1.00  0.00     0.020 C 
HETATM    8  C12 UNL     1      -4.136  49.174 -18.948  1.00  0.00    -0.020 C 
HETATM    9  C13 UNL     1      -5.283  48.672 -18.455  1.00  0.00    -0.021 C 
HETATM   10  C14 UNL     1      -6.085  47.913 -19.496  1.00  0.00    -0.026 C 
HETATM   11  C15 UNL     1      -6.010  46.396 -19.323  1.00  0.00     0.019 C 
HETATM   12  C16 UNL     1      -7.561  48.342 -19.454  1.00  0.00     0.019 C 
HETATM   13  C17 UNL     1      -5.387  48.472 -20.753  1.00  0.00     0.009 C 
HETATM   14  C18 UNL     1      -5.539  47.815 -22.113  1.00  0.00     0.007 C 
HETATM   15  C19 UNL     1      -5.001  48.789 -23.184  1.00  0.00     0.011 C 
HETATM   16  C20 UNL     1      -3.559  49.372 -22.924  1.00  0.00    -0.021 C 
HETATM   17  C21 UNL     1      -2.577  48.230 -23.322  1.00  0.00     0.017 C 
HETATM   18  C22 UNL     1      -3.249  50.676 -23.824  1.00  0.00     0.057 C 
HETATM   19  C24 UNL     1      -3.334  50.417 -25.376  1.00  0.00     0.023 C 
HETATM   20  C25 UNL     1      -1.997  50.433 -26.116  1.00  0.00     0.022 C 
HETATM   21  C26 UNL     1      -1.181  51.732 -25.896  1.00  0.00     0.060 C 
HETATM   22  C27 UNL     1      -1.446  52.780 -26.975  1.00  0.00     0.081 C 
HETATM   23  C28 UNL     1      -0.493  52.383 -28.075  1.00  0.00     0.267 C 
HETATM   24  O4  UNL     1       0.649  51.860 -27.420  1.00  0.00    -0.289 OA
HETATM   25  C29 UNL     1       0.272  51.379 -26.201  1.00  0.00     0.270 C 
HETATM   26  O5  UNL     1       1.008  50.718 -25.484  1.00  0.00    -0.264 OA
ENDROOT
BRANCH   1  27
HETATM   27  C4  UNL     1      -0.230  53.187 -23.998  1.00  0.00    -0.018 C 
HETATM   28  C2  UNL     1       0.315  53.256 -22.767  1.00  0.00    -0.091 C 
HETATM   29  C1  UNL     1       1.502  54.152 -22.513  1.00  0.00     0.042 C 
HETATM   30  C3  UNL     1      -0.138  52.493 -21.553  1.00  0.00     0.042 C 
ENDBRANCH   1  27
BRANCH  23  31
HETATM   31  O3  UNL     1      -0.145  53.482 -28.890  1.00  0.00    -0.371 OA
HETATM   32  H42 UNL     1       0.245  54.150 -28.303  1.00  0.00     0.212 HD
ENDBRANCH  23  31
BRANCH  18  33
HETATM   33  C23 UNL     1      -4.358  51.743 -23.584  1.00  0.00     0.149 C 
HETATM   34  O1  UNL     1      -4.433  52.496 -22.623  1.00  0.00    -0.649 OA
BRANCH  33  35
HETATM   35  O2  UNL     1      -5.311  51.826 -24.520  1.00  0.00    -0.776 OA
HETATM   36  H34 UNL     1      -5.886  52.559 -24.213  1.00  0.00     0.167 HD
ENDBRANCH  33  35
ENDBRANCH  18  33
TORSDOF 4
ENDMDL
MODEL 4
REMARK minimizedAffinity -9.31767654
REMARK  4 active torsions:
REMARK  status: ('A' for Active; 'I' for Inactive)
REMARK    1  A    between atoms: C4_4  and  C5_5 
REMARK    2  A    between atoms: C22_22  and  C23_23 
REMARK    3  A    between atoms: C23_23  and  O2_25 
REMARK    4  A    between atoms: C28_30  and  O3_31 
ROOT
HETATM    1  C5  UNL     1      -1.113  49.130 -18.003  1.00  0.00     0.032 C 
HETATM    2  C6  UNL     1      -1.440  49.876 -19.332  1.00  0.00     0.014 C 
HETATM    3  C7  UNL     1      -0.240  50.500 -20.072  1.00  0.00     0.007 C 
HETATM    4  C8  UNL     1      -0.648  51.214 -21.361  1.00  0.00     0.007 C 
HETATM    5  C9  UNL     1      -1.549  50.356 -22.269  1.00  0.00     0.007 C 
HETATM    6  C10 UNL     1      -1.834  50.994 -23.667  1.00  0.00    -0.018 C 
HETATM    7  C11 UNL     1      -2.524  52.376 -23.597  1.00  0.00     0.020 C 
HETATM    8  C12 UNL     1      -0.657  51.172 -24.609  1.00  0.00    -0.020 C 
HETATM    9  C13 UNL     1      -0.974  50.819 -25.868  1.00  0.00    -0.021 C 
HETATM   10  C14 UNL     1      -2.363  50.218 -25.976  1.00  0.00    -0.026 C 
HETATM   11  C15 UNL     1      -3.385  51.175 -26.591  1.00  0.00     0.019 C 
HETATM   12  C16 UNL     1      -2.328  48.928 -26.813  1.00  0.00     0.019 C 
HETATM   13  C17 UNL     1      -2.573  49.896 -24.481  1.00  0.00     0.009 C 
HETATM   14  C18 UNL     1      -3.946  49.579 -23.915  1.00  0.00     0.007 C 
HETATM   15  C19 UNL     1      -3.761  48.992 -22.499  1.00  0.00     0.011 C 
HETATM   16  C20 UNL     1      -2.853  49.828 -21.518  1.00  0.00    -0.021 C 
HETATM   17  C21 UNL     1      -3.753  51.001 -21.025  1.00  0.00     0.017 C 
HETATM   18  C22 UNL     1      -2.362  48.966 -20.245  1.00  0.00     0.057 C 
HETATM   19  C24 UNL     1      -3.538  48.399 -19.363  1.00  0.00     0.023 C 
HETATM   20  C25 UNL     1      -3.701  49.054 -17.991  1.00  0.00     0.022 C 
HETATM   21  C26 UNL     1      -2.411  49.028 -17.134  1.00  0.00     0.060 C 
HETATM   22  C27 UNL     1      -2.347  47.813 -16.211  1.00  0.00     0.081 C 
HETATM   23  C28 UNL     1      -3.126  48.265 -15.001  1.00  0.00     0.267 C 
HETATM   24  O4  UNL     1      -2.871  49.653 -14.879  1.00  0.00    -0.289 OA
HETATM   25  C29 UNL     1      -2.557  50.149 -16.110  1.00  0.00     0.270 C 
HETATM   26  O5  UNL     1      -2.454  51.344 -16.345  1.00  0.00    -0.264 OA
ENDROOT
BRANCH   1  27
HETATM   27  C4  UNL     1       0.068  49.712 -17.246  1.00  0.00    -0.018 C 
HETATM   28  C2  UNL     1       0.479  50.995 -17.187  1.00  0.00    -0.091 C 
HETATM   29  C1  UNL     1       1.674  51.368 -16.345  1.00  0.00     0.042 C 
HETATM   30  C3  UNL     1      -0.156  52.162 -17.890  1.00  0.00     0.042 C 
ENDBRANCH   1  27
BRANCH  23  31
HETATM   31  O3  UNL     1      -2.729  47.577 -13.834  1.00  0.00    -0.371 OA
HETATM   32  H42 UNL     1      -1.777  47.739 -13.726  1.00  0.00     0.212 HD
ENDBRANCH  23  31
BRANCH  18  33
HETATM   33  C23 UNL     1      -1.643  47.677 -20.743  1.00  0.00     0.149 C 
HETATM   34  O1  UNL     1      -0.457  47.579 -21.023  1.00  0.00    -0.649 OA
BRANCH  33  35
HETATM   35  O2  UNL     1      -2.410  46.588 -20.878  1.00  0.00    -0.776 OA
HETATM   36  H34 UNL     1      -1.784  45.888 -21.164  1.00  0.00     0.167 HD
ENDBRANCH  33  35
ENDBRANCH  18  33
TORSDOF 4
ENDMDL
MODEL 5
REMARK minimizedAffinity -9.03290558
REMARK  4 active torsions:
REMARK  status: ('A' for Active; 'I' for Inactive)
REMARK    1  A    between atoms: C4_4  and  C5_5 
REMARK    2  A    between atoms: C22_22  and  C23_23 
REMARK    3  A    between atoms: C23_23  and  O2_25 
REMARK    4  A    between atoms: C28_30  and  O3_31 
ROOT
HETATM    1  C5  UNL     1      -6.747  48.922 -21.367  1.00  0.00     0.032 C 
HETATM    2  C6  UNL     1      -5.653  48.860 -22.477  1.00  0.00     0.014 C 
HETATM    3  C7  UNL     1      -6.157  48.942 -23.931  1.00  0.00     0.007 C 
HETATM    4  C8  UNL     1      -5.022  48.871 -24.954  1.00  0.00     0.007 C 
HETATM    5  C9  UNL     1      -3.870  49.845 -24.648  1.00  0.00     0.007 C 
HETATM    6  C10 UNL     1      -2.784  49.916 -25.770  1.00  0.00    -0.018 C 
HETATM    7  C11 UNL     1      -2.103  48.561 -26.072  1.00  0.00     0.020 C 
HETATM    8  C12 UNL     1      -3.206  50.471 -27.118  1.00  0.00    -0.020 C 
HETATM    9  C13 UNL     1      -2.281  51.310 -27.619  1.00  0.00    -0.021 C 
HETATM   10  C14 UNL     1      -1.145  51.576 -26.648  1.00  0.00    -0.026 C 
HETATM   11  C15 UNL     1       0.145  50.841 -27.018  1.00  0.00     0.019 C 
HETATM   12  C16 UNL     1      -0.849  53.082 -26.567  1.00  0.00     0.019 C 
HETATM   13  C17 UNL     1      -1.843  51.083 -25.363  1.00  0.00     0.009 C 
HETATM   14  C18 UNL     1      -1.065  50.787 -24.093  1.00  0.00     0.007 C 
HETATM   15  C19 UNL     1      -2.074  50.642 -22.932  1.00  0.00     0.011 C 
HETATM   16  C20 UNL     1      -3.276  49.653 -23.181  1.00  0.00    -0.021 C 
HETATM   17  C21 UNL     1      -2.682  48.226 -22.978  1.00  0.00     0.017 C 
HETATM   18  C22 UNL     1      -4.486  49.876 -22.136  1.00  0.00     0.057 C 
HETATM   19  C24 UNL     1      -4.074  49.681 -20.628  1.00  0.00     0.023 C 
HETATM   20  C25 UNL     1      -4.634  48.429 -19.954  1.00  0.00     0.022 C 
HETATM   21  C26 UNL     1      -6.177  48.312 -20.043  1.00  0.00     0.060 C 
HETATM   22  C27 UNL     1      -6.879  48.913 -18.827  1.00  0.00     0.081 C 
HETATM   23  C28 UNL     1      -6.865  47.780 -17.833  1.00  0.00     0.267 C 
HETATM   24  O4  UNL     1      -6.989  46.596 -18.601  1.00  0.00    -0.289 OA
HETATM   25  C29 UNL     1      -6.505  46.835 -19.853  1.00  0.00     0.270 C 
HETATM   26  O5  UNL     1      -6.326  45.956 -20.682  1.00  0.00    -0.264 OA
ENDROOT
BRANCH   1  27
HETATM   27  C4  UNL     1      -8.076  48.315 -21.780  1.00  0.00    -0.018 C 
HETATM   28  C2  UNL     1      -8.305  47.282 -22.616  1.00  0.00    -0.091 C 
HETATM   29  C1  UNL     1      -9.717  46.815 -22.872  1.00  0.00     0.042 C 
HETATM   30  C3  UNL     1      -7.261  46.490 -23.352  1.00  0.00     0.042 C 
ENDBRANCH   1  27
BRANCH  23  31
HETATM   31  O3  UNL     1      -7.919  47.886 -16.900  1.00  0.00    -0.371 OA
HETATM   32  H42 UNL     1      -8.744  47.900 -17.413  1.00  0.00     0.212 HD
ENDBRANCH  23  31
BRANCH  18  33
HETATM   33  C23 UNL     1      -4.940  51.365 -22.187  1.00  0.00     0.149 C 
HETATM   34  O1  UNL     1      -4.430  52.292 -21.574  1.00  0.00    -0.649 OA
BRANCH  33  35
HETATM   35  O2  UNL     1      -5.991  51.636 -22.972  1.00  0.00    -0.776 OA
HETATM   36  H34 UNL     1      -6.101  52.608 -22.897  1.00  0.00     0.167 HD
ENDBRANCH  33  35
ENDBRANCH  18  33
TORSDOF 4
ENDMDL
MODEL 6
REMARK minimizedAffinity -8.98035908
REMARK  4 active torsions:
REMARK  status: ('A' for Active; 'I' for Inactive)
REMARK    1  A    between atoms: C4_4  and  C5_5 
REMARK    2  A    between atoms: C22_22  and  C23_23 
REMARK    3  A    between atoms: C23_23  and  O2_25 
REMARK    4  A    between atoms: C28_30  and  O3_31 
ROOT
HETATM    1  C5  UNL     1      -3.439  48.611 -18.852  1.00  0.00     0.032 C 
HETATM    2  C6  UNL     1      -3.624  49.376 -20.198  1.00  0.00     0.014 C 
HETATM    3  C7  UNL     1      -3.142  50.839 -20.218  1.00  0.00     0.007 C 
HETATM    4  C8  UNL     1      -3.363  51.515 -21.572  1.00  0.00     0.007 C 
HETATM    5  C9  UNL     1      -2.840  50.682 -22.757  1.00  0.00     0.007 C 
HETATM    6  C10 UNL     1      -2.896  51.426 -24.130  1.00  0.00    -0.018 C 
HETATM    7  C11 UNL     1      -4.316  51.877 -24.544  1.00  0.00     0.020 C 
HETATM    8  C12 UNL     1      -2.013  52.648 -24.300  1.00  0.00    -0.020 C 
HETATM    9  C13 UNL     1      -1.408  52.659 -25.502  1.00  0.00    -0.021 C 
HETATM   10  C14 UNL     1      -1.664  51.392 -26.297  1.00  0.00    -0.026 C 
HETATM   11  C15 UNL     1      -2.669  51.589 -27.434  1.00  0.00     0.019 C 
HETATM   12  C16 UNL     1      -0.351  50.853 -26.887  1.00  0.00     0.019 C 
HETATM   13  C17 UNL     1      -2.148  50.503 -25.132  1.00  0.00     0.009 C 
HETATM   14  C18 UNL     1      -2.879  49.195 -25.374  1.00  0.00     0.007 C 
HETATM   15  C19 UNL     1      -2.923  48.413 -24.042  1.00  0.00     0.011 C 
HETATM   16  C20 UNL     1      -3.455  49.210 -22.790  1.00  0.00    -0.021 C 
HETATM   17  C21 UNL     1      -5.005  49.233 -22.946  1.00  0.00     0.017 C 
HETATM   18  C22 UNL     1      -3.073  48.495 -21.395  1.00  0.00     0.057 C 
HETATM   19  C24 UNL     1      -3.644  47.034 -21.247  1.00  0.00     0.023 C 
HETATM   20  C25 UNL     1      -4.774  46.873 -20.231  1.00  0.00     0.022 C 
HETATM   21  C26 UNL     1      -4.413  47.387 -18.814  1.00  0.00     0.060 C 
HETATM   22  C27 UNL     1      -3.856  46.283 -17.917  1.00  0.00     0.081 C 
HETATM   23  C28 UNL     1      -5.101  45.644 -17.353  1.00  0.00     0.267 C 
HETATM   24  O4  UNL     1      -6.040  46.694 -17.214  1.00  0.00    -0.289 OA
HETATM   25  C29 UNL     1      -5.738  47.673 -18.115  1.00  0.00     0.270 C 
HETATM   26  O5  UNL     1      -6.470  48.624 -18.343  1.00  0.00    -0.264 OA
ENDROOT
BRANCH   1  27
HETATM   27  C4  UNL     1      -3.545  49.496 -17.623  1.00  0.00    -0.018 C 
HETATM   28  C2  UNL     1      -2.570  49.868 -16.769  1.00  0.00    -0.091 C 
HETATM   29  C1  UNL     1      -2.885  50.786 -15.613  1.00  0.00     0.042 C 
HETATM   30  C3  UNL     1      -1.124  49.464 -16.845  1.00  0.00     0.042 C 
ENDBRANCH   1  27
BRANCH  23  31
HETATM   31  O3  UNL     1      -4.855  45.022 -16.110  1.00  0.00    -0.371 OA
HETATM   32  H42 UNL     1      -4.508  45.711 -15.519  1.00  0.00     0.212 HD
ENDBRANCH  23  31
BRANCH  18  33
HETATM   33  C23 UNL     1      -1.532  48.279 -21.333  1.00  0.00     0.149 C 
HETATM   34  O1  UNL     1      -0.689  49.153 -21.186  1.00  0.00    -0.649 OA
BRANCH  33  35
HETATM   35  O2  UNL     1      -1.107  47.015 -21.460  1.00  0.00    -0.776 OA
HETATM   36  H34 UNL     1      -0.132  47.079 -21.364  1.00  0.00     0.167 HD
ENDBRANCH  33  35
ENDBRANCH  18  33
TORSDOF 4
ENDMDL
MODEL 7
REMARK minimizedAffinity -8.87971115
REMARK  4 active torsions:
REMARK  status: ('A' for Active; 'I' for Inactive)
REMARK    1  A    between atoms: C4_4  and  C5_5 
REMARK    2  A    between atoms: C22_22  and  C23_23 
REMARK    3  A    between atoms: C23_23  and  O2_25 
REMARK    4  A    between atoms: C28_30  and  O3_31 
ROOT
HETATM    1  C5  UNL     1      -1.413  49.321 -20.322  1.00  0.00     0.032 C 
HETATM    2  C6  UNL     1      -2.768  49.368 -21.094  1.00  0.00     0.014 C 
HETATM    3  C7  UNL     1      -2.672  49.556 -22.620  1.00  0.00     0.007 C 
HETATM    4  C8  UNL     1      -4.043  49.596 -23.297  1.00  0.00     0.007 C 
HETATM    5  C9  UNL     1      -4.958  48.430 -22.879  1.00  0.00     0.007 C 
HETATM    6  C10 UNL     1      -6.294  48.349 -23.686  1.00  0.00    -0.018 C 
HETATM    7  C11 UNL     1      -7.172  49.617 -23.574  1.00  0.00     0.020 C 
HETATM    8  C12 UNL     1      -6.198  48.048 -25.171  1.00  0.00    -0.020 C 
HETATM    9  C13 UNL     1      -7.128  47.156 -25.556  1.00  0.00    -0.021 C 
HETATM   10  C14 UNL     1      -7.922  46.598 -24.389  1.00  0.00    -0.026 C 
HETATM   11  C15 UNL     1      -9.335  47.176 -24.292  1.00  0.00     0.019 C 
HETATM   12  C16 UNL     1      -8.021  45.067 -24.490  1.00  0.00     0.019 C 
HETATM   13  C17 UNL     1      -6.958  47.012 -23.257  1.00  0.00     0.009 C 
HETATM   14  C18 UNL     1      -7.388  47.018 -21.801  1.00  0.00     0.007 C 
HETATM   15  C19 UNL     1      -6.123  47.153 -20.925  1.00  0.00     0.011 C 
HETATM   16  C20 UNL     1      -5.148  48.334 -21.298  1.00  0.00    -0.021 C 
HETATM   17  C21 UNL     1      -5.813  49.617 -20.716  1.00  0.00     0.017 C 
HETATM   18  C22 UNL     1      -3.682  48.154 -20.646  1.00  0.00     0.057 C 
HETATM   19  C24 UNL     1      -3.687  48.083 -19.071  1.00  0.00     0.023 C 
HETATM   20  C25 UNL     1      -3.102  49.303 -18.360  1.00  0.00     0.022 C 
HETATM   21  C26 UNL     1      -1.664  49.657 -18.814  1.00  0.00     0.060 C 
HETATM   22  C27 UNL     1      -0.597  49.009 -17.934  1.00  0.00     0.081 C 
HETATM   23  C28 UNL     1      -0.462  49.985 -16.792  1.00  0.00     0.267 C 
HETATM   24  O4  UNL     1      -0.678  51.266 -17.356  1.00  0.00    -0.289 OA
HETATM   25  C29 UNL     1      -1.457  51.128 -18.467  1.00  0.00     0.270 C 
HETATM   26  O5  UNL     1      -1.947  52.074 -19.065  1.00  0.00    -0.264 OA
ENDROOT
BRANCH   1  27
HETATM   27  C4  UNL     1      -0.319  50.167 -20.949  1.00  0.00    -0.018 C 
HETATM   28  C2  UNL     1      -0.438  51.326 -21.628  1.00  0.00    -0.091 C 
HETATM   29  C1  UNL     1       0.792  52.027 -22.150  1.00  0.00     0.042 C 
HETATM   30  C3  UNL     1      -1.722  52.048 -21.932  1.00  0.00     0.042 C 
ENDBRANCH   1  27
BRANCH  23  31
HETATM   31  O3  UNL     1       0.811  49.912 -16.187  1.00  0.00    -0.371 OA
HETATM   32  H42 UNL     1       1.462  50.089 -16.886  1.00  0.00     0.212 HD
ENDBRANCH  23  31
BRANCH  18  33
HETATM   33  C23 UNL     1      -3.102  46.769 -21.059  1.00  0.00     0.149 C 
HETATM   34  O1  UNL     1      -3.548  45.678 -20.733  1.00  0.00    -0.649 OA
BRANCH  33  35
HETATM   35  O2  UNL     1      -2.011  46.793 -21.835  1.00  0.00    -0.776 OA
HETATM   36  H34 UNL     1      -1.820  45.847 -22.010  1.00  0.00     0.167 HD
ENDBRANCH  33  35
ENDBRANCH  18  33
TORSDOF 4
ENDMDL
MODEL 8
REMARK minimizedAffinity -8.76986885
REMARK  4 active torsions:
REMARK  status: ('A' for Active; 'I' for Inactive)
REMARK    1  A    between atoms: C4_4  and  C5_5 
REMARK    2  A    between atoms: C22_22  and  C23_23 
REMARK    3  A    between atoms: C23_23  and  O2_25 
REMARK    4  A    between atoms: C28_30  and  O3_31 
ROOT
HETATM    1  C5  UNL     1      -3.235  49.305 -23.563  1.00  0.00     0.032 C 
HETATM    2  C6  UNL     1      -3.851  48.867 -22.199  1.00  0.00     0.014 C 
HETATM    3  C7  UNL     1      -4.732  47.603 -22.227  1.00  0.00     0.007 C 
HETATM    4  C8  UNL     1      -5.298  47.246 -20.852  1.00  0.00     0.007 C 
HETATM    5  C9  UNL     1      -4.228  47.223 -19.745  1.00  0.00     0.007 C 
HETATM    6  C10 UNL     1      -4.748  46.693 -18.370  1.00  0.00    -0.018 C 
HETATM    7  C11 UNL     1      -5.923  47.511 -17.785  1.00  0.00     0.020 C 
HETATM    8  C12 UNL     1      -5.186  45.241 -18.300  1.00  0.00    -0.020 C 
HETATM    9  C13 UNL     1      -4.741  44.643 -17.180  1.00  0.00    -0.021 C 
HETATM   10  C14 UNL     1      -3.819  45.534 -16.368  1.00  0.00    -0.026 C 
HETATM   11  C15 UNL     1      -4.486  46.108 -15.117  1.00  0.00     0.019 C 
HETATM   12  C16 UNL     1      -2.559  44.761 -15.945  1.00  0.00     0.019 C 
HETATM   13  C17 UNL     1      -3.487  46.561 -17.472  1.00  0.00     0.009 C 
HETATM   14  C18 UNL     1      -2.859  47.905 -17.153  1.00  0.00     0.007 C 
HETATM   15  C19 UNL     1      -2.363  48.533 -18.474  1.00  0.00     0.011 C 
HETATM   16  C20 UNL     1      -3.416  48.592 -19.647  1.00  0.00    -0.021 C 
HETATM   17  C21 UNL     1      -4.345  49.795 -19.305  1.00  0.00     0.017 C 
HETATM   18  C22 UNL     1      -2.725  48.848 -21.084  1.00  0.00     0.057 C 
HETATM   19  C24 UNL     1      -1.909  50.193 -21.171  1.00  0.00     0.023 C 
HETATM   20  C25 UNL     1      -2.533  51.281 -22.044  1.00  0.00     0.022 C 
HETATM   21  C26 UNL     1      -2.840  50.817 -23.491  1.00  0.00     0.060 C 
HETATM   22  C27 UNL     1      -1.696  51.121 -24.456  1.00  0.00     0.081 C 
HETATM   23  C28 UNL     1      -1.971  52.545 -24.869  1.00  0.00     0.267 C 
HETATM   24  O4  UNL     1      -3.381  52.673 -24.887  1.00  0.00    -0.289 OA
HETATM   25  C29 UNL     1      -3.913  51.761 -24.023  1.00  0.00     0.270 C 
HETATM   26  O5  UNL     1      -5.091  51.750 -23.701  1.00  0.00    -0.264 OA
ENDROOT
BRANCH   1  27
HETATM   27  C4  UNL     1      -4.102  48.970 -24.764  1.00  0.00    -0.018 C 
HETATM   28  C2  UNL     1      -3.715  48.626 -26.009  1.00  0.00    -0.091 C 
HETATM   29  C1  UNL     1      -4.748  48.304 -27.060  1.00  0.00     0.042 C 
HETATM   30  C3  UNL     1      -2.298  48.507 -26.496  1.00  0.00     0.042 C 
ENDBRANCH   1  27
BRANCH  23  31
HETATM   31  O3  UNL     1      -1.424  52.839 -26.138  1.00  0.00    -0.371 OA
HETATM   32  H42 UNL     1      -1.815  52.205 -26.762  1.00  0.00     0.212 HD
ENDBRANCH  23  31
BRANCH  18  33
HETATM   33  C23 UNL     1      -1.639  47.760 -21.333  1.00  0.00     0.149 C 
HETATM   34  O1  UNL     1      -0.481  47.799 -20.941  1.00  0.00    -0.649 OA
BRANCH  33  35
HETATM   35  O2  UNL     1      -2.022  46.695 -22.049  1.00  0.00    -0.776 OA
HETATM   36  H34 UNL     1      -1.226  46.122 -22.070  1.00  0.00     0.167 HD
ENDBRANCH  33  35
ENDBRANCH  18  33
TORSDOF 4
ENDMDL
MODEL 9
REMARK minimizedAffinity -8.66541004
REMARK  4 active torsions:
REMARK  status: ('A' for Active; 'I' for Inactive)
REMARK    1  A    between atoms: C4_4  and  C5_5 
REMARK    2  A    between atoms: C22_22  and  C23_23 
REMARK    3  A    between atoms: C23_23  and  O2_25 
REMARK    4  A    between atoms: C28_30  and  O3_31 
ROOT
HETATM    1  C5  UNL     1      -6.477  48.545 -25.056  1.00  0.00     0.032 C 
HETATM    2  C6  UNL     1      -5.362  48.533 -23.967  1.00  0.00     0.014 C 
HETATM    3  C7  UNL     1      -3.922  48.325 -24.473  1.00  0.00     0.007 C 
HETATM    4  C8  UNL     1      -2.893  48.323 -23.341  1.00  0.00     0.007 C 
HETATM    5  C9  UNL     1      -3.041  49.522 -22.387  1.00  0.00     0.007 C 
HETATM    6  C10 UNL     1      -1.896  49.637 -21.329  1.00  0.00    -0.018 C 
HETATM    7  C11 UNL     1      -1.763  48.399 -20.411  1.00  0.00     0.020 C 
HETATM    8  C12 UNL     1      -0.495  49.918 -21.841  1.00  0.00    -0.020 C 
HETATM    9  C13 UNL     1       0.134  50.836 -21.083  1.00  0.00    -0.021 C 
HETATM   10  C14 UNL     1      -0.768  51.432 -20.018  1.00  0.00    -0.026 C 
HETATM   11  C15 UNL     1      -0.472  50.900 -18.615  1.00  0.00     0.019 C 
HETATM   12  C16 UNL     1      -0.641  52.964 -20.002  1.00  0.00     0.019 C 
HETATM   13  C17 UNL     1      -2.123  51.000 -20.618  1.00  0.00     0.009 C 
HETATM   14  C18 UNL     1      -3.404  51.023 -19.803  1.00  0.00     0.007 C 
HETATM   15  C19 UNL     1      -4.595  50.857 -20.772  1.00  0.00     0.011 C 
HETATM   16  C20 UNL     1      -4.507  49.641 -21.772  1.00  0.00    -0.021 C 
HETATM   17  C21 UNL     1      -4.885  48.387 -20.928  1.00  0.00     0.017 C 
HETATM   18  C22 UNL     1      -5.538  49.781 -23.006  1.00  0.00     0.057 C 
HETATM   19  C24 UNL     1      -7.050  49.869 -22.569  1.00  0.00     0.023 C 
HETATM   20  C25 UNL     1      -7.897  48.639 -22.894  1.00  0.00     0.022 C 
HETATM   21  C26 UNL     1      -7.858  48.234 -24.388  1.00  0.00     0.060 C 
HETATM   22  C27 UNL     1      -8.998  48.856 -25.193  1.00  0.00     0.081 C 
HETATM   23  C28 UNL     1     -10.134  47.889 -24.974  1.00  0.00     0.267 C 
HETATM   24  O4  UNL     1      -9.534  46.610 -24.878  1.00  0.00    -0.289 OA
HETATM   25  C29 UNL     1      -8.251  46.761 -24.442  1.00  0.00     0.270 C 
HETATM   26  O5  UNL     1      -7.543  45.824 -24.103  1.00  0.00    -0.264 OA
ENDROOT
BRANCH   1  27
HETATM   27  C4  UNL     1      -6.178  47.657 -26.251  1.00  0.00    -0.018 C 
HETATM   28  C2  UNL     1      -6.787  47.634 -27.454  1.00  0.00    -0.091 C 
HETATM   29  C1  UNL     1      -6.312  46.683 -28.525  1.00  0.00     0.042 C 
HETATM   30  C3  UNL     1      -7.938  48.502 -27.882  1.00  0.00     0.042 C 
ENDBRANCH   1  27
BRANCH  23  31
HETATM   31  O3  UNL     1     -11.067  47.928 -26.033  1.00  0.00    -0.371 OA
HETATM   32  H42 UNL     1     -10.575  47.722 -26.845  1.00  0.00     0.212 HD
ENDBRANCH  23  31
BRANCH  18  33
HETATM   33  C23 UNL     1      -5.300  51.142 -23.724  1.00  0.00     0.149 C 
HETATM   34  O1  UNL     1      -4.480  51.353 -24.607  1.00  0.00    -0.649 OA
BRANCH  33  35
HETATM   35  O2  UNL     1      -6.066  52.164 -23.324  1.00  0.00    -0.776 OA
HETATM   36  H34 UNL     1      -5.795  52.908 -23.903  1.00  0.00     0.167 HD
ENDBRANCH  33  35
ENDBRANCH  18  33
TORSDOF 4
ENDMDL
