MODEL 1
REMARK minimizedAffinity -9.04823589
REMARK  8 active torsions:
REMARK  status: ('A' for Active; 'I' for Inactive)
REMARK    1  A    between atoms: C2_2  and  C3_3 
REMARK    2  A    between atoms: C2_2  and  C28_31 
REMARK    3  A    between atoms: C3_3  and  C4_4 
REMARK    4  A    between atoms: C4_4  and  O1_5 
REMARK    5  A    between atoms: C4_4  and  C5_6 
REMARK    6  A    between atoms: C5_6  and  C7_8 
REMARK    7  A    between atoms: C21_22  and  C23_24 
REMARK    8  A    between atoms: C23_24  and  O3_26 
ROOT
HETATM    1  C7  UNL     1      -1.331  48.827 -18.611  1.00  0.00     0.001 C 
HETATM    2  C8  UNL     1      -2.576  47.917 -18.875  1.00  0.00     0.007 C 
HETATM    3  C9  UNL     1      -3.036  48.172 -20.321  1.00  0.00     0.015 C 
HETATM    4  C10 UNL     1      -1.833  48.851 -20.990  1.00  0.00    -0.013 C 
HETATM    5  C11 UNL     1      -0.827  47.721 -21.385  1.00  0.00     0.021 C 
HETATM    6  C12 UNL     1      -2.051  49.636 -22.277  1.00  0.00    -0.068 C 
HETATM    7  C13 UNL     1      -1.212  50.664 -22.578  1.00  0.00    -0.068 C 
HETATM    8  C14 UNL     1      -0.122  51.143 -21.626  1.00  0.00     0.036 C 
HETATM    9  C15 UNL     1      -0.009  50.412 -20.270  1.00  0.00     0.015 C 
HETATM   10  C16 UNL     1      -1.352  49.811 -19.825  1.00  0.00    -0.029 C 
HETATM   11  C17 UNL     1      -2.345  50.979 -19.559  1.00  0.00     0.016 C 
HETATM   12  C18 UNL     1      -1.391  51.440 -23.877  1.00  0.00    -0.015 C 
HETATM   13  C19 UNL     1      -2.292  52.657 -23.555  1.00  0.00     0.020 C 
HETATM   14  C20 UNL     1      -0.119  51.911 -24.621  1.00  0.00     0.034 C 
HETATM   15  C21 UNL     1      -0.500  51.968 -26.132  1.00  0.00     0.043 C 
HETATM   16  C22 UNL     1      -0.595  53.412 -26.645  1.00  0.00     0.027 C 
HETATM   17  C24 UNL     1      -1.879  51.263 -26.243  1.00  0.00     0.025 C 
HETATM   18  C25 UNL     1      -1.973  50.482 -24.938  1.00  0.00    -0.001 C 
HETATM   19  C26 UNL     1      -3.325  49.941 -24.522  1.00  0.00     0.010 C 
HETATM   20  C27 UNL     1      -3.173  49.170 -23.199  1.00  0.00     0.036 C 
ENDROOT
BRANCH   1  21
HETATM   21  C5  UNL     1      -1.229  49.252 -17.109  1.00  0.00     0.015 C 
HETATM   22  C6  UNL     1      -2.104  50.438 -16.671  1.00  0.00     0.013 C 
BRANCH  21  23
HETATM   23  C4  UNL     1       0.202  49.437 -16.536  1.00  0.00     0.126 C 
BRANCH  23  24
HETATM   24  C3  UNL     1       0.356  50.672 -15.624  1.00  0.00     0.065 C 
BRANCH  24  25
HETATM   25  C2  UNL     1       1.306  51.718 -16.196  1.00  0.00    -0.083 C 
HETATM   26  C1  UNL     1       1.050  52.283 -17.389  1.00  0.00     0.015 C 
BRANCH  25  27
HETATM   27  C28 UNL     1       2.540  52.033 -15.355  1.00  0.00     0.005 C 
HETATM   28  C29 UNL     1       2.821  50.893 -14.372  1.00  0.00     0.014 C 
HETATM   29  C30 UNL     1       3.799  52.344 -16.175  1.00  0.00     0.014 C 
ENDBRANCH  25  27
ENDBRANCH  24  25
ENDBRANCH  23  24
BRANCH  23  30
HETATM   30  O1  UNL     1       0.607  48.256 -15.848  1.00  0.00    -0.395 OA
HETATM   31  H6  UNL     1       1.525  48.400 -15.556  1.00  0.00     0.210 HD
ENDBRANCH  23  30
ENDBRANCH  21  23
ENDBRANCH   1  21
BRANCH  15  32
HETATM   32  C23 UNL     1       0.568  51.244 -26.950  1.00  0.00     0.148 C 
HETATM   33  O2  UNL     1       1.464  50.539 -26.513  1.00  0.00    -0.649 OA
BRANCH  32  34
HETATM   34  O3  UNL     1       0.440  51.402 -28.281  1.00  0.00    -0.776 OA
HETATM   35  H34 UNL     1       1.176  50.872 -28.654  1.00  0.00     0.167 HD
ENDBRANCH  32  34
ENDBRANCH  15  32
TORSDOF 8
ENDMDL
MODEL 2
REMARK minimizedAffinity -8.98938751
REMARK  8 active torsions:
REMARK  status: ('A' for Active; 'I' for Inactive)
REMARK    1  A    between atoms: C2_2  and  C3_3 
REMARK    2  A    between atoms: C2_2  and  C28_31 
REMARK    3  A    between atoms: C3_3  and  C4_4 
REMARK    4  A    between atoms: C4_4  and  O1_5 
REMARK    5  A    between atoms: C4_4  and  C5_6 
REMARK    6  A    between atoms: C5_6  and  C7_8 
REMARK    7  A    between atoms: C21_22  and  C23_24 
REMARK    8  A    between atoms: C23_24  and  O3_26 
ROOT
HETATM    1  C7  UNL     1      -0.745  50.444 -18.238  1.00  0.00     0.001 C 
HETATM    2  C8  UNL     1      -2.044  51.114 -17.680  1.00  0.00     0.007 C 
HETATM    3  C9  UNL     1      -2.895  51.550 -18.886  1.00  0.00     0.015 C 
HETATM    4  C10 UNL     1      -2.320  50.753 -20.066  1.00  0.00    -0.013 C 
HETATM    5  C11 UNL     1      -2.939  49.319 -19.998  1.00  0.00     0.021 C 
HETATM    6  C12 UNL     1      -2.606  51.227 -21.484  1.00  0.00    -0.068 C 
HETATM    7  C13 UNL     1      -1.719  50.935 -22.473  1.00  0.00    -0.068 C 
HETATM    8  C14 UNL     1      -0.385  50.247 -22.206  1.00  0.00     0.036 C 
HETATM    9  C15 UNL     1      -0.062  49.896 -20.736  1.00  0.00     0.015 C 
HETATM   10  C16 UNL     1      -0.770  50.839 -19.750  1.00  0.00    -0.029 C 
HETATM   11  C17 UNL     1      -0.194  52.271 -19.946  1.00  0.00     0.016 C 
HETATM   12  C18 UNL     1      -2.002  51.370 -23.906  1.00  0.00    -0.015 C 
HETATM   13  C19 UNL     1      -1.322  52.746 -24.104  1.00  0.00     0.020 C 
HETATM   14  C20 UNL     1      -1.589  50.411 -25.049  1.00  0.00     0.034 C 
HETATM   15  C21 UNL     1      -2.586  50.682 -26.218  1.00  0.00     0.043 C 
HETATM   16  C22 UNL     1      -1.906  51.397 -27.395  1.00  0.00     0.027 C 
HETATM   17  C24 UNL     1      -3.705  51.575 -25.617  1.00  0.00     0.025 C 
HETATM   18  C25 UNL     1      -3.531  51.380 -24.116  1.00  0.00    -0.001 C 
HETATM   19  C26 UNL     1      -4.217  52.357 -23.183  1.00  0.00     0.010 C 
HETATM   20  C27 UNL     1      -3.927  51.950 -21.727  1.00  0.00     0.036 C 
ENDROOT
BRANCH   1  21
HETATM   21  C5  UNL     1       0.471  50.642 -17.275  1.00  0.00     0.015 C 
HETATM   22  C6  UNL     1       0.681  49.560 -16.203  1.00  0.00     0.013 C 
BRANCH  21  23
HETATM   23  C4  UNL     1       0.614  52.043 -16.618  1.00  0.00     0.126 C 
BRANCH  23  24
HETATM   24  C3  UNL     1       1.141  52.003 -15.169  1.00  0.00     0.065 C 
BRANCH  24  25
HETATM   25  C2  UNL     1       2.662  51.923 -15.092  1.00  0.00    -0.083 C 
HETATM   26  C1  UNL     1       3.415  52.406 -16.095  1.00  0.00     0.015 C 
BRANCH  25  27
HETATM   27  C28 UNL     1       3.235  51.244 -13.851  1.00  0.00     0.005 C 
HETATM   28  C29 UNL     1       2.105  50.759 -12.939  1.00  0.00     0.014 C 
HETATM   29  C30 UNL     1       4.201  50.091 -14.152  1.00  0.00     0.014 C 
ENDBRANCH  25  27
ENDBRANCH  24  25
ENDBRANCH  23  24
BRANCH  23  30
HETATM   30  O1  UNL     1       1.441  52.876 -17.427  1.00  0.00    -0.395 OA
HETATM   31  H6  UNL     1       1.457  53.754 -17.005  1.00  0.00     0.210 HD
ENDBRANCH  23  30
ENDBRANCH  21  23
ENDBRANCH   1  21
BRANCH  15  32
HETATM   32  C23 UNL     1      -3.140  49.352 -26.727  1.00  0.00     0.148 C 
HETATM   33  O2  UNL     1      -3.492  49.101 -27.868  1.00  0.00    -0.649 OA
BRANCH  32  34
HETATM   34  O3  UNL     1      -3.188  48.385 -25.792  1.00  0.00    -0.776 OA
HETATM   35  H34 UNL     1      -3.542  47.607 -26.273  1.00  0.00     0.167 HD
ENDBRANCH  32  34
ENDBRANCH  15  32
TORSDOF 8
ENDMDL
MODEL 3
REMARK minimizedAffinity -8.97954369
REMARK  8 active torsions:
REMARK  status: ('A' for Active; 'I' for Inactive)
REMARK    1  A    between atoms: C2_2  and  C3_3 
REMARK    2  A    between atoms: C2_2  and  C28_31 
REMARK    3  A    between atoms: C3_3  and  C4_4 
REMARK    4  A    between atoms: C4_4  and  O1_5 
REMARK    5  A    between atoms: C4_4  and  C5_6 
REMARK    6  A    between atoms: C5_6  and  C7_8 
REMARK    7  A    between atoms: C21_22  and  C23_24 
REMARK    8  A    between atoms: C23_24  and  O3_26 
ROOT
HETATM    1  C7  UNL     1      -0.633  52.607 -21.936  1.00  0.00     0.001 C 
HETATM    2  C8  UNL     1       0.168  52.434 -23.269  1.00  0.00     0.007 C 
HETATM    3  C9  UNL     1      -0.597  51.424 -24.140  1.00  0.00     0.015 C 
HETATM    4  C10 UNL     1      -2.003  51.375 -23.524  1.00  0.00    -0.013 C 
HETATM    5  C11 UNL     1      -2.787  52.614 -24.065  1.00  0.00     0.021 C 
HETATM    6  C12 UNL     1      -2.903  50.187 -23.834  1.00  0.00    -0.068 C 
HETATM    7  C13 UNL     1      -3.853  49.820 -22.932  1.00  0.00    -0.068 C 
HETATM    8  C14 UNL     1      -3.987  50.478 -21.563  1.00  0.00     0.036 C 
HETATM    9  C15 UNL     1      -2.973  51.594 -21.223  1.00  0.00     0.015 C 
HETATM   10  C16 UNL     1      -1.647  51.418 -21.980  1.00  0.00    -0.029 C 
HETATM   11  C17 UNL     1      -0.970  50.109 -21.482  1.00  0.00     0.016 C 
HETATM   12  C18 UNL     1      -4.788  48.656 -23.238  1.00  0.00    -0.015 C 
HETATM   13  C19 UNL     1      -4.141  47.387 -22.631  1.00  0.00     0.020 C 
HETATM   14  C20 UNL     1      -6.260  48.767 -22.774  1.00  0.00     0.034 C 
HETATM   15  C21 UNL     1      -7.094  47.920 -23.783  1.00  0.00     0.043 C 
HETATM   16  C22 UNL     1      -7.628  46.631 -23.142  1.00  0.00     0.027 C 
HETATM   17  C24 UNL     1      -6.125  47.582 -24.948  1.00  0.00     0.025 C 
HETATM   18  C25 UNL     1      -5.000  48.594 -24.765  1.00  0.00    -0.001 C 
HETATM   19  C26 UNL     1      -3.698  48.358 -25.502  1.00  0.00     0.010 C 
HETATM   20  C27 UNL     1      -2.729  49.513 -25.191  1.00  0.00     0.036 C 
ENDROOT
BRANCH   1  21
HETATM   21  C5  UNL     1       0.307  52.943 -20.732  1.00  0.00     0.015 C 
HETATM   22  C6  UNL     1       1.816  52.758 -20.967  1.00  0.00     0.013 C 
BRANCH  21  23
HETATM   23  C4  UNL     1      -0.073  52.322 -19.360  1.00  0.00     0.126 C 
BRANCH  23  24
HETATM   24  C3  UNL     1       0.995  52.521 -18.266  1.00  0.00     0.065 C 
BRANCH  24  25
HETATM   25  C2  UNL     1       0.905  51.484 -17.152  1.00  0.00    -0.083 C 
HETATM   26  C1  UNL     1       0.179  50.366 -17.328  1.00  0.00     0.015 C 
BRANCH  25  27
HETATM   27  C28 UNL     1       1.646  51.821 -15.861  1.00  0.00     0.005 C 
HETATM   28  C29 UNL     1       1.696  50.598 -14.940  1.00  0.00     0.014 C 
HETATM   29  C30 UNL     1       3.058  52.380 -16.072  1.00  0.00     0.014 C 
ENDBRANCH  25  27
ENDBRANCH  24  25
ENDBRANCH  23  24
BRANCH  23  30
HETATM   30  O1  UNL     1      -1.331  52.835 -18.928  1.00  0.00    -0.395 OA
HETATM   31  H6  UNL     1      -1.551  52.378 -18.096  1.00  0.00     0.210 HD
ENDBRANCH  23  30
ENDBRANCH  21  23
ENDBRANCH   1  21
BRANCH  15  32
HETATM   32  C23 UNL     1      -8.289  48.740 -24.265  1.00  0.00     0.148 C 
HETATM   33  O2  UNL     1      -9.366  48.305 -24.640  1.00  0.00    -0.649 OA
BRANCH  32  34
HETATM   34  O3  UNL     1      -8.095  50.072 -24.217  1.00  0.00    -0.776 OA
HETATM   35  H34 UNL     1      -8.942  50.447 -24.536  1.00  0.00     0.167 HD
ENDBRANCH  32  34
ENDBRANCH  15  32
TORSDOF 8
ENDMDL
MODEL 4
REMARK minimizedAffinity -8.95204735
REMARK  8 active torsions:
REMARK  status: ('A' for Active; 'I' for Inactive)
REMARK    1  A    between atoms: C2_2  and  C3_3 
REMARK    2  A    between atoms: C2_2  and  C28_31 
REMARK    3  A    between atoms: C3_3  and  C4_4 
REMARK    4  A    between atoms: C4_4  and  O1_5 
REMARK    5  A    between atoms: C4_4  and  C5_6 
REMARK    6  A    between atoms: C5_6  and  C7_8 
REMARK    7  A    between atoms: C21_22  and  C23_24 
REMARK    8  A    between atoms: C23_24  and  O3_26 
ROOT
HETATM    1  C7  UNL     1      -3.671  50.593 -24.771  1.00  0.00     0.001 C 
HETATM    2  C8  UNL     1      -5.185  50.670 -24.386  1.00  0.00     0.007 C 
HETATM    3  C9  UNL     1      -5.285  50.484 -22.862  1.00  0.00     0.015 C 
HETATM    4  C10 UNL     1      -3.861  50.748 -22.351  1.00  0.00    -0.013 C 
HETATM    5  C11 UNL     1      -3.681  52.298 -22.268  1.00  0.00     0.021 C 
HETATM    6  C12 UNL     1      -3.468  50.242 -20.970  1.00  0.00    -0.068 C 
HETATM    7  C13 UNL     1      -2.163  49.949 -20.716  1.00  0.00    -0.068 C 
HETATM    8  C14 UNL     1      -1.085  49.998 -21.792  1.00  0.00     0.036 C 
HETATM    9  C15 UNL     1      -1.537  50.387 -23.218  1.00  0.00     0.015 C 
HETATM   10  C16 UNL     1      -3.008  50.025 -23.474  1.00  0.00    -0.029 C 
HETATM   11  C17 UNL     1      -3.145  48.476 -23.430  1.00  0.00     0.016 C 
HETATM   12  C18 UNL     1      -1.743  49.474 -19.330  1.00  0.00    -0.015 C 
HETATM   13  C19 UNL     1      -1.780  47.927 -19.353  1.00  0.00     0.020 C 
HETATM   14  C20 UNL     1      -0.379  49.958 -18.782  1.00  0.00     0.034 C 
HETATM   15  C21 UNL     1      -0.526  49.988 -17.230  1.00  0.00     0.043 C 
HETATM   16  C22 UNL     1       0.288  48.874 -16.557  1.00  0.00     0.027 C 
HETATM   17  C24 UNL     1      -2.041  49.796 -16.948  1.00  0.00     0.025 C 
HETATM   18  C25 UNL     1      -2.684  50.119 -18.292  1.00  0.00    -0.001 C 
HETATM   19  C26 UNL     1      -4.126  49.709 -18.512  1.00  0.00     0.010 C 
HETATM   20  C27 UNL     1      -4.567  50.160 -19.916  1.00  0.00     0.036 C 
ENDROOT
BRANCH   1  21
HETATM   21  C5  UNL     1      -3.466  50.020 -26.212  1.00  0.00     0.015 C 
HETATM   22  C6  UNL     1      -3.169  48.515 -26.316  1.00  0.00     0.013 C 
BRANCH  21  23
HETATM   23  C4  UNL     1      -2.487  50.797 -27.134  1.00  0.00     0.126 C 
BRANCH  23  24
HETATM   24  C3  UNL     1      -1.018  50.344 -27.009  1.00  0.00     0.065 C 
BRANCH  24  25
HETATM   25  C2  UNL     1      -0.036  51.510 -26.994  1.00  0.00    -0.083 C 
HETATM   26  C1  UNL     1      -0.037  52.407 -27.997  1.00  0.00     0.015 C 
BRANCH  25  27
HETATM   27  C28 UNL     1       0.934  51.555 -25.817  1.00  0.00     0.005 C 
HETATM   28  C29 UNL     1       2.378  51.424 -26.310  1.00  0.00     0.014 C 
HETATM   29  C30 UNL     1       0.791  52.797 -24.929  1.00  0.00     0.014 C 
ENDBRANCH  25  27
ENDBRANCH  24  25
ENDBRANCH  23  24
BRANCH  23  30
HETATM   30  O1  UNL     1      -2.922  50.709 -28.489  1.00  0.00    -0.395 OA
HETATM   31  H6  UNL     1      -2.312  51.253 -29.018  1.00  0.00     0.210 HD
ENDBRANCH  23  30
ENDBRANCH  21  23
ENDBRANCH   1  21
BRANCH  15  32
HETATM   32  C23 UNL     1      -0.022  51.330 -16.701  1.00  0.00     0.148 C 
HETATM   33  O2  UNL     1      -0.037  51.705 -15.539  1.00  0.00    -0.649 OA
BRANCH  32  34
HETATM   34  O3  UNL     1       0.516  52.124 -17.645  1.00  0.00    -0.776 OA
HETATM   35  H34 UNL     1       0.801  52.921 -17.151  1.00  0.00     0.167 HD
ENDBRANCH  32  34
ENDBRANCH  15  32
TORSDOF 8
ENDMDL
MODEL 5
REMARK minimizedAffinity -8.90978241
REMARK  8 active torsions:
REMARK  status: ('A' for Active; 'I' for Inactive)
REMARK    1  A    between atoms: C2_2  and  C3_3 
REMARK    2  A    between atoms: C2_2  and  C28_31 
REMARK    3  A    between atoms: C3_3  and  C4_4 
REMARK    4  A    between atoms: C4_4  and  O1_5 
REMARK    5  A    between atoms: C4_4  and  C5_6 
REMARK    6  A    between atoms: C5_6  and  C7_8 
REMARK    7  A    between atoms: C21_22  and  C23_24 
REMARK    8  A    between atoms: C23_24  and  O3_26 
ROOT
HETATM    1  C7  UNL     1      -0.745  51.415 -22.605  1.00  0.00     0.001 C 
HETATM    2  C8  UNL     1      -0.435  51.914 -21.155  1.00  0.00     0.007 C 
HETATM    3  C9  UNL     1      -1.387  51.176 -20.198  1.00  0.00     0.015 C 
HETATM    4  C10 UNL     1      -1.896  49.979 -21.014  1.00  0.00    -0.013 C 
HETATM    5  C11 UNL     1      -0.791  48.876 -20.954  1.00  0.00     0.021 C 
HETATM    6  C12 UNL     1      -3.169  49.271 -20.568  1.00  0.00    -0.068 C 
HETATM    7  C13 UNL     1      -3.933  48.633 -21.495  1.00  0.00    -0.068 C 
HETATM    8  C14 UNL     1      -3.634  48.689 -22.989  1.00  0.00     0.036 C 
HETATM    9  C15 UNL     1      -2.410  49.526 -23.425  1.00  0.00     0.015 C 
HETATM   10  C16 UNL     1      -2.102  50.657 -22.431  1.00  0.00    -0.029 C 
HETATM   11  C17 UNL     1      -3.290  51.661 -22.451  1.00  0.00     0.016 C 
HETATM   12  C18 UNL     1      -5.192  47.889 -21.066  1.00  0.00    -0.015 C 
HETATM   13  C19 UNL     1      -6.372  48.881 -21.204  1.00  0.00     0.020 C 
HETATM   14  C20 UNL     1      -5.533  46.564 -21.789  1.00  0.00     0.034 C 
HETATM   15  C21 UNL     1      -6.317  45.700 -20.756  1.00  0.00     0.043 C 
HETATM   16  C22 UNL     1      -7.802  45.574 -21.125  1.00  0.00     0.027 C 
HETATM   17  C24 UNL     1      -6.160  46.428 -19.394  1.00  0.00     0.025 C 
HETATM   18  C25 UNL     1      -4.975  47.355 -19.635  1.00  0.00    -0.001 C 
HETATM   19  C26 UNL     1      -4.732  48.480 -18.648  1.00  0.00     0.010 C 
HETATM   20  C27 UNL     1      -3.476  49.259 -19.074  1.00  0.00     0.036 C 
ENDROOT
BRANCH   1  21
HETATM   21  C5  UNL     1      -0.462  52.520 -23.674  1.00  0.00     0.015 C 
HETATM   22  C6  UNL     1      -1.638  52.914 -24.582  1.00  0.00     0.013 C 
BRANCH  21  23
HETATM   23  C4  UNL     1       0.811  52.333 -24.544  1.00  0.00     0.126 C 
BRANCH  23  24
HETATM   24  C3  UNL     1       0.700  51.196 -25.579  1.00  0.00     0.065 C 
BRANCH  24  25
HETATM   25  C2  UNL     1       1.210  51.596 -26.959  1.00  0.00    -0.083 C 
HETATM   26  C1  UNL     1       2.532  51.685 -27.190  1.00  0.00     0.015 C 
BRANCH  25  27
HETATM   27  C28 UNL     1       0.143  51.910 -28.003  1.00  0.00     0.005 C 
HETATM   28  C29 UNL     1      -1.181  51.238 -27.632  1.00  0.00     0.014 C 
HETATM   29  C30 UNL     1      -0.078  53.409 -28.248  1.00  0.00     0.014 C 
ENDBRANCH  25  27
ENDBRANCH  24  25
ENDBRANCH  23  24
BRANCH  23  30
HETATM   30  O1  UNL     1       1.145  53.561 -25.186  1.00  0.00    -0.395 OA
HETATM   31  H6  UNL     1       1.975  53.409 -25.673  1.00  0.00     0.210 HD
ENDBRANCH  23  30
ENDBRANCH  21  23
ENDBRANCH   1  21
BRANCH  15  32
HETATM   32  C23 UNL     1      -5.718  44.295 -20.714  1.00  0.00     0.148 C 
HETATM   33  O2  UNL     1      -5.203  43.752 -19.749  1.00  0.00    -0.649 OA
BRANCH  32  34
HETATM   34  O3  UNL     1      -5.828  43.618 -21.872  1.00  0.00    -0.776 OA
HETATM   35  H34 UNL     1      -5.420  42.748 -21.679  1.00  0.00     0.167 HD
ENDBRANCH  32  34
ENDBRANCH  15  32
TORSDOF 8
ENDMDL
MODEL 6
REMARK minimizedAffinity -8.8713789
REMARK  8 active torsions:
REMARK  status: ('A' for Active; 'I' for Inactive)
REMARK    1  A    between atoms: C2_2  and  C3_3 
REMARK    2  A    between atoms: C2_2  and  C28_31 
REMARK    3  A    between atoms: C3_3  and  C4_4 
REMARK    4  A    between atoms: C4_4  and  O1_5 
REMARK    5  A    between atoms: C4_4  and  C5_6 
REMARK    6  A    between atoms: C5_6  and  C7_8 
REMARK    7  A    between atoms: C21_22  and  C23_24 
REMARK    8  A    between atoms: C23_24  and  O3_26 
ROOT
HETATM    1  C7  UNL     1      -1.804  52.045 -22.924  1.00  0.00     0.001 C 
HETATM    2  C8  UNL     1      -2.602  52.508 -24.188  1.00  0.00     0.007 C 
HETATM    3  C9  UNL     1      -3.981  51.828 -24.139  1.00  0.00     0.015 C 
HETATM    4  C10 UNL     1      -4.127  51.365 -22.683  1.00  0.00    -0.013 C 
HETATM    5  C11 UNL     1      -4.579  52.606 -21.847  1.00  0.00     0.021 C 
HETATM    6  C12 UNL     1      -5.150  50.287 -22.351  1.00  0.00    -0.068 C 
HETATM    7  C13 UNL     1      -4.939  49.480 -21.275  1.00  0.00    -0.068 C 
HETATM    8  C14 UNL     1      -3.662  49.531 -20.445  1.00  0.00     0.036 C 
HETATM    9  C15 UNL     1      -2.583  50.546 -20.886  1.00  0.00     0.015 C 
HETATM   10  C16 UNL     1      -2.657  50.849 -22.391  1.00  0.00    -0.029 C 
HETATM   11  C17 UNL     1      -2.311  49.547 -23.169  1.00  0.00     0.016 C 
HETATM   12  C18 UNL     1      -5.968  48.418 -20.905  1.00  0.00    -0.015 C 
HETATM   13  C19 UNL     1      -5.533  47.106 -21.604  1.00  0.00     0.020 C 
HETATM   14  C20 UNL     1      -6.225  48.151 -19.402  1.00  0.00     0.034 C 
HETATM   15  C21 UNL     1      -7.703  47.664 -19.300  1.00  0.00     0.043 C 
HETATM   16  C22 UNL     1      -7.790  46.171 -18.953  1.00  0.00     0.027 C 
HETATM   17  C24 UNL     1      -8.331  47.933 -20.693  1.00  0.00     0.025 C 
HETATM   18  C25 UNL     1      -7.363  48.928 -21.322  1.00  0.00    -0.001 C 
HETATM   19  C26 UNL     1      -7.449  49.166 -22.815  1.00  0.00     0.010 C 
HETATM   20  C27 UNL     1      -6.404  50.222 -23.216  1.00  0.00     0.036 C 
ENDROOT
BRANCH   1  21
HETATM   21  C5  UNL     1      -0.264  52.004 -23.192  1.00  0.00     0.015 C 
HETATM   22  C6  UNL     1       0.649  52.319 -21.996  1.00  0.00     0.013 C 
BRANCH  21  23
HETATM   23  C4  UNL     1       0.244  52.780 -24.438  1.00  0.00     0.126 C 
BRANCH  23  24
HETATM   24  C3  UNL     1       1.073  51.922 -25.415  1.00  0.00     0.065 C 
BRANCH  24  25
HETATM   25  C2  UNL     1       0.246  51.372 -26.572  1.00  0.00    -0.083 C 
HETATM   26  C1  UNL     1      -0.771  50.526 -26.332  1.00  0.00     0.015 C 
BRANCH  25  27
HETATM   27  C28 UNL     1       0.672  51.813 -27.969  1.00  0.00     0.005 C 
HETATM   28  C29 UNL     1       0.038  53.162 -28.319  1.00  0.00     0.014 C 
HETATM   29  C30 UNL     1       2.191  51.876 -28.174  1.00  0.00     0.014 C 
ENDBRANCH  25  27
ENDBRANCH  24  25
ENDBRANCH  23  24
BRANCH  23  30
HETATM   30  O1  UNL     1      -0.855  53.385 -25.115  1.00  0.00    -0.395 OA
HETATM   31  H6  UNL     1      -0.483  53.902 -25.852  1.00  0.00     0.210 HD
ENDBRANCH  23  30
ENDBRANCH  21  23
ENDBRANCH   1  21
BRANCH  15  32
HETATM   32  C23 UNL     1      -8.417  48.448 -18.200  1.00  0.00     0.148 C 
HETATM   33  O2  UNL     1      -9.338  49.236 -18.351  1.00  0.00    -0.649 OA
BRANCH  32  34
HETATM   34  O3  UNL     1      -7.975  48.178 -16.958  1.00  0.00    -0.776 OA
HETATM   35  H34 UNL     1      -8.535  48.737 -16.380  1.00  0.00     0.167 HD
ENDBRANCH  32  34
ENDBRANCH  15  32
TORSDOF 8
ENDMDL
MODEL 7
REMARK minimizedAffinity -8.61506367
REMARK  8 active torsions:
REMARK  status: ('A' for Active; 'I' for Inactive)
REMARK    1  A    between atoms: C2_2  and  C3_3 
REMARK    2  A    between atoms: C2_2  and  C28_31 
REMARK    3  A    between atoms: C3_3  and  C4_4 
REMARK    4  A    between atoms: C4_4  and  O1_5 
REMARK    5  A    between atoms: C4_4  and  C5_6 
REMARK    6  A    between atoms: C5_6  and  C7_8 
REMARK    7  A    between atoms: C21_22  and  C23_24 
REMARK    8  A    between atoms: C23_24  and  O3_26 
ROOT
HETATM    1  C7  UNL     1      -3.840  48.811 -20.217  1.00  0.00     0.001 C 
HETATM    2  C8  UNL     1      -4.605  47.672 -20.968  1.00  0.00     0.007 C 
HETATM    3  C9  UNL     1      -4.312  47.830 -22.470  1.00  0.00     0.015 C 
HETATM    4  C10 UNL     1      -3.073  48.734 -22.524  1.00  0.00    -0.013 C 
HETATM    5  C11 UNL     1      -1.828  47.827 -22.257  1.00  0.00     0.021 C 
HETATM    6  C12 UNL     1      -2.745  49.460 -23.822  1.00  0.00    -0.068 C 
HETATM    7  C13 UNL     1      -2.059  50.634 -23.772  1.00  0.00    -0.068 C 
HETATM    8  C14 UNL     1      -1.696  51.320 -22.460  1.00  0.00     0.036 C 
HETATM    9  C15 UNL     1      -2.158  50.626 -21.158  1.00  0.00     0.015 C 
HETATM   10  C16 UNL     1      -3.416  49.771 -21.375  1.00  0.00    -0.029 C 
HETATM   11  C17 UNL     1      -4.591  50.718 -21.752  1.00  0.00     0.016 C 
HETATM   12  C18 UNL     1      -1.691  51.359 -25.061  1.00  0.00    -0.015 C 
HETATM   13  C19 UNL     1      -2.825  52.374 -25.347  1.00  0.00     0.020 C 
HETATM   14  C20 UNL     1      -0.320  52.074 -25.124  1.00  0.00     0.034 C 
HETATM   15  C21 UNL     1       0.107  52.053 -26.623  1.00  0.00     0.043 C 
HETATM   16  C22 UNL     1       0.036  53.449 -27.258  1.00  0.00     0.027 C 
HETATM   17  C24 UNL     1      -0.885  51.088 -27.329  1.00  0.00     0.025 C 
HETATM   18  C25 UNL     1      -1.486  50.305 -26.168  1.00  0.00    -0.001 C 
HETATM   19  C26 UNL     1      -2.749  49.506 -26.421  1.00  0.00     0.010 C 
HETATM   20  C27 UNL     1      -3.152  48.780 -25.125  1.00  0.00     0.036 C 
ENDROOT
BRANCH   1  21
HETATM   21  C5  UNL     1      -4.582  49.248 -18.912  1.00  0.00     0.015 C 
HETATM   22  C6  UNL     1      -3.752  49.245 -17.617  1.00  0.00     0.013 C 
BRANCH  21  23
HETATM   23  C4  UNL     1      -5.955  48.576 -18.637  1.00  0.00     0.126 C 
BRANCH  23  24
HETATM   24  C3  UNL     1      -7.073  49.022 -19.600  1.00  0.00     0.065 C 
BRANCH  24  25
HETATM   25  C2  UNL     1      -8.471  48.730 -19.064  1.00  0.00    -0.083 C 
HETATM   26  C1  UNL     1      -8.931  49.389 -17.986  1.00  0.00     0.015 C 
BRANCH  25  27
HETATM   27  C28 UNL     1      -9.258  47.649 -19.799  1.00  0.00     0.005 C 
HETATM   28  C29 UNL     1     -10.763  47.886 -19.643  1.00  0.00     0.014 C 
HETATM   29  C30 UNL     1      -8.898  47.505 -21.283  1.00  0.00     0.014 C 
ENDBRANCH  25  27
ENDBRANCH  24  25
ENDBRANCH  23  24
BRANCH  23  30
HETATM   30  O1  UNL     1      -5.814  47.157 -18.658  1.00  0.00    -0.395 OA
HETATM   31  H6  UNL     1      -6.684  46.784 -18.428  1.00  0.00     0.210 HD
ENDBRANCH  23  30
ENDBRANCH  21  23
ENDBRANCH   1  21
BRANCH  15  32
HETATM   32  C23 UNL     1       1.547  51.555 -26.731  1.00  0.00     0.148 C 
HETATM   33  O2  UNL     1       2.201  51.025 -25.847  1.00  0.00    -0.649 OA
BRANCH  32  34
HETATM   34  O3  UNL     1       2.089  51.707 -27.954  1.00  0.00    -0.776 OA
HETATM   35  H34 UNL     1       2.990  51.331 -27.863  1.00  0.00     0.167 HD
ENDBRANCH  32  34
ENDBRANCH  15  32
TORSDOF 8
ENDMDL
MODEL 8
REMARK minimizedAffinity -8.6092701
REMARK  8 active torsions:
REMARK  status: ('A' for Active; 'I' for Inactive)
REMARK    1  A    between atoms: C2_2  and  C3_3 
REMARK    2  A    between atoms: C2_2  and  C28_31 
REMARK    3  A    between atoms: C3_3  and  C4_4 
REMARK    4  A    between atoms: C4_4  and  O1_5 
REMARK    5  A    between atoms: C4_4  and  C5_6 
REMARK    6  A    between atoms: C5_6  and  C7_8 
REMARK    7  A    between atoms: C21_22  and  C23_24 
REMARK    8  A    between atoms: C23_24  and  O3_26 
ROOT
HETATM    1  C7  UNL     1      -3.557  50.348 -24.717  1.00  0.00     0.001 C 
HETATM    2  C8  UNL     1      -4.658  51.429 -24.461  1.00  0.00     0.007 C 
HETATM    3  C9  UNL     1      -5.304  51.118 -23.100  1.00  0.00     0.015 C 
HETATM    4  C10 UNL     1      -4.306  50.179 -22.409  1.00  0.00    -0.013 C 
HETATM    5  C11 UNL     1      -3.177  51.074 -21.801  1.00  0.00     0.021 C 
HETATM    6  C12 UNL     1      -4.784  49.322 -21.244  1.00  0.00    -0.068 C 
HETATM    7  C13 UNL     1      -4.159  48.141 -20.989  1.00  0.00    -0.068 C 
HETATM    8  C14 UNL     1      -3.067  47.575 -21.890  1.00  0.00     0.036 C 
HETATM    9  C15 UNL     1      -2.694  48.404 -23.139  1.00  0.00     0.015 C 
HETATM   10  C16 UNL     1      -3.866  49.269 -23.629  1.00  0.00    -0.029 C 
HETATM   11  C17 UNL     1      -5.002  48.322 -24.112  1.00  0.00     0.016 C 
HETATM   12  C18 UNL     1      -4.600  47.284 -19.808  1.00  0.00    -0.015 C 
HETATM   13  C19 UNL     1      -5.647  46.278 -20.345  1.00  0.00     0.020 C 
HETATM   14  C20 UNL     1      -3.507  46.529 -19.013  1.00  0.00     0.034 C 
HETATM   15  C21 UNL     1      -4.050  46.393 -17.558  1.00  0.00     0.043 C 
HETATM   16  C22 UNL     1      -4.433  44.945 -17.224  1.00  0.00     0.027 C 
HETATM   17  C24 UNL     1      -5.300  47.312 -17.489  1.00  0.00     0.025 C 
HETATM   18  C25 UNL     1      -5.127  48.220 -18.701  1.00  0.00    -0.001 C 
HETATM   19  C26 UNL     1      -6.321  49.025 -19.170  1.00  0.00     0.010 C 
HETATM   20  C27 UNL     1      -5.906  49.883 -20.377  1.00  0.00     0.036 C 
ENDROOT
BRANCH   1  21
HETATM   21  C5  UNL     1      -3.367  50.060 -26.242  1.00  0.00     0.015 C 
HETATM   22  C6  UNL     1      -3.267  48.582 -26.654  1.00  0.00     0.013 C 
BRANCH  21  23
HETATM   23  C4  UNL     1      -2.255  50.866 -26.967  1.00  0.00     0.126 C 
BRANCH  23  24
HETATM   24  C3  UNL     1      -0.826  50.373 -26.662  1.00  0.00     0.065 C 
BRANCH  24  25
HETATM   25  C2  UNL     1       0.025  51.420 -25.951  1.00  0.00    -0.083 C 
HETATM   26  C1  UNL     1      -0.281  51.801 -24.698  1.00  0.00     0.015 C 
BRANCH  25  27
HETATM   27  C28 UNL     1       1.181  52.003 -26.757  1.00  0.00     0.005 C 
HETATM   28  C29 UNL     1       2.492  51.296 -26.399  1.00  0.00     0.014 C 
HETATM   29  C30 UNL     1       0.968  51.977 -28.276  1.00  0.00     0.014 C 
ENDBRANCH  25  27
ENDBRANCH  24  25
ENDBRANCH  23  24
BRANCH  23  30
HETATM   30  O1  UNL     1      -2.493  50.866 -28.373  1.00  0.00    -0.395 OA
HETATM   31  H6  UNL     1      -1.805  51.426 -28.776  1.00  0.00     0.210 HD
ENDBRANCH  23  30
ENDBRANCH  21  23
ENDBRANCH   1  21
BRANCH  15  32
HETATM   32  C23 UNL     1      -2.971  46.838 -16.572  1.00  0.00     0.148 C 
HETATM   33  O2  UNL     1      -2.804  47.967 -16.139  1.00  0.00    -0.649 OA
BRANCH  32  34
HETATM   34  O3  UNL     1      -2.177  45.840 -16.142  1.00  0.00    -0.776 OA
HETATM   35  H34 UNL     1      -1.562  46.279 -15.517  1.00  0.00     0.167 HD
ENDBRANCH  32  34
ENDBRANCH  15  32
TORSDOF 8
ENDMDL
MODEL 9
REMARK minimizedAffinity -8.59790039
REMARK  8 active torsions:
REMARK  status: ('A' for Active; 'I' for Inactive)
REMARK    1  A    between atoms: C2_2  and  C3_3 
REMARK    2  A    between atoms: C2_2  and  C28_31 
REMARK    3  A    between atoms: C3_3  and  C4_4 
REMARK    4  A    between atoms: C4_4  and  O1_5 
REMARK    5  A    between atoms: C4_4  and  C5_6 
REMARK    6  A    between atoms: C5_6  and  C7_8 
REMARK    7  A    between atoms: C21_22  and  C23_24 
REMARK    8  A    between atoms: C23_24  and  O3_26 
ROOT
HETATM    1  C7  UNL     1      -2.044  51.655 -22.736  1.00  0.00     0.001 C 
HETATM    2  C8  UNL     1      -1.138  51.249 -23.945  1.00  0.00     0.007 C 
HETATM    3  C9  UNL     1      -1.968  50.327 -24.855  1.00  0.00     0.015 C 
HETATM    4  C10 UNL     1      -3.421  50.570 -24.422  1.00  0.00    -0.013 C 
HETATM    5  C11 UNL     1      -3.898  51.884 -25.121  1.00  0.00     0.021 C 
HETATM    6  C12 UNL     1      -4.480  49.537 -24.784  1.00  0.00    -0.068 C 
HETATM    7  C13 UNL     1      -5.580  49.409 -23.993  1.00  0.00    -0.068 C 
HETATM    8  C14 UNL     1      -5.750  50.178 -22.688  1.00  0.00     0.036 C 
HETATM    9  C15 UNL     1      -4.597  51.121 -22.278  1.00  0.00     0.015 C 
HETATM   10  C16 UNL     1      -3.246  50.662 -22.850  1.00  0.00    -0.029 C 
HETATM   11  C17 UNL     1      -2.882  49.295 -22.203  1.00  0.00     0.016 C 
HETATM   12  C18 UNL     1      -6.669  48.406 -24.357  1.00  0.00    -0.015 C 
HETATM   13  C19 UNL     1      -6.340  47.091 -23.609  1.00  0.00     0.020 C 
HETATM   14  C20 UNL     1      -8.140  48.807 -24.091  1.00  0.00     0.034 C 
HETATM   15  C21 UNL     1      -8.991  48.046 -25.154  1.00  0.00     0.043 C 
HETATM   16  C22 UNL     1      -9.822  46.921 -24.522  1.00  0.00     0.027 C 
HETATM   17  C24 UNL     1      -7.971  47.461 -26.167  1.00  0.00     0.025 C 
HETATM   18  C25 UNL     1      -6.710  48.271 -25.893  1.00  0.00    -0.001 C 
HETATM   19  C26 UNL     1      -5.395  47.759 -26.445  1.00  0.00     0.010 C 
HETATM   20  C27 UNL     1      -4.275  48.746 -26.072  1.00  0.00     0.036 C 
ENDROOT
BRANCH   1  21
HETATM   21  C5  UNL     1      -1.205  51.909 -21.441  1.00  0.00     0.015 C 
HETATM   22  C6  UNL     1       0.324  51.907 -21.602  1.00  0.00     0.013 C 
BRANCH  21  23
HETATM   23  C4  UNL     1      -1.586  51.068 -20.192  1.00  0.00     0.126 C 
BRANCH  23  24
HETATM   24  C3  UNL     1      -0.388  50.367 -19.521  1.00  0.00     0.065 C 
BRANCH  24  25
HETATM   25  C2  UNL     1      -0.108  50.885 -18.114  1.00  0.00    -0.083 C 
HETATM   26  C1  UNL     1       0.445  52.098 -17.938  1.00  0.00     0.015 C 
BRANCH  25  27
HETATM   27  C28 UNL     1      -0.458  49.938 -16.970  1.00  0.00     0.005 C 
HETATM   28  C29 UNL     1       0.627  49.983 -15.890  1.00  0.00     0.014 C 
HETATM   29  C30 UNL     1      -1.836  50.187 -16.344  1.00  0.00     0.014 C 
ENDBRANCH  25  27
ENDBRANCH  24  25
ENDBRANCH  23  24
BRANCH  23  30
HETATM   30  O1  UNL     1      -2.279  51.883 -19.250  1.00  0.00    -0.395 OA
HETATM   31  H6  UNL     1      -2.543  51.303 -18.513  1.00  0.00     0.210 HD
ENDBRANCH  23  30
ENDBRANCH  21  23
ENDBRANCH   1  21
BRANCH  15  32
HETATM   32  C23 UNL     1      -9.952  49.026 -25.826  1.00  0.00     0.148 C 
HETATM   33  O2  UNL     1     -11.077  48.778 -26.230  1.00  0.00    -0.649 OA
BRANCH  32  34
HETATM   34  O3  UNL     1      -9.476  50.281 -25.923  1.00  0.00    -0.776 OA
HETATM   35  H34 UNL     1     -10.203  50.779 -26.352  1.00  0.00     0.167 HD
ENDBRANCH  32  34
ENDBRANCH  15  32
TORSDOF 8
ENDMDL
