MODEL 1
REMARK minimizedAffinity -9.02279186
REMARK  7 active torsions:
REMARK  status: ('A' for Active; 'I' for Inactive)
REMARK    1  A    between atoms: C2_2  and  C3_3 
REMARK    2  A    between atoms: C2_2  and  C4_6 
REMARK    3  A    between atoms: C3_3  and  O2_5 
REMARK    4  A    between atoms: C4_6  and  C6_8 
REMARK    5  A    between atoms: C6_8  and  C7_10 
REMARK    6  A    between atoms: C7_10  and  C8_11 
REMARK    7  A    between atoms: C8_11  and  C10_13 
ROOT
HETATM    1  C10 UNL     1      -2.121   5.084  13.026  1.00  0.00    -0.001 C 
HETATM    2  C11 UNL     1      -1.204   5.686  11.921  1.00  0.00     0.007 C 
HETATM    3  C12 UNL     1      -0.861   7.128  12.339  1.00  0.00     0.015 C 
HETATM    4  C13 UNL     1      -1.286   7.223  13.814  1.00  0.00    -0.013 C 
HETATM    5  C14 UNL     1      -0.114   6.639  14.666  1.00  0.00     0.021 C 
HETATM    6  C15 UNL     1      -1.567   8.595  14.415  1.00  0.00    -0.068 C 
HETATM    7  C16 UNL     1      -2.433   8.711  15.459  1.00  0.00    -0.068 C 
HETATM    8  C17 UNL     1      -3.202   7.504  15.993  1.00  0.00     0.036 C 
HETATM    9  C18 UNL     1      -3.037   6.157  15.252  1.00  0.00     0.015 C 
HETATM   10  C19 UNL     1      -2.601   6.354  13.795  1.00  0.00    -0.029 C 
HETATM   11  C20 UNL     1      -3.774   7.023  13.013  1.00  0.00     0.016 C 
HETATM   12  C21 UNL     1      -2.735  10.101  16.075  1.00  0.00    -0.015 C 
HETATM   13  C22 UNL     1      -3.895  10.662  15.208  1.00  0.00     0.020 C 
HETATM   14  C23 UNL     1      -3.238  10.094  17.552  1.00  0.00     0.021 C 
HETATM   15  C24 UNL     1      -2.139  10.356  18.569  1.00  0.00     0.080 C 
HETATM   16  C25 UNL     1      -1.594  11.753  18.351  1.00  0.00     0.135 C 
HETATM   17  O4  UNL     1      -1.385  12.499  19.311  1.00  0.00    -0.297 OA
HETATM   18  C26 UNL     1      -1.309  12.188  16.902  1.00  0.00     0.018 C 
HETATM   19  C27 UNL     1      -2.291  13.307  16.536  1.00  0.00     0.023 C 
HETATM   20  C28 UNL     1       0.121  12.772  16.881  1.00  0.00     0.023 C 
HETATM   21  C29 UNL     1      -1.392  10.923  15.989  1.00  0.00     0.013 C 
HETATM   22  C30 UNL     1      -0.991  11.121  14.523  1.00  0.00     0.011 C 
HETATM   23  C31 UNL     1      -0.800   9.765  13.828  1.00  0.00     0.036 C 
ENDROOT
BRANCH   1  24
HETATM   24  C8  UNL     1      -3.170   4.092  12.448  1.00  0.00    -0.007 C 
HETATM   25  C9  UNL     1      -2.818   3.586  11.045  1.00  0.00     0.011 C 
BRANCH  24  26
HETATM   26  C7  UNL     1      -4.618   4.641  12.463  1.00  0.00     0.083 C 
BRANCH  26  27
HETATM   27  C6  UNL     1      -5.737   3.651  12.147  1.00  0.00     0.135 C 
HETATM   28  O3  UNL     1      -5.840   3.096  11.053  1.00  0.00    -0.297 OA
BRANCH  27  29
HETATM   29  C4  UNL     1      -6.772   3.414  13.254  1.00  0.00     0.090 C 
HETATM   30  C5  UNL     1      -7.743   2.309  12.824  1.00  0.00     0.023 C 
BRANCH  29  31
HETATM   31  C2  UNL     1      -7.424   4.741  13.596  1.00  0.00     0.017 C 
HETATM   32  C1  UNL     1      -8.107   5.509  12.726  1.00  0.00     0.026 C 
BRANCH  31  33
HETATM   33  C3  UNL     1      -7.283   5.159  15.014  1.00  0.00     0.172 C 
HETATM   34  O1  UNL     1      -6.651   6.129  15.395  1.00  0.00    -0.646 OA
BRANCH  33  35
HETATM   35  O2  UNL     1      -7.921   4.364  15.889  1.00  0.00    -0.773 OA
HETATM   36  H3  UNL     1      -7.730   4.766  16.762  1.00  0.00     0.167 HD
ENDBRANCH  33  35
ENDBRANCH  31  33
ENDBRANCH  29  31
ENDBRANCH  27  29
ENDBRANCH  26  27
ENDBRANCH  24  26
ENDBRANCH   1  24
TORSDOF 7
ENDMDL
MODEL 2
REMARK minimizedAffinity -8.94083118
REMARK  7 active torsions:
REMARK  status: ('A' for Active; 'I' for Inactive)
REMARK    1  A    between atoms: C2_2  and  C3_3 
REMARK    2  A    between atoms: C2_2  and  C4_6 
REMARK    3  A    between atoms: C3_3  and  O2_5 
REMARK    4  A    between atoms: C4_6  and  C6_8 
REMARK    5  A    between atoms: C6_8  and  C7_10 
REMARK    6  A    between atoms: C7_10  and  C8_11 
REMARK    7  A    between atoms: C8_11  and  C10_13 
ROOT
HETATM    1  C10 UNL     1      -3.694   6.259  14.541  1.00  0.00    -0.001 C 
HETATM    2  C11 UNL     1      -3.953   5.014  13.642  1.00  0.00     0.007 C 
HETATM    3  C12 UNL     1      -2.748   4.872  12.693  1.00  0.00     0.015 C 
HETATM    4  C13 UNL     1      -1.673   5.804  13.276  1.00  0.00    -0.013 C 
HETATM    5  C14 UNL     1      -0.945   5.009  14.408  1.00  0.00     0.021 C 
HETATM    6  C15 UNL     1      -0.559   6.307  12.366  1.00  0.00    -0.068 C 
HETATM    7  C16 UNL     1       0.050   7.494  12.638  1.00  0.00    -0.068 C 
HETATM    8  C17 UNL     1      -0.416   8.383  13.790  1.00  0.00     0.036 C 
HETATM    9  C18 UNL     1      -1.663   7.938  14.587  1.00  0.00     0.015 C 
HETATM   10  C19 UNL     1      -2.565   7.007  13.767  1.00  0.00    -0.029 C 
HETATM   11  C20 UNL     1      -3.193   7.829  12.599  1.00  0.00     0.016 C 
HETATM   12  C21 UNL     1       1.179   8.024  11.717  1.00  0.00    -0.015 C 
HETATM   13  C22 UNL     1       0.431   8.801  10.599  1.00  0.00     0.020 C 
HETATM   14  C23 UNL     1       2.177   9.027  12.374  1.00  0.00     0.021 C 
HETATM   15  C24 UNL     1       3.462   8.376  12.859  1.00  0.00     0.080 C 
HETATM   16  C25 UNL     1       4.206   7.814  11.666  1.00  0.00     0.135 C 
HETATM   17  O4  UNL     1       5.423   7.980  11.553  1.00  0.00    -0.297 OA
HETATM   18  C26 UNL     1       3.390   7.031  10.621  1.00  0.00     0.018 C 
HETATM   19  C27 UNL     1       3.388   7.833   9.315  1.00  0.00     0.023 C 
HETATM   20  C28 UNL     1       4.135   5.701  10.372  1.00  0.00     0.023 C 
HETATM   21  C29 UNL     1       1.973   6.756  11.218  1.00  0.00     0.013 C 
HETATM   22  C30 UNL     1       1.053   5.854  10.386  1.00  0.00     0.011 C 
HETATM   23  C31 UNL     1      -0.155   5.401  11.219  1.00  0.00     0.036 C 
ENDROOT
BRANCH   1  24
HETATM   24  C8  UNL     1      -5.007   7.010  14.903  1.00  0.00    -0.007 C 
HETATM   25  C9  UNL     1      -5.775   6.364  16.061  1.00  0.00     0.011 C 
BRANCH  24  26
HETATM   26  C7  UNL     1      -5.954   7.223  13.695  1.00  0.00     0.083 C 
BRANCH  26  27
HETATM   27  C6  UNL     1      -7.299   6.503  13.735  1.00  0.00     0.135 C 
HETATM   28  O3  UNL     1      -8.177   6.786  14.550  1.00  0.00    -0.297 OA
BRANCH  27  29
HETATM   29  C4  UNL     1      -7.490   5.358  12.732  1.00  0.00     0.090 C 
HETATM   30  C5  UNL     1      -8.794   5.568  11.953  1.00  0.00     0.023 C 
BRANCH  29  31
HETATM   31  C2  UNL     1      -7.397   4.042  13.480  1.00  0.00     0.017 C 
HETATM   32  C1  UNL     1      -7.559   3.898  14.809  1.00  0.00     0.026 C 
BRANCH  31  33
HETATM   33  C3  UNL     1      -7.129   2.856  12.627  1.00  0.00     0.172 C 
HETATM   34  O1  UNL     1      -6.120   2.690  11.963  1.00  0.00    -0.646 OA
BRANCH  33  35
HETATM   35  O2  UNL     1      -8.113   1.941  12.628  1.00  0.00    -0.773 OA
HETATM   36  H3  UNL     1      -7.789   1.239  12.026  1.00  0.00     0.167 HD
ENDBRANCH  33  35
ENDBRANCH  31  33
ENDBRANCH  29  31
ENDBRANCH  27  29
ENDBRANCH  26  27
ENDBRANCH  24  26
ENDBRANCH   1  24
TORSDOF 7
ENDMDL
MODEL 3
REMARK minimizedAffinity -8.91528416
REMARK  7 active torsions:
REMARK  status: ('A' for Active; 'I' for Inactive)
REMARK    1  A    between atoms: C2_2  and  C3_3 
REMARK    2  A    between atoms: C2_2  and  C4_6 
REMARK    3  A    between atoms: C3_3  and  O2_5 
REMARK    4  A    between atoms: C4_6  and  C6_8 
REMARK    5  A    between atoms: C6_8  and  C7_10 
REMARK    6  A    between atoms: C7_10  and  C8_11 
REMARK    7  A    between atoms: C8_11  and  C10_13 
ROOT
HETATM    1  C10 UNL     1      -3.416   4.061  12.692  1.00  0.00    -0.001 C 
HETATM    2  C11 UNL     1      -3.072   3.960  11.177  1.00  0.00     0.007 C 
HETATM    3  C12 UNL     1      -1.759   4.732  10.949  1.00  0.00     0.015 C 
HETATM    4  C13 UNL     1      -1.189   4.967  12.358  1.00  0.00    -0.013 C 
HETATM    5  C14 UNL     1      -0.420   3.670  12.763  1.00  0.00     0.021 C 
HETATM    6  C15 UNL     1      -0.193   6.101  12.572  1.00  0.00    -0.068 C 
HETATM    7  C16 UNL     1      -0.093   6.690  13.795  1.00  0.00    -0.068 C 
HETATM    8  C17 UNL     1      -1.021   6.300  14.944  1.00  0.00     0.036 C 
HETATM    9  C18 UNL     1      -2.142   5.277  14.653  1.00  0.00     0.015 C 
HETATM   10  C19 UNL     1      -2.514   5.243  13.166  1.00  0.00    -0.029 C 
HETATM   11  C20 UNL     1      -3.195   6.597  12.795  1.00  0.00     0.016 C 
HETATM   12  C21 UNL     1       0.908   7.850  14.026  1.00  0.00    -0.015 C 
HETATM   13  C22 UNL     1       0.125   9.125  13.611  1.00  0.00     0.020 C 
HETATM   14  C23 UNL     1       1.370   8.065  15.501  1.00  0.00     0.021 C 
HETATM   15  C24 UNL     1       2.706   7.415  15.820  1.00  0.00     0.080 C 
HETATM   16  C25 UNL     1       3.782   8.069  14.978  1.00  0.00     0.135 C 
HETATM   17  O4  UNL     1       4.864   8.383  15.480  1.00  0.00    -0.297 OA
HETATM   18  C26 UNL     1       3.473   8.310  13.489  1.00  0.00     0.018 C 
HETATM   19  C27 UNL     1       3.399   9.823  13.255  1.00  0.00     0.023 C 
HETATM   20  C28 UNL     1       4.669   7.753  12.685  1.00  0.00     0.023 C 
HETATM   21  C29 UNL     1       2.168   7.531  13.132  1.00  0.00     0.013 C 
HETATM   22  C30 UNL     1       1.770   7.522  11.650  1.00  0.00     0.011 C 
HETATM   23  C31 UNL     1       0.683   6.470  11.390  1.00  0.00     0.036 C 
ENDROOT
BRANCH   1  24
HETATM   24  C8  UNL     1      -4.950   4.113  12.948  1.00  0.00    -0.007 C 
HETATM   25  C9  UNL     1      -5.770   3.430  11.849  1.00  0.00     0.011 C 
BRANCH  24  26
HETATM   26  C7  UNL     1      -5.490   5.543  13.199  1.00  0.00     0.083 C 
BRANCH  26  27
HETATM   27  C6  UNL     1      -6.173   5.798  14.540  1.00  0.00     0.135 C 
HETATM   28  O3  UNL     1      -5.542   6.047  15.567  1.00  0.00    -0.297 OA
BRANCH  27  29
HETATM   29  C4  UNL     1      -7.702   5.679  14.561  1.00  0.00     0.090 C 
HETATM   30  C5  UNL     1      -8.249   5.816  13.135  1.00  0.00     0.023 C 
BRANCH  29  31
HETATM   31  C2  UNL     1      -8.250   6.684  15.556  1.00  0.00     0.017 C 
HETATM   32  C1  UNL     1      -7.688   6.976  16.744  1.00  0.00     0.026 C 
BRANCH  31  33
HETATM   33  C3  UNL     1      -9.488   7.382  15.122  1.00  0.00     0.172 C 
HETATM   34  O1  UNL     1      -9.534   8.528  14.713  1.00  0.00    -0.646 OA
BRANCH  33  35
HETATM   35  O2  UNL     1     -10.603   6.638  15.219  1.00  0.00    -0.773 OA
HETATM   36  H3  UNL     1     -11.316   7.233  14.906  1.00  0.00     0.167 HD
ENDBRANCH  33  35
ENDBRANCH  31  33
ENDBRANCH  29  31
ENDBRANCH  27  29
ENDBRANCH  26  27
ENDBRANCH  24  26
ENDBRANCH   1  24
TORSDOF 7
ENDMDL
MODEL 4
REMARK minimizedAffinity -8.81542873
REMARK  7 active torsions:
REMARK  status: ('A' for Active; 'I' for Inactive)
REMARK    1  A    between atoms: C2_2  and  C3_3 
REMARK    2  A    between atoms: C2_2  and  C4_6 
REMARK    3  A    between atoms: C3_3  and  O2_5 
REMARK    4  A    between atoms: C4_6  and  C6_8 
REMARK    5  A    between atoms: C6_8  and  C7_10 
REMARK    6  A    between atoms: C7_10  and  C8_11 
REMARK    7  A    between atoms: C8_11  and  C10_13 
ROOT
HETATM    1  C10 UNL     1      -2.195   5.997  13.077  1.00  0.00    -0.001 C 
HETATM    2  C11 UNL     1      -2.200   5.152  11.769  1.00  0.00     0.007 C 
HETATM    3  C12 UNL     1      -0.771   5.181  11.195  1.00  0.00     0.015 C 
HETATM    4  C13 UNL     1       0.101   5.736  12.333  1.00  0.00    -0.013 C 
HETATM    5  C14 UNL     1       0.444   4.536  13.273  1.00  0.00     0.021 C 
HETATM    6  C15 UNL     1       1.445   6.369  11.993  1.00  0.00    -0.068 C 
HETATM    7  C16 UNL     1       1.970   7.321  12.812  1.00  0.00    -0.068 C 
HETATM    8  C17 UNL     1       1.201   7.838  14.027  1.00  0.00     0.036 C 
HETATM    9  C18 UNL     1      -0.235   7.312  14.251  1.00  0.00     0.015 C 
HETATM   10  C19 UNL     1      -0.871   6.813  12.948  1.00  0.00    -0.029 C 
HETATM   11  C20 UNL     1      -1.108   8.040  12.012  1.00  0.00     0.016 C 
HETATM   12  C21 UNL     1       3.331   7.981  12.475  1.00  0.00    -0.015 C 
HETATM   13  C22 UNL     1       2.965   9.163  11.537  1.00  0.00     0.020 C 
HETATM   14  C23 UNL     1       4.109   8.588  13.683  1.00  0.00     0.021 C 
HETATM   15  C24 UNL     1       5.179   7.665  14.243  1.00  0.00     0.080 C 
HETATM   16  C25 UNL     1       6.233   7.435  13.180  1.00  0.00     0.135 C 
HETATM   17  O4  UNL     1       7.431   7.480  13.467  1.00  0.00    -0.297 OA
HETATM   18  C26 UNL     1       5.747   7.138  11.749  1.00  0.00     0.018 C 
HETATM   19  C27 UNL     1       6.150   8.315  10.853  1.00  0.00     0.023 C 
HETATM   20  C28 UNL     1       6.506   5.881  11.268  1.00  0.00     0.023 C 
HETATM   21  C29 UNL     1       4.212   6.857  11.805  1.00  0.00     0.013 C 
HETATM   22  C30 UNL     1       3.562   6.392  10.496  1.00  0.00     0.011 C 
HETATM   23  C31 UNL     1       2.153   5.842  10.759  1.00  0.00     0.036 C 
ENDROOT
BRANCH   1  24
HETATM   24  C8  UNL     1      -3.541   6.743  13.305  1.00  0.00    -0.007 C 
HETATM   25  C9  UNL     1      -3.462   8.242  12.999  1.00  0.00     0.011 C 
BRANCH  24  26
HETATM   26  C7  UNL     1      -4.142   6.522  14.715  1.00  0.00     0.083 C 
BRANCH  26  27
HETATM   27  C6  UNL     1      -5.601   6.074  14.782  1.00  0.00     0.135 C 
HETATM   28  O3  UNL     1      -6.190   5.898  15.848  1.00  0.00    -0.297 OA
BRANCH  27  29
HETATM   29  C4  UNL     1      -6.293   5.801  13.441  1.00  0.00     0.090 C 
HETATM   30  C5  UNL     1      -7.663   6.488  13.419  1.00  0.00     0.023 C 
BRANCH  29  31
HETATM   31  C2  UNL     1      -6.327   4.301  13.214  1.00  0.00     0.017 C 
HETATM   32  C1  UNL     1      -5.321   3.580  12.681  1.00  0.00     0.026 C 
BRANCH  31  33
HETATM   33  C3  UNL     1      -7.578   3.630  13.651  1.00  0.00     0.172 C 
HETATM   34  O1  UNL     1      -8.386   3.107  12.904  1.00  0.00    -0.646 OA
BRANCH  33  35
HETATM   35  O2  UNL     1      -7.774   3.642  14.980  1.00  0.00    -0.773 OA
HETATM   36  H3  UNL     1      -8.627   3.174  15.101  1.00  0.00     0.167 HD
ENDBRANCH  33  35
ENDBRANCH  31  33
ENDBRANCH  29  31
ENDBRANCH  27  29
ENDBRANCH  26  27
ENDBRANCH  24  26
ENDBRANCH   1  24
TORSDOF 7
ENDMDL
MODEL 5
REMARK minimizedAffinity -8.79873466
REMARK  7 active torsions:
REMARK  status: ('A' for Active; 'I' for Inactive)
REMARK    1  A    between atoms: C2_2  and  C3_3 
REMARK    2  A    between atoms: C2_2  and  C4_6 
REMARK    3  A    between atoms: C3_3  and  O2_5 
REMARK    4  A    between atoms: C4_6  and  C6_8 
REMARK    5  A    between atoms: C6_8  and  C7_10 
REMARK    6  A    between atoms: C7_10  and  C8_11 
REMARK    7  A    between atoms: C8_11  and  C10_13 
ROOT
HETATM    1  C10 UNL     1      -1.226   5.865  12.042  1.00  0.00    -0.001 C 
HETATM    2  C11 UNL     1      -2.003   6.964  12.825  1.00  0.00     0.007 C 
HETATM    3  C12 UNL     1      -1.006   8.092  13.149  1.00  0.00     0.015 C 
HETATM    4  C13 UNL     1       0.220   7.801  12.268  1.00  0.00    -0.013 C 
HETATM    5  C14 UNL     1      -0.079   8.397  10.856  1.00  0.00     0.021 C 
HETATM    6  C15 UNL     1       1.571   8.385  12.666  1.00  0.00    -0.068 C 
HETATM    7  C16 UNL     1       2.717   7.752  12.292  1.00  0.00    -0.068 C 
HETATM    8  C17 UNL     1       2.683   6.416  11.552  1.00  0.00     0.036 C 
HETATM    9  C18 UNL     1       1.306   5.753  11.318  1.00  0.00     0.015 C 
HETATM   10  C19 UNL     1       0.263   6.227  12.338  1.00  0.00    -0.029 C 
HETATM   11  C20 UNL     1       0.660   5.680  13.744  1.00  0.00     0.016 C 
HETATM   12  C21 UNL     1       4.098   8.328  12.697  1.00  0.00    -0.015 C 
HETATM   13  C22 UNL     1       4.369   7.728  14.103  1.00  0.00     0.020 C 
HETATM   14  C23 UNL     1       5.298   7.914  11.790  1.00  0.00     0.021 C 
HETATM   15  C24 UNL     1       5.650   8.952  10.737  1.00  0.00     0.080 C 
HETATM   16  C25 UNL     1       6.107  10.218  11.430  1.00  0.00     0.135 C 
HETATM   17  O4  UNL     1       7.104  10.825  11.031  1.00  0.00    -0.297 OA
HETATM   18  C26 UNL     1       5.279  10.711  12.631  1.00  0.00     0.018 C 
HETATM   19  C27 UNL     1       6.141  10.583  13.892  1.00  0.00     0.023 C 
HETATM   20  C28 UNL     1       4.988  12.209  12.393  1.00  0.00     0.023 C 
HETATM   21  C29 UNL     1       3.946   9.898  12.668  1.00  0.00     0.013 C 
HETATM   22  C30 UNL     1       2.912  10.344  13.709  1.00  0.00     0.011 C 
HETATM   23  C31 UNL     1       1.548   9.698  13.426  1.00  0.00     0.036 C 
ENDROOT
BRANCH   1  24
HETATM   24  C8  UNL     1      -1.748   4.434  12.358  1.00  0.00    -0.007 C 
HETATM   25  C9  UNL     1      -1.380   3.405  11.284  1.00  0.00     0.011 C 
BRANCH  24  26
HETATM   26  C7  UNL     1      -3.268   4.376  12.647  1.00  0.00     0.083 C 
BRANCH  26  27
HETATM   27  C6  UNL     1      -4.147   3.705  11.594  1.00  0.00     0.135 C 
HETATM   28  O3  UNL     1      -4.017   3.921  10.389  1.00  0.00    -0.297 OA
BRANCH  27  29
HETATM   29  C4  UNL     1      -5.250   2.776  12.116  1.00  0.00     0.090 C 
HETATM   30  C5  UNL     1      -5.665   1.797  11.012  1.00  0.00     0.023 C 
BRANCH  29  31
HETATM   31  C2  UNL     1      -6.375   3.629  12.671  1.00  0.00     0.017 C 
HETATM   32  C1  UNL     1      -6.302   4.956  12.886  1.00  0.00     0.026 C 
BRANCH  31  33
HETATM   33  C3  UNL     1      -7.633   2.893  12.959  1.00  0.00     0.172 C 
HETATM   34  O1  UNL     1      -7.750   1.680  12.939  1.00  0.00    -0.646 OA
BRANCH  33  35
HETATM   35  O2  UNL     1      -8.680   3.683  13.249  1.00  0.00    -0.773 OA
HETATM   36  H3  UNL     1      -9.417   3.057  13.406  1.00  0.00     0.167 HD
ENDBRANCH  33  35
ENDBRANCH  31  33
ENDBRANCH  29  31
ENDBRANCH  27  29
ENDBRANCH  26  27
ENDBRANCH  24  26
ENDBRANCH   1  24
TORSDOF 7
ENDMDL
MODEL 6
REMARK minimizedAffinity -8.77581978
REMARK  7 active torsions:
REMARK  status: ('A' for Active; 'I' for Inactive)
REMARK    1  A    between atoms: C2_2  and  C3_3 
REMARK    2  A    between atoms: C2_2  and  C4_6 
REMARK    3  A    between atoms: C3_3  and  O2_5 
REMARK    4  A    between atoms: C4_6  and  C6_8 
REMARK    5  A    between atoms: C6_8  and  C7_10 
REMARK    6  A    between atoms: C7_10  and  C8_11 
REMARK    7  A    between atoms: C8_11  and  C10_13 
ROOT
HETATM    1  C10 UNL     1      -5.665   6.441  14.918  1.00  0.00    -0.001 C 
HETATM    2  C11 UNL     1      -5.892   5.232  13.963  1.00  0.00     0.007 C 
HETATM    3  C12 UNL     1      -4.624   5.079  13.102  1.00  0.00     0.015 C 
HETATM    4  C13 UNL     1      -3.568   5.958  13.794  1.00  0.00    -0.013 C 
HETATM    5  C14 UNL     1      -2.952   5.109  14.950  1.00  0.00     0.021 C 
HETATM    6  C15 UNL     1      -2.374   6.452  12.985  1.00  0.00    -0.068 C 
HETATM    7  C16 UNL     1      -1.753   7.611  13.338  1.00  0.00    -0.068 C 
HETATM    8  C17 UNL     1      -2.278   8.480  14.480  1.00  0.00     0.036 C 
HETATM    9  C18 UNL     1      -3.594   8.052  15.168  1.00  0.00     0.015 C 
HETATM   10  C19 UNL     1      -4.459   7.175  14.254  1.00  0.00    -0.029 C 
HETATM   11  C20 UNL     1      -4.972   8.050  13.069  1.00  0.00     0.016 C 
HETATM   12  C21 UNL     1      -0.543   8.131  12.521  1.00  0.00    -0.015 C 
HETATM   13  C22 UNL     1      -1.181   8.964  11.376  1.00  0.00     0.020 C 
HETATM   14  C23 UNL     1       0.432   9.082  13.282  1.00  0.00     0.021 C 
HETATM   15  C24 UNL     1       1.657   8.376  13.840  1.00  0.00     0.080 C 
HETATM   16  C25 UNL     1       2.472   7.826  12.689  1.00  0.00     0.135 C 
HETATM   17  O4  UNL     1       3.699   7.956  12.672  1.00  0.00    -0.297 OA
HETATM   18  C26 UNL     1       1.714   7.100  11.562  1.00  0.00     0.018 C 
HETATM   19  C27 UNL     1       1.835   7.940  10.285  1.00  0.00     0.023 C 
HETATM   20  C28 UNL     1       2.436   5.755  11.327  1.00  0.00     0.023 C 
HETATM   21  C29 UNL     1       0.249   6.853  12.043  1.00  0.00     0.013 C 
HETATM   22  C30 UNL     1      -0.633   6.006  11.117  1.00  0.00     0.011 C 
HETATM   23  C31 UNL     1      -1.912   5.567  11.843  1.00  0.00     0.036 C 
ENDROOT
BRANCH   1  24
HETATM   24  C8  UNL     1      -6.979   7.222  15.205  1.00  0.00    -0.007 C 
HETATM   25  C9  UNL     1      -7.418   7.152  16.671  1.00  0.00     0.011 C 
BRANCH  24  26
HETATM   26  C7  UNL     1      -8.155   6.820  14.281  1.00  0.00     0.083 C 
BRANCH  26  27
HETATM   27  C6  UNL     1      -9.565   7.120  14.786  1.00  0.00     0.135 C 
HETATM   28  O3  UNL     1      -9.832   7.215  15.984  1.00  0.00    -0.297 OA
BRANCH  27  29
HETATM   29  C4  UNL     1     -10.659   7.249  13.719  1.00  0.00     0.090 C 
HETATM   30  C5  UNL     1     -10.156   6.667  12.392  1.00  0.00     0.023 C 
BRANCH  29  31
HETATM   31  C2  UNL     1     -11.101   8.698  13.655  1.00  0.00     0.017 C 
HETATM   32  C1  UNL     1     -10.570   9.699  14.383  1.00  0.00     0.026 C 
BRANCH  31  33
HETATM   33  C3  UNL     1     -12.190   8.977  12.683  1.00  0.00     0.172 C 
HETATM   34  O1  UNL     1     -13.355   8.655  12.831  1.00  0.00    -0.646 OA
BRANCH  33  35
HETATM   35  O2  UNL     1     -11.789   9.630  11.579  1.00  0.00    -0.773 OA
HETATM   36  H3  UNL     1     -12.607   9.730  11.049  1.00  0.00     0.167 HD
ENDBRANCH  33  35
ENDBRANCH  31  33
ENDBRANCH  29  31
ENDBRANCH  27  29
ENDBRANCH  26  27
ENDBRANCH  24  26
ENDBRANCH   1  24
TORSDOF 7
ENDMDL
MODEL 7
REMARK minimizedAffinity -8.71681786
REMARK  7 active torsions:
REMARK  status: ('A' for Active; 'I' for Inactive)
REMARK    1  A    between atoms: C2_2  and  C3_3 
REMARK    2  A    between atoms: C2_2  and  C4_6 
REMARK    3  A    between atoms: C3_3  and  O2_5 
REMARK    4  A    between atoms: C4_6  and  C6_8 
REMARK    5  A    between atoms: C6_8  and  C7_10 
REMARK    6  A    between atoms: C7_10  and  C8_11 
REMARK    7  A    between atoms: C8_11  and  C10_13 
ROOT
HETATM    1  C10 UNL     1      -2.382   5.547  12.925  1.00  0.00    -0.001 C 
HETATM    2  C11 UNL     1      -2.163   4.773  11.592  1.00  0.00     0.007 C 
HETATM    3  C12 UNL     1      -0.696   4.983  11.171  1.00  0.00     0.015 C 
HETATM    4  C13 UNL     1      -0.008   5.570  12.415  1.00  0.00    -0.013 C 
HETATM    5  C14 UNL     1       0.370   4.368  13.338  1.00  0.00     0.021 C 
HETATM    6  C15 UNL     1       1.284   6.359  12.242  1.00  0.00    -0.068 C 
HETATM    7  C16 UNL     1       1.616   7.319  13.147  1.00  0.00    -0.068 C 
HETATM    8  C17 UNL     1       0.677   7.690  14.294  1.00  0.00     0.036 C 
HETATM    9  C18 UNL     1      -0.707   7.004  14.347  1.00  0.00     0.015 C 
HETATM   10  C19 UNL     1      -1.151   6.506  12.966  1.00  0.00    -0.029 C 
HETATM   11  C20 UNL     1      -1.428   7.745  12.058  1.00  0.00     0.016 C 
HETATM   12  C21 UNL     1       2.922   8.136  12.979  1.00  0.00    -0.015 C 
HETATM   13  C22 UNL     1       2.522   9.317  12.055  1.00  0.00     0.020 C 
HETATM   14  C23 UNL     1       3.504   8.762  14.285  1.00  0.00     0.021 C 
HETATM   15  C24 UNL     1       4.609   7.931  14.917  1.00  0.00     0.080 C 
HETATM   16  C25 UNL     1       5.782   7.868  13.961  1.00  0.00     0.135 C 
HETATM   17  O4  UNL     1       6.934   8.026  14.374  1.00  0.00    -0.297 OA
HETATM   18  C26 UNL     1       5.477   7.592  12.477  1.00  0.00     0.018 C 
HETATM   19  C27 UNL     1       5.834   8.848  11.674  1.00  0.00     0.023 C 
HETATM   20  C28 UNL     1       6.415   6.449  12.030  1.00  0.00     0.023 C 
HETATM   21  C29 UNL     1       3.985   7.147  12.362  1.00  0.00     0.013 C 
HETATM   22  C30 UNL     1       3.524   6.681  10.976  1.00  0.00     0.011 C 
HETATM   23  C31 UNL     1       2.165   5.972  11.069  1.00  0.00     0.036 C 
ENDROOT
BRANCH   1  24
HETATM   24  C8  UNL     1      -3.818   6.133  13.039  1.00  0.00    -0.007 C 
HETATM   25  C9  UNL     1      -3.846   7.567  13.580  1.00  0.00     0.011 C 
BRANCH  24  26
HETATM   26  C7  UNL     1      -4.789   5.243  13.853  1.00  0.00     0.083 C 
BRANCH  26  27
HETATM   27  C6  UNL     1      -5.727   4.337  13.058  1.00  0.00     0.135 C 
HETATM   28  O3  UNL     1      -5.422   3.868  11.962  1.00  0.00    -0.297 OA
BRANCH  27  29
HETATM   29  C4  UNL     1      -7.108   4.077  13.673  1.00  0.00     0.090 C 
HETATM   30  C5  UNL     1      -7.681   2.768  13.118  1.00  0.00     0.023 C 
BRANCH  29  31
HETATM   31  C2  UNL     1      -7.975   5.301  13.447  1.00  0.00     0.017 C 
HETATM   32  C1  UNL     1      -8.586   5.608  12.287  1.00  0.00     0.026 C 
BRANCH  31  33
HETATM   33  C3  UNL     1      -8.143   6.177  14.636  1.00  0.00     0.172 C 
HETATM   34  O1  UNL     1      -7.983   7.385  14.639  1.00  0.00    -0.646 OA
BRANCH  33  35
HETATM   35  O2  UNL     1      -8.491   5.523  15.757  1.00  0.00    -0.773 OA
HETATM   36  H3  UNL     1      -8.555   6.227  16.435  1.00  0.00     0.167 HD
ENDBRANCH  33  35
ENDBRANCH  31  33
ENDBRANCH  29  31
ENDBRANCH  27  29
ENDBRANCH  26  27
ENDBRANCH  24  26
ENDBRANCH   1  24
TORSDOF 7
ENDMDL
MODEL 8
REMARK minimizedAffinity -8.70628738
REMARK  7 active torsions:
REMARK  status: ('A' for Active; 'I' for Inactive)
REMARK    1  A    between atoms: C2_2  and  C3_3 
REMARK    2  A    between atoms: C2_2  and  C4_6 
REMARK    3  A    between atoms: C3_3  and  O2_5 
REMARK    4  A    between atoms: C4_6  and  C6_8 
REMARK    5  A    between atoms: C6_8  and  C7_10 
REMARK    6  A    between atoms: C7_10  and  C8_11 
REMARK    7  A    between atoms: C8_11  and  C10_13 
ROOT
HETATM    1  C10 UNL     1       0.768   8.392  12.892  1.00  0.00    -0.001 C 
HETATM    2  C11 UNL     1       0.826   7.224  11.864  1.00  0.00     0.007 C 
HETATM    3  C12 UNL     1      -0.552   6.536  11.869  1.00  0.00     0.015 C 
HETATM    4  C13 UNL     1      -1.476   7.506  12.622  1.00  0.00    -0.013 C 
HETATM    5  C14 UNL     1      -1.954   8.577  11.590  1.00  0.00     0.021 C 
HETATM    6  C15 UNL     1      -2.754   6.968  13.255  1.00  0.00    -0.068 C 
HETATM    7  C16 UNL     1      -3.287   7.596  14.339  1.00  0.00    -0.068 C 
HETATM    8  C17 UNL     1      -2.585   8.783  14.996  1.00  0.00     0.036 C 
HETATM    9  C18 UNL     1      -1.201   9.198  14.448  1.00  0.00     0.015 C 
HETATM   10  C19 UNL     1      -0.496   8.037  13.736  1.00  0.00    -0.029 C 
HETATM   11  C20 UNL     1      -0.123   6.958  14.799  1.00  0.00     0.016 C 
HETATM   12  C21 UNL     1      -4.581   7.055  14.999  1.00  0.00    -0.015 C 
HETATM   13  C22 UNL     1      -4.081   5.991  16.013  1.00  0.00     0.020 C 
HETATM   14  C23 UNL     1      -5.414   8.095  15.811  1.00  0.00     0.021 C 
HETATM   15  C24 UNL     1      -6.572   8.691  15.027  1.00  0.00     0.080 C 
HETATM   16  C25 UNL     1      -7.553   7.588  14.688  1.00  0.00     0.135 C 
HETATM   17  O4  UNL     1      -8.765   7.766  14.826  1.00  0.00    -0.297 OA
HETATM   18  C26 UNL     1      -6.977   6.260  14.162  1.00  0.00     0.018 C 
HETATM   19  C27 UNL     1      -7.246   5.174  15.210  1.00  0.00     0.023 C 
HETATM   20  C28 UNL     1      -7.765   5.904  12.882  1.00  0.00     0.023 C 
HETATM   21  C29 UNL     1      -5.468   6.483  13.827  1.00  0.00     0.013 C 
HETATM   22  C30 UNL     1      -4.747   5.313  13.147  1.00  0.00     0.011 C 
HETATM   23  C31 UNL     1      -3.394   5.768  12.582  1.00  0.00     0.036 C 
ENDROOT
BRANCH   1  24
HETATM   24  C8  UNL     1       2.131   8.621  13.605  1.00  0.00    -0.007 C 
HETATM   25  C9  UNL     1       2.639  10.062  13.493  1.00  0.00     0.011 C 
BRANCH  24  26
HETATM   26  C7  UNL     1       3.239   7.635  13.159  1.00  0.00     0.083 C 
BRANCH  26  27
HETATM   27  C6  UNL     1       4.047   8.016  11.921  1.00  0.00     0.135 C 
HETATM   28  O3  UNL     1       4.244   9.187  11.595  1.00  0.00    -0.297 OA
BRANCH  27  29
HETATM   29  C4  UNL     1       4.567   6.858  11.061  1.00  0.00     0.090 C 
HETATM   30  C5  UNL     1       6.067   7.042  10.800  1.00  0.00     0.023 C 
BRANCH  29  31
HETATM   31  C2  UNL     1       3.708   6.760   9.815  1.00  0.00     0.017 C 
HETATM   32  C1  UNL     1       3.313   7.808   9.067  1.00  0.00     0.026 C 
BRANCH  31  33
HETATM   33  C3  UNL     1       3.324   5.378   9.427  1.00  0.00     0.172 C 
HETATM   34  O1  UNL     1       3.517   4.884   8.330  1.00  0.00    -0.646 OA
BRANCH  33  35
HETATM   35  O2  UNL     1       2.720   4.680  10.402  1.00  0.00    -0.773 OA
HETATM   36  H3  UNL     1       2.531   3.810   9.993  1.00  0.00     0.167 HD
ENDBRANCH  33  35
ENDBRANCH  31  33
ENDBRANCH  29  31
ENDBRANCH  27  29
ENDBRANCH  26  27
ENDBRANCH  24  26
ENDBRANCH   1  24
TORSDOF 7
ENDMDL
MODEL 9
REMARK minimizedAffinity -8.68102074
REMARK  7 active torsions:
REMARK  status: ('A' for Active; 'I' for Inactive)
REMARK    1  A    between atoms: C2_2  and  C3_3 
REMARK    2  A    between atoms: C2_2  and  C4_6 
REMARK    3  A    between atoms: C3_3  and  O2_5 
REMARK    4  A    between atoms: C4_6  and  C6_8 
REMARK    5  A    between atoms: C6_8  and  C7_10 
REMARK    6  A    between atoms: C7_10  and  C8_11 
REMARK    7  A    between atoms: C8_11  and  C10_13 
ROOT
HETATM    1  C10 UNL     1      -2.582   6.378  12.683  1.00  0.00    -0.001 C 
HETATM    2  C11 UNL     1      -3.305   7.550  13.410  1.00  0.00     0.007 C 
HETATM    3  C12 UNL     1      -2.230   8.578  13.812  1.00  0.00     0.015 C 
HETATM    4  C13 UNL     1      -0.976   8.167  13.024  1.00  0.00    -0.013 C 
HETATM    5  C14 UNL     1      -1.111   8.785  11.596  1.00  0.00     0.021 C 
HETATM    6  C15 UNL     1       0.392   8.619  13.524  1.00  0.00    -0.068 C 
HETATM    7  C16 UNL     1       1.496   7.877  13.233  1.00  0.00    -0.068 C 
HETATM    8  C17 UNL     1       1.388   6.548  12.488  1.00  0.00     0.036 C 
HETATM    9  C18 UNL     1      -0.025   6.021  12.149  1.00  0.00     0.015 C 
HETATM   10  C19 UNL     1      -1.091   6.596  13.090  1.00  0.00    -0.029 C 
HETATM   11  C20 UNL     1      -0.854   6.018  14.520  1.00  0.00     0.016 C 
HETATM   12  C21 UNL     1       2.891   8.319  13.742  1.00  0.00    -0.015 C 
HETATM   13  C22 UNL     1       2.998   7.700  15.162  1.00  0.00     0.020 C 
HETATM   14  C23 UNL     1       4.110   7.788  12.926  1.00  0.00     0.021 C 
HETATM   15  C24 UNL     1       4.639   8.783  11.905  1.00  0.00     0.080 C 
HETATM   16  C25 UNL     1       5.163  10.002  12.637  1.00  0.00     0.135 C 
HETATM   17  O4  UNL     1       6.240  10.508  12.315  1.00  0.00    -0.297 OA
HETATM   18  C26 UNL     1       4.299  10.576  13.775  1.00  0.00     0.018 C 
HETATM   19  C27 UNL     1       5.048  10.369  15.096  1.00  0.00     0.023 C 
HETATM   20  C28 UNL     1       4.173  12.095  13.522  1.00  0.00     0.023 C 
HETATM   21  C29 UNL     1       2.894   9.896  13.709  1.00  0.00     0.013 C 
HETATM   22  C30 UNL     1       1.834  10.442  14.672  1.00  0.00     0.011 C 
HETATM   23  C31 UNL     1       0.439   9.930  14.285  1.00  0.00     0.036 C 
ENDROOT
BRANCH   1  24
HETATM   24  C8  UNL     1      -3.261   5.005  12.953  1.00  0.00    -0.007 C 
HETATM   25  C9  UNL     1      -2.964   3.960  11.873  1.00  0.00     0.011 C 
BRANCH  24  26
HETATM   26  C7  UNL     1      -4.788   5.104  13.187  1.00  0.00     0.083 C 
BRANCH  26  27
HETATM   27  C6  UNL     1      -5.654   4.007  12.572  1.00  0.00     0.135 C 
HETATM   28  O3  UNL     1      -5.438   3.544  11.452  1.00  0.00    -0.297 OA
BRANCH  27  29
HETATM   29  C4  UNL     1      -6.855   3.538  13.403  1.00  0.00     0.090 C 
HETATM   30  C5  UNL     1      -7.546   2.367  12.695  1.00  0.00     0.023 C 
BRANCH  29  31
HETATM   31  C2  UNL     1      -7.746   4.733  13.680  1.00  0.00     0.017 C 
HETATM   32  C1  UNL     1      -8.558   5.315  12.777  1.00  0.00     0.026 C 
BRANCH  31  33
HETATM   33  C3  UNL     1      -7.693   5.242  15.075  1.00  0.00     0.172 C 
HETATM   34  O1  UNL     1      -7.434   6.391  15.388  1.00  0.00    -0.646 OA
BRANCH  33  35
HETATM   35  O2  UNL     1      -7.955   4.315  16.011  1.00  0.00    -0.773 OA
HETATM   36  H3  UNL     1      -7.877   4.800  16.858  1.00  0.00     0.167 HD
ENDBRANCH  33  35
ENDBRANCH  31  33
ENDBRANCH  29  31
ENDBRANCH  27  29
ENDBRANCH  26  27
ENDBRANCH  24  26
ENDBRANCH   1  24
TORSDOF 7
ENDMDL
