MODEL 1
REMARK minimizedAffinity -9.94611359
REMARK  8 active torsions:
REMARK  status: ('A' for Active; 'I' for Inactive)
REMARK    1  A    between atoms: C2_2  and  C3_3 
REMARK    2  A    between atoms: C2_2  and  C11_14 
REMARK    3  A    between atoms: C3_3  and  C4_4 
REMARK    4  A    between atoms: C4_4  and  C5_5 
REMARK       I    between atoms: C5_5  and  N1_7 
REMARK    5  A    between atoms: N1_7  and  C6_8 
REMARK    6  A    between atoms: C6_8  and  C7_9 
REMARK    7  A    between atoms: C16_19  and  O3_20 
REMARK    8  A    between atoms: C20_24  and  O4_25 
ROOT
HETATM    1  C11 UNL     1      -6.033   6.764  13.882  1.00  0.00    -0.002 C 
HETATM    2  C12 UNL     1      -6.012   8.304  14.122  1.00  0.00     0.006 C 
HETATM    3  C13 UNL     1      -4.593   8.798  13.822  1.00  0.00     0.006 C 
HETATM    4  C14 UNL     1      -3.919   7.600  13.175  1.00  0.00     0.001 C 
HETATM    5  C15 UNL     1      -2.383   7.597  13.088  1.00  0.00     0.024 C 
HETATM    6  C16 UNL     1      -1.885   8.827  12.290  1.00  0.00     0.123 C 
HETATM    7  C17 UNL     1      -0.538   8.606  11.590  1.00  0.00     0.037 C 
HETATM    8  C18 UNL     1       0.330   7.622  12.385  1.00  0.00    -0.001 C 
HETATM    9  C19 UNL     1       1.806   7.653  11.934  1.00  0.00     0.037 C 
HETATM   10  C20 UNL     1       2.116   6.837  10.687  1.00  0.00     0.118 C 
HETATM   11  C21 UNL     1       1.586   5.414  10.805  1.00  0.00     0.032 C 
HETATM   12  C22 UNL     1       0.091   5.393  11.119  1.00  0.00     0.012 C 
HETATM   13  C23 UNL     1      -0.309   6.191  12.394  1.00  0.00    -0.036 C 
HETATM   14  C24 UNL     1       0.243   5.449  13.639  1.00  0.00     0.016 C 
HETATM   15  C25 UNL     1      -1.895   6.284  12.421  1.00  0.00     0.001 C 
HETATM   16  C26 UNL     1      -2.589   5.017  12.981  1.00  0.00     0.007 C 
HETATM   17  C27 UNL     1      -4.115   5.142  13.113  1.00  0.00     0.010 C 
HETATM   18  C28 UNL     1      -4.517   6.385  13.929  1.00  0.00    -0.036 C 
HETATM   19  C29 UNL     1      -4.021   6.269  15.391  1.00  0.00     0.016 C 
ENDROOT
BRANCH   1  20
HETATM   20  C2  UNL     1      -7.043   6.049  14.831  1.00  0.00    -0.013 C 
HETATM   21  C1  UNL     1      -6.569   6.028  16.285  1.00  0.00     0.010 C 
BRANCH  20  22
HETATM   22  C3  UNL     1      -7.316   4.603  14.324  1.00  0.00     0.014 C 
BRANCH  22  23
HETATM   23  C4  UNL     1      -7.775   4.513  12.864  1.00  0.00     0.103 C 
BRANCH  23  24
HETATM   24  C5  UNL     1      -8.818   5.540  12.461  1.00  0.00     0.217 C 
HETATM   25  O1  UNL     1      -8.934   6.002  11.333  1.00  0.00    -0.274 OA
HETATM   26  N1  UNL     1      -9.628   5.909  13.516  1.00  0.00    -0.359 N 
HETATM   27  H9  UNL     1      -9.283   5.752  14.456  1.00  0.00     0.162 HD
BRANCH  26  28
HETATM   28  C6  UNL     1     -10.598   6.979  13.370  1.00  0.00     0.154 C 
BRANCH  28  29
HETATM   29  C7  UNL     1     -11.610   6.957  14.523  1.00  0.00     0.139 C 
HETATM   30  C8  UNL     1     -12.859   6.152  14.204  1.00  0.00     0.035 C 
HETATM   31  C9  UNL     1     -13.772   7.186  13.593  1.00  0.00     0.029 C 
HETATM   32  C10 UNL     1     -13.431   8.423  14.394  1.00  0.00     0.168 C 
HETATM   33  O2  UNL     1     -12.052   8.312  14.771  1.00  0.00    -0.384 OA
ENDBRANCH  28  29
ENDBRANCH  26  28
ENDBRANCH  23  24
ENDBRANCH  22  23
ENDBRANCH  20  22
ENDBRANCH   1  20
BRANCH   6  34
HETATM   34  O3  UNL     1      -1.765   9.922  13.202  1.00  0.00    -0.395 OA
HETATM   35  H27 UNL     1      -1.489  10.700  12.687  1.00  0.00     0.210 HD
ENDBRANCH   6  34
BRANCH  10  36
HETATM   36  O4  UNL     1       1.550   7.473   9.544  1.00  0.00    -0.396 OA
HETATM   37  H34 UNL     1       1.885   6.997   8.763  1.00  0.00     0.210 HD
ENDBRANCH  10  36
TORSDOF 8
ENDMDL
MODEL 2
REMARK minimizedAffinity -9.49686146
REMARK  8 active torsions:
REMARK  status: ('A' for Active; 'I' for Inactive)
REMARK    1  A    between atoms: C2_2  and  C3_3 
REMARK    2  A    between atoms: C2_2  and  C11_14 
REMARK    3  A    between atoms: C3_3  and  C4_4 
REMARK    4  A    between atoms: C4_4  and  C5_5 
REMARK       I    between atoms: C5_5  and  N1_7 
REMARK    5  A    between atoms: N1_7  and  C6_8 
REMARK    6  A    between atoms: C6_8  and  C7_9 
REMARK    7  A    between atoms: C16_19  and  O3_20 
REMARK    8  A    between atoms: C20_24  and  O4_25 
ROOT
HETATM    1  C11 UNL     1       0.208   5.925  11.845  1.00  0.00    -0.002 C 
HETATM    2  C12 UNL     1       0.318   4.425  11.436  1.00  0.00     0.006 C 
HETATM    3  C13 UNL     1      -1.038   3.770  11.719  1.00  0.00     0.006 C 
HETATM    4  C14 UNL     1      -1.953   4.944  12.027  1.00  0.00     0.001 C 
HETATM    5  C15 UNL     1      -3.291   4.650  12.728  1.00  0.00     0.024 C 
HETATM    6  C16 UNL     1      -4.145   3.677  11.877  1.00  0.00     0.123 C 
HETATM    7  C17 UNL     1      -5.655   3.828  12.097  1.00  0.00     0.037 C 
HETATM    8  C18 UNL     1      -5.951   4.286  13.530  1.00  0.00    -0.001 C 
HETATM    9  C19 UNL     1      -7.435   4.094  13.908  1.00  0.00     0.037 C 
HETATM   10  C20 UNL     1      -8.371   5.192  13.420  1.00  0.00     0.118 C 
HETATM   11  C21 UNL     1      -7.859   6.573  13.805  1.00  0.00     0.032 C 
HETATM   12  C22 UNL     1      -6.433   6.805  13.310  1.00  0.00     0.012 C 
HETATM   13  C23 UNL     1      -5.406   5.734  13.781  1.00  0.00    -0.036 C 
HETATM   14  C24 UNL     1      -5.193   5.887  15.309  1.00  0.00     0.016 C 
HETATM   15  C25 UNL     1      -4.060   5.975  12.973  1.00  0.00     0.001 C 
HETATM   16  C26 UNL     1      -3.170   7.101  13.556  1.00  0.00     0.007 C 
HETATM   17  C27 UNL     1      -1.817   7.265  12.847  1.00  0.00     0.010 C 
HETATM   18  C28 UNL     1      -1.039   5.937  12.787  1.00  0.00    -0.036 C 
HETATM   19  C29 UNL     1      -0.662   5.455  14.209  1.00  0.00     0.016 C 
ENDROOT
BRANCH   1  20
HETATM   20  C2  UNL     1       1.572   6.482  12.354  1.00  0.00    -0.013 C 
HETATM   21  C1  UNL     1       1.429   7.314  13.630  1.00  0.00     0.010 C 
BRANCH  20  22
HETATM   22  C3  UNL     1       2.258   7.316  11.232  1.00  0.00     0.014 C 
BRANCH  22  23
HETATM   23  C4  UNL     1       2.630   6.517   9.978  1.00  0.00     0.103 C 
BRANCH  23  24
HETATM   24  C5  UNL     1       3.973   5.812  10.048  1.00  0.00     0.217 C 
HETATM   25  O1  UNL     1       4.247   4.784   9.443  1.00  0.00    -0.274 OA
HETATM   26  N1  UNL     1       4.862   6.458  10.884  1.00  0.00    -0.359 N 
HETATM   27  H9  UNL     1       4.484   7.085  11.585  1.00  0.00     0.162 HD
BRANCH  26  28
HETATM   28  C6  UNL     1       6.153   5.870  11.193  1.00  0.00     0.154 C 
BRANCH  28  29
HETATM   29  C7  UNL     1       7.178   6.959  11.536  1.00  0.00     0.139 C 
HETATM   30  C8  UNL     1       7.137   7.377  12.997  1.00  0.00     0.035 C 
HETATM   31  C9  UNL     1       6.133   8.502  12.992  1.00  0.00     0.029 C 
HETATM   32  C10 UNL     1       6.408   9.168  11.662  1.00  0.00     0.168 C 
HETATM   33  O2  UNL     1       6.862   8.143  10.767  1.00  0.00    -0.384 OA
ENDBRANCH  28  29
ENDBRANCH  26  28
ENDBRANCH  23  24
ENDBRANCH  22  23
ENDBRANCH  20  22
ENDBRANCH   1  20
BRANCH   6  34
HETATM   34  O3  UNL     1      -3.753   2.343  12.211  1.00  0.00    -0.395 OA
HETATM   35  H27 UNL     1      -4.265   1.740  11.646  1.00  0.00     0.210 HD
ENDBRANCH   6  34
BRANCH  10  36
HETATM   36  O4  UNL     1      -8.517   5.105  12.005  1.00  0.00    -0.396 OA
HETATM   37  H34 UNL     1      -9.220   5.730  11.756  1.00  0.00     0.210 HD
ENDBRANCH  10  36
TORSDOF 8
ENDMDL
MODEL 3
REMARK minimizedAffinity -9.45761776
REMARK  8 active torsions:
REMARK  status: ('A' for Active; 'I' for Inactive)
REMARK    1  A    between atoms: C2_2  and  C3_3 
REMARK    2  A    between atoms: C2_2  and  C11_14 
REMARK    3  A    between atoms: C3_3  and  C4_4 
REMARK    4  A    between atoms: C4_4  and  C5_5 
REMARK       I    between atoms: C5_5  and  N1_7 
REMARK    5  A    between atoms: N1_7  and  C6_8 
REMARK    6  A    between atoms: C6_8  and  C7_9 
REMARK    7  A    between atoms: C16_19  and  O3_20 
REMARK    8  A    between atoms: C20_24  and  O4_25 
ROOT
HETATM    1  C11 UNL     1       0.267   6.298  11.583  1.00  0.00    -0.002 C 
HETATM    2  C12 UNL     1       0.436   4.796  11.201  1.00  0.00     0.006 C 
HETATM    3  C13 UNL     1      -0.872   4.081  11.557  1.00  0.00     0.006 C 
HETATM    4  C14 UNL     1      -1.831   5.215  11.879  1.00  0.00     0.001 C 
HETATM    5  C15 UNL     1      -3.122   4.871  12.643  1.00  0.00     0.024 C 
HETATM    6  C16 UNL     1      -3.960   3.838  11.851  1.00  0.00     0.123 C 
HETATM    7  C17 UNL     1      -5.466   3.918  12.132  1.00  0.00     0.037 C 
HETATM    8  C18 UNL     1      -5.724   4.393  13.567  1.00  0.00    -0.001 C 
HETATM    9  C19 UNL     1      -7.179   4.137  14.012  1.00  0.00     0.037 C 
HETATM   10  C20 UNL     1      -8.190   5.175  13.543  1.00  0.00     0.118 C 
HETATM   11  C21 UNL     1      -7.732   6.588  13.876  1.00  0.00     0.032 C 
HETATM   12  C22 UNL     1      -6.342   6.880  13.315  1.00  0.00     0.012 C 
HETATM   13  C23 UNL     1      -5.243   5.872  13.763  1.00  0.00    -0.036 C 
HETATM   14  C24 UNL     1      -4.974   6.071  15.278  1.00  0.00     0.016 C 
HETATM   15  C25 UNL     1      -3.946   6.161  12.893  1.00  0.00     0.001 C 
HETATM   16  C26 UNL     1      -3.091   7.344  13.414  1.00  0.00     0.007 C 
HETATM   17  C27 UNL     1      -1.779   7.558  12.644  1.00  0.00     0.010 C 
HETATM   18  C28 UNL     1      -0.938   6.270  12.578  1.00  0.00    -0.036 C 
HETATM   19  C29 UNL     1      -0.477   5.840  13.992  1.00  0.00     0.016 C 
ENDROOT
BRANCH   1  20
HETATM   20  C2  UNL     1       1.622   6.934  12.021  1.00  0.00    -0.013 C 
HETATM   21  C1  UNL     1       1.676   8.441  11.762  1.00  0.00     0.010 C 
BRANCH  20  22
HETATM   22  C3  UNL     1       2.802   6.214  11.306  1.00  0.00     0.014 C 
BRANCH  22  23
HETATM   23  C4  UNL     1       3.847   7.152  10.692  1.00  0.00     0.103 C 
BRANCH  23  24
HETATM   24  C5  UNL     1       5.237   7.034  11.290  1.00  0.00     0.217 C 
HETATM   25  O1  UNL     1       6.256   6.846  10.638  1.00  0.00    -0.274 OA
HETATM   26  N1  UNL     1       5.230   7.156  12.664  1.00  0.00    -0.359 N 
HETATM   27  H9  UNL     1       4.359   6.981  13.152  1.00  0.00     0.162 HD
BRANCH  26  28
HETATM   28  C6  UNL     1       6.440   6.936  13.437  1.00  0.00     0.154 C 
BRANCH  28  29
HETATM   29  C7  UNL     1       7.106   8.271  13.796  1.00  0.00     0.139 C 
HETATM   30  C8  UNL     1       8.618   8.240  13.651  1.00  0.00     0.035 C 
HETATM   31  C9  UNL     1       9.073   7.792  15.018  1.00  0.00     0.029 C 
HETATM   32  C10 UNL     1       8.064   8.464  15.924  1.00  0.00     0.168 C 
HETATM   33  O2  UNL     1       6.837   8.557  15.189  1.00  0.00    -0.384 OA
ENDBRANCH  28  29
ENDBRANCH  26  28
ENDBRANCH  23  24
ENDBRANCH  22  23
ENDBRANCH  20  22
ENDBRANCH   1  20
BRANCH   6  34
HETATM   34  O3  UNL     1      -3.487   2.533  12.195  1.00  0.00    -0.395 OA
HETATM   35  H27 UNL     1      -3.992   1.892  11.666  1.00  0.00     0.210 HD
ENDBRANCH   6  34
BRANCH  10  36
HETATM   36  O4  UNL     1      -8.390   5.049  12.137  1.00  0.00    -0.396 OA
HETATM   37  H34 UNL     1      -9.134   5.632  11.906  1.00  0.00     0.210 HD
ENDBRANCH  10  36
TORSDOF 8
ENDMDL
MODEL 4
REMARK minimizedAffinity -9.41411781
REMARK  8 active torsions:
REMARK  status: ('A' for Active; 'I' for Inactive)
REMARK    1  A    between atoms: C2_2  and  C3_3 
REMARK    2  A    between atoms: C2_2  and  C11_14 
REMARK    3  A    between atoms: C3_3  and  C4_4 
REMARK    4  A    between atoms: C4_4  and  C5_5 
REMARK       I    between atoms: C5_5  and  N1_7 
REMARK    5  A    between atoms: N1_7  and  C6_8 
REMARK    6  A    between atoms: C6_8  and  C7_9 
REMARK    7  A    between atoms: C16_19  and  O3_20 
REMARK    8  A    between atoms: C20_24  and  O4_25 
ROOT
HETATM    1  C11 UNL     1      -3.831   6.298  13.546  1.00  0.00    -0.002 C 
HETATM    2  C12 UNL     1      -4.245   4.928  12.926  1.00  0.00     0.006 C 
HETATM    3  C13 UNL     1      -5.769   4.814  13.038  1.00  0.00     0.006 C 
HETATM    4  C14 UNL     1      -6.208   6.204  13.466  1.00  0.00     0.001 C 
HETATM    5  C15 UNL     1      -7.625   6.365  14.043  1.00  0.00     0.024 C 
HETATM    6  C16 UNL     1      -8.685   5.900  13.014  1.00  0.00     0.123 C 
HETATM    7  C17 UNL     1     -10.045   6.590  13.173  1.00  0.00     0.037 C 
HETATM    8  C18 UNL     1     -10.299   6.957  14.640  1.00  0.00    -0.001 C 
HETATM    9  C19 UNL     1     -11.779   7.306  14.906  1.00  0.00     0.037 C 
HETATM   10  C20 UNL     1     -12.182   8.727  14.536  1.00  0.00     0.118 C 
HETATM   11  C21 UNL     1     -11.237   9.752  15.147  1.00  0.00     0.032 C 
HETATM   12  C22 UNL     1      -9.783   9.477  14.768  1.00  0.00     0.012 C 
HETATM   13  C23 UNL     1      -9.284   8.047  15.130  1.00  0.00    -0.036 C 
HETATM   14  C24 UNL     1      -9.191   7.929  16.674  1.00  0.00     0.016 C 
HETATM   15  C25 UNL     1      -7.867   7.846  14.440  1.00  0.00     0.001 C 
HETATM   16  C26 UNL     1      -6.689   8.470  15.229  1.00  0.00     0.007 C 
HETATM   17  C27 UNL     1      -5.306   8.185  14.625  1.00  0.00     0.010 C 
HETATM   18  C28 UNL     1      -5.076   6.677  14.412  1.00  0.00    -0.036 C 
HETATM   19  C29 UNL     1      -5.057   5.926  15.765  1.00  0.00     0.016 C 
ENDROOT
BRANCH   1  20
HETATM   20  C2  UNL     1      -2.419   6.227  14.203  1.00  0.00    -0.013 C 
HETATM   21  C1  UNL     1      -2.211   7.306  15.268  1.00  0.00     0.010 C 
BRANCH  20  22
HETATM   22  C3  UNL     1      -1.318   6.320  13.107  1.00  0.00     0.014 C 
BRANCH  22  23
HETATM   23  C4  UNL     1      -0.159   5.332  13.280  1.00  0.00     0.103 C 
BRANCH  23  24
HETATM   24  C5  UNL     1       0.705   5.143  12.046  1.00  0.00     0.217 C 
HETATM   25  O1  UNL     1       0.740   4.119  11.376  1.00  0.00    -0.274 OA
HETATM   26  N1  UNL     1       1.463   6.260  11.759  1.00  0.00    -0.359 N 
HETATM   27  H9  UNL     1       1.635   6.922  12.507  1.00  0.00     0.162 HD
BRANCH  26  28
HETATM   28  C6  UNL     1       2.456   6.234  10.700  1.00  0.00     0.154 C 
BRANCH  28  29
HETATM   29  C7  UNL     1       1.783   6.293   9.322  1.00  0.00     0.139 C 
HETATM   30  C8  UNL     1       2.761   6.575   8.194  1.00  0.00     0.035 C 
HETATM   31  C9  UNL     1       2.755   8.082   8.120  1.00  0.00     0.029 C 
HETATM   32  C10 UNL     1       1.313   8.410   8.438  1.00  0.00     0.168 C 
HETATM   33  O2  UNL     1       0.836   7.386   9.322  1.00  0.00    -0.384 OA
ENDBRANCH  28  29
ENDBRANCH  26  28
ENDBRANCH  23  24
ENDBRANCH  22  23
ENDBRANCH  20  22
ENDBRANCH   1  20
BRANCH   6  34
HETATM   34  O3  UNL     1      -8.855   4.488  13.168  1.00  0.00    -0.395 OA
HETATM   35  H27 UNL     1      -9.492   4.197  12.494  1.00  0.00     0.210 HD
ENDBRANCH   6  34
BRANCH  10  36
HETATM   36  O4  UNL     1     -12.200   8.867  13.118  1.00  0.00    -0.396 OA
HETATM   37  H34 UNL     1     -12.590   9.738  12.927  1.00  0.00     0.210 HD
ENDBRANCH  10  36
TORSDOF 8
ENDMDL
MODEL 5
REMARK minimizedAffinity -9.07865715
REMARK  8 active torsions:
REMARK  status: ('A' for Active; 'I' for Inactive)
REMARK    1  A    between atoms: C2_2  and  C3_3 
REMARK    2  A    between atoms: C2_2  and  C11_14 
REMARK    3  A    between atoms: C3_3  and  C4_4 
REMARK    4  A    between atoms: C4_4  and  C5_5 
REMARK       I    between atoms: C5_5  and  N1_7 
REMARK    5  A    between atoms: N1_7  and  C6_8 
REMARK    6  A    between atoms: C6_8  and  C7_9 
REMARK    7  A    between atoms: C16_19  and  O3_20 
REMARK    8  A    between atoms: C20_24  and  O4_25 
ROOT
HETATM    1  C11 UNL     1      -0.016   7.036  12.714  1.00  0.00    -0.002 C 
HETATM    2  C12 UNL     1       0.381   5.583  12.314  1.00  0.00     0.006 C 
HETATM    3  C13 UNL     1      -0.876   4.714  12.428  1.00  0.00     0.006 C 
HETATM    4  C14 UNL     1      -1.997   5.721  12.627  1.00  0.00     0.001 C 
HETATM    5  C15 UNL     1      -3.345   5.202  13.160  1.00  0.00     0.024 C 
HETATM    6  C16 UNL     1      -3.924   4.127  12.207  1.00  0.00     0.123 C 
HETATM    7  C17 UNL     1      -5.455   4.031  12.242  1.00  0.00     0.037 C 
HETATM    8  C18 UNL     1      -5.989   4.402  13.631  1.00  0.00    -0.001 C 
HETATM    9  C19 UNL     1      -7.457   3.969  13.825  1.00  0.00     0.037 C 
HETATM   10  C20 UNL     1      -8.492   4.916  13.232  1.00  0.00     0.118 C 
HETATM   11  C21 UNL     1      -8.257   6.351  13.683  1.00  0.00     0.032 C 
HETATM   12  C22 UNL     1      -6.838   6.818  13.366  1.00  0.00     0.012 C 
HETATM   13  C23 UNL     1      -5.716   5.912  13.953  1.00  0.00    -0.036 C 
HETATM   14  C24 UNL     1      -5.714   6.060  15.496  1.00  0.00     0.016 C 
HETATM   15  C25 UNL     1      -4.339   6.382  13.316  1.00  0.00     0.001 C 
HETATM   16  C26 UNL     1      -3.717   7.621  14.008  1.00  0.00     0.007 C 
HETATM   17  C27 UNL     1      -2.333   8.014  13.469  1.00  0.00     0.010 C 
HETATM   18  C28 UNL     1      -1.351   6.828  13.498  1.00  0.00    -0.036 C 
HETATM   19  C29 UNL     1      -1.074   6.378  14.953  1.00  0.00     0.016 C 
ENDROOT
BRANCH   1  20
HETATM   20  C2  UNL     1       1.172   7.790  13.387  1.00  0.00    -0.013 C 
HETATM   21  C1  UNL     1       1.365   9.201  12.830  1.00  0.00     0.010 C 
BRANCH  20  22
HETATM   22  C3  UNL     1       2.480   6.960  13.239  1.00  0.00     0.014 C 
BRANCH  22  23
HETATM   23  C4  UNL     1       3.673   7.741  12.677  1.00  0.00     0.103 C 
BRANCH  23  24
HETATM   24  C5  UNL     1       4.105   7.327  11.281  1.00  0.00     0.217 C 
HETATM   25  O1  UNL     1       5.032   7.836  10.665  1.00  0.00    -0.274 OA
HETATM   26  N1  UNL     1       3.326   6.309  10.771  1.00  0.00    -0.359 N 
HETATM   27  H9  UNL     1       2.406   6.167  11.174  1.00  0.00     0.162 HD
BRANCH  26  28
HETATM   28  C6  UNL     1       3.489   5.863   9.399  1.00  0.00     0.154 C 
BRANCH  28  29
HETATM   29  C7  UNL     1       2.225   6.156   8.579  1.00  0.00     0.139 C 
HETATM   30  C8  UNL     1       2.498   7.003   7.346  1.00  0.00     0.035 C 
HETATM   31  C9  UNL     1       2.332   8.409   7.867  1.00  0.00     0.029 C 
HETATM   32  C10 UNL     1       1.209   8.247   8.867  1.00  0.00     0.168 C 
HETATM   33  O2  UNL     1       1.312   6.920   9.401  1.00  0.00    -0.384 OA
ENDBRANCH  28  29
ENDBRANCH  26  28
ENDBRANCH  23  24
ENDBRANCH  22  23
ENDBRANCH  20  22
ENDBRANCH   1  20
BRANCH   6  34
HETATM   34  O3  UNL     1      -3.366   2.864  12.579  1.00  0.00    -0.395 OA
HETATM   35  H27 UNL     1      -3.705   2.201  11.953  1.00  0.00     0.210 HD
ENDBRANCH   6  34
BRANCH  10  36
HETATM   36  O4  UNL     1      -8.453   4.841  11.810  1.00  0.00    -0.396 OA
HETATM   37  H34 UNL     1      -9.212   5.353  11.480  1.00  0.00     0.210 HD
ENDBRANCH  10  36
TORSDOF 8
ENDMDL
MODEL 6
REMARK minimizedAffinity -9.04872608
REMARK  8 active torsions:
REMARK  status: ('A' for Active; 'I' for Inactive)
REMARK    1  A    between atoms: C2_2  and  C3_3 
REMARK    2  A    between atoms: C2_2  and  C11_14 
REMARK    3  A    between atoms: C3_3  and  C4_4 
REMARK    4  A    between atoms: C4_4  and  C5_5 
REMARK       I    between atoms: C5_5  and  N1_7 
REMARK    5  A    between atoms: N1_7  and  C6_8 
REMARK    6  A    between atoms: C6_8  and  C7_9 
REMARK    7  A    between atoms: C16_19  and  O3_20 
REMARK    8  A    between atoms: C20_24  and  O4_25 
ROOT
HETATM    1  C11 UNL     1      -5.755   4.575  13.828  1.00  0.00    -0.002 C 
HETATM    2  C12 UNL     1      -5.347   3.895  12.485  1.00  0.00     0.006 C 
HETATM    3  C13 UNL     1      -3.919   4.344  12.158  1.00  0.00     0.006 C 
HETATM    4  C14 UNL     1      -3.456   5.041  13.426  1.00  0.00     0.001 C 
HETATM    5  C15 UNL     1      -2.217   5.951  13.337  1.00  0.00     0.024 C 
HETATM    6  C16 UNL     1      -0.990   5.146  12.842  1.00  0.00     0.123 C 
HETATM    7  C17 UNL     1       0.353   5.708  13.325  1.00  0.00     0.037 C 
HETATM    8  C18 UNL     1       0.271   7.229  13.503  1.00  0.00    -0.001 C 
HETATM    9  C19 UNL     1       1.667   7.876  13.623  1.00  0.00     0.037 C 
HETATM   10  C20 UNL     1       2.296   7.801  15.008  1.00  0.00     0.118 C 
HETATM   11  C21 UNL     1       1.341   8.303  16.082  1.00  0.00     0.032 C 
HETATM   12  C22 UNL     1       0.006   7.562  16.043  1.00  0.00     0.012 C 
HETATM   13  C23 UNL     1      -0.714   7.606  14.663  1.00  0.00    -0.036 C 
HETATM   14  C24 UNL     1      -1.198   9.056  14.401  1.00  0.00     0.016 C 
HETATM   15  C25 UNL     1      -1.928   6.583  14.724  1.00  0.00     0.001 C 
HETATM   16  C26 UNL     1      -3.193   7.150  15.416  1.00  0.00     0.007 C 
HETATM   17  C27 UNL     1      -4.405   6.207  15.381  1.00  0.00     0.010 C 
HETATM   18  C28 UNL     1      -4.731   5.750  13.947  1.00  0.00    -0.036 C 
HETATM   19  C29 UNL     1      -5.164   6.951  13.071  1.00  0.00     0.016 C 
ENDROOT
BRANCH   1  20
HETATM   20  C2  UNL     1      -7.285   4.869  13.879  1.00  0.00    -0.013 C 
HETATM   21  C1  UNL     1      -7.983   4.590  12.546  1.00  0.00     0.010 C 
BRANCH  20  22
HETATM   22  C3  UNL     1      -7.530   6.339  14.326  1.00  0.00     0.014 C 
BRANCH  22  23
HETATM   23  C4  UNL     1      -8.107   6.491  15.738  1.00  0.00     0.103 C 
BRANCH  23  24
HETATM   24  C5  UNL     1      -9.436   7.222  15.806  1.00  0.00     0.217 C 
HETATM   25  O1  UNL     1      -9.733   8.038  16.669  1.00  0.00    -0.274 OA
HETATM   26  N1  UNL     1     -10.289   6.857  14.785  1.00  0.00    -0.359 N 
HETATM   27  H9  UNL     1     -10.123   5.972  14.320  1.00  0.00     0.162 HD
BRANCH  26  28
HETATM   28  C6  UNL     1     -11.658   7.339  14.751  1.00  0.00     0.154 C 
BRANCH  28  29
HETATM   29  C7  UNL     1     -12.199   7.340  13.315  1.00  0.00     0.139 C 
HETATM   30  C8  UNL     1     -11.674   8.496  12.481  1.00  0.00     0.035 C 
HETATM   31  C9  UNL     1     -12.698   9.576  12.731  1.00  0.00     0.029 C 
HETATM   32  C10 UNL     1     -13.980   8.781  12.830  1.00  0.00     0.168 C 
HETATM   33  O2  UNL     1     -13.637   7.496  13.367  1.00  0.00    -0.384 OA
ENDBRANCH  28  29
ENDBRANCH  26  28
ENDBRANCH  23  24
ENDBRANCH  22  23
ENDBRANCH  20  22
ENDBRANCH   1  20
BRANCH   6  34
HETATM   34  O3  UNL     1      -1.013   5.149  11.412  1.00  0.00    -0.395 OA
HETATM   35  H27 UNL     1      -0.262   4.610  11.109  1.00  0.00     0.210 HD
ENDBRANCH   6  34
BRANCH  10  36
HETATM   36  O4  UNL     1       2.680   6.458  15.288  1.00  0.00    -0.396 OA
HETATM   37  H34 UNL     1       3.194   6.479  16.114  1.00  0.00     0.210 HD
ENDBRANCH  10  36
TORSDOF 8
ENDMDL
MODEL 7
REMARK minimizedAffinity -8.88057232
REMARK  8 active torsions:
REMARK  status: ('A' for Active; 'I' for Inactive)
REMARK    1  A    between atoms: C2_2  and  C3_3 
REMARK    2  A    between atoms: C2_2  and  C11_14 
REMARK    3  A    between atoms: C3_3  and  C4_4 
REMARK    4  A    between atoms: C4_4  and  C5_5 
REMARK       I    between atoms: C5_5  and  N1_7 
REMARK    5  A    between atoms: N1_7  and  C6_8 
REMARK    6  A    between atoms: C6_8  and  C7_9 
REMARK    7  A    between atoms: C16_19  and  O3_20 
REMARK    8  A    between atoms: C20_24  and  O4_25 
ROOT
HETATM    1  C11 UNL     1      -5.613   4.288  13.638  1.00  0.00    -0.002 C 
HETATM    2  C12 UNL     1      -5.187   3.749  12.238  1.00  0.00     0.006 C 
HETATM    3  C13 UNL     1      -3.796   4.315  11.932  1.00  0.00     0.006 C 
HETATM    4  C14 UNL     1      -3.356   4.935  13.248  1.00  0.00     0.001 C 
HETATM    5  C15 UNL     1      -2.180   5.927  13.219  1.00  0.00     0.024 C 
HETATM    6  C16 UNL     1      -0.914   5.248  12.643  1.00  0.00     0.123 C 
HETATM    7  C17 UNL     1       0.399   5.854  13.154  1.00  0.00     0.037 C 
HETATM    8  C18 UNL     1       0.224   7.346  13.460  1.00  0.00    -0.001 C 
HETATM    9  C19 UNL     1       1.578   8.071  13.615  1.00  0.00     0.037 C 
HETATM   10  C20 UNL     1       2.235   7.923  14.981  1.00  0.00     0.118 C 
HETATM   11  C21 UNL     1       1.270   8.271  16.105  1.00  0.00     0.032 C 
HETATM   12  C22 UNL     1      -0.015   7.450  16.021  1.00  0.00     0.012 C 
HETATM   13  C23 UNL     1      -0.762   7.562  14.660  1.00  0.00    -0.036 C 
HETATM   14  C24 UNL     1      -1.342   8.993  14.526  1.00  0.00     0.016 C 
HETATM   15  C25 UNL     1      -1.906   6.460  14.651  1.00  0.00     0.001 C 
HETATM   16  C26 UNL     1      -3.192   6.884  15.404  1.00  0.00     0.007 C 
HETATM   17  C27 UNL     1      -4.342   5.870  15.305  1.00  0.00     0.010 C 
HETATM   18  C28 UNL     1      -4.665   5.513  13.842  1.00  0.00    -0.036 C 
HETATM   19  C29 UNL     1      -5.189   6.752  13.075  1.00  0.00     0.016 C 
ENDROOT
BRANCH   1  20
HETATM   20  C2  UNL     1      -7.158   4.476  13.733  1.00  0.00    -0.013 C 
HETATM   21  C1  UNL     1      -7.931   3.326  13.085  1.00  0.00     0.010 C 
BRANCH  20  22
HETATM   22  C3  UNL     1      -7.568   5.836  13.098  1.00  0.00     0.014 C 
BRANCH  22  23
HETATM   23  C4  UNL     1      -8.820   5.779  12.216  1.00  0.00     0.103 C 
BRANCH  23  24
HETATM   24  C5  UNL     1     -10.001   6.580  12.735  1.00  0.00     0.217 C 
HETATM   25  O1  UNL     1     -10.806   7.166  12.023  1.00  0.00    -0.274 OA
HETATM   26  N1  UNL     1     -10.067   6.585  14.113  1.00  0.00    -0.359 N 
HETATM   27  H9  UNL     1      -9.221   6.373  14.630  1.00  0.00     0.162 HD
BRANCH  26  28
HETATM   28  C6  UNL     1     -11.043   7.406  14.809  1.00  0.00     0.154 C 
BRANCH  28  29
HETATM   29  C7  UNL     1     -10.497   8.821  15.039  1.00  0.00     0.139 C 
HETATM   30  C8  UNL     1     -10.215   9.120  16.502  1.00  0.00     0.035 C 
HETATM   31  C9  UNL     1     -11.528   9.686  16.984  1.00  0.00     0.029 C 
HETATM   32  C10 UNL     1     -12.005  10.456  15.772  1.00  0.00     0.168 C 
HETATM   33  O2  UNL     1     -11.500   9.773  14.616  1.00  0.00    -0.384 OA
ENDBRANCH  28  29
ENDBRANCH  26  28
ENDBRANCH  23  24
ENDBRANCH  22  23
ENDBRANCH  20  22
ENDBRANCH   1  20
BRANCH   6  34
HETATM   34  O3  UNL     1      -0.962   5.367  11.219  1.00  0.00    -0.395 OA
HETATM   35  H27 UNL     1      -0.184   4.905  10.861  1.00  0.00     0.210 HD
ENDBRANCH   6  34
BRANCH  10  36
HETATM   36  O4  UNL     1       2.709   6.589  15.143  1.00  0.00    -0.396 OA
HETATM   37  H34 UNL     1       3.236   6.575  15.961  1.00  0.00     0.210 HD
ENDBRANCH  10  36
TORSDOF 8
ENDMDL
MODEL 8
REMARK minimizedAffinity -8.86665058
REMARK  8 active torsions:
REMARK  status: ('A' for Active; 'I' for Inactive)
REMARK    1  A    between atoms: C2_2  and  C3_3 
REMARK    2  A    between atoms: C2_2  and  C11_14 
REMARK    3  A    between atoms: C3_3  and  C4_4 
REMARK    4  A    between atoms: C4_4  and  C5_5 
REMARK       I    between atoms: C5_5  and  N1_7 
REMARK    5  A    between atoms: N1_7  and  C6_8 
REMARK    6  A    between atoms: C6_8  and  C7_9 
REMARK    7  A    between atoms: C16_19  and  O3_20 
REMARK    8  A    between atoms: C20_24  and  O4_25 
ROOT
HETATM    1  C11 UNL     1      -2.148   5.204  11.792  1.00  0.00    -0.002 C 
HETATM    2  C12 UNL     1      -2.667   3.749  11.585  1.00  0.00     0.006 C 
HETATM    3  C13 UNL     1      -4.044   3.653  12.249  1.00  0.00     0.006 C 
HETATM    4  C14 UNL     1      -4.390   5.095  12.581  1.00  0.00     0.001 C 
HETATM    5  C15 UNL     1      -5.521   5.349  13.594  1.00  0.00     0.024 C 
HETATM    6  C16 UNL     1      -6.844   4.715  13.098  1.00  0.00     0.123 C 
HETATM    7  C17 UNL     1      -8.101   5.420  13.621  1.00  0.00     0.037 C 
HETATM    8  C18 UNL     1      -7.845   6.030  15.004  1.00  0.00    -0.001 C 
HETATM    9  C19 UNL     1      -9.155   6.417  15.722  1.00  0.00     0.037 C 
HETATM   10  C20 UNL     1      -9.750   7.754  15.302  1.00  0.00     0.118 C 
HETATM   11  C21 UNL     1      -8.715   8.869  15.365  1.00  0.00     0.032 C 
HETATM   12  C22 UNL     1      -7.473   8.535  14.540  1.00  0.00     0.012 C 
HETATM   13  C23 UNL     1      -6.792   7.189  14.921  1.00  0.00    -0.036 C 
HETATM   14  C24 UNL     1      -6.155   7.333  16.328  1.00  0.00     0.016 C 
HETATM   15  C25 UNL     1      -5.699   6.876  13.811  1.00  0.00     0.001 C 
HETATM   16  C26 UNL     1      -4.359   7.626  14.019  1.00  0.00     0.007 C 
HETATM   17  C27 UNL     1      -3.262   7.244  13.014  1.00  0.00     0.010 C 
HETATM   18  C28 UNL     1      -3.029   5.722  12.973  1.00  0.00    -0.036 C 
HETATM   19  C29 UNL     1      -2.489   5.212  14.331  1.00  0.00     0.016 C 
ENDROOT
BRANCH   1  20
HETATM   20  C2  UNL     1      -0.593   5.247  11.904  1.00  0.00    -0.013 C 
HETATM   21  C1  UNL     1      -0.080   4.629  13.206  1.00  0.00     0.010 C 
BRANCH  20  22
HETATM   22  C3  UNL     1      -0.090   6.714  11.760  1.00  0.00     0.014 C 
BRANCH  22  23
HETATM   23  C4  UNL     1       0.634   7.265  12.993  1.00  0.00     0.103 C 
BRANCH  23  24
HETATM   24  C5  UNL     1       2.092   7.622  12.767  1.00  0.00     0.217 C 
HETATM   25  O1  UNL     1       2.934   7.683  13.654  1.00  0.00    -0.274 OA
HETATM   26  N1  UNL     1       2.370   7.883  11.441  1.00  0.00    -0.359 N 
HETATM   27  H9  UNL     1       1.598   8.134  10.835  1.00  0.00     0.162 HD
BRANCH  26  28
HETATM   28  C6  UNL     1       3.675   8.375  11.037  1.00  0.00     0.154 C 
BRANCH  28  29
HETATM   29  C7  UNL     1       4.071   7.806   9.669  1.00  0.00     0.139 C 
HETATM   30  C8  UNL     1       3.050   8.100   8.583  1.00  0.00     0.035 C 
HETATM   31  C9  UNL     1       2.125   6.911   8.667  1.00  0.00     0.029 C 
HETATM   32  C10 UNL     1       3.081   5.789   9.008  1.00  0.00     0.168 C 
HETATM   33  O2  UNL     1       4.146   6.365   9.776  1.00  0.00    -0.384 OA
ENDBRANCH  28  29
ENDBRANCH  26  28
ENDBRANCH  23  24
ENDBRANCH  22  23
ENDBRANCH  20  22
ENDBRANCH   1  20
BRANCH   6  34
HETATM   34  O3  UNL     1      -6.861   3.350  13.523  1.00  0.00    -0.395 OA
HETATM   35  H27 UNL     1      -7.676   2.947  13.176  1.00  0.00     0.210 HD
ENDBRANCH   6  34
BRANCH  10  36
HETATM   36  O4  UNL     1     -10.274   7.652  13.980  1.00  0.00    -0.396 OA
HETATM   37  H34 UNL     1     -10.759   8.477  13.806  1.00  0.00     0.210 HD
ENDBRANCH  10  36
TORSDOF 8
ENDMDL
MODEL 9
REMARK minimizedAffinity -8.83276176
REMARK  8 active torsions:
REMARK  status: ('A' for Active; 'I' for Inactive)
REMARK    1  A    between atoms: C2_2  and  C3_3 
REMARK    2  A    between atoms: C2_2  and  C11_14 
REMARK    3  A    between atoms: C3_3  and  C4_4 
REMARK    4  A    between atoms: C4_4  and  C5_5 
REMARK       I    between atoms: C5_5  and  N1_7 
REMARK    5  A    between atoms: N1_7  and  C6_8 
REMARK    6  A    between atoms: C6_8  and  C7_9 
REMARK    7  A    between atoms: C16_19  and  O3_20 
REMARK    8  A    between atoms: C20_24  and  O4_25 
ROOT
HETATM    1  C11 UNL     1      -6.234   6.757  13.814  1.00  0.00    -0.002 C 
HETATM    2  C12 UNL     1      -6.198   8.279  14.155  1.00  0.00     0.006 C 
HETATM    3  C13 UNL     1      -4.763   8.766  13.931  1.00  0.00     0.006 C 
HETATM    4  C14 UNL     1      -4.087   7.601  13.228  1.00  0.00     0.001 C 
HETATM    5  C15 UNL     1      -2.548   7.579  13.189  1.00  0.00     0.024 C 
HETATM    6  C16 UNL     1      -2.007   8.849  12.487  1.00  0.00     0.123 C 
HETATM    7  C17 UNL     1      -0.642   8.650  11.817  1.00  0.00     0.037 C 
HETATM    8  C18 UNL     1       0.185   7.603  12.572  1.00  0.00    -0.001 C 
HETATM    9  C19 UNL     1       1.675   7.638  12.170  1.00  0.00     0.037 C 
HETATM   10  C20 UNL     1       2.012   6.898  10.882  1.00  0.00     0.118 C 
HETATM   11  C21 UNL     1       1.458   5.481  10.891  1.00  0.00     0.032 C 
HETATM   12  C22 UNL     1      -0.046   5.464  11.158  1.00  0.00     0.012 C 
HETATM   13  C23 UNL     1      -0.475   6.185  12.469  1.00  0.00    -0.036 C 
HETATM   14  C24 UNL     1       0.026   5.355  13.679  1.00  0.00     0.016 C 
HETATM   15  C25 UNL     1      -2.059   6.303  12.453  1.00  0.00     0.001 C 
HETATM   16  C26 UNL     1      -2.790   5.014  12.908  1.00  0.00     0.007 C 
HETATM   17  C27 UNL     1      -4.317   5.157  13.001  1.00  0.00     0.010 C 
HETATM   18  C28 UNL     1      -4.726   6.351  13.883  1.00  0.00    -0.036 C 
HETATM   19  C29 UNL     1      -4.279   6.133  15.349  1.00  0.00     0.016 C 
ENDROOT
BRANCH   1  20
HETATM   20  C2  UNL     1      -7.284   6.000  14.683  1.00  0.00    -0.013 C 
HETATM   21  C1  UNL     1      -7.174   4.480  14.547  1.00  0.00     0.010 C 
BRANCH  20  22
HETATM   22  C3  UNL     1      -8.719   6.480  14.319  1.00  0.00     0.014 C 
BRANCH  22  23
HETATM   23  C4  UNL     1      -9.409   7.315  15.403  1.00  0.00     0.103 C 
BRANCH  23  24
HETATM   24  C5  UNL     1      -9.862   8.693  14.953  1.00  0.00     0.217 C 
HETATM   25  O1  UNL     1      -9.211   9.718  15.106  1.00  0.00    -0.274 OA
HETATM   26  N1  UNL     1     -11.104   8.667  14.354  1.00  0.00    -0.359 N 
HETATM   27  H9  UNL     1     -11.710   7.879  14.551  1.00  0.00     0.162 HD
BRANCH  26  28
HETATM   28  C6  UNL     1     -11.774   9.899  13.978  1.00  0.00     0.154 C 
BRANCH  28  29
HETATM   29  C7  UNL     1     -12.595   9.702  12.697  1.00  0.00     0.139 C 
HETATM   30  C8  UNL     1     -13.945  10.398  12.741  1.00  0.00     0.035 C 
HETATM   31  C9  UNL     1     -14.845   9.339  13.328  1.00  0.00     0.029 C 
HETATM   32  C10 UNL     1     -14.276   8.072  12.729  1.00  0.00     0.168 C 
HETATM   33  O2  UNL     1     -12.871   8.290  12.542  1.00  0.00    -0.384 OA
ENDBRANCH  28  29
ENDBRANCH  26  28
ENDBRANCH  23  24
ENDBRANCH  22  23
ENDBRANCH  20  22
ENDBRANCH   1  20
BRANCH   6  34
HETATM   34  O3  UNL     1      -1.900   9.881  13.472  1.00  0.00    -0.395 OA
HETATM   35  H27 UNL     1      -1.596  10.685  13.018  1.00  0.00     0.210 HD
ENDBRANCH   6  34
BRANCH  10  36
HETATM   36  O4  UNL     1       1.493   7.616   9.766  1.00  0.00    -0.396 OA
HETATM   37  H34 UNL     1       1.844   7.187   8.967  1.00  0.00     0.210 HD
ENDBRANCH  10  36
TORSDOF 8
ENDMDL
