MODEL 1
REMARK minimizedAffinity -7.48148489
REMARK CNNscore 0.612175465
REMARK CNNaffinity 7.33391047
REMARK  10 active torsions:
REMARK  status: ('A' for Active; 'I' for Inactive)
REMARK    1  A    between atoms: C2_2  and  C3_3 
REMARK    2  A    between atoms: C3_3  and  C4_4 
REMARK    3  A    between atoms: C4_4  and  O1_5 
REMARK    4  A    between atoms: O1_5  and  C5_6 
REMARK    5  A    between atoms: C5_6  and  C6_7 
REMARK    6  A    between atoms: C10_11  and  C12_13 
REMARK    7  A    between atoms: C12_13  and  C13_15 
REMARK    8  A    between atoms: C13_15  and  S1_16 
REMARK    9  A    between atoms: S1_16  and  C14_17 
REMARK   10  A    between atoms: C15_20  and  C16_21 
ROOT
HETATM    1  C12 UNL     1      -3.876   2.431  11.609  1.00  0.00     0.171 C 
HETATM    2  O2  UNL     1      -3.718   1.230  11.856  1.00  0.00    -0.294 OA
ENDROOT
BRANCH   1   3
HETATM    3  C10 UNL     1      -5.300   2.994  11.420  1.00  0.00     0.129 C 
HETATM    4  C9  UNL     1      -5.451   4.270  12.251  1.00  0.00     0.076 C 
HETATM    5  C8  UNL     1      -6.878   4.234  12.763  1.00  0.00     0.141 C 
HETATM    6  C7  UNL     1      -7.005   4.735  14.192  1.00  0.00     0.065 C 
HETATM    7  C22 UNL     1      -7.255   2.796  12.613  1.00  0.00     0.279 C 
HETATM    8  C23 UNL     1      -7.826   5.138  12.035  1.00  0.00     0.278 C 
HETATM    9  C6  UNL     1      -8.427   5.262  14.231  1.00  0.00     0.157 C 
HETATM   10  O6  UNL     1      -8.668   5.761  12.912  1.00  0.00    -0.313 OA
HETATM   11  O3  UNL     1      -6.295   2.110  11.934  1.00  0.00    -0.301 OA
HETATM   12  O4  UNL     1      -8.264   2.274  13.058  1.00  0.00    -0.264 OA
HETATM   13  O5  UNL     1      -7.851   5.324  10.830  1.00  0.00    -0.264 OA
HETATM   14  C11 UNL     1      -5.548   3.217   9.928  1.00  0.00     0.055 C 
BRANCH   9  15
HETATM   15  C5  UNL     1      -8.631   6.374  15.260  1.00  0.00     0.200 C 
BRANCH  15  16
HETATM   16  O1  UNL     1      -9.413   7.418  14.683  1.00  0.00    -0.389 OA
BRANCH  16  17
HETATM   17  C4  UNL     1     -10.820   7.205  14.812  1.00  0.00     0.167 C 
BRANCH  17  18
HETATM   18  C3  UNL     1     -11.555   7.570  13.523  1.00  0.00     0.026 C 
BRANCH  18  19
HETATM   19  C2  UNL     1     -13.027   7.156  13.528  1.00  0.00    -0.002 C 
HETATM   20  C1  UNL     1     -13.971   8.301  13.861  1.00  0.00     0.005 C 
ENDBRANCH  18  19
ENDBRANCH  17  18
ENDBRANCH  16  17
ENDBRANCH  15  16
ENDBRANCH   9  15
ENDBRANCH   1   3
BRANCH   1  21
HETATM   21  C13 UNL     1      -2.686   3.356  11.422  1.00  0.00     0.164 C 
BRANCH  21  22
HETATM   22  S1  UNL     1      -2.406   4.442  12.844  1.00  0.00    -0.085 SA
BRANCH  22  23
HETATM   23  C14 UNL     1      -1.182   5.479  12.236  1.00  0.00     0.161 A 
HETATM   24  N1  UNL     1      -0.725   5.559  11.015  1.00  0.00    -0.320 N 
HETATM   25  C15 UNL     1       0.233   6.551  11.098  1.00  0.00     0.134 A 
ATOM     26  H1  UNL     1      -1.007   5.019  10.198  1.00  0.00     0.169 HD
HETATM   27  N2  UNL     1       0.396   7.043  12.339  1.00  0.00    -0.283 N 
HETATM   28  N3  UNL     1      -0.534   6.366  13.032  1.00  0.00    -0.278 N 
ATOM     29  H2  UNL     1       1.056   7.748  12.669  1.00  0.00     0.188 HD
HETATM   30  H26 UNL     1      -0.661   6.548  14.021  1.00  0.00     0.189 HD
BRANCH  25  31
HETATM   31  C16 UNL     1       1.022   6.936   9.934  1.00  0.00     0.031 A 
HETATM   32  C17 UNL     1       0.592   8.052   9.189  1.00  0.00     0.017 A 
HETATM   33  C18 UNL     1       1.290   8.479   8.057  1.00  0.00     0.001 A 
HETATM   34  C19 UNL     1       2.434   7.802   7.651  1.00  0.00     0.002 A 
HETATM   35  C20 UNL     1       2.884   6.704   8.385  1.00  0.00     0.025 A 
HETATM   36  C21 UNL     1       2.188   6.270   9.523  1.00  0.00     0.048 A 
HETATM   37 CL1  UNL     1       2.885   4.943  10.389  1.00  0.00    -0.083 Cl
ENDBRANCH  25  31
ENDBRANCH  22  23
ENDBRANCH  21  22
ENDBRANCH   1  21
TORSDOF 10
ENDMDL
MODEL 2
REMARK minimizedAffinity -8.22325134
REMARK CNNscore 0.459166735
REMARK CNNaffinity 6.64859581
REMARK  10 active torsions:
REMARK  status: ('A' for Active; 'I' for Inactive)
REMARK    1  A    between atoms: C2_2  and  C3_3 
REMARK    2  A    between atoms: C3_3  and  C4_4 
REMARK    3  A    between atoms: C4_4  and  O1_5 
REMARK    4  A    between atoms: O1_5  and  C5_6 
REMARK    5  A    between atoms: C5_6  and  C6_7 
REMARK    6  A    between atoms: C10_11  and  C12_13 
REMARK    7  A    between atoms: C12_13  and  C13_15 
REMARK    8  A    between atoms: C13_15  and  S1_16 
REMARK    9  A    between atoms: S1_16  and  C14_17 
REMARK   10  A    between atoms: C15_20  and  C16_21 
ROOT
HETATM    1  C12 UNL     1      -2.360   3.920  11.853  1.00  0.00     0.171 C 
HETATM    2  O2  UNL     1      -1.791   2.840  12.041  1.00  0.00    -0.294 OA
ENDROOT
BRANCH   1   3
HETATM    3  C10 UNL     1      -1.657   5.237  12.246  1.00  0.00     0.129 C 
HETATM    4  C9  UNL     1      -0.752   5.687  11.097  1.00  0.00     0.076 C 
HETATM    5  C8  UNL     1       0.465   6.290  11.773  1.00  0.00     0.141 C 
HETATM    6  C7  UNL     1       1.762   5.955  11.057  1.00  0.00     0.065 C 
HETATM    7  C22 UNL     1       0.398   5.727  13.155  1.00  0.00     0.279 C 
HETATM    8  C23 UNL     1       0.496   7.788  11.782  1.00  0.00     0.278 C 
HETATM    9  C6  UNL     1       2.649   7.134  11.416  1.00  0.00     0.157 C 
HETATM   10  O6  UNL     1       1.755   8.246  11.515  1.00  0.00    -0.313 OA
HETATM   11  O3  UNL     1      -0.772   5.057  13.351  1.00  0.00    -0.301 OA
HETATM   12  O4  UNL     1       1.273   5.810  14.001  1.00  0.00    -0.264 OA
HETATM   13  O5  UNL     1      -0.460   8.520  11.979  1.00  0.00    -0.264 OA
HETATM   14  C11 UNL     1      -2.718   6.273  12.615  1.00  0.00     0.055 C 
BRANCH   9  15
HETATM   15  C5  UNL     1       3.727   7.419  10.370  1.00  0.00     0.200 C 
BRANCH  15  16
HETATM   16  O1  UNL     1       3.837   6.305   9.485  1.00  0.00    -0.389 OA
BRANCH  16  17
HETATM   17  C4  UNL     1       2.605   5.971   8.843  1.00  0.00     0.167 C 
BRANCH  17  18
HETATM   18  C3  UNL     1       2.643   6.323   7.357  1.00  0.00     0.026 C 
BRANCH  18  19
HETATM   19  C2  UNL     1       1.942   7.642   7.030  1.00  0.00    -0.002 C 
HETATM   20  C1  UNL     1       0.894   8.037   8.058  1.00  0.00     0.005 C 
ENDBRANCH  18  19
ENDBRANCH  17  18
ENDBRANCH  16  17
ENDBRANCH  15  16
ENDBRANCH   9  15
ENDBRANCH   1   3
BRANCH   1  21
HETATM   21  C13 UNL     1      -3.773   3.977  11.301  1.00  0.00     0.164 C 
BRANCH  21  22
HETATM   22  S1  UNL     1      -4.758   2.519  11.733  1.00  0.00    -0.085 SA
BRANCH  22  23
HETATM   23  C14 UNL     1      -6.055   3.236  12.598  1.00  0.00     0.161 A 
HETATM   24  N1  UNL     1      -6.056   4.357  13.269  1.00  0.00    -0.320 N 
HETATM   25  C15 UNL     1      -7.349   4.442  13.746  1.00  0.00     0.134 A 
ATOM     26  H1  UNL     1      -5.286   5.012  13.407  1.00  0.00     0.169 HD
HETATM   27  N2  UNL     1      -8.117   3.386  13.419  1.00  0.00    -0.283 N 
HETATM   28  N3  UNL     1      -7.278   2.654  12.666  1.00  0.00    -0.278 N 
ATOM     29  H2  UNL     1      -9.085   3.192  13.676  1.00  0.00     0.188 HD
HETATM   30  H26 UNL     1      -7.597   1.786  12.251  1.00  0.00     0.189 HD
BRANCH  25  31
HETATM   31  C16 UNL     1      -7.770   5.553  14.591  1.00  0.00     0.031 A 
HETATM   32  C17 UNL     1      -7.089   5.745  15.809  1.00  0.00     0.017 A 
HETATM   33  C18 UNL     1      -7.438   6.782  16.678  1.00  0.00     0.001 A 
HETATM   34  C19 UNL     1      -8.471   7.650  16.342  1.00  0.00     0.002 A 
HETATM   35  C20 UNL     1      -9.147   7.485  15.132  1.00  0.00     0.025 A 
HETATM   36  C21 UNL     1      -8.801   6.445  14.256  1.00  0.00     0.048 A 
HETATM   37 CL1  UNL     1      -9.664   6.387  12.756  1.00  0.00    -0.083 Cl
ENDBRANCH  25  31
ENDBRANCH  22  23
ENDBRANCH  21  22
ENDBRANCH   1  21
TORSDOF 10
ENDMDL
MODEL 3
REMARK minimizedAffinity -7.63996315
REMARK CNNscore 0.435802907
REMARK CNNaffinity 7.17928839
REMARK  10 active torsions:
REMARK  status: ('A' for Active; 'I' for Inactive)
REMARK    1  A    between atoms: C2_2  and  C3_3 
REMARK    2  A    between atoms: C3_3  and  C4_4 
REMARK    3  A    between atoms: C4_4  and  O1_5 
REMARK    4  A    between atoms: O1_5  and  C5_6 
REMARK    5  A    between atoms: C5_6  and  C6_7 
REMARK    6  A    between atoms: C10_11  and  C12_13 
REMARK    7  A    between atoms: C12_13  and  C13_15 
REMARK    8  A    between atoms: C13_15  and  S1_16 
REMARK    9  A    between atoms: S1_16  and  C14_17 
REMARK   10  A    between atoms: C15_20  and  C16_21 
ROOT
HETATM    1  C12 UNL     1      -3.715   2.550  11.595  1.00  0.00     0.171 C 
HETATM    2  O2  UNL     1      -3.516   1.339  11.737  1.00  0.00    -0.294 OA
ENDROOT
BRANCH   1   3
HETATM    3  C10 UNL     1      -5.160   3.083  11.497  1.00  0.00     0.129 C 
HETATM    4  C9  UNL     1      -5.314   4.296  12.417  1.00  0.00     0.076 C 
HETATM    5  C8  UNL     1      -6.718   4.184  12.978  1.00  0.00     0.141 C 
HETATM    6  C7  UNL     1      -6.801   4.586  14.441  1.00  0.00     0.065 C 
HETATM    7  C22 UNL     1      -7.062   2.749  12.746  1.00  0.00     0.279 C 
HETATM    8  C23 UNL     1      -7.718   5.106  12.349  1.00  0.00     0.278 C 
HETATM    9  C6  UNL     1      -8.235   5.067  14.569  1.00  0.00     0.157 C 
HETATM   10  O6  UNL     1      -8.541   5.645  13.297  1.00  0.00    -0.313 OA
HETATM   11  O3  UNL     1      -6.110   2.137  11.988  1.00  0.00    -0.301 OA
HETATM   12  O4  UNL     1      -8.038   2.169  13.193  1.00  0.00    -0.264 OA
HETATM   13  O5  UNL     1      -7.795   5.370  11.161  1.00  0.00    -0.264 OA
HETATM   14  C11 UNL     1      -5.473   3.396  10.034  1.00  0.00     0.055 C 
BRANCH   9  15
HETATM   15  C5  UNL     1      -8.428   6.103  15.677  1.00  0.00     0.200 C 
BRANCH  15  16
HETATM   16  O1  UNL     1      -7.154   6.524  16.160  1.00  0.00    -0.389 OA
BRANCH  16  17
HETATM   17  C4  UNL     1      -6.908   7.918  15.959  1.00  0.00     0.167 C 
BRANCH  17  18
HETATM   18  C3  UNL     1      -6.379   8.188  14.551  1.00  0.00     0.026 C 
BRANCH  18  19
HETATM   19  C2  UNL     1      -4.868   8.414  14.505  1.00  0.00    -0.002 C 
HETATM   20  C1  UNL     1      -4.303   8.414  13.093  1.00  0.00     0.005 C 
ENDBRANCH  18  19
ENDBRANCH  17  18
ENDBRANCH  16  17
ENDBRANCH  15  16
ENDBRANCH   9  15
ENDBRANCH   1   3
BRANCH   1  21
HETATM   21  C13 UNL     1      -2.560   3.523  11.447  1.00  0.00     0.164 C 
BRANCH  21  22
HETATM   22  S1  UNL     1      -2.346   4.591  12.895  1.00  0.00    -0.085 SA
BRANCH  22  23
HETATM   23  C14 UNL     1      -1.109   5.648  12.351  1.00  0.00     0.161 A 
HETATM   24  N1  UNL     1      -0.649   5.795  11.138  1.00  0.00    -0.320 N 
HETATM   25  C15 UNL     1       0.320   6.770  11.280  1.00  0.00     0.134 A 
ATOM     26  H1  UNL     1      -0.937   5.308  10.289  1.00  0.00     0.169 HD
HETATM   27  N2  UNL     1       0.487   7.184  12.549  1.00  0.00    -0.283 N 
HETATM   28  N3  UNL     1      -0.453   6.478  13.200  1.00  0.00    -0.278 N 
ATOM     29  H2  UNL     1       1.154   7.860  12.920  1.00  0.00     0.188 HD
HETATM   30  H26 UNL     1      -0.579   6.602  14.198  1.00  0.00     0.189 HD
BRANCH  25  31
HETATM   31  C16 UNL     1       1.116   7.214  10.142  1.00  0.00     0.031 A 
HETATM   32  C17 UNL     1       0.449   7.886   9.099  1.00  0.00     0.017 A 
HETATM   33  C18 UNL     1       1.140   8.337   7.971  1.00  0.00     0.001 A 
HETATM   34  C19 UNL     1       2.510   8.128   7.868  1.00  0.00     0.002 A 
HETATM   35  C20 UNL     1       3.190   7.477   8.898  1.00  0.00     0.025 A 
HETATM   36  C21 UNL     1       2.502   7.023  10.034  1.00  0.00     0.048 A 
HETATM   37 CL1  UNL     1       3.466   6.295  11.274  1.00  0.00    -0.083 Cl
ENDBRANCH  25  31
ENDBRANCH  22  23
ENDBRANCH  21  22
ENDBRANCH   1  21
TORSDOF 10
ENDMDL
MODEL 4
REMARK minimizedAffinity -7.49369383
REMARK CNNscore 0.314897299
REMARK CNNaffinity 6.59506607
REMARK  10 active torsions:
REMARK  status: ('A' for Active; 'I' for Inactive)
REMARK    1  A    between atoms: C2_2  and  C3_3 
REMARK    2  A    between atoms: C3_3  and  C4_4 
REMARK    3  A    between atoms: C4_4  and  O1_5 
REMARK    4  A    between atoms: O1_5  and  C5_6 
REMARK    5  A    between atoms: C5_6  and  C6_7 
REMARK    6  A    between atoms: C10_11  and  C12_13 
REMARK    7  A    between atoms: C12_13  and  C13_15 
REMARK    8  A    between atoms: C13_15  and  S1_16 
REMARK    9  A    between atoms: S1_16  and  C14_17 
REMARK   10  A    between atoms: C15_20  and  C16_21 
ROOT
HETATM    1  C12 UNL     1      -9.965   7.249  14.078  1.00  0.00     0.171 C 
HETATM    2  O2  UNL     1     -10.045   6.289  13.303  1.00  0.00    -0.294 OA
ENDROOT
BRANCH   1   3
HETATM    3  C10 UNL     1     -11.153   8.225  14.213  1.00  0.00     0.129 C 
HETATM    4  C9  UNL     1     -12.456   7.426  14.285  1.00  0.00     0.076 C 
HETATM    5  C8  UNL     1     -13.468   8.262  13.525  1.00  0.00     0.141 C 
HETATM    6  C7  UNL     1     -14.416   7.421  12.686  1.00  0.00     0.065 C 
HETATM    7  C22 UNL     1     -12.610   9.168  12.704  1.00  0.00     0.279 C 
HETATM    8  C23 UNL     1     -14.421   9.029  14.390  1.00  0.00     0.278 C 
HETATM    9  C6  UNL     1     -15.658   8.290  12.623  1.00  0.00     0.157 C 
HETATM   10  O6  UNL     1     -15.686   8.978  13.877  1.00  0.00    -0.313 OA
HETATM   11  O3  UNL     1     -11.300   9.047  13.055  1.00  0.00    -0.301 OA
HETATM   12  O4  UNL     1     -13.000   9.901  11.810  1.00  0.00    -0.264 OA
HETATM   13  O5  UNL     1     -14.137   9.610  15.423  1.00  0.00    -0.264 OA
HETATM   14  C11 UNL     1     -10.925   9.113  15.435  1.00  0.00     0.055 C 
BRANCH   9  15
HETATM   15  C5  UNL     1     -16.946   7.488  12.435  1.00  0.00     0.200 C 
BRANCH  15  16
HETATM   16  O1  UNL     1     -16.628   6.178  11.972  1.00  0.00    -0.389 OA
BRANCH  16  17
HETATM   17  C4  UNL     1     -17.297   5.144  12.698  1.00  0.00     0.167 C 
BRANCH  17  18
HETATM   18  C3  UNL     1     -16.801   5.073  14.141  1.00  0.00     0.026 C 
BRANCH  18  19
HETATM   19  C2  UNL     1     -16.988   3.695  14.777  1.00  0.00    -0.002 C 
HETATM   20  C1  UNL     1     -18.208   2.952  14.255  1.00  0.00     0.005 C 
ENDBRANCH  18  19
ENDBRANCH  17  18
ENDBRANCH  16  17
ENDBRANCH  15  16
ENDBRANCH   9  15
ENDBRANCH   1   3
BRANCH   1  21
HETATM   21  C13 UNL     1      -8.691   7.527  14.854  1.00  0.00     0.164 C 
BRANCH  21  22
HETATM   22  S1  UNL     1      -8.131   6.104  15.825  1.00  0.00    -0.085 SA
BRANCH  22  23
HETATM   23  C14 UNL     1      -7.298   5.194  14.633  1.00  0.00     0.161 A 
HETATM   24  N1  UNL     1      -6.063   5.330  14.230  1.00  0.00    -0.320 N 
HETATM   25  C15 UNL     1      -5.928   4.343  13.273  1.00  0.00     0.134 A 
ATOM     26  H1  UNL     1      -5.365   6.004  14.546  1.00  0.00     0.169 HD
HETATM   27  N2  UNL     1      -7.056   3.642  13.058  1.00  0.00    -0.283 N 
HETATM   28  N3  UNL     1      -7.897   4.184  13.954  1.00  0.00    -0.278 N 
ATOM     29  H2  UNL     1      -7.228   2.893  12.387  1.00  0.00     0.188 HD
HETATM   30  H26 UNL     1      -8.844   3.832  14.038  1.00  0.00     0.189 HD
BRANCH  25  31
HETATM   31  C16 UNL     1      -4.682   4.170  12.537  1.00  0.00     0.031 A 
HETATM   32  C17 UNL     1      -3.631   5.068  12.808  1.00  0.00     0.017 A 
HETATM   33  C18 UNL     1      -2.408   4.973  12.139  1.00  0.00     0.001 A 
HETATM   34  C19 UNL     1      -2.211   3.977  11.190  1.00  0.00     0.002 A 
HETATM   35  C20 UNL     1      -3.236   3.069  10.918  1.00  0.00     0.025 A 
HETATM   36  C21 UNL     1      -4.466   3.159  11.588  1.00  0.00     0.048 A 
HETATM   37 CL1  UNL     1      -5.632   1.933  11.217  1.00  0.00    -0.083 Cl
ENDBRANCH  25  31
ENDBRANCH  22  23
ENDBRANCH  21  22
ENDBRANCH   1  21
TORSDOF 10
ENDMDL
MODEL 5
REMARK minimizedAffinity -8.73770237
REMARK CNNscore 0.281989574
REMARK CNNaffinity 7.10065985
REMARK  10 active torsions:
REMARK  status: ('A' for Active; 'I' for Inactive)
REMARK    1  A    between atoms: C2_2  and  C3_3 
REMARK    2  A    between atoms: C3_3  and  C4_4 
REMARK    3  A    between atoms: C4_4  and  O1_5 
REMARK    4  A    between atoms: O1_5  and  C5_6 
REMARK    5  A    between atoms: C5_6  and  C6_7 
REMARK    6  A    between atoms: C10_11  and  C12_13 
REMARK    7  A    between atoms: C12_13  and  C13_15 
REMARK    8  A    between atoms: C13_15  and  S1_16 
REMARK    9  A    between atoms: S1_16  and  C14_17 
REMARK   10  A    between atoms: C15_20  and  C16_21 
ROOT
HETATM    1  C12 UNL     1      -7.256   3.457  12.471  1.00  0.00     0.171 C 
HETATM    2  O2  UNL     1      -8.008   2.809  13.207  1.00  0.00    -0.294 OA
ENDROOT
BRANCH   1   3
HETATM    3  C10 UNL     1      -6.030   2.772  11.831  1.00  0.00     0.129 C 
HETATM    4  C9  UNL     1      -4.781   3.109  12.648  1.00  0.00     0.076 C 
HETATM    5  C8  UNL     1      -3.673   3.255  11.624  1.00  0.00     0.141 C 
HETATM    6  C7  UNL     1      -2.714   4.388  11.949  1.00  0.00     0.065 C 
HETATM    7  C22 UNL     1      -4.418   3.470  10.347  1.00  0.00     0.279 C 
HETATM    8  C23 UNL     1      -2.745   2.081  11.537  1.00  0.00     0.278 C 
HETATM    9  C6  UNL     1      -1.425   3.925  11.296  1.00  0.00     0.157 C 
HETATM   10  O6  UNL     1      -1.450   2.499  11.408  1.00  0.00    -0.313 OA
HETATM   11  O3  UNL     1      -5.755   3.283  10.527  1.00  0.00    -0.301 OA
HETATM   12  O4  UNL     1      -3.926   3.802   9.282  1.00  0.00    -0.264 OA
HETATM   13  O5  UNL     1      -3.072   0.908  11.590  1.00  0.00    -0.264 OA
HETATM   14  C11 UNL     1      -6.297   1.270  11.737  1.00  0.00     0.055 C 
BRANCH   9  15
HETATM   15  C5  UNL     1      -0.172   4.482  11.972  1.00  0.00     0.200 C 
BRANCH  15  16
HETATM   16  O1  UNL     1       0.826   4.740  10.987  1.00  0.00    -0.389 OA
BRANCH  16  17
HETATM   17  C4  UNL     1       1.464   6.009  11.149  1.00  0.00     0.167 C 
BRANCH  17  18
HETATM   18  C3  UNL     1       2.930   5.948  10.724  1.00  0.00     0.026 C 
BRANCH  18  19
HETATM   19  C2  UNL     1       3.126   5.438   9.296  1.00  0.00    -0.002 C 
HETATM   20  C1  UNL     1       2.629   6.411   8.238  1.00  0.00     0.005 C 
ENDBRANCH  18  19
ENDBRANCH  17  18
ENDBRANCH  16  17
ENDBRANCH  15  16
ENDBRANCH   9  15
ENDBRANCH   1   3
BRANCH   1  21
HETATM   21  C13 UNL     1      -7.478   4.940  12.234  1.00  0.00     0.164 C 
BRANCH  21  22
HETATM   22  S1  UNL     1      -7.153   5.946  13.706  1.00  0.00    -0.085 SA
BRANCH  22  23
HETATM   23  C14 UNL     1      -8.747   6.360  14.186  1.00  0.00     0.161 A 
HETATM   24  N1  UNL     1      -9.845   6.291  13.483  1.00  0.00    -0.320 N 
HETATM   25  C15 UNL     1     -10.814   6.737  14.360  1.00  0.00     0.134 A 
ATOM     26  H1  UNL     1      -9.960   5.982  12.518  1.00  0.00     0.169 HD
HETATM   27  N2  UNL     1     -10.328   7.112  15.557  1.00  0.00    -0.283 N 
HETATM   28  N3  UNL     1      -9.020   6.833  15.427  1.00  0.00    -0.278 N 
ATOM     29  H2  UNL     1     -10.825   7.505  16.357  1.00  0.00     0.188 HD
HETATM   30  H26 UNL     1      -8.388   6.997  16.202  1.00  0.00     0.189 HD
BRANCH  25  31
HETATM   31  C16 UNL     1     -12.209   6.849  13.951  1.00  0.00     0.031 A 
HETATM   32  C17 UNL     1     -13.124   5.918  14.481  1.00  0.00     0.017 A 
HETATM   33  C18 UNL     1     -14.477   5.954  14.132  1.00  0.00     0.001 A 
HETATM   34  C19 UNL     1     -14.940   6.923  13.251  1.00  0.00     0.002 A 
HETATM   35  C20 UNL     1     -14.051   7.863  12.726  1.00  0.00     0.025 A 
HETATM   36  C21 UNL     1     -12.692   7.832  13.074  1.00  0.00     0.048 A 
HETATM   37 CL1  UNL     1     -11.704   9.093  12.416  1.00  0.00    -0.083 Cl
ENDBRANCH  25  31
ENDBRANCH  22  23
ENDBRANCH  21  22
ENDBRANCH   1  21
TORSDOF 10
ENDMDL
MODEL 6
REMARK minimizedAffinity -8.30746174
REMARK CNNscore 0.214055523
REMARK CNNaffinity 6.25363493
REMARK  10 active torsions:
REMARK  status: ('A' for Active; 'I' for Inactive)
REMARK    1  A    between atoms: C2_2  and  C3_3 
REMARK    2  A    between atoms: C3_3  and  C4_4 
REMARK    3  A    between atoms: C4_4  and  O1_5 
REMARK    4  A    between atoms: O1_5  and  C5_6 
REMARK    5  A    between atoms: C5_6  and  C6_7 
REMARK    6  A    between atoms: C10_11  and  C12_13 
REMARK    7  A    between atoms: C12_13  and  C13_15 
REMARK    8  A    between atoms: C13_15  and  S1_16 
REMARK    9  A    between atoms: S1_16  and  C14_17 
REMARK   10  A    between atoms: C15_20  and  C16_21 
ROOT
HETATM    1  C12 UNL     1      -0.427   6.850  12.227  1.00  0.00     0.171 C 
HETATM    2  O2  UNL     1       0.052   7.098  11.115  1.00  0.00    -0.294 OA
ENDROOT
BRANCH   1   3
HETATM    3  C10 UNL     1      -1.036   7.988  13.072  1.00  0.00     0.129 C 
HETATM    4  C9  UNL     1       0.092   8.802  13.708  1.00  0.00     0.076 C 
HETATM    5  C8  UNL     1      -0.430   9.188  15.079  1.00  0.00     0.141 C 
HETATM    6  C7  UNL     1       0.641   9.129  16.155  1.00  0.00     0.065 C 
HETATM    7  C22 UNL     1      -1.538   8.212  15.305  1.00  0.00     0.279 C 
HETATM    8  C23 UNL     1      -0.903  10.605  15.192  1.00  0.00     0.278 C 
HETATM    9  C6  UNL     1       0.151  10.153  17.163  1.00  0.00     0.157 C 
HETATM   10  O6  UNL     1      -0.503  11.154  16.377  1.00  0.00    -0.313 OA
HETATM   11  O3  UNL     1      -1.785   7.487  14.178  1.00  0.00    -0.301 OA
HETATM   12  O4  UNL     1      -2.134   8.042  16.356  1.00  0.00    -0.264 OA
HETATM   13  O5  UNL     1      -1.540  11.213  14.349  1.00  0.00    -0.264 OA
HETATM   14  C11 UNL     1      -1.953   8.827  12.182  1.00  0.00     0.055 C 
BRANCH   9  15
HETATM   15  C5  UNL     1       1.278  10.781  17.982  1.00  0.00     0.200 C 
BRANCH  15  16
HETATM   16  O1  UNL     1       1.172  10.357  19.340  1.00  0.00    -0.389 OA
BRANCH  16  17
HETATM   17  C4  UNL     1       2.427  10.339  20.024  1.00  0.00     0.167 C 
BRANCH  17  18
HETATM   18  C3  UNL     1       2.252   9.941  21.488  1.00  0.00     0.026 C 
BRANCH  18  19
HETATM   19  C2  UNL     1       3.566   9.562  22.173  1.00  0.00    -0.002 C 
HETATM   20  C1  UNL     1       3.623   9.978  23.635  1.00  0.00     0.005 C 
ENDBRANCH  18  19
ENDBRANCH  17  18
ENDBRANCH  16  17
ENDBRANCH  15  16
ENDBRANCH   9  15
ENDBRANCH   1   3
BRANCH   1  21
HETATM   21  C13 UNL     1      -0.369   5.449  12.811  1.00  0.00     0.164 C 
BRANCH  21  22
HETATM   22  S1  UNL     1      -0.345   4.156  11.542  1.00  0.00    -0.085 SA
BRANCH  22  23
HETATM   23  C14 UNL     1      -2.022   3.846  11.351  1.00  0.00     0.161 A 
HETATM   24  N1  UNL     1      -2.974   3.981  12.235  1.00  0.00    -0.320 N 
HETATM   25  C15 UNL     1      -4.108   3.601  11.543  1.00  0.00     0.134 A 
ATOM     26  H1  UNL     1      -2.898   4.292  13.203  1.00  0.00     0.169 HD
HETATM   27  N2  UNL     1      -3.863   3.201  10.282  1.00  0.00    -0.283 N 
HETATM   28  N3  UNL     1      -2.538   3.396  10.180  1.00  0.00    -0.278 N 
ATOM     29  H2  UNL     1      -4.515   2.844   9.585  1.00  0.00     0.188 HD
HETATM   30  H26 UNL     1      -2.062   3.196   9.307  1.00  0.00     0.189 HD
BRANCH  25  31
HETATM   31  C16 UNL     1      -5.414   3.576  12.191  1.00  0.00     0.031 A 
HETATM   32  C17 UNL     1      -5.801   4.711  12.930  1.00  0.00     0.017 A 
HETATM   33  C18 UNL     1      -7.033   4.762  13.586  1.00  0.00     0.001 A 
HETATM   34  C19 UNL     1      -7.903   3.681  13.512  1.00  0.00     0.002 A 
HETATM   35  C20 UNL     1      -7.544   2.553  12.772  1.00  0.00     0.025 A 
HETATM   36  C21 UNL     1      -6.307   2.497  12.110  1.00  0.00     0.048 A 
HETATM   37 CL1  UNL     1      -6.006   1.076  11.168  1.00  0.00    -0.083 Cl
ENDBRANCH  25  31
ENDBRANCH  22  23
ENDBRANCH  21  22
ENDBRANCH   1  21
TORSDOF 10
ENDMDL
MODEL 7
REMARK minimizedAffinity -8.42722225
REMARK CNNscore 0.183881938
REMARK CNNaffinity 5.86076117
REMARK  10 active torsions:
REMARK  status: ('A' for Active; 'I' for Inactive)
REMARK    1  A    between atoms: C2_2  and  C3_3 
REMARK    2  A    between atoms: C3_3  and  C4_4 
REMARK    3  A    between atoms: C4_4  and  O1_5 
REMARK    4  A    between atoms: O1_5  and  C5_6 
REMARK    5  A    between atoms: C5_6  and  C6_7 
REMARK    6  A    between atoms: C10_11  and  C12_13 
REMARK    7  A    between atoms: C12_13  and  C13_15 
REMARK    8  A    between atoms: C13_15  and  S1_16 
REMARK    9  A    between atoms: S1_16  and  C14_17 
REMARK   10  A    between atoms: C15_20  and  C16_21 
ROOT
HETATM    1  C12 UNL     1       0.833   6.240  12.097  1.00  0.00     0.171 C 
HETATM    2  O2  UNL     1       2.064   6.134  12.061  1.00  0.00    -0.294 OA
ENDROOT
BRANCH   1   3
HETATM    3  C10 UNL     1       0.169   7.094  13.197  1.00  0.00     0.129 C 
HETATM    4  C9  UNL     1      -1.251   6.581  13.444  1.00  0.00     0.076 C 
HETATM    5  C8  UNL     1      -2.072   7.826  13.723  1.00  0.00     0.141 C 
HETATM    6  C7  UNL     1      -3.459   7.768  13.104  1.00  0.00     0.065 C 
HETATM    7  C22 UNL     1      -1.227   8.921  13.160  1.00  0.00     0.279 C 
HETATM    8  C23 UNL     1      -2.390   8.053  15.170  1.00  0.00     0.278 C 
HETATM    9  C6  UNL     1      -4.268   8.660  14.028  1.00  0.00     0.157 C 
HETATM   10  O6  UNL     1      -3.680   8.477  15.319  1.00  0.00    -0.313 OA
HETATM   11  O3  UNL     1      -0.005   8.449  12.786  1.00  0.00    -0.301 OA
HETATM   12  O4  UNL     1      -1.571  10.082  13.012  1.00  0.00    -0.264 OA
HETATM   13  O5  UNL     1      -1.627   7.875  16.104  1.00  0.00    -0.264 OA
HETATM   14  C11 UNL     1       1.046   7.057  14.448  1.00  0.00     0.055 C 
BRANCH   9  15
HETATM   15  C5  UNL     1      -5.752   8.295  14.070  1.00  0.00     0.200 C 
BRANCH  15  16
HETATM   16  O1  UNL     1      -6.275   8.580  15.366  1.00  0.00    -0.389 OA
BRANCH  16  17
HETATM   17  C4  UNL     1      -7.113   7.541  15.877  1.00  0.00     0.167 C 
BRANCH  17  18
HETATM   18  C3  UNL     1      -8.504   7.592  15.246  1.00  0.00     0.026 C 
BRANCH  18  19
HETATM   19  C2  UNL     1      -9.438   8.598  15.920  1.00  0.00    -0.002 C 
HETATM   20  C1  UNL     1      -9.461   9.953  15.229  1.00  0.00     0.005 C 
ENDBRANCH  18  19
ENDBRANCH  17  18
ENDBRANCH  16  17
ENDBRANCH  15  16
ENDBRANCH   9  15
ENDBRANCH   1   3
BRANCH   1  21
HETATM   21  C13 UNL     1      -0.048   5.488  11.116  1.00  0.00     0.164 C 
BRANCH  21  22
HETATM   22  S1  UNL     1      -0.276   3.747  11.563  1.00  0.00    -0.085 SA
BRANCH  22  23
HETATM   23  C14 UNL     1      -1.969   3.567  11.355  1.00  0.00     0.161 A 
HETATM   24  N1  UNL     1      -2.910   3.695  12.252  1.00  0.00    -0.320 N 
HETATM   25  C15 UNL     1      -4.067   3.450  11.537  1.00  0.00     0.134 A 
ATOM     26  H1  UNL     1      -2.814   3.922  13.241  1.00  0.00     0.169 HD
HETATM   27  N2  UNL     1      -3.849   3.138  10.247  1.00  0.00    -0.283 N 
HETATM   28  N3  UNL     1      -2.513   3.250  10.154  1.00  0.00    -0.278 N 
ATOM     29  H2  UNL     1      -4.523   2.882   9.525  1.00  0.00     0.188 HD
HETATM   30  H26 UNL     1      -2.052   3.088   9.266  1.00  0.00     0.189 HD
BRANCH  25  31
HETATM   31  C16 UNL     1      -5.372   3.462  12.186  1.00  0.00     0.031 A 
HETATM   32  C17 UNL     1      -5.716   4.597  12.947  1.00  0.00     0.017 A 
HETATM   33  C18 UNL     1      -6.945   4.681  13.606  1.00  0.00     0.001 A 
HETATM   34  C19 UNL     1      -7.855   3.635  13.513  1.00  0.00     0.002 A 
HETATM   35  C20 UNL     1      -7.538   2.508  12.752  1.00  0.00     0.025 A 
HETATM   36  C21 UNL     1      -6.305   2.418  12.087  1.00  0.00     0.048 A 
HETATM   37 CL1  UNL     1      -6.059   1.005  11.118  1.00  0.00    -0.083 Cl
ENDBRANCH  25  31
ENDBRANCH  22  23
ENDBRANCH  21  22
ENDBRANCH   1  21
TORSDOF 10
ENDMDL
MODEL 8
REMARK minimizedAffinity -7.97364235
REMARK CNNscore 0.180505797
REMARK CNNaffinity 5.78720474
REMARK  10 active torsions:
REMARK  status: ('A' for Active; 'I' for Inactive)
REMARK    1  A    between atoms: C2_2  and  C3_3 
REMARK    2  A    between atoms: C3_3  and  C4_4 
REMARK    3  A    between atoms: C4_4  and  O1_5 
REMARK    4  A    between atoms: O1_5  and  C5_6 
REMARK    5  A    between atoms: C5_6  and  C6_7 
REMARK    6  A    between atoms: C10_11  and  C12_13 
REMARK    7  A    between atoms: C12_13  and  C13_15 
REMARK    8  A    between atoms: C13_15  and  S1_16 
REMARK    9  A    between atoms: S1_16  and  C14_17 
REMARK   10  A    between atoms: C15_20  and  C16_21 
ROOT
HETATM    1  C12 UNL     1      -2.873  10.226  16.995  1.00  0.00     0.171 C 
HETATM    2  O2  UNL     1      -3.733  10.328  17.876  1.00  0.00    -0.294 OA
ENDROOT
BRANCH   1   3
HETATM    3  C10 UNL     1      -3.191   9.449  15.700  1.00  0.00     0.129 C 
HETATM    4  C9  UNL     1      -4.707   9.290  15.567  1.00  0.00     0.076 C 
HETATM    5  C8  UNL     1      -4.903   7.913  14.962  1.00  0.00     0.141 C 
HETATM    6  C7  UNL     1      -6.094   7.175  15.549  1.00  0.00     0.065 C 
HETATM    7  C22 UNL     1      -3.601   7.234  15.238  1.00  0.00     0.279 C 
HETATM    8  C23 UNL     1      -5.232   7.914  13.500  1.00  0.00     0.278 C 
HETATM    9  C6  UNL     1      -6.505   6.257  14.412  1.00  0.00     0.157 C 
HETATM   10  O6  UNL     1      -6.200   6.991  13.223  1.00  0.00    -0.313 OA
HETATM   11  O3  UNL     1      -2.692   8.113  15.744  1.00  0.00    -0.301 OA
HETATM   12  O4  UNL     1      -3.368   6.047  15.076  1.00  0.00    -0.264 OA
HETATM   13  O5  UNL     1      -4.733   8.641  12.657  1.00  0.00    -0.264 OA
HETATM   14  C11 UNL     1      -2.560  10.183  14.517  1.00  0.00     0.055 C 
BRANCH   9  15
HETATM   15  C5  UNL     1      -7.989   5.892  14.438  1.00  0.00     0.200 C 
BRANCH  15  16
HETATM   16  O1  UNL     1      -8.332   5.206  13.236  1.00  0.00    -0.389 OA
BRANCH  16  17
HETATM   17  C4  UNL     1      -7.841   3.865  13.192  1.00  0.00     0.167 C 
BRANCH  17  18
HETATM   18  C3  UNL     1      -6.767   3.703  12.118  1.00  0.00     0.026 C 
BRANCH  18  19
HETATM   19  C2  UNL     1      -5.391   3.352  12.684  1.00  0.00    -0.002 C 
HETATM   20  C1  UNL     1      -4.257   4.126  12.031  1.00  0.00     0.005 C 
ENDBRANCH  18  19
ENDBRANCH  17  18
ENDBRANCH  16  17
ENDBRANCH  15  16
ENDBRANCH   9  15
ENDBRANCH   1   3
BRANCH   1  21
HETATM   21  C13 UNL     1      -1.479  10.794  17.189  1.00  0.00     0.164 C 
BRANCH  21  22
HETATM   22  S1  UNL     1      -1.276  11.637  18.780  1.00  0.00    -0.085 SA
BRANCH  22  23
HETATM   23  C14 UNL     1       0.273  11.077  19.260  1.00  0.00     0.161 A 
HETATM   24  N1  UNL     1       0.880  11.262  20.401  1.00  0.00    -0.320 N 
HETATM   25  C15 UNL     1       2.079  10.595  20.237  1.00  0.00     0.134 A 
ATOM     26  H1  UNL     1       0.549  11.775  21.218  1.00  0.00     0.169 HD
HETATM   27  N2  UNL     1       2.230  10.049  19.016  1.00  0.00    -0.283 N 
HETATM   28  N3  UNL     1       1.058  10.345  18.430  1.00  0.00    -0.278 N 
ATOM     29  H2  UNL     1       3.029   9.541  18.635  1.00  0.00     0.188 HD
HETATM   30  H26 UNL     1       0.872  10.034  17.484  1.00  0.00     0.189 HD
BRANCH  25  31
HETATM   31  C16 UNL     1       3.087  10.582  21.290  1.00  0.00     0.031 A 
HETATM   32  C17 UNL     1       4.026  11.631  21.310  1.00  0.00     0.017 A 
HETATM   33  C18 UNL     1       5.028  11.687  22.283  1.00  0.00     0.001 A 
HETATM   34  C19 UNL     1       5.106  10.697  23.256  1.00  0.00     0.002 A 
HETATM   35  C20 UNL     1       4.175   9.658  23.261  1.00  0.00     0.025 A 
HETATM   36  C21 UNL     1       3.166   9.597  22.287  1.00  0.00     0.048 A 
HETATM   37 CL1  UNL     1       2.029   8.300  22.441  1.00  0.00    -0.083 Cl
ENDBRANCH  25  31
ENDBRANCH  22  23
ENDBRANCH  21  22
ENDBRANCH   1  21
TORSDOF 10
ENDMDL
MODEL 9
REMARK minimizedAffinity -8.24834156
REMARK CNNscore 0.176205769
REMARK CNNaffinity 6.02710009
REMARK  10 active torsions:
REMARK  status: ('A' for Active; 'I' for Inactive)
REMARK    1  A    between atoms: C2_2  and  C3_3 
REMARK    2  A    between atoms: C3_3  and  C4_4 
REMARK    3  A    between atoms: C4_4  and  O1_5 
REMARK    4  A    between atoms: O1_5  and  C5_6 
REMARK    5  A    between atoms: C5_6  and  C6_7 
REMARK    6  A    between atoms: C10_11  and  C12_13 
REMARK    7  A    between atoms: C12_13  and  C13_15 
REMARK    8  A    between atoms: C13_15  and  S1_16 
REMARK    9  A    between atoms: S1_16  and  C14_17 
REMARK   10  A    between atoms: C15_20  and  C16_21 
ROOT
HETATM    1  C12 UNL     1       1.110   6.905  11.041  1.00  0.00     0.171 C 
HETATM    2  O2  UNL     1       0.735   7.891  11.684  1.00  0.00    -0.294 OA
ENDROOT
BRANCH   1   3
HETATM    3  C10 UNL     1       2.576   6.811  10.567  1.00  0.00     0.129 C 
HETATM    4  C9  UNL     1       3.501   6.826  11.786  1.00  0.00     0.076 C 
HETATM    5  C8  UNL     1       4.716   7.619  11.344  1.00  0.00     0.141 C 
HETATM    6  C7  UNL     1       5.257   8.526  12.436  1.00  0.00     0.065 C 
HETATM    7  C22 UNL     1       4.213   8.372  10.156  1.00  0.00     0.279 C 
HETATM    8  C23 UNL     1       5.917   6.787  11.010  1.00  0.00     0.278 C 
HETATM    9  C6  UNL     1       6.727   8.634  12.075  1.00  0.00     0.157 C 
HETATM   10  O6  UNL     1       7.055   7.368  11.496  1.00  0.00    -0.313 OA
HETATM   11  O3  UNL     1       2.964   7.955   9.808  1.00  0.00    -0.301 OA
HETATM   12  O4  UNL     1       4.806   9.268   9.578  1.00  0.00    -0.264 OA
HETATM   13  O5  UNL     1       5.906   5.727  10.408  1.00  0.00    -0.264 OA
HETATM   14  C11 UNL     1       2.737   5.558   9.707  1.00  0.00     0.055 C 
BRANCH   9  15
HETATM   15  C5  UNL     1       7.626   8.908  13.280  1.00  0.00     0.200 C 
BRANCH  15  16
HETATM   16  O1  UNL     1       8.993   8.817  12.885  1.00  0.00    -0.389 OA
BRANCH  16  17
HETATM   17  C4  UNL     1       9.896   8.729  13.990  1.00  0.00     0.167 C 
BRANCH  17  18
HETATM   18  C3  UNL     1       9.632   9.837  15.008  1.00  0.00     0.026 C 
BRANCH  18  19
HETATM   19  C2  UNL     1       9.359   9.311  16.417  1.00  0.00    -0.002 C 
HETATM   20  C1  UNL     1       9.232   7.797  16.479  1.00  0.00     0.005 C 
ENDBRANCH  18  19
ENDBRANCH  17  18
ENDBRANCH  16  17
ENDBRANCH  15  16
ENDBRANCH   9  15
ENDBRANCH   1   3
BRANCH   1  21
HETATM   21  C13 UNL     1       0.136   5.810  10.645  1.00  0.00     0.164 C 
BRANCH  21  22
HETATM   22  S1  UNL     1      -0.133   4.596  11.963  1.00  0.00    -0.085 SA
BRANCH  22  23
HETATM   23  C14 UNL     1      -1.768   4.157  11.683  1.00  0.00     0.161 A 
HETATM   24  N1  UNL     1      -2.788   4.290  12.488  1.00  0.00    -0.320 N 
HETATM   25  C15 UNL     1      -3.842   3.783  11.753  1.00  0.00     0.134 A 
ATOM     26  H1  UNL     1      -2.803   4.675  13.432  1.00  0.00     0.169 HD
HETATM   27  N2  UNL     1      -3.482   3.311  10.546  1.00  0.00    -0.283 N 
HETATM   28  N3  UNL     1      -2.168   3.589  10.518  1.00  0.00    -0.278 N 
ATOM     29  H2  UNL     1      -4.057   2.859   9.835  1.00  0.00     0.188 HD
HETATM   30  H26 UNL     1      -1.618   3.360   9.698  1.00  0.00     0.189 HD
BRANCH  25  31
HETATM   31  C16 UNL     1      -5.188   3.714  12.311  1.00  0.00     0.031 A 
HETATM   32  C17 UNL     1      -5.635   4.807  13.078  1.00  0.00     0.017 A 
HETATM   33  C18 UNL     1      -6.909   4.815  13.654  1.00  0.00     0.001 A 
HETATM   34  C19 UNL     1      -7.760   3.732  13.468  1.00  0.00     0.002 A 
HETATM   35  C20 UNL     1      -7.339   2.646  12.698  1.00  0.00     0.025 A 
HETATM   36  C21 UNL     1      -6.061   2.633  12.117  1.00  0.00     0.048 A 
HETATM   37 CL1  UNL     1      -5.683   1.264  11.127  1.00  0.00    -0.083 Cl
ENDBRANCH  25  31
ENDBRANCH  22  23
ENDBRANCH  21  22
ENDBRANCH   1  21
TORSDOF 10
ENDMDL
