MODEL 1
REMARK minimizedAffinity -7.89457178
REMARK  11 active torsions:
REMARK  status: ('A' for Active; 'I' for Inactive)
REMARK    1  A    between atoms: C4_4  and  O1_5 
REMARK    2  A    between atoms: O1_5  and  C5_6 
REMARK    3  A    between atoms: C6_8  and  C7_9 
REMARK    4  A    between atoms: C7_9  and  O3_10 
REMARK    5  A    between atoms: C8_11  and  O4_12 
REMARK    6  A    between atoms: C9_13  and  O5_14 
REMARK    7  A    between atoms: C10_15  and  O6_16 
REMARK    8  A    between atoms: C15_21  and  O7_22 
REMARK    9  A    between atoms: C15_21  and  C16_23 
REMARK   10  A    between atoms: C17_24  and  C18_25 
REMARK   11  A    between atoms: C18_25  and  O8_27 
ROOT
HETATM    1  C1  UNL     1      -2.953   5.775  15.576  1.00  0.00     0.013 C 
HETATM    2  C2  UNL     1      -4.009   5.730  14.464  1.00  0.00     0.023 C 
HETATM    3  C3  UNL     1      -3.440   6.219  13.117  1.00  0.00     0.039 C 
HETATM    4  C4  UNL     1      -3.404   7.741  12.953  1.00  0.00     0.126 C 
HETATM    5  C11 UNL     1      -4.777   8.361  13.254  1.00  0.00     0.044 C 
HETATM    6  C12 UNL     1      -5.412   7.957  14.615  1.00  0.00    -0.010 C 
HETATM    7  C13 UNL     1      -4.714   8.699  15.782  1.00  0.00     0.018 C 
HETATM    8  C14 UNL     1      -6.868   8.509  14.622  1.00  0.00     0.018 C 
HETATM    9  C15 UNL     1      -5.386   6.387  14.801  1.00  0.00     0.086 C 
ENDROOT
BRANCH   4  10
HETATM   10  O1  UNL     1      -2.445   8.372  13.800  1.00  0.00    -0.353 OA
BRANCH  10  11
HETATM   11  C5  UNL     1      -1.108   8.398  13.276  1.00  0.00     0.292 C 
HETATM   12  O2  UNL     1      -1.074   7.816  11.976  1.00  0.00    -0.348 OA
HETATM   13  C6  UNL     1       0.212   7.325  11.538  1.00  0.00     0.179 C 
HETATM   14  C8  UNL     1       1.404   7.853  12.353  1.00  0.00     0.180 C 
HETATM   15  C9  UNL     1       1.220   7.641  13.862  1.00  0.00     0.183 C 
HETATM   16  C10 UNL     1      -0.256   7.593  14.268  1.00  0.00     0.204 C 
BRANCH  13  17
HETATM   17  C7  UNL     1       0.158   5.791  11.494  1.00  0.00     0.198 C 
BRANCH  17  18
HETATM   18  O3  UNL     1       0.991   5.319  10.432  1.00  0.00    -0.398 OA
HETATM   19  H12 UNL     1       0.772   5.872   9.657  1.00  0.00     0.209 HD
ENDBRANCH  17  18
ENDBRANCH  13  17
BRANCH  14  20
HETATM   20  O4  UNL     1       1.527   9.267  12.116  1.00  0.00    -0.390 OA
HETATM   21  H14 UNL     1       1.754   9.389  11.175  1.00  0.00     0.210 HD
ENDBRANCH  14  20
BRANCH  15  22
HETATM   22  O5  UNL     1       1.852   6.418  14.266  1.00  0.00    -0.390 OA
HETATM   23  H16 UNL     1       1.769   6.389  15.240  1.00  0.00     0.210 HD
ENDBRANCH  15  22
BRANCH  16  24
HETATM   24  O6  UNL     1      -0.398   8.071  15.615  1.00  0.00    -0.388 OA
HETATM   25  H18 UNL     1      -1.362   8.192  15.737  1.00  0.00     0.210 HD
ENDBRANCH  16  24
ENDBRANCH  10  11
ENDBRANCH   4  10
BRANCH   9  26
HETATM   26  O7  UNL     1      -5.711   6.064  16.157  1.00  0.00    -0.385 OA
HETATM   27  H27 UNL     1      -6.604   6.405  16.331  1.00  0.00     0.211 HD
ENDBRANCH   9  26
BRANCH   9  28
HETATM   28  C16 UNL     1      -6.427   5.703  13.908  1.00  0.00     0.010 C 
HETATM   29  C17 UNL     1      -6.536   4.381  13.668  1.00  0.00     0.003 C 
BRANCH  29  30
HETATM   30  C18 UNL     1      -7.580   3.772  12.781  1.00  0.00     0.136 C 
HETATM   31  C19 UNL     1      -7.410   2.265  12.655  1.00  0.00     0.043 C 
BRANCH  30  32
HETATM   32  O8  UNL     1      -8.855   4.062  13.344  1.00  0.00    -0.392 OA
HETATM   33  H34 UNL     1      -8.912   3.595  14.194  1.00  0.00     0.210 HD
ENDBRANCH  30  32
ENDBRANCH  29  30
ENDBRANCH   9  28
TORSDOF 11
ENDMDL
MODEL 2
REMARK minimizedAffinity -7.8619175
REMARK  11 active torsions:
REMARK  status: ('A' for Active; 'I' for Inactive)
REMARK    1  A    between atoms: C4_4  and  O1_5 
REMARK    2  A    between atoms: O1_5  and  C5_6 
REMARK    3  A    between atoms: C6_8  and  C7_9 
REMARK    4  A    between atoms: C7_9  and  O3_10 
REMARK    5  A    between atoms: C8_11  and  O4_12 
REMARK    6  A    between atoms: C9_13  and  O5_14 
REMARK    7  A    between atoms: C10_15  and  O6_16 
REMARK    8  A    between atoms: C15_21  and  O7_22 
REMARK    9  A    between atoms: C15_21  and  C16_23 
REMARK   10  A    between atoms: C17_24  and  C18_25 
REMARK   11  A    between atoms: C18_25  and  O8_27 
ROOT
HETATM    1  C1  UNL     1      -2.923   5.566  15.535  1.00  0.00     0.013 C 
HETATM    2  C2  UNL     1      -4.040   5.568  14.483  1.00  0.00     0.023 C 
HETATM    3  C3  UNL     1      -3.511   5.966  13.090  1.00  0.00     0.039 C 
HETATM    4  C4  UNL     1      -3.368   7.475  12.869  1.00  0.00     0.126 C 
HETATM    5  C11 UNL     1      -4.670   8.210  13.219  1.00  0.00     0.044 C 
HETATM    6  C12 UNL     1      -5.258   7.902  14.626  1.00  0.00    -0.010 C 
HETATM    7  C13 UNL     1      -4.442   8.625  15.726  1.00  0.00     0.018 C 
HETATM    8  C14 UNL     1      -6.665   8.566  14.690  1.00  0.00     0.018 C 
HETATM    9  C15 UNL     1      -5.342   6.342  14.867  1.00  0.00     0.086 C 
ENDROOT
BRANCH   4  10
HETATM   10  O1  UNL     1      -2.318   8.056  13.639  1.00  0.00    -0.353 OA
BRANCH  10  11
HETATM   11  C5  UNL     1      -0.997   7.629  13.272  1.00  0.00     0.292 C 
HETATM   12  O2  UNL     1      -0.349   7.012  14.381  1.00  0.00    -0.348 OA
HETATM   13  C6  UNL     1       1.094   6.986  14.334  1.00  0.00     0.179 C 
HETATM   14  C8  UNL     1       1.689   7.258  12.943  1.00  0.00     0.180 C 
HETATM   15  C9  UNL     1       1.143   8.549  12.315  1.00  0.00     0.183 C 
HETATM   16  C10 UNL     1      -0.255   8.901  12.832  1.00  0.00     0.204 C 
BRANCH  13  17
HETATM   17  C7  UNL     1       1.634   7.944  15.406  1.00  0.00     0.198 C 
BRANCH  17  18
HETATM   18  O3  UNL     1       1.995   7.195  16.569  1.00  0.00    -0.398 OA
HETATM   19  H12 UNL     1       1.248   6.590  16.739  1.00  0.00     0.209 HD
ENDBRANCH  17  18
ENDBRANCH  13  17
BRANCH  14  20
HETATM   20  O4  UNL     1       1.341   6.163  12.076  1.00  0.00    -0.390 OA
HETATM   21  H14 UNL     1       1.784   5.365  12.419  1.00  0.00     0.210 HD
ENDBRANCH  14  20
BRANCH  15  22
HETATM   22  O5  UNL     1       2.029   9.643  12.594  1.00  0.00    -0.390 OA
HETATM   23  H16 UNL     1       1.667  10.406  12.100  1.00  0.00     0.210 HD
ENDBRANCH  15  22
BRANCH  16  24
HETATM   24  O6  UNL     1      -0.973   9.621  11.817  1.00  0.00    -0.388 OA
HETATM   25  H18 UNL     1      -1.899   9.643  12.134  1.00  0.00     0.210 HD
ENDBRANCH  16  24
ENDBRANCH  10  11
ENDBRANCH   4  10
BRANCH   9  26
HETATM   26  O7  UNL     1      -5.614   6.089  16.250  1.00  0.00    -0.385 OA
HETATM   27  H27 UNL     1      -6.467   6.504  16.459  1.00  0.00     0.211 HD
ENDBRANCH   9  26
BRANCH   9  28
HETATM   28  C16 UNL     1      -6.480   5.712  14.057  1.00  0.00     0.010 C 
HETATM   29  C17 UNL     1      -6.499   4.473  13.527  1.00  0.00     0.003 C 
BRANCH  29  30
HETATM   30  C18 UNL     1      -7.648   3.914  12.741  1.00  0.00     0.136 C 
HETATM   31  C19 UNL     1      -7.657   2.392  12.754  1.00  0.00     0.043 C 
BRANCH  30  32
HETATM   32  O8  UNL     1      -8.852   4.403  13.320  1.00  0.00    -0.392 OA
HETATM   33  H34 UNL     1      -8.923   4.025  14.213  1.00  0.00     0.210 HD
ENDBRANCH  30  32
ENDBRANCH  29  30
ENDBRANCH   9  28
TORSDOF 11
ENDMDL
MODEL 3
REMARK minimizedAffinity -7.73929548
REMARK  11 active torsions:
REMARK  status: ('A' for Active; 'I' for Inactive)
REMARK    1  A    between atoms: C4_4  and  O1_5 
REMARK    2  A    between atoms: O1_5  and  C5_6 
REMARK    3  A    between atoms: C6_8  and  C7_9 
REMARK    4  A    between atoms: C7_9  and  O3_10 
REMARK    5  A    between atoms: C8_11  and  O4_12 
REMARK    6  A    between atoms: C9_13  and  O5_14 
REMARK    7  A    between atoms: C10_15  and  O6_16 
REMARK    8  A    between atoms: C15_21  and  O7_22 
REMARK    9  A    between atoms: C15_21  and  C16_23 
REMARK   10  A    between atoms: C17_24  and  C18_25 
REMARK   11  A    between atoms: C18_25  and  O8_27 
ROOT
HETATM    1  C1  UNL     1      -5.705   4.831  13.365  1.00  0.00     0.013 C 
HETATM    2  C2  UNL     1      -6.639   6.037  13.198  1.00  0.00     0.023 C 
HETATM    3  C3  UNL     1      -5.850   7.353  13.046  1.00  0.00     0.039 C 
HETATM    4  C4  UNL     1      -5.374   7.967  14.365  1.00  0.00     0.126 C 
HETATM    5  C11 UNL     1      -6.535   8.107  15.360  1.00  0.00     0.044 C 
HETATM    6  C12 UNL     1      -7.365   6.815  15.610  1.00  0.00    -0.010 C 
HETATM    7  C13 UNL     1      -6.581   5.833  16.515  1.00  0.00     0.018 C 
HETATM    8  C14 UNL     1      -8.602   7.223  16.462  1.00  0.00     0.018 C 
HETATM    9  C15 UNL     1      -7.797   6.155  14.240  1.00  0.00     0.086 C 
ENDROOT
BRANCH   4  10
HETATM   10  O1  UNL     1      -4.346   7.207  14.998  1.00  0.00    -0.353 OA
BRANCH  10  11
HETATM   11  C5  UNL     1      -3.009   7.615  14.669  1.00  0.00     0.292 C 
HETATM   12  O2  UNL     1      -2.563   6.948  13.491  1.00  0.00    -0.348 OA
HETATM   13  C6  UNL     1      -1.131   6.861  13.319  1.00  0.00     0.179 C 
HETATM   14  C8  UNL     1      -0.326   7.828  14.202  1.00  0.00     0.180 C 
HETATM   15  C9  UNL     1      -0.708   7.723  15.685  1.00  0.00     0.183 C 
HETATM   16  C10 UNL     1      -2.147   7.237  15.883  1.00  0.00     0.204 C 
BRANCH  13  17
HETATM   17  C7  UNL     1      -0.706   5.398  13.505  1.00  0.00     0.198 C 
BRANCH  17  18
HETATM   18  O3  UNL     1       0.692   5.346  13.802  1.00  0.00    -0.398 OA
HETATM   19  H12 UNL     1       1.123   5.936  13.155  1.00  0.00     0.209 HD
ENDBRANCH  17  18
ENDBRANCH  13  17
BRANCH  14  20
HETATM   20  O4  UNL     1      -0.599   9.174  13.770  1.00  0.00    -0.390 OA
HETATM   21  H14 UNL     1      -0.253   9.268  12.863  1.00  0.00     0.210 HD
ENDBRANCH  14  20
BRANCH  15  22
HETATM   22  O5  UNL     1       0.182   6.820  16.358  1.00  0.00    -0.390 OA
HETATM   23  H16 UNL     1      -0.064   6.864  17.303  1.00  0.00     0.210 HD
ENDBRANCH  15  22
BRANCH  16  24
HETATM   24  O6  UNL     1      -2.671   7.776  17.107  1.00  0.00    -0.388 OA
HETATM   25  H18 UNL     1      -3.631   7.588  17.072  1.00  0.00     0.210 HD
ENDBRANCH  16  24
ENDBRANCH  10  11
ENDBRANCH   4  10
BRANCH   9  26
HETATM   26  O7  UNL     1      -8.306   4.840  14.486  1.00  0.00    -0.385 OA
HETATM   27  H27 UNL     1      -9.078   4.931  15.069  1.00  0.00     0.211 HD
ENDBRANCH   9  26
BRANCH   9  28
HETATM   28  C16 UNL     1      -8.914   6.956  13.562  1.00  0.00     0.010 C 
HETATM   29  C17 UNL     1     -10.241   6.756  13.694  1.00  0.00     0.003 C 
BRANCH  29  30
HETATM   30  C18 UNL     1     -11.286   7.577  13.001  1.00  0.00     0.136 C 
HETATM   31  C19 UNL     1     -12.686   7.023  13.227  1.00  0.00     0.043 C 
BRANCH  30  32
HETATM   32  O8  UNL     1     -11.211   8.903  13.515  1.00  0.00    -0.392 OA
HETATM   33  H34 UNL     1     -11.466   8.869  14.451  1.00  0.00     0.210 HD
ENDBRANCH  30  32
ENDBRANCH  29  30
ENDBRANCH   9  28
TORSDOF 11
ENDMDL
MODEL 4
REMARK minimizedAffinity -7.70538282
REMARK  11 active torsions:
REMARK  status: ('A' for Active; 'I' for Inactive)
REMARK    1  A    between atoms: C4_4  and  O1_5 
REMARK    2  A    between atoms: O1_5  and  C5_6 
REMARK    3  A    between atoms: C6_8  and  C7_9 
REMARK    4  A    between atoms: C7_9  and  O3_10 
REMARK    5  A    between atoms: C8_11  and  O4_12 
REMARK    6  A    between atoms: C9_13  and  O5_14 
REMARK    7  A    between atoms: C10_15  and  O6_16 
REMARK    8  A    between atoms: C15_21  and  O7_22 
REMARK    9  A    between atoms: C15_21  and  C16_23 
REMARK   10  A    between atoms: C17_24  and  C18_25 
REMARK   11  A    between atoms: C18_25  and  O8_27 
ROOT
HETATM    1  C1  UNL     1      -1.615   5.508  14.751  1.00  0.00     0.013 C 
HETATM    2  C2  UNL     1      -3.026   5.794  14.221  1.00  0.00     0.023 C 
HETATM    3  C3  UNL     1      -2.995   6.341  12.780  1.00  0.00     0.039 C 
HETATM    4  C4  UNL     1      -2.704   7.841  12.672  1.00  0.00     0.126 C 
HETATM    5  C11 UNL     1      -3.648   8.651  13.573  1.00  0.00     0.044 C 
HETATM    6  C12 UNL     1      -3.713   8.198  15.059  1.00  0.00    -0.010 C 
HETATM    7  C13 UNL     1      -2.443   8.649  15.821  1.00  0.00     0.018 C 
HETATM    8  C14 UNL     1      -4.870   8.994  15.730  1.00  0.00     0.018 C 
HETATM    9  C15 UNL     1      -3.950   6.638  15.157  1.00  0.00     0.086 C 
ENDROOT
BRANCH   4  10
HETATM   10  O1  UNL     1      -1.365   8.178  13.028  1.00  0.00    -0.353 OA
BRANCH  10  11
HETATM   11  C5  UNL     1      -0.427   8.138  11.940  1.00  0.00     0.292 C 
HETATM   12  O2  UNL     1      -0.439   6.854  11.323  1.00  0.00    -0.348 OA
HETATM   13  C6  UNL     1       0.747   6.501  10.579  1.00  0.00     0.179 C 
HETATM   14  C8  UNL     1       1.659   7.690  10.235  1.00  0.00     0.180 C 
HETATM   15  C9  UNL     1       2.015   8.530  11.469  1.00  0.00     0.183 C 
HETATM   16  C10 UNL     1       0.944   8.443  12.561  1.00  0.00     0.204 C 
BRANCH  13  17
HETATM   17  C7  UNL     1       1.486   5.390  11.339  1.00  0.00     0.198 C 
BRANCH  17  18
HETATM   18  O3  UNL     1       2.444   4.780  10.471  1.00  0.00    -0.398 OA
HETATM   19  H12 UNL     1       1.975   4.614   9.631  1.00  0.00     0.209 HD
ENDBRANCH  17  18
ENDBRANCH  13  17
BRANCH  14  20
HETATM   20  O4  UNL     1       0.964   8.542   9.305  1.00  0.00    -0.390 OA
HETATM   21  H14 UNL     1       0.840   8.036   8.480  1.00  0.00     0.210 HD
ENDBRANCH  14  20
BRANCH  15  22
HETATM   22  O5  UNL     1       3.269   8.094  12.014  1.00  0.00    -0.390 OA
HETATM   23  H16 UNL     1       3.472   8.719  12.739  1.00  0.00     0.210 HD
ENDBRANCH  15  22
BRANCH  16  24
HETATM   24  O6  UNL     1       0.935   9.662  13.321  1.00  0.00    -0.388 OA
HETATM   25  H18 UNL     1       0.119   9.615  13.860  1.00  0.00     0.210 HD
ENDBRANCH  16  24
ENDBRANCH  10  11
ENDBRANCH   4  10
BRANCH   9  26
HETATM   26  O7  UNL     1      -3.727   6.207  16.504  1.00  0.00    -0.385 OA
HETATM   27  H27 UNL     1      -4.364   6.676  17.068  1.00  0.00     0.211 HD
ENDBRANCH   9  26
BRANCH   9  28
HETATM   28  C16 UNL     1      -5.393   6.269  14.794  1.00  0.00     0.010 C 
HETATM   29  C17 UNL     1      -5.788   5.249  14.007  1.00  0.00     0.003 C 
BRANCH  29  30
HETATM   30  C18 UNL     1      -7.220   4.940  13.689  1.00  0.00     0.136 C 
HETATM   31  C19 UNL     1      -7.389   3.531  13.137  1.00  0.00     0.043 C 
BRANCH  30  32
HETATM   32  O8  UNL     1      -7.973   5.074  14.889  1.00  0.00    -0.392 OA
HETATM   33  H34 UNL     1      -7.674   4.381  15.502  1.00  0.00     0.210 HD
ENDBRANCH  30  32
ENDBRANCH  29  30
ENDBRANCH   9  28
TORSDOF 11
ENDMDL
MODEL 5
REMARK minimizedAffinity -7.65782404
REMARK  11 active torsions:
REMARK  status: ('A' for Active; 'I' for Inactive)
REMARK    1  A    between atoms: C4_4  and  O1_5 
REMARK    2  A    between atoms: O1_5  and  C5_6 
REMARK    3  A    between atoms: C6_8  and  C7_9 
REMARK    4  A    between atoms: C7_9  and  O3_10 
REMARK    5  A    between atoms: C8_11  and  O4_12 
REMARK    6  A    between atoms: C9_13  and  O5_14 
REMARK    7  A    between atoms: C10_15  and  O6_16 
REMARK    8  A    between atoms: C15_21  and  O7_22 
REMARK    9  A    between atoms: C15_21  and  C16_23 
REMARK   10  A    between atoms: C17_24  and  C18_25 
REMARK   11  A    between atoms: C18_25  and  O8_27 
ROOT
HETATM    1  C1  UNL     1       0.049   7.742   9.750  1.00  0.00     0.013 C 
HETATM    2  C2  UNL     1       1.011   6.603  10.112  1.00  0.00     0.023 C 
HETATM    3  C3  UNL     1       0.389   5.635  11.138  1.00  0.00     0.039 C 
HETATM    4  C4  UNL     1       0.477   6.104  12.593  1.00  0.00     0.126 C 
HETATM    5  C11 UNL     1       1.918   6.484  12.964  1.00  0.00     0.044 C 
HETATM    6  C12 UNL     1       2.615   7.492  12.006  1.00  0.00    -0.010 C 
HETATM    7  C13 UNL     1       2.076   8.925  12.238  1.00  0.00     0.018 C 
HETATM    8  C14 UNL     1       4.111   7.569  12.431  1.00  0.00     0.018 C 
HETATM    9  C15 UNL     1       2.463   7.029  10.501  1.00  0.00     0.086 C 
ENDROOT
BRANCH   4  10
HETATM   10  O1  UNL     1      -0.355   7.229  12.870  1.00  0.00    -0.353 OA
BRANCH  10  11
HETATM   11  C5  UNL     1      -1.713   6.902  13.206  1.00  0.00     0.292 C 
HETATM   12  O2  UNL     1      -2.594   7.932  12.768  1.00  0.00    -0.348 OA
HETATM   13  C6  UNL     1      -3.869   8.002  13.443  1.00  0.00     0.179 C 
HETATM   14  C8  UNL     1      -4.238   6.737  14.234  1.00  0.00     0.180 C 
HETATM   15  C9  UNL     1      -3.127   6.308  15.203  1.00  0.00     0.183 C 
HETATM   16  C10 UNL     1      -1.741   6.761  14.736  1.00  0.00     0.204 C 
BRANCH  13  17
HETATM   17  C7  UNL     1      -3.893   9.270  14.308  1.00  0.00     0.198 C 
BRANCH  17  18
HETATM   18  O3  UNL     1      -5.212   9.464  14.825  1.00  0.00    -0.398 OA
HETATM   19  H12 UNL     1      -5.816   9.337  14.068  1.00  0.00     0.209 HD
ENDBRANCH  17  18
ENDBRANCH  13  17
BRANCH  14  20
HETATM   20  O4  UNL     1      -4.451   5.662  13.301  1.00  0.00    -0.390 OA
HETATM   21  H14 UNL     1      -5.230   5.891  12.761  1.00  0.00     0.210 HD
ENDBRANCH  14  20
BRANCH  15  22
HETATM   22  O5  UNL     1      -3.377   6.852  16.507  1.00  0.00    -0.390 OA
HETATM   23  H16 UNL     1      -2.684   6.476  17.086  1.00  0.00     0.210 HD
ENDBRANCH  15  22
BRANCH  16  24
HETATM   24  O6  UNL     1      -0.749   5.837  15.212  1.00  0.00    -0.388 OA
HETATM   25  H18 UNL     1       0.067   6.074  14.726  1.00  0.00     0.210 HD
ENDBRANCH  16  24
ENDBRANCH  10  11
ENDBRANCH   4  10
BRANCH   9  26
HETATM   26  O7  UNL     1       2.858   8.097   9.634  1.00  0.00    -0.385 OA
HETATM   27  H27 UNL     1       3.788   8.300   9.827  1.00  0.00     0.211 HD
ENDBRANCH   9  26
BRANCH   9  28
HETATM   28  C16 UNL     1       3.369   5.832  10.191  1.00  0.00     0.010 C 
HETATM   29  C17 UNL     1       3.250   4.983   9.152  1.00  0.00     0.003 C 
BRANCH  29  30
HETATM   30  C18 UNL     1       4.172   3.827   8.904  1.00  0.00     0.136 C 
HETATM   31  C19 UNL     1       4.419   3.607   7.418  1.00  0.00     0.043 C 
BRANCH  30  32
HETATM   32  O8  UNL     1       5.406   4.105   9.556  1.00  0.00    -0.392 OA
HETATM   33  H34 UNL     1       5.805   4.872   9.113  1.00  0.00     0.210 HD
ENDBRANCH  30  32
ENDBRANCH  29  30
ENDBRANCH   9  28
TORSDOF 11
ENDMDL
MODEL 6
REMARK minimizedAffinity -7.58299065
REMARK  11 active torsions:
REMARK  status: ('A' for Active; 'I' for Inactive)
REMARK    1  A    between atoms: C4_4  and  O1_5 
REMARK    2  A    between atoms: O1_5  and  C5_6 
REMARK    3  A    between atoms: C6_8  and  C7_9 
REMARK    4  A    between atoms: C7_9  and  O3_10 
REMARK    5  A    between atoms: C8_11  and  O4_12 
REMARK    6  A    between atoms: C9_13  and  O5_14 
REMARK    7  A    between atoms: C10_15  and  O6_16 
REMARK    8  A    between atoms: C15_21  and  O7_22 
REMARK    9  A    between atoms: C15_21  and  C16_23 
REMARK   10  A    between atoms: C17_24  and  C18_25 
REMARK   11  A    between atoms: C18_25  and  O8_27 
ROOT
HETATM    1  C1  UNL     1       0.122   8.098   9.635  1.00  0.00     0.013 C 
HETATM    2  C2  UNL     1       0.907   6.849  10.056  1.00  0.00     0.023 C 
HETATM    3  C3  UNL     1       0.106   5.976  11.042  1.00  0.00     0.039 C 
HETATM    4  C4  UNL     1       0.162   6.443  12.500  1.00  0.00     0.126 C 
HETATM    5  C11 UNL     1       1.614   6.640  12.959  1.00  0.00     0.044 C 
HETATM    6  C12 UNL     1       2.491   7.544  12.046  1.00  0.00    -0.010 C 
HETATM    7  C13 UNL     1       2.125   9.035  12.244  1.00  0.00     0.018 C 
HETATM    8  C14 UNL     1       3.955   7.434  12.563  1.00  0.00     0.018 C 
HETATM    9  C15 UNL     1       2.375   7.092  10.535  1.00  0.00     0.086 C 
ENDROOT
BRANCH   4  10
HETATM   10  O1  UNL     1      -0.536   7.666  12.723  1.00  0.00    -0.353 OA
BRANCH  10  11
HETATM   11  C5  UNL     1      -1.435   7.647  13.844  1.00  0.00     0.292 C 
HETATM   12  O2  UNL     1      -2.052   6.369  13.962  1.00  0.00    -0.348 OA
HETATM   13  C6  UNL     1      -3.301   6.336  14.688  1.00  0.00     0.179 C 
HETATM   14  C8  UNL     1      -3.567   7.581  15.549  1.00  0.00     0.180 C 
HETATM   15  C9  UNL     1      -3.431   8.885  14.750  1.00  0.00     0.183 C 
HETATM   16  C10 UNL     1      -2.474   8.743  13.563  1.00  0.00     0.204 C 
BRANCH  13  17
HETATM   17  C7  UNL     1      -4.435   6.050  13.694  1.00  0.00     0.198 C 
BRANCH  17  18
HETATM   18  O3  UNL     1      -3.887   5.479  12.503  1.00  0.00    -0.398 OA
HETATM   19  H12 UNL     1      -3.118   6.034  12.272  1.00  0.00     0.209 HD
ENDBRANCH  17  18
ENDBRANCH  13  17
BRANCH  14  20
HETATM   20  O4  UNL     1      -2.601   7.613  16.616  1.00  0.00    -0.390 OA
HETATM   21  H14 UNL     1      -2.765   6.838  17.185  1.00  0.00     0.210 HD
ENDBRANCH  14  20
BRANCH  15  22
HETATM   22  O5  UNL     1      -4.716   9.298  14.263  1.00  0.00    -0.390 OA
HETATM   23  H16 UNL     1      -4.569  10.167  13.840  1.00  0.00     0.210 HD
ENDBRANCH  15  22
BRANCH  16  24
HETATM   24  O6  UNL     1      -1.861  10.012  13.287  1.00  0.00    -0.388 OA
HETATM   25  H18 UNL     1      -1.137   9.809  12.660  1.00  0.00     0.210 HD
ENDBRANCH  16  24
ENDBRANCH  10  11
ENDBRANCH   4  10
BRANCH   9  26
HETATM   26  O7  UNL     1       2.954   8.094   9.693  1.00  0.00    -0.385 OA
HETATM   27  H27 UNL     1       3.889   8.179   9.944  1.00  0.00     0.211 HD
ENDBRANCH   9  26
BRANCH   9  28
HETATM   28  C16 UNL     1       3.139   5.787  10.283  1.00  0.00     0.010 C 
HETATM   29  C17 UNL     1       3.257   5.140   9.106  1.00  0.00     0.003 C 
BRANCH  29  30
HETATM   30  C18 UNL     1       4.021   3.863   8.925  1.00  0.00     0.136 C 
HETATM   31  C19 UNL     1       4.276   3.558   7.455  1.00  0.00     0.043 C 
BRANCH  30  32
HETATM   32  O8  UNL     1       5.264   3.996   9.606  1.00  0.00    -0.392 OA
HETATM   33  H34 UNL     1       5.774   4.687   9.151  1.00  0.00     0.210 HD
ENDBRANCH  30  32
ENDBRANCH  29  30
ENDBRANCH   9  28
TORSDOF 11
ENDMDL
MODEL 7
REMARK minimizedAffinity -7.35024691
REMARK  11 active torsions:
REMARK  status: ('A' for Active; 'I' for Inactive)
REMARK    1  A    between atoms: C4_4  and  O1_5 
REMARK    2  A    between atoms: O1_5  and  C5_6 
REMARK    3  A    between atoms: C6_8  and  C7_9 
REMARK    4  A    between atoms: C7_9  and  O3_10 
REMARK    5  A    between atoms: C8_11  and  O4_12 
REMARK    6  A    between atoms: C9_13  and  O5_14 
REMARK    7  A    between atoms: C10_15  and  O6_16 
REMARK    8  A    between atoms: C15_21  and  O7_22 
REMARK    9  A    between atoms: C15_21  and  C16_23 
REMARK   10  A    between atoms: C17_24  and  C18_25 
REMARK   11  A    between atoms: C18_25  and  O8_27 
ROOT
HETATM    1  C1  UNL     1       0.570   4.968  11.240  1.00  0.00     0.013 C 
HETATM    2  C2  UNL     1       1.946   5.630  11.398  1.00  0.00     0.023 C 
HETATM    3  C3  UNL     1       1.972   6.617  12.582  1.00  0.00     0.039 C 
HETATM    4  C4  UNL     1       1.396   8.002  12.271  1.00  0.00     0.126 C 
HETATM    5  C11 UNL     1       2.044   8.599  11.013  1.00  0.00     0.044 C 
HETATM    6  C12 UNL     1       2.027   7.688   9.752  1.00  0.00    -0.010 C 
HETATM    7  C13 UNL     1       0.611   7.655   9.124  1.00  0.00     0.018 C 
HETATM    8  C14 UNL     1       2.911   8.381   8.675  1.00  0.00     0.018 C 
HETATM    9  C15 UNL     1       2.564   6.242  10.100  1.00  0.00     0.086 C 
ENDROOT
BRANCH   4  10
HETATM   10  O1  UNL     1      -0.016   7.989  12.071  1.00  0.00    -0.353 OA
BRANCH  10  11
HETATM   11  C5  UNL     1      -0.790   7.827  13.269  1.00  0.00     0.292 C 
HETATM   12  O2  UNL     1      -1.441   6.559  13.272  1.00  0.00    -0.348 OA
HETATM   13  C6  UNL     1      -2.605   6.449  14.119  1.00  0.00     0.179 C 
HETATM   14  C8  UNL     1      -2.731   7.560  15.173  1.00  0.00     0.180 C 
HETATM   15  C9  UNL     1      -2.630   8.963  14.558  1.00  0.00     0.183 C 
HETATM   16  C10 UNL     1      -1.811   8.975  13.265  1.00  0.00     0.204 C 
BRANCH  13  17
HETATM   17  C7  UNL     1      -3.849   6.337  13.225  1.00  0.00     0.198 C 
BRANCH  17  18
HETATM   18  O3  UNL     1      -5.018   6.591  14.009  1.00  0.00    -0.398 OA
HETATM   19  H12 UNL     1      -4.911   6.063  14.823  1.00  0.00     0.209 HD
ENDBRANCH  17  18
ENDBRANCH  13  17
BRANCH  14  20
HETATM   20  O4  UNL     1      -1.656   7.414  16.120  1.00  0.00    -0.390 OA
HETATM   21  H14 UNL     1      -1.790   6.568  16.587  1.00  0.00     0.210 HD
ENDBRANCH  14  20
BRANCH  15  22
HETATM   22  O5  UNL     1      -3.943   9.472  14.280  1.00  0.00    -0.390 OA
HETATM   23  H16 UNL     1      -3.809  10.390  13.972  1.00  0.00     0.210 HD
ENDBRANCH  15  22
BRANCH  16  24
HETATM   24  O6  UNL     1      -1.182  10.257  13.107  1.00  0.00    -0.388 OA
HETATM   25  H18 UNL     1      -0.537  10.131  12.381  1.00  0.00     0.210 HD
ENDBRANCH  16  24
ENDBRANCH  10  11
ENDBRANCH   4  10
BRANCH   9  26
HETATM   26  O7  UNL     1       2.278   5.355   9.013  1.00  0.00    -0.385 OA
HETATM   27  H27 UNL     1       2.735   5.700   8.229  1.00  0.00     0.211 HD
ENDBRANCH   9  26
BRANCH   9  28
HETATM   28  C16 UNL     1       4.084   6.244  10.299  1.00  0.00     0.010 C 
HETATM   29  C17 UNL     1       4.752   6.693  11.380  1.00  0.00     0.003 C 
BRANCH  29  30
HETATM   30  C18 UNL     1       6.246   6.667  11.513  1.00  0.00     0.136 C 
HETATM   31  C19 UNL     1       6.843   5.383  10.955  1.00  0.00     0.043 C 
BRANCH  30  32
HETATM   32  O8  UNL     1       6.767   7.783  10.800  1.00  0.00    -0.392 OA
HETATM   33  H34 UNL     1       6.575   7.645   9.858  1.00  0.00     0.210 HD
ENDBRANCH  30  32
ENDBRANCH  29  30
ENDBRANCH   9  28
TORSDOF 11
ENDMDL
MODEL 8
REMARK minimizedAffinity -7.33733273
REMARK  11 active torsions:
REMARK  status: ('A' for Active; 'I' for Inactive)
REMARK    1  A    between atoms: C4_4  and  O1_5 
REMARK    2  A    between atoms: O1_5  and  C5_6 
REMARK    3  A    between atoms: C6_8  and  C7_9 
REMARK    4  A    between atoms: C7_9  and  O3_10 
REMARK    5  A    between atoms: C8_11  and  O4_12 
REMARK    6  A    between atoms: C9_13  and  O5_14 
REMARK    7  A    between atoms: C10_15  and  O6_16 
REMARK    8  A    between atoms: C15_21  and  O7_22 
REMARK    9  A    between atoms: C15_21  and  C16_23 
REMARK   10  A    between atoms: C17_24  and  C18_25 
REMARK   11  A    between atoms: C18_25  and  O8_27 
ROOT
HETATM    1  C1  UNL     1       0.341   5.696  14.093  1.00  0.00     0.013 C 
HETATM    2  C2  UNL     1      -0.904   5.882  13.215  1.00  0.00     0.023 C 
HETATM    3  C3  UNL     1      -0.534   6.345  11.792  1.00  0.00     0.039 C 
HETATM    4  C4  UNL     1      -0.274   7.848  11.656  1.00  0.00     0.126 C 
HETATM    5  C11 UNL     1      -1.437   8.663  12.239  1.00  0.00     0.044 C 
HETATM    6  C12 UNL     1      -1.854   8.295  13.692  1.00  0.00    -0.010 C 
HETATM    7  C13 UNL     1      -0.827   8.850  14.710  1.00  0.00     0.018 C 
HETATM    8  C14 UNL     1      -3.166   9.073  14.003  1.00  0.00     0.018 C 
HETATM    9  C15 UNL     1      -2.058   6.733  13.835  1.00  0.00     0.086 C 
ENDROOT
BRANCH   4  10
HETATM   10  O1  UNL     1       0.924   8.269  12.305  1.00  0.00    -0.353 OA
BRANCH  10  11
HETATM   11  C5  UNL     1       2.093   8.263  11.470  1.00  0.00     0.292 C 
HETATM   12  O2  UNL     1       1.740   7.950  10.126  1.00  0.00    -0.348 OA
HETATM   13  C6  UNL     1       2.803   7.428   9.299  1.00  0.00     0.179 C 
HETATM   14  C8  UNL     1       4.215   7.660   9.860  1.00  0.00     0.180 C 
HETATM   15  C9  UNL     1       4.356   7.173  11.310  1.00  0.00     0.183 C 
HETATM   16  C10 UNL     1       3.024   7.195  12.063  1.00  0.00     0.204 C 
BRANCH  13  17
HETATM   17  C7  UNL     1       2.516   5.947   9.015  1.00  0.00     0.198 C 
BRANCH  17  18
HETATM   18  O3  UNL     1       3.730   5.295   8.634  1.00  0.00    -0.398 OA
HETATM   19  H12 UNL     1       4.151   5.880   7.976  1.00  0.00     0.209 HD
ENDBRANCH  17  18
ENDBRANCH  13  17
BRANCH  14  20
HETATM   20  O4  UNL     1       4.487   9.074   9.840  1.00  0.00    -0.390 OA
HETATM   21  H14 UNL     1       4.506   9.356   8.907  1.00  0.00     0.210 HD
ENDBRANCH  14  20
BRANCH  15  22
HETATM   22  O5  UNL     1       4.878   5.836  11.329  1.00  0.00    -0.390 OA
HETATM   23  H16 UNL     1       5.019   5.623  12.273  1.00  0.00     0.210 HD
ENDBRANCH  15  22
BRANCH  16  24
HETATM   24  O6  UNL     1       3.268   7.408  13.463  1.00  0.00    -0.388 OA
HETATM   25  H18 UNL     1       2.387   7.600  13.844  1.00  0.00     0.210 HD
ENDBRANCH  16  24
ENDBRANCH  10  11
ENDBRANCH   4  10
BRANCH   9  26
HETATM   26  O7  UNL     1      -2.162   6.393  15.222  1.00  0.00    -0.385 OA
HETATM   27  H27 UNL     1      -2.933   6.864  15.579  1.00  0.00     0.211 HD
ENDBRANCH   9  26
BRANCH   9  28
HETATM   28  C16 UNL     1      -3.353   6.275  13.156  1.00  0.00     0.010 C 
HETATM   29  C17 UNL     1      -4.215   5.345  13.613  1.00  0.00     0.003 C 
BRANCH  29  30
HETATM   30  C18 UNL     1      -5.469   4.940  12.898  1.00  0.00     0.136 C 
HETATM   31  C19 UNL     1      -5.339   3.565  12.259  1.00  0.00     0.043 C 
BRANCH  30  32
HETATM   32  O8  UNL     1      -6.528   4.926  13.848  1.00  0.00    -0.392 OA
HETATM   33  H34 UNL     1      -6.339   4.220  14.488  1.00  0.00     0.210 HD
ENDBRANCH  30  32
ENDBRANCH  29  30
ENDBRANCH   9  28
TORSDOF 11
ENDMDL
MODEL 9
REMARK minimizedAffinity -7.28096008
REMARK  11 active torsions:
REMARK  status: ('A' for Active; 'I' for Inactive)
REMARK    1  A    between atoms: C4_4  and  O1_5 
REMARK    2  A    between atoms: O1_5  and  C5_6 
REMARK    3  A    between atoms: C6_8  and  C7_9 
REMARK    4  A    between atoms: C7_9  and  O3_10 
REMARK    5  A    between atoms: C8_11  and  O4_12 
REMARK    6  A    between atoms: C9_13  and  O5_14 
REMARK    7  A    between atoms: C10_15  and  O6_16 
REMARK    8  A    between atoms: C15_21  and  O7_22 
REMARK    9  A    between atoms: C15_21  and  C16_23 
REMARK   10  A    between atoms: C17_24  and  C18_25 
REMARK   11  A    between atoms: C18_25  and  O8_27 
ROOT
HETATM    1  C1  UNL     1      -1.270   8.870  11.497  1.00  0.00     0.013 C 
HETATM    2  C2  UNL     1      -1.162   8.774  13.024  1.00  0.00     0.023 C 
HETATM    3  C3  UNL     1       0.268   8.411  13.473  1.00  0.00     0.039 C 
HETATM    4  C4  UNL     1       0.598   6.917  13.406  1.00  0.00     0.126 C 
HETATM    5  C11 UNL     1      -0.463   6.084  14.140  1.00  0.00     0.044 C 
HETATM    6  C12 UNL     1      -1.936   6.352  13.722  1.00  0.00    -0.010 C 
HETATM    7  C13 UNL     1      -2.239   5.703  12.349  1.00  0.00     0.018 C 
HETATM    8  C14 UNL     1      -2.845   5.580  14.723  1.00  0.00     0.018 C 
HETATM    9  C15 UNL     1      -2.247   7.903  13.734  1.00  0.00     0.086 C 
ENDROOT
BRANCH   4  10
HETATM   10  O1  UNL     1       0.692   6.424  12.071  1.00  0.00    -0.353 OA
BRANCH  10  11
HETATM   11  C5  UNL     1       1.988   6.565  11.469  1.00  0.00     0.292 C 
HETATM   12  O2  UNL     1       2.112   7.844  10.851  1.00  0.00    -0.348 OA
HETATM   13  C6  UNL     1       3.112   7.950   9.814  1.00  0.00     0.179 C 
HETATM   14  C8  UNL     1       4.144   6.811   9.809  1.00  0.00     0.180 C 
HETATM   15  C9  UNL     1       3.485   5.424   9.797  1.00  0.00     0.183 C 
HETATM   16  C10 UNL     1       2.092   5.436  10.433  1.00  0.00     0.204 C 
BRANCH  13  17
HETATM   17  C7  UNL     1       2.398   8.108   8.464  1.00  0.00     0.198 C 
BRANCH  17  18
HETATM   18  O3  UNL     1       3.145   9.004   7.637  1.00  0.00    -0.398 OA
HETATM   19  H12 UNL     1       3.365   9.768   8.204  1.00  0.00     0.209 HD
ENDBRANCH  17  18
ENDBRANCH  13  17
BRANCH  14  20
HETATM   20  O4  UNL     1       4.940   6.912  11.005  1.00  0.00    -0.390 OA
HETATM   21  H14 UNL     1       5.442   7.746  10.954  1.00  0.00     0.210 HD
ENDBRANCH  14  20
BRANCH  15  22
HETATM   22  O5  UNL     1       3.375   4.947   8.448  1.00  0.00    -0.390 OA
HETATM   23  H16 UNL     1       3.027   4.035   8.520  1.00  0.00     0.210 HD
ENDBRANCH  15  22
BRANCH  16  24
HETATM   24  O6  UNL     1       1.818   4.148  11.008  1.00  0.00    -0.388 OA
HETATM   25  H18 UNL     1       1.015   4.283  11.551  1.00  0.00     0.210 HD
ENDBRANCH  16  24
ENDBRANCH  10  11
ENDBRANCH   4  10
BRANCH   9  26
HETATM   26  O7  UNL     1      -3.500   8.141  13.084  1.00  0.00    -0.385 OA
HETATM   27  H27 UNL     1      -4.182   7.661  13.583  1.00  0.00     0.211 HD
ENDBRANCH   9  26
BRANCH   9  28
HETATM   28  C16 UNL     1      -2.368   8.436  15.166  1.00  0.00     0.010 C 
HETATM   29  C17 UNL     1      -2.416   9.730  15.540  1.00  0.00     0.003 C 
BRANCH  29  30
HETATM   30  C18 UNL     1      -2.535  10.188  16.963  1.00  0.00     0.136 C 
HETATM   31  C19 UNL     1      -3.655  11.204  17.141  1.00  0.00     0.043 C 
BRANCH  30  32
HETATM   32  O8  UNL     1      -2.796   9.045  17.769  1.00  0.00    -0.392 OA
HETATM   33  H34 UNL     1      -3.670   8.703  17.519  1.00  0.00     0.210 HD
ENDBRANCH  30  32
ENDBRANCH  29  30
ENDBRANCH   9  28
TORSDOF 11
ENDMDL
