MODEL 1
REMARK minimizedAffinity -8.28339672
REMARK CNNscore 0.656051815
REMARK CNNaffinity 7.95017481
REMARK  13 active torsions:
REMARK  status: ('A' for Active; 'I' for Inactive)
REMARK    1  A    between atoms: O1_2  and  C2_3 
REMARK    2  A    between atoms: C2_3  and  C3_4 
REMARK    3  A    between atoms: C2_3  and  C33_42 
REMARK    4  A    between atoms: C3_4  and  C5_6 
REMARK    5  A    between atoms: C8_10  and  O3_11 
REMARK    6  A    between atoms: C12_15  and  C14_17 
REMARK    7  A    between atoms: C17_20  and  C19_22 
REMARK    8  A    between atoms: C20_24  and  C21_25 
REMARK    9  A    between atoms: C22_27  and  O6_28 
REMARK   10  A    between atoms: C22_27  and  C23_29 
REMARK   11  A    between atoms: C23_29  and  O7_30 
REMARK   12  A    between atoms: C33_42  and  C35_44 
REMARK   13  A    between atoms: C35_44  and  O11_46 
ROOT
HETATM    1  C5  UNL     1     -14.051   6.917  15.313  1.00  0.00     0.137 C 
HETATM    2  O2  UNL     1     -13.226   7.521  14.302  1.00  0.00    -0.349 OA
HETATM    3  C6  UNL     1     -12.433   8.642  14.668  1.00  0.00     0.167 C 
HETATM    4  C7  UNL     1     -13.299   9.765  15.244  1.00  0.00     0.100 C 
HETATM    5  C8  UNL     1     -14.409   9.277  16.171  1.00  0.00     0.129 C 
HETATM    6  C9  UNL     1     -14.251   7.808  16.556  1.00  0.00     0.040 C 
HETATM    7  C10 UNL     1     -15.288   7.336  17.568  1.00  0.00     0.015 C 
HETATM    8  C11 UNL     1     -11.250   8.207  15.558  1.00  0.00     0.082 C 
HETATM    9  C12 UNL     1      -9.992   8.636  14.796  1.00  0.00     0.009 C 
HETATM   10  C13 UNL     1      -9.580  10.062  15.216  1.00  0.00     0.020 C 
HETATM   11  C32 UNL     1     -10.521   8.638  13.367  1.00  0.00     0.183 C 
HETATM   12  O9  UNL     1     -11.841   9.178  13.463  1.00  0.00    -0.354 OA
ENDROOT
BRANCH   9  13
HETATM   13  C14 UNL     1      -8.802   7.672  14.947  1.00  0.00     0.133 C 
HETATM   14  C15 UNL     1      -8.991   6.521  15.923  1.00  0.00     0.036 C 
HETATM   15  C16 UNL     1      -7.920   5.558  15.458  1.00  0.00     0.043 C 
HETATM   16  C17 UNL     1      -7.919   5.743  13.932  1.00  0.00     0.084 C 
HETATM   17  C18 UNL     1      -8.844   4.715  13.271  1.00  0.00     0.049 C 
HETATM   18  O8  UNL     1      -8.494   7.044  13.691  1.00  0.00    -0.372 OA
BRANCH  16  19
HETATM   19  C19 UNL     1      -6.482   5.716  13.365  1.00  0.00     0.160 C 
HETATM   20  O4  UNL     1      -5.554   6.438  14.208  1.00  0.00    -0.375 OA
HETATM   21  C20 UNL     1      -4.268   5.801  14.113  1.00  0.00     0.152 C 
HETATM   22  C29 UNL     1      -4.383   4.737  13.024  1.00  0.00     0.041 C 
HETATM   23  C30 UNL     1      -5.844   4.342  13.137  1.00  0.00     0.016 C 
HETATM   24  C31 UNL     1      -6.348   3.583  11.921  1.00  0.00     0.012 C 
BRANCH  21  25
HETATM   25  C21 UNL     1      -3.080   6.778  13.934  1.00  0.00     0.158 C 
HETATM   26  O5  UNL     1      -1.989   5.976  13.449  1.00  0.00    -0.345 OA
HETATM   27  C22 UNL     1      -0.743   6.642  13.261  1.00  0.00     0.187 C 
HETATM   28  C24 UNL     1      -0.925   7.772  12.237  1.00  0.00     0.046 C 
HETATM   29  C25 UNL     1       0.353   8.535  11.886  1.00  0.00     0.015 C 
HETATM   30  C26 UNL     1      -2.024   8.729  12.699  1.00  0.00     0.016 C 
HETATM   31  C27 UNL     1      -3.338   7.982  12.992  1.00  0.00     0.014 C 
HETATM   32  C28 UNL     1      -4.344   8.992  13.553  1.00  0.00     0.012 C 
BRANCH  27  33
HETATM   33  O6  UNL     1       0.123   5.658  12.679  1.00  0.00    -0.363 OA
HETATM   34  H34 UNL     1      -0.467   5.155  12.091  1.00  0.00     0.213 HD
ENDBRANCH  27  33
BRANCH  27  35
HETATM   35  C23 UNL     1      -0.100   7.020  14.617  1.00  0.00     0.232 C 
BRANCH  35  36
HETATM   36  O7  UNL     1      -0.256   5.990  15.592  1.00  0.00    -0.396 OA
HETATM   37  H37 UNL     1      -1.184   5.689  15.491  1.00  0.00     0.209 HD
ENDBRANCH  35  36
ENDBRANCH  27  35
ENDBRANCH  21  25
ENDBRANCH  16  19
ENDBRANCH   9  13
BRANCH   1  38
HETATM   38  C3  UNL     1     -15.256   6.252  14.564  1.00  0.00     0.041 C 
HETATM   39  C4  UNL     1     -15.620   4.855  15.068  1.00  0.00     0.015 C 
BRANCH  38  40
HETATM   40  C2  UNL     1     -16.490   7.111  14.113  1.00  0.00     0.141 C 
BRANCH  40  41
HETATM   41  O1  UNL     1     -17.527   6.318  13.529  1.00  0.00    -0.389 OA
HETATM   42  C1  UNL     1     -17.032   5.317  12.645  1.00  0.00     0.202 C 
ENDBRANCH  40  41
BRANCH  40  43
HETATM   43  C33 UNL     1     -16.261   8.392  13.275  1.00  0.00     0.109 C 
HETATM   44  C34 UNL     1     -16.996   9.600  13.877  1.00  0.00     0.024 C 
BRANCH  43  45
HETATM   45  C35 UNL     1     -16.618   8.294  11.816  1.00  0.00     0.145 C 
HETATM   46  O10 UNL     1     -15.826   8.106  10.903  1.00  0.00    -0.650 OA
BRANCH  45  47
HETATM   47  O11 UNL     1     -17.914   8.493  11.534  1.00  0.00    -0.776 OA
HETATM   48  H60 UNL     1     -17.974   8.407  10.561  1.00  0.00     0.167 HD
ENDBRANCH  45  47
ENDBRANCH  43  45
ENDBRANCH  40  43
ENDBRANCH  38  40
ENDBRANCH   1  38
BRANCH   5  49
HETATM   49  O3  UNL     1     -14.411  10.088  17.351  1.00  0.00    -0.395 OA
HETATM   50  H13 UNL     1     -14.637  10.991  17.068  1.00  0.00     0.210 HD
ENDBRANCH   5  49
TORSDOF 13
ENDMDL
MODEL 2
REMARK minimizedAffinity -8.78523159
REMARK CNNscore 0.570559263
REMARK CNNaffinity 8.05883694
REMARK  13 active torsions:
REMARK  status: ('A' for Active; 'I' for Inactive)
REMARK    1  A    between atoms: O1_2  and  C2_3 
REMARK    2  A    between atoms: C2_3  and  C3_4 
REMARK    3  A    between atoms: C2_3  and  C33_42 
REMARK    4  A    between atoms: C3_4  and  C5_6 
REMARK    5  A    between atoms: C8_10  and  O3_11 
REMARK    6  A    between atoms: C12_15  and  C14_17 
REMARK    7  A    between atoms: C17_20  and  C19_22 
REMARK    8  A    between atoms: C20_24  and  C21_25 
REMARK    9  A    between atoms: C22_27  and  O6_28 
REMARK   10  A    between atoms: C22_27  and  C23_29 
REMARK   11  A    between atoms: C23_29  and  O7_30 
REMARK   12  A    between atoms: C33_42  and  C35_44 
REMARK   13  A    between atoms: C35_44  and  O11_46 
ROOT
HETATM    1  C5  UNL     1      -1.147   6.878  12.589  1.00  0.00     0.137 C 
HETATM    2  O2  UNL     1      -1.867   6.620  13.807  1.00  0.00    -0.349 OA
HETATM    3  C6  UNL     1      -2.717   7.643  14.309  1.00  0.00     0.167 C 
HETATM    4  C7  UNL     1      -1.940   8.943  14.536  1.00  0.00     0.100 C 
HETATM    5  C8  UNL     1      -0.930   9.258  13.436  1.00  0.00     0.129 C 
HETATM    6  C9  UNL     1      -1.101   8.371  12.206  1.00  0.00     0.040 C 
HETATM    7  C10 UNL     1      -0.172   8.746  11.058  1.00  0.00     0.015 C 
HETATM    8  C11 UNL     1      -3.982   7.781  13.437  1.00  0.00     0.082 C 
HETATM    9  C12 UNL     1      -5.157   7.513  14.383  1.00  0.00     0.009 C 
HETATM   10  C13 UNL     1      -5.639   8.836  15.014  1.00  0.00     0.020 C 
HETATM   11  C32 UNL     1      -4.474   6.644  15.433  1.00  0.00     0.183 C 
HETATM   12  O9  UNL     1      -3.183   7.231  15.614  1.00  0.00    -0.354 OA
ENDROOT
BRANCH   9  13
HETATM   13  C14 UNL     1      -6.337   6.773  13.731  1.00  0.00     0.133 C 
HETATM   14  C15 UNL     1      -6.164   5.275  13.535  1.00  0.00     0.036 C 
HETATM   15  C16 UNL     1      -7.601   4.828  13.374  1.00  0.00     0.043 C 
HETATM   16  C17 UNL     1      -8.366   5.749  14.337  1.00  0.00     0.084 C 
HETATM   17  C18 UNL     1      -8.523   5.078  15.705  1.00  0.00     0.049 C 
HETATM   18  O8  UNL     1      -7.525   6.906  14.530  1.00  0.00    -0.372 OA
BRANCH  16  19
HETATM   19  C19 UNL     1      -9.712   6.204  13.729  1.00  0.00     0.160 C 
HETATM   20  O4  UNL     1     -10.436   7.087  14.617  1.00  0.00    -0.375 OA
HETATM   21  C20 UNL     1     -11.186   8.016  13.816  1.00  0.00     0.152 C 
HETATM   22  C29 UNL     1     -11.040   7.565  12.365  1.00  0.00     0.041 C 
HETATM   23  C30 UNL     1      -9.663   6.929  12.380  1.00  0.00     0.016 C 
HETATM   24  C31 UNL     1      -9.406   6.043  11.173  1.00  0.00     0.012 C 
BRANCH  21  25
HETATM   25  C21 UNL     1     -12.649   8.228  14.279  1.00  0.00     0.158 C 
HETATM   26  O5  UNL     1     -12.994   9.564  13.872  1.00  0.00    -0.345 OA
HETATM   27  C22 UNL     1     -14.290  10.028  14.245  1.00  0.00     0.187 C 
HETATM   28  C24 UNL     1     -15.351   9.109  13.622  1.00  0.00     0.046 C 
HETATM   29  C25 UNL     1     -16.798   9.528  13.885  1.00  0.00     0.015 C 
HETATM   30  C26 UNL     1     -15.114   7.662  14.054  1.00  0.00     0.016 C 
HETATM   31  C27 UNL     1     -13.678   7.205  13.735  1.00  0.00     0.014 C 
HETATM   32  C28 UNL     1     -13.493   5.793  14.298  1.00  0.00     0.012 C 
BRANCH  27  33
HETATM   33  O6  UNL     1     -14.415  11.319  13.632  1.00  0.00    -0.363 OA
HETATM   34  H34 UNL     1     -13.956  11.212  12.780  1.00  0.00     0.213 HD
ENDBRANCH  27  33
BRANCH  27  35
HETATM   35  C23 UNL     1     -14.380  10.274  15.769  1.00  0.00     0.232 C 
BRANCH  35  36
HETATM   36  O7  UNL     1     -15.693  10.659  16.175  1.00  0.00    -0.396 OA
HETATM   37  H37 UNL     1     -15.984  11.305  15.499  1.00  0.00     0.209 HD
ENDBRANCH  35  36
ENDBRANCH  27  35
ENDBRANCH  21  25
ENDBRANCH  16  19
ENDBRANCH   9  13
BRANCH   1  38
HETATM   38  C3  UNL     1       0.145   5.992  12.643  1.00  0.00     0.041 C 
HETATM   39  C4  UNL     1       0.944   6.117  13.941  1.00  0.00     0.015 C 
BRANCH  38  40
HETATM   40  C2  UNL     1       0.151   4.549  12.024  1.00  0.00     0.141 C 
BRANCH  40  41
HETATM   41  O1  UNL     1       1.239   4.346  11.117  1.00  0.00    -0.389 OA
HETATM   42  C1  UNL     1       1.639   5.540  10.452  1.00  0.00     0.202 C 
ENDBRANCH  40  41
BRANCH  40  43
HETATM   43  C33 UNL     1      -1.155   3.969  11.431  1.00  0.00     0.109 C 
HETATM   44  C34 UNL     1      -2.285   3.944  12.471  1.00  0.00     0.024 C 
BRANCH  43  45
HETATM   45  C35 UNL     1      -1.044   2.601  10.813  1.00  0.00     0.145 C 
HETATM   46  O10 UNL     1      -0.255   1.730  11.155  1.00  0.00    -0.650 OA
BRANCH  45  47
HETATM   47  O11 UNL     1      -1.854   2.382   9.767  1.00  0.00    -0.776 OA
HETATM   48  H60 UNL     1      -1.653   1.468   9.481  1.00  0.00     0.167 HD
ENDBRANCH  45  47
ENDBRANCH  43  45
ENDBRANCH  40  43
ENDBRANCH  38  40
ENDBRANCH   1  38
BRANCH   5  49
HETATM   49  O3  UNL     1      -1.072  10.634  13.063  1.00  0.00    -0.395 OA
HETATM   50  H13 UNL     1      -0.833  11.161  13.845  1.00  0.00     0.210 HD
ENDBRANCH   5  49
TORSDOF 13
ENDMDL
MODEL 3
REMARK minimizedAffinity -10.1362391
REMARK CNNscore 0.565508068
REMARK CNNaffinity 7.80225325
REMARK  13 active torsions:
REMARK  status: ('A' for Active; 'I' for Inactive)
REMARK    1  A    between atoms: O1_2  and  C2_3 
REMARK    2  A    between atoms: C2_3  and  C3_4 
REMARK    3  A    between atoms: C2_3  and  C33_42 
REMARK    4  A    between atoms: C3_4  and  C5_6 
REMARK    5  A    between atoms: C8_10  and  O3_11 
REMARK    6  A    between atoms: C12_15  and  C14_17 
REMARK    7  A    between atoms: C17_20  and  C19_22 
REMARK    8  A    between atoms: C20_24  and  C21_25 
REMARK    9  A    between atoms: C22_27  and  O6_28 
REMARK   10  A    between atoms: C22_27  and  C23_29 
REMARK   11  A    between atoms: C23_29  and  O7_30 
REMARK   12  A    between atoms: C33_42  and  C35_44 
REMARK   13  A    between atoms: C35_44  and  O11_46 
ROOT
HETATM    1  C5  UNL     1      -0.101   7.093  11.031  1.00  0.00     0.137 C 
HETATM    2  O2  UNL     1      -0.734   5.815  10.844  1.00  0.00    -0.349 OA
HETATM    3  C6  UNL     1      -1.074   5.063  12.002  1.00  0.00     0.167 C 
HETATM    4  C7  UNL     1       0.156   4.810  12.877  1.00  0.00     0.100 C 
HETATM    5  C8  UNL     1       1.089   6.012  12.993  1.00  0.00     0.129 C 
HETATM    6  C9  UNL     1       0.466   7.296  12.451  1.00  0.00     0.040 C 
HETATM    7  C10 UNL     1       1.343   8.526  12.659  1.00  0.00     0.015 C 
HETATM    8  C11 UNL     1      -2.277   5.697  12.731  1.00  0.00     0.082 C 
HETATM    9  C12 UNL     1      -3.359   4.613  12.745  1.00  0.00     0.009 C 
HETATM   10  C13 UNL     1      -3.235   3.758  14.023  1.00  0.00     0.020 C 
HETATM   11  C32 UNL     1      -2.952   3.799  11.523  1.00  0.00     0.183 C 
HETATM   12  O9  UNL     1      -1.523   3.759  11.567  1.00  0.00    -0.354 OA
ENDROOT
BRANCH   9  13
HETATM   13  C14 UNL     1      -4.794   5.151  12.601  1.00  0.00     0.133 C 
HETATM   14  C15 UNL     1      -5.845   4.147  12.154  1.00  0.00     0.036 C 
HETATM   15  C16 UNL     1      -7.119   4.832  12.598  1.00  0.00     0.043 C 
HETATM   16  C17 UNL     1      -6.711   5.514  13.914  1.00  0.00     0.084 C 
HETATM   17  C18 UNL     1      -7.025   4.603  15.105  1.00  0.00     0.049 C 
HETATM   18  O8  UNL     1      -5.276   5.655  13.858  1.00  0.00    -0.372 OA
BRANCH  16  19
HETATM   19  C19 UNL     1      -7.348   6.916  14.040  1.00  0.00     0.160 C 
HETATM   20  O4  UNL     1      -8.699   6.851  14.556  1.00  0.00    -0.375 OA
HETATM   21  C20 UNL     1      -8.944   8.039  15.328  1.00  0.00     0.152 C 
HETATM   22  C29 UNL     1      -7.735   8.950  15.132  1.00  0.00     0.041 C 
HETATM   23  C30 UNL     1      -6.623   7.939  14.920  1.00  0.00     0.016 C 
HETATM   24  C31 UNL     1      -5.374   8.553  14.310  1.00  0.00     0.012 C 
BRANCH  21  25
HETATM   25  C21 UNL     1     -10.310   8.715  15.051  1.00  0.00     0.158 C 
HETATM   26  O5  UNL     1     -10.959   7.890  14.070  1.00  0.00    -0.345 OA
HETATM   27  C22 UNL     1     -12.225   8.341  13.594  1.00  0.00     0.187 C 
HETATM   28  C24 UNL     1     -13.200   8.438  14.776  1.00  0.00     0.046 C 
HETATM   29  C25 UNL     1     -14.625   8.850  14.402  1.00  0.00     0.015 C 
HETATM   30  C26 UNL     1     -12.631   9.360  15.855  1.00  0.00     0.016 C 
HETATM   31  C27 UNL     1     -11.221   8.917  16.289  1.00  0.00     0.014 C 
HETATM   32  C28 UNL     1     -10.683   9.952  17.282  1.00  0.00     0.012 C 
BRANCH  27  33
HETATM   33  O6  UNL     1     -12.692   7.299  12.726  1.00  0.00    -0.363 OA
HETATM   34  H34 UNL     1     -12.387   6.484  13.164  1.00  0.00     0.213 HD
ENDBRANCH  27  33
BRANCH  27  35
HETATM   35  C23 UNL     1     -12.074   9.596  12.702  1.00  0.00     0.232 C 
BRANCH  35  36
HETATM   36  O7  UNL     1     -11.541   9.282  11.417  1.00  0.00    -0.396 OA
HETATM   37  H37 UNL     1     -10.815   8.647  11.595  1.00  0.00     0.209 HD
ENDBRANCH  35  36
ENDBRANCH  27  35
ENDBRANCH  21  25
ENDBRANCH  16  19
ENDBRANCH   9  13
BRANCH   1  38
HETATM   38  C3  UNL     1       0.756   7.355   9.746  1.00  0.00     0.041 C 
HETATM   39  C4  UNL     1       0.276   8.530   8.894  1.00  0.00     0.015 C 
BRANCH  38  40
HETATM   40  C2  UNL     1       2.317   7.183   9.778  1.00  0.00     0.141 C 
BRANCH  40  41
HETATM   41  O1  UNL     1       3.002   8.426   9.955  1.00  0.00    -0.389 OA
HETATM   42  C1  UNL     1       4.412   8.273  10.075  1.00  0.00     0.202 C 
ENDBRANCH  40  41
BRANCH  40  43
HETATM   43  C33 UNL     1       3.013   6.342   8.681  1.00  0.00     0.109 C 
HETATM   44  C34 UNL     1       2.254   6.415   7.347  1.00  0.00     0.024 C 
BRANCH  43  45
HETATM   45  C35 UNL     1       3.249   4.893   9.018  1.00  0.00     0.145 C 
HETATM   46  O10 UNL     1       3.750   4.064   8.270  1.00  0.00    -0.650 OA
BRANCH  45  47
HETATM   47  O11 UNL     1       2.806   4.510  10.224  1.00  0.00    -0.776 OA
HETATM   48  H60 UNL     1       3.024   3.558  10.280  1.00  0.00     0.167 HD
ENDBRANCH  45  47
ENDBRANCH  43  45
ENDBRANCH  40  43
ENDBRANCH  38  40
ENDBRANCH   1  38
BRANCH   5  49
HETATM   49  O3  UNL     1       1.441   6.189  14.369  1.00  0.00    -0.395 OA
HETATM   50  H13 UNL     1       1.943   5.398  14.633  1.00  0.00     0.210 HD
ENDBRANCH   5  49
TORSDOF 13
ENDMDL
MODEL 4
REMARK minimizedAffinity -8.03582954
REMARK CNNscore 0.458342373
REMARK CNNaffinity 7.85896111
REMARK  13 active torsions:
REMARK  status: ('A' for Active; 'I' for Inactive)
REMARK    1  A    between atoms: O1_2  and  C2_3 
REMARK    2  A    between atoms: C2_3  and  C3_4 
REMARK    3  A    between atoms: C2_3  and  C33_42 
REMARK    4  A    between atoms: C3_4  and  C5_6 
REMARK    5  A    between atoms: C8_10  and  O3_11 
REMARK    6  A    between atoms: C12_15  and  C14_17 
REMARK    7  A    between atoms: C17_20  and  C19_22 
REMARK    8  A    between atoms: C20_24  and  C21_25 
REMARK    9  A    between atoms: C22_27  and  O6_28 
REMARK   10  A    between atoms: C22_27  and  C23_29 
REMARK   11  A    between atoms: C23_29  and  O7_30 
REMARK   12  A    between atoms: C33_42  and  C35_44 
REMARK   13  A    between atoms: C35_44  and  O11_46 
ROOT
HETATM    1  C5  UNL     1      -5.452   6.702  13.408  1.00  0.00     0.137 C 
HETATM    2  O2  UNL     1      -6.461   6.292  14.347  1.00  0.00    -0.349 OA
HETATM    3  C6  UNL     1      -7.004   7.277  15.216  1.00  0.00     0.167 C 
HETATM    4  C7  UNL     1      -5.904   7.956  16.035  1.00  0.00     0.100 C 
HETATM    5  C8  UNL     1      -4.635   8.253  15.241  1.00  0.00     0.129 C 
HETATM    6  C9  UNL     1      -4.826   8.073  13.737  1.00  0.00     0.040 C 
HETATM    7  C10 UNL     1      -3.601   8.470  12.922  1.00  0.00     0.015 C 
HETATM    8  C11 UNL     1      -7.931   8.238  14.442  1.00  0.00     0.082 C 
HETATM    9  C12 UNL     1      -9.301   8.107  15.113  1.00  0.00     0.009 C 
HETATM   10  C13 UNL     1      -9.434   9.143  16.249  1.00  0.00     0.020 C 
HETATM   11  C32 UNL     1      -9.193   6.701  15.692  1.00  0.00     0.183 C 
HETATM   12  O9  UNL     1      -7.851   6.603  16.174  1.00  0.00    -0.354 OA
ENDROOT
BRANCH   9  13
HETATM   13  C14 UNL     1     -10.492   8.220  14.146  1.00  0.00     0.133 C 
HETATM   14  C15 UNL     1     -10.619   7.118  13.107  1.00  0.00     0.036 C 
HETATM   15  C16 UNL     1     -12.073   7.251  12.708  1.00  0.00     0.043 C 
HETATM   16  C17 UNL     1     -12.766   7.631  14.026  1.00  0.00     0.084 C 
HETATM   17  C18 UNL     1     -13.285   6.376  14.736  1.00  0.00     0.049 C 
HETATM   18  O8  UNL     1     -11.736   8.194  14.866  1.00  0.00    -0.372 OA
BRANCH  16  19
HETATM   19  C19 UNL     1     -13.864   8.694  13.797  1.00  0.00     0.160 C 
HETATM   20  O4  UNL     1     -15.142   8.092  13.485  1.00  0.00    -0.375 OA
HETATM   21  C20 UNL     1     -16.179   8.939  14.010  1.00  0.00     0.152 C 
HETATM   22  C29 UNL     1     -15.497  10.206  14.519  1.00  0.00     0.041 C 
HETATM   23  C30 UNL     1     -14.140   9.674  14.941  1.00  0.00     0.016 C 
HETATM   24  C31 UNL     1     -13.104  10.771  15.125  1.00  0.00     0.012 C 
BRANCH  21  25
HETATM   25  C21 UNL     1     -17.357   9.191  13.036  1.00  0.00     0.158 C 
HETATM   26  O5  UNL     1     -17.032  10.408  12.342  1.00  0.00    -0.345 OA
HETATM   27  C22 UNL     1     -18.005  10.895  11.420  1.00  0.00     0.187 C 
HETATM   28  C24 UNL     1     -18.239   9.836  10.331  1.00  0.00     0.046 C 
HETATM   29  C25 UNL     1     -19.216  10.252   9.231  1.00  0.00     0.015 C 
HETATM   30  C26 UNL     1     -18.662   8.512  10.966  1.00  0.00     0.016 C 
HETATM   31  C27 UNL     1     -17.651   8.047  12.032  1.00  0.00     0.014 C 
HETATM   32  C28 UNL     1     -18.205   6.781  12.691  1.00  0.00     0.012 C 
BRANCH  27  33
HETATM   33  O6  UNL     1     -17.394  12.034  10.799  1.00  0.00    -0.363 OA
HETATM   34  H34 UNL     1     -16.459  11.776  10.719  1.00  0.00     0.213 HD
ENDBRANCH  27  33
BRANCH  27  35
HETATM   35  C23 UNL     1     -19.254  11.434  12.156  1.00  0.00     0.232 C 
BRANCH  35  36
HETATM   36  O7  UNL     1     -20.267  10.439  12.294  1.00  0.00    -0.396 OA
HETATM   37  H37 UNL     1     -20.297   9.989  11.425  1.00  0.00     0.209 HD
ENDBRANCH  35  36
ENDBRANCH  27  35
ENDBRANCH  21  25
ENDBRANCH  16  19
ENDBRANCH   9  13
BRANCH   1  38
HETATM   38  C3  UNL     1      -4.576   5.435  13.116  1.00  0.00     0.041 C 
HETATM   39  C4  UNL     1      -3.610   5.063  14.241  1.00  0.00     0.015 C 
BRANCH  38  40
HETATM   40  C2  UNL     1      -5.183   4.201  12.358  1.00  0.00     0.141 C 
BRANCH  40  41
HETATM   41  O1  UNL     1      -6.117   3.471  13.158  1.00  0.00    -0.389 OA
HETATM   42  C1  UNL     1      -7.473   3.738  12.815  1.00  0.00     0.202 C 
ENDBRANCH  40  41
BRANCH  40  43
HETATM   43  C33 UNL     1      -4.239   3.226  11.614  1.00  0.00     0.109 C 
HETATM   44  C34 UNL     1      -3.750   3.818  10.284  1.00  0.00     0.024 C 
BRANCH  43  45
HETATM   45  C35 UNL     1      -4.793   1.851  11.350  1.00  0.00     0.145 C 
HETATM   46  O10 UNL     1      -5.924   1.606  10.955  1.00  0.00    -0.650 OA
BRANCH  45  47
HETATM   47  O11 UNL     1      -3.963   0.838  11.643  1.00  0.00    -0.776 OA
HETATM   48  H60 UNL     1      -4.470   0.029  11.429  1.00  0.00     0.167 HD
ENDBRANCH  45  47
ENDBRANCH  43  45
ENDBRANCH  40  43
ENDBRANCH  38  40
ENDBRANCH   1  38
BRANCH   5  49
HETATM   49  O3  UNL     1      -4.223   9.595  15.518  1.00  0.00    -0.395 OA
HETATM   50  H13 UNL     1      -3.995   9.628  16.463  1.00  0.00     0.210 HD
ENDBRANCH   5  49
TORSDOF 13
ENDMDL
MODEL 5
REMARK minimizedAffinity -10.1350422
REMARK CNNscore 0.456060082
REMARK CNNaffinity 7.62130117
REMARK  13 active torsions:
REMARK  status: ('A' for Active; 'I' for Inactive)
REMARK    1  A    between atoms: O1_2  and  C2_3 
REMARK    2  A    between atoms: C2_3  and  C3_4 
REMARK    3  A    between atoms: C2_3  and  C33_42 
REMARK    4  A    between atoms: C3_4  and  C5_6 
REMARK    5  A    between atoms: C8_10  and  O3_11 
REMARK    6  A    between atoms: C12_15  and  C14_17 
REMARK    7  A    between atoms: C17_20  and  C19_22 
REMARK    8  A    between atoms: C20_24  and  C21_25 
REMARK    9  A    between atoms: C22_27  and  O6_28 
REMARK   10  A    between atoms: C22_27  and  C23_29 
REMARK   11  A    between atoms: C23_29  and  O7_30 
REMARK   12  A    between atoms: C33_42  and  C35_44 
REMARK   13  A    between atoms: C35_44  and  O11_46 
ROOT
HETATM    1  C5  UNL     1      -0.075   7.056  10.960  1.00  0.00     0.137 C 
HETATM    2  O2  UNL     1      -0.693   5.771  10.776  1.00  0.00    -0.349 OA
HETATM    3  C6  UNL     1      -1.043   5.026  11.935  1.00  0.00     0.167 C 
HETATM    4  C7  UNL     1       0.176   4.792  12.829  1.00  0.00     0.100 C 
HETATM    5  C8  UNL     1       1.097   6.004  12.948  1.00  0.00     0.129 C 
HETATM    6  C9  UNL     1       0.470   7.277  12.386  1.00  0.00     0.040 C 
HETATM    7  C10 UNL     1       1.332   8.516  12.596  1.00  0.00     0.015 C 
HETATM    8  C11 UNL     1      -2.262   5.655  12.641  1.00  0.00     0.082 C 
HETATM    9  C12 UNL     1      -3.335   4.561  12.649  1.00  0.00     0.009 C 
HETATM   10  C13 UNL     1      -3.221   3.718  13.936  1.00  0.00     0.020 C 
HETATM   11  C32 UNL     1      -2.902   3.741  11.440  1.00  0.00     0.183 C 
HETATM   12  O9  UNL     1      -1.474   3.714  11.504  1.00  0.00    -0.354 OA
ENDROOT
BRANCH   9  13
HETATM   13  C14 UNL     1      -4.772   5.084  12.480  1.00  0.00     0.133 C 
HETATM   14  C15 UNL     1      -5.783   4.097  11.919  1.00  0.00     0.036 C 
HETATM   15  C16 UNL     1      -7.088   4.729  12.353  1.00  0.00     0.043 C 
HETATM   16  C17 UNL     1      -6.750   5.324  13.729  1.00  0.00     0.084 C 
HETATM   17  C18 UNL     1      -7.097   4.327  14.840  1.00  0.00     0.049 C 
HETATM   18  O8  UNL     1      -5.316   5.491  13.746  1.00  0.00    -0.372 OA
BRANCH  16  19
HETATM   19  C19 UNL     1      -7.419   6.703  13.924  1.00  0.00     0.160 C 
HETATM   20  O4  UNL     1      -8.771   6.582  14.426  1.00  0.00    -0.375 OA
HETATM   21  C20 UNL     1      -9.046   7.723  15.258  1.00  0.00     0.152 C 
HETATM   22  C29 UNL     1      -7.856   8.668  15.117  1.00  0.00     0.041 C 
HETATM   23  C30 UNL     1      -6.721   7.695  14.860  1.00  0.00     0.016 C 
HETATM   24  C31 UNL     1      -5.482   8.366  14.292  1.00  0.00     0.012 C 
BRANCH  21  25
HETATM   25  C21 UNL     1     -10.425   8.382  15.007  1.00  0.00     0.158 C 
HETATM   26  O5  UNL     1     -10.144   9.753  14.677  1.00  0.00    -0.345 OA
HETATM   27  C22 UNL     1     -11.270  10.601  14.460  1.00  0.00     0.187 C 
HETATM   28  C24 UNL     1     -12.098  10.046  13.292  1.00  0.00     0.046 C 
HETATM   29  C25 UNL     1     -13.309  10.895  12.902  1.00  0.00     0.015 C 
HETATM   30  C26 UNL     1     -12.513   8.603  13.578  1.00  0.00     0.016 C 
HETATM   31  C27 UNL     1     -11.294   7.720  13.907  1.00  0.00     0.014 C 
HETATM   32  C28 UNL     1     -11.806   6.327  14.288  1.00  0.00     0.012 C 
BRANCH  27  33
HETATM   33  O6  UNL     1     -10.718  11.858  14.048  1.00  0.00    -0.363 OA
HETATM   34  H34 UNL     1      -9.951  11.604  13.504  1.00  0.00     0.213 HD
ENDBRANCH  27  33
BRANCH  27  35
HETATM   35  C23 UNL     1     -12.021  10.883  15.783  1.00  0.00     0.232 C 
BRANCH  35  36
HETATM   36  O7  UNL     1     -11.164  10.787  16.919  1.00  0.00    -0.396 OA
HETATM   37  H37 UNL     1     -10.623   9.986  16.758  1.00  0.00     0.209 HD
ENDBRANCH  35  36
ENDBRANCH  27  35
ENDBRANCH  21  25
ENDBRANCH  16  19
ENDBRANCH   9  13
BRANCH   1  38
HETATM   38  C3  UNL     1       0.799   7.315   9.686  1.00  0.00     0.041 C 
HETATM   39  C4  UNL     1       0.264   8.412   8.765  1.00  0.00     0.015 C 
BRANCH  38  40
HETATM   40  C2  UNL     1       2.366   7.253   9.764  1.00  0.00     0.141 C 
BRANCH  40  41
HETATM   41  O1  UNL     1       2.990   7.573   8.518  1.00  0.00    -0.389 OA
HETATM   42  C1  UNL     1       2.087   7.541   7.418  1.00  0.00     0.202 C 
ENDBRANCH  40  41
BRANCH  40  43
HETATM   43  C33 UNL     1       3.048   6.019  10.403  1.00  0.00     0.109 C 
HETATM   44  C34 UNL     1       4.443   6.363  10.946  1.00  0.00     0.024 C 
BRANCH  43  45
HETATM   45  C35 UNL     1       3.164   4.805   9.520  1.00  0.00     0.145 C 
HETATM   46  O10 UNL     1       3.380   4.821   8.316  1.00  0.00    -0.650 OA
BRANCH  45  47
HETATM   47  O11 UNL     1       2.948   3.632  10.136  1.00  0.00    -0.776 OA
HETATM   48  H60 UNL     1       3.049   2.959   9.433  1.00  0.00     0.167 HD
ENDBRANCH  45  47
ENDBRANCH  43  45
ENDBRANCH  40  43
ENDBRANCH  38  40
ENDBRANCH   1  38
BRANCH   5  49
HETATM   49  O3  UNL     1       1.427   6.195  14.328  1.00  0.00    -0.395 OA
HETATM   50  H13 UNL     1       1.932   5.412  14.606  1.00  0.00     0.210 HD
ENDBRANCH   5  49
TORSDOF 13
ENDMDL
MODEL 6
REMARK minimizedAffinity -8.49514294
REMARK CNNscore 0.44617492
REMARK CNNaffinity 7.80271196
REMARK  13 active torsions:
REMARK  status: ('A' for Active; 'I' for Inactive)
REMARK    1  A    between atoms: O1_2  and  C2_3 
REMARK    2  A    between atoms: C2_3  and  C3_4 
REMARK    3  A    between atoms: C2_3  and  C33_42 
REMARK    4  A    between atoms: C3_4  and  C5_6 
REMARK    5  A    between atoms: C8_10  and  O3_11 
REMARK    6  A    between atoms: C12_15  and  C14_17 
REMARK    7  A    between atoms: C17_20  and  C19_22 
REMARK    8  A    between atoms: C20_24  and  C21_25 
REMARK    9  A    between atoms: C22_27  and  O6_28 
REMARK   10  A    between atoms: C22_27  and  C23_29 
REMARK   11  A    between atoms: C23_29  and  O7_30 
REMARK   12  A    between atoms: C33_42  and  C35_44 
REMARK   13  A    between atoms: C35_44  and  O11_46 
ROOT
HETATM    1  C5  UNL     1     -16.972   2.579  14.281  1.00  0.00     0.137 C 
HETATM    2  O2  UNL     1     -16.998   3.869  13.645  1.00  0.00    -0.349 OA
HETATM    3  C6  UNL     1     -16.838   5.020  14.464  1.00  0.00     0.167 C 
HETATM    4  C7  UNL     1     -17.897   5.063  15.568  1.00  0.00     0.100 C 
HETATM    5  C8  UNL     1     -18.181   3.705  16.205  1.00  0.00     0.129 C 
HETATM    6  C9  UNL     1     -17.157   2.644  15.810  1.00  0.00     0.040 C 
HETATM    7  C10 UNL     1     -17.365   1.313  16.523  1.00  0.00     0.015 C 
HETATM    8  C11 UNL     1     -15.379   5.146  14.951  1.00  0.00     0.082 C 
HETATM    9  C12 UNL     1     -14.891   6.497  14.420  1.00  0.00     0.009 C 
HETATM   10  C13 UNL     1     -15.168   7.605  15.458  1.00  0.00     0.020 C 
HETATM   11  C32 UNL     1     -15.803   6.666  13.211  1.00  0.00     0.183 C 
HETATM   12  O9  UNL     1     -17.078   6.185  13.642  1.00  0.00    -0.354 OA
ENDROOT
BRANCH   9  13
HETATM   13  C14 UNL     1     -13.409   6.515  14.005  1.00  0.00     0.133 C 
HETATM   14  C15 UNL     1     -13.099   7.133  12.651  1.00  0.00     0.036 C 
HETATM   15  C16 UNL     1     -11.624   7.438  12.794  1.00  0.00     0.043 C 
HETATM   16  C17 UNL     1     -11.490   7.849  14.269  1.00  0.00     0.084 C 
HETATM   17  C18 UNL     1     -11.610   9.370  14.410  1.00  0.00     0.049 C 
HETATM   18  O8  UNL     1     -12.627   7.272  14.944  1.00  0.00    -0.372 OA
BRANCH  16  19
HETATM   19  C19 UNL     1     -10.195   7.284  14.894  1.00  0.00     0.160 C 
HETATM   20  O4  UNL     1      -9.270   6.810  13.886  1.00  0.00    -0.375 OA
HETATM   21  C20 UNL     1      -7.932   7.017  14.369  1.00  0.00     0.152 C 
HETATM   22  C29 UNL     1      -8.054   7.487  15.817  1.00  0.00     0.041 C 
HETATM   23  C30 UNL     1      -9.380   8.223  15.788  1.00  0.00     0.016 C 
HETATM   24  C31 UNL     1      -9.954   8.464  17.174  1.00  0.00     0.012 C 
BRANCH  21  25
HETATM   25  C21 UNL     1      -6.981   5.812  14.163  1.00  0.00     0.158 C 
HETATM   26  O5  UNL     1      -7.383   5.210  12.921  1.00  0.00    -0.345 OA
HETATM   27  C22 UNL     1      -6.691   4.025  12.534  1.00  0.00     0.187 C 
HETATM   28  C24 UNL     1      -5.195   4.343  12.385  1.00  0.00     0.046 C 
HETATM   29  C25 UNL     1      -4.334   3.173  11.907  1.00  0.00     0.015 C 
HETATM   30  C26 UNL     1      -4.649   4.928  13.688  1.00  0.00     0.016 C 
HETATM   31  C27 UNL     1      -5.468   6.149  14.146  1.00  0.00     0.014 C 
HETATM   32  C28 UNL     1      -4.926   6.600  15.506  1.00  0.00     0.012 C 
BRANCH  27  33
HETATM   33  O6  UNL     1      -7.201   3.701  11.234  1.00  0.00    -0.363 OA
HETATM   34  H34 UNL     1      -7.333   4.571  10.818  1.00  0.00     0.213 HD
ENDBRANCH  27  33
BRANCH  27  35
HETATM   35  C23 UNL     1      -7.068   2.832  13.445  1.00  0.00     0.232 C 
BRANCH  35  36
HETATM   36  O7  UNL     1      -7.905   1.890  12.777  1.00  0.00    -0.396 OA
HETATM   37  H37 UNL     1      -8.559   2.435  12.291  1.00  0.00     0.209 HD
ENDBRANCH  35  36
ENDBRANCH  27  35
ENDBRANCH  21  25
ENDBRANCH  16  19
ENDBRANCH   9  13
BRANCH   1  38
HETATM   38  C3  UNL     1     -17.824   1.623  13.378  1.00  0.00     0.041 C 
HETATM   39  C4  UNL     1     -18.879   2.330  12.528  1.00  0.00     0.015 C 
BRANCH  38  40
HETATM   40  C2  UNL     1     -17.161   0.385  12.676  1.00  0.00     0.141 C 
BRANCH  40  41
HETATM   41  O1  UNL     1     -18.048  -0.733  12.583  1.00  0.00    -0.389 OA
HETATM   42  C1  UNL     1     -18.497  -0.979  11.254  1.00  0.00     0.202 C 
ENDBRANCH  40  41
BRANCH  40  43
HETATM   43  C33 UNL     1     -15.756  -0.084  13.127  1.00  0.00     0.109 C 
HETATM   44  C34 UNL     1     -15.089  -0.970  12.064  1.00  0.00     0.024 C 
BRANCH  43  45
HETATM   45  C35 UNL     1     -15.697  -0.799  14.450  1.00  0.00     0.145 C 
HETATM   46  O10 UNL     1     -16.501  -1.634  14.843  1.00  0.00    -0.650 OA
BRANCH  45  47
HETATM   47  O11 UNL     1     -14.698  -0.416  15.259  1.00  0.00    -0.776 OA
HETATM   48  H60 UNL     1     -14.807  -0.959  16.066  1.00  0.00     0.167 HD
ENDBRANCH  45  47
ENDBRANCH  43  45
ENDBRANCH  40  43
ENDBRANCH  38  40
ENDBRANCH   1  38
BRANCH   5  49
HETATM   49  O3  UNL     1     -18.195   3.860  17.628  1.00  0.00    -0.395 OA
HETATM   50  H13 UNL     1     -18.941   4.447  17.838  1.00  0.00     0.210 HD
ENDBRANCH   5  49
TORSDOF 13
ENDMDL
MODEL 7
REMARK minimizedAffinity -8.2232933
REMARK CNNscore 0.388709813
REMARK CNNaffinity 7.71962881
REMARK  13 active torsions:
REMARK  status: ('A' for Active; 'I' for Inactive)
REMARK    1  A    between atoms: O1_2  and  C2_3 
REMARK    2  A    between atoms: C2_3  and  C3_4 
REMARK    3  A    between atoms: C2_3  and  C33_42 
REMARK    4  A    between atoms: C3_4  and  C5_6 
REMARK    5  A    between atoms: C8_10  and  O3_11 
REMARK    6  A    between atoms: C12_15  and  C14_17 
REMARK    7  A    between atoms: C17_20  and  C19_22 
REMARK    8  A    between atoms: C20_24  and  C21_25 
REMARK    9  A    between atoms: C22_27  and  O6_28 
REMARK   10  A    between atoms: C22_27  and  C23_29 
REMARK   11  A    between atoms: C23_29  and  O7_30 
REMARK   12  A    between atoms: C33_42  and  C35_44 
REMARK   13  A    between atoms: C35_44  and  O11_46 
ROOT
HETATM    1  C5  UNL     1      -5.786   6.717  13.445  1.00  0.00     0.137 C 
HETATM    2  O2  UNL     1      -6.778   6.355  14.422  1.00  0.00    -0.349 OA
HETATM    3  C6  UNL     1      -7.290   7.379  15.265  1.00  0.00     0.167 C 
HETATM    4  C7  UNL     1      -6.164   8.076  16.032  1.00  0.00     0.100 C 
HETATM    5  C8  UNL     1      -4.911   8.327  15.198  1.00  0.00     0.129 C 
HETATM    6  C9  UNL     1      -5.138   8.092  13.707  1.00  0.00     0.040 C 
HETATM    7  C10 UNL     1      -3.928   8.445  12.850  1.00  0.00     0.015 C 
HETATM    8  C11 UNL     1      -8.224   8.320  14.475  1.00  0.00     0.082 C 
HETATM    9  C12 UNL     1      -9.580   8.230  15.182  1.00  0.00     0.009 C 
HETATM   10  C13 UNL     1      -9.676   9.311  16.279  1.00  0.00     0.020 C 
HETATM   11  C32 UNL     1      -9.473   6.846  15.811  1.00  0.00     0.183 C 
HETATM   12  O9  UNL     1      -8.122   6.752  16.267  1.00  0.00    -0.354 OA
ENDROOT
BRANCH   9  13
HETATM   13  C14 UNL     1     -10.792   8.320  14.239  1.00  0.00     0.133 C 
HETATM   14  C15 UNL     1     -11.165   7.043  13.503  1.00  0.00     0.036 C 
HETATM   15  C16 UNL     1     -12.597   7.334  13.110  1.00  0.00     0.043 C 
HETATM   16  C17 UNL     1     -13.135   8.133  14.308  1.00  0.00     0.084 C 
HETATM   17  C18 UNL     1     -13.814   7.196  15.312  1.00  0.00     0.049 C 
HETATM   18  O8  UNL     1     -11.976   8.687  14.965  1.00  0.00    -0.372 OA
BRANCH  16  19
HETATM   19  C19 UNL     1     -14.051   9.289  13.845  1.00  0.00     0.160 C 
HETATM   20  O4  UNL     1     -13.312  10.517  13.646  1.00  0.00    -0.375 OA
HETATM   21  C20 UNL     1     -13.940  11.255  12.583  1.00  0.00     0.152 C 
HETATM   22  C29 UNL     1     -15.227  10.512  12.233  1.00  0.00     0.041 C 
HETATM   23  C30 UNL     1     -14.849   9.078  12.556  1.00  0.00     0.016 C 
HETATM   24  C31 UNL     1     -16.055   8.161  12.678  1.00  0.00     0.012 C 
BRANCH  21  25
HETATM   25  C21 UNL     1     -14.129  12.764  12.873  1.00  0.00     0.158 C 
HETATM   26  O5  UNL     1     -13.940  13.427  11.612  1.00  0.00    -0.345 OA
HETATM   27  C22 UNL     1     -14.001  14.852  11.624  1.00  0.00     0.187 C 
HETATM   28  C24 UNL     1     -15.384  15.291  12.131  1.00  0.00     0.046 C 
HETATM   29  C25 UNL     1     -15.616  16.802  12.136  1.00  0.00     0.015 C 
HETATM   30  C26 UNL     1     -15.654  14.692  13.511  1.00  0.00     0.016 C 
HETATM   31  C27 UNL     1     -15.488  13.160  13.505  1.00  0.00     0.014 C 
HETATM   32  C28 UNL     1     -15.665  12.658  14.941  1.00  0.00     0.012 C 
BRANCH  27  33
HETATM   33  O6  UNL     1     -13.894  15.243  10.249  1.00  0.00    -0.363 OA
HETATM   34  H34 UNL     1     -14.389  14.552   9.776  1.00  0.00     0.213 HD
ENDBRANCH  27  33
BRANCH  27  35
HETATM   35  C23 UNL     1     -12.768  15.459  12.334  1.00  0.00     0.232 C 
BRANCH  35  36
HETATM   36  O7  UNL     1     -11.546  14.888  11.869  1.00  0.00    -0.396 OA
HETATM   37  H37 UNL     1     -11.724  13.926  11.811  1.00  0.00     0.209 HD
ENDBRANCH  35  36
ENDBRANCH  27  35
ENDBRANCH  21  25
ENDBRANCH  16  19
ENDBRANCH   9  13
BRANCH   1  38
HETATM   38  C3  UNL     1      -4.931   5.431  13.183  1.00  0.00     0.041 C 
HETATM   39  C4  UNL     1      -3.885   5.137  14.259  1.00  0.00     0.015 C 
BRANCH  38  40
HETATM   40  C2  UNL     1      -5.588   4.147  12.561  1.00  0.00     0.141 C 
BRANCH  40  41
HETATM   41  O1  UNL     1      -6.478   3.492  13.469  1.00  0.00    -0.389 OA
HETATM   42  C1  UNL     1      -7.835   3.526  13.040  1.00  0.00     0.202 C 
ENDBRANCH  40  41
BRANCH  40  43
HETATM   43  C33 UNL     1      -4.694   3.106  11.844  1.00  0.00     0.109 C 
HETATM   44  C34 UNL     1      -3.578   3.783  11.035  1.00  0.00     0.024 C 
BRANCH  43  45
HETATM   45  C35 UNL     1      -5.412   2.133  10.948  1.00  0.00     0.145 C 
HETATM   46  O10 UNL     1      -5.805   1.022  11.277  1.00  0.00    -0.650 OA
BRANCH  45  47
HETATM   47  O11 UNL     1      -5.560   2.534   9.676  1.00  0.00    -0.776 OA
HETATM   48  H60 UNL     1      -6.027   1.796   9.234  1.00  0.00     0.167 HD
ENDBRANCH  45  47
ENDBRANCH  43  45
ENDBRANCH  40  43
ENDBRANCH  38  40
ENDBRANCH   1  38
BRANCH   5  49
HETATM   49  O3  UNL     1      -4.478   9.675  15.415  1.00  0.00    -0.395 OA
HETATM   50  H13 UNL     1      -4.228   9.741  16.353  1.00  0.00     0.210 HD
ENDBRANCH   5  49
TORSDOF 13
ENDMDL
MODEL 8
REMARK minimizedAffinity -9.53456116
REMARK CNNscore 0.352681488
REMARK CNNaffinity 6.61687851
REMARK  13 active torsions:
REMARK  status: ('A' for Active; 'I' for Inactive)
REMARK    1  A    between atoms: O1_2  and  C2_3 
REMARK    2  A    between atoms: C2_3  and  C3_4 
REMARK    3  A    between atoms: C2_3  and  C33_42 
REMARK    4  A    between atoms: C3_4  and  C5_6 
REMARK    5  A    between atoms: C8_10  and  O3_11 
REMARK    6  A    between atoms: C12_15  and  C14_17 
REMARK    7  A    between atoms: C17_20  and  C19_22 
REMARK    8  A    between atoms: C20_24  and  C21_25 
REMARK    9  A    between atoms: C22_27  and  O6_28 
REMARK   10  A    between atoms: C22_27  and  C23_29 
REMARK   11  A    between atoms: C23_29  and  O7_30 
REMARK   12  A    between atoms: C33_42  and  C35_44 
REMARK   13  A    between atoms: C35_44  and  O11_46 
ROOT
HETATM    1  C5  UNL     1      -5.695   5.046  13.881  1.00  0.00     0.137 C 
HETATM    2  O2  UNL     1      -5.138   6.211  13.248  1.00  0.00    -0.349 OA
HETATM    3  C6  UNL     1      -5.341   7.471  13.874  1.00  0.00     0.167 C 
HETATM    4  C7  UNL     1      -6.831   7.758  14.068  1.00  0.00     0.100 C 
HETATM    5  C8  UNL     1      -7.641   6.543  14.514  1.00  0.00     0.129 C 
HETATM    6  C9  UNL     1      -6.760   5.374  14.947  1.00  0.00     0.040 C 
HETATM    7  C10 UNL     1      -7.552   4.195  15.498  1.00  0.00     0.015 C 
HETATM    8  C11 UNL     1      -4.480   7.593  15.149  1.00  0.00     0.082 C 
HETATM    9  C12 UNL     1      -3.576   8.807  14.912  1.00  0.00     0.009 C 
HETATM   10  C13 UNL     1      -4.259  10.086  15.440  1.00  0.00     0.020 C 
HETATM   11  C32 UNL     1      -3.528   8.824  13.389  1.00  0.00     0.183 C 
HETATM   12  O9  UNL     1      -4.856   8.495  12.975  1.00  0.00    -0.354 OA
ENDROOT
BRANCH   9  13
HETATM   13  C14 UNL     1      -2.166   8.671  15.511  1.00  0.00     0.133 C 
HETATM   14  C15 UNL     1      -1.405   7.404  15.155  1.00  0.00     0.036 C 
HETATM   15  C16 UNL     1       0.020   7.817  15.454  1.00  0.00     0.043 C 
HETATM   16  C17 UNL     1       0.052   9.296  15.036  1.00  0.00     0.084 C 
HETATM   17  C18 UNL     1       0.531   9.430  13.587  1.00  0.00     0.049 C 
HETATM   18  O8  UNL     1      -1.319   9.746  15.069  1.00  0.00    -0.372 OA
BRANCH  16  19
HETATM   19  C19 UNL     1       0.881  10.142  16.028  1.00  0.00     0.160 C 
HETATM   20  O4  UNL     1       0.846   9.594  17.367  1.00  0.00    -0.375 OA
HETATM   21  C20 UNL     1       2.102   9.881  18.005  1.00  0.00     0.152 C 
HETATM   22  C29 UNL     1       2.876  10.798  17.061  1.00  0.00     0.041 C 
HETATM   23  C30 UNL     1       2.366  10.343  15.707  1.00  0.00     0.016 C 
HETATM   24  C31 UNL     1       2.664  11.336  14.597  1.00  0.00     0.012 C 
BRANCH  21  25
HETATM   25  C21 UNL     1       1.979  10.410  19.456  1.00  0.00     0.158 C 
HETATM   26  O5  UNL     1       3.114   9.879  20.160  1.00  0.00    -0.345 OA
HETATM   27  C22 UNL     1       3.197  10.174  21.552  1.00  0.00     0.187 C 
HETATM   28  C24 UNL     1       3.257  11.697  21.740  1.00  0.00     0.046 C 
HETATM   29  C25 UNL     1       3.415  12.161  23.188  1.00  0.00     0.015 C 
HETATM   30  C26 UNL     1       2.045  12.358  21.083  1.00  0.00     0.016 C 
HETATM   31  C27 UNL     1       1.912  11.951  19.604  1.00  0.00     0.014 C 
HETATM   32  C28 UNL     1       0.618  12.563  19.058  1.00  0.00     0.012 C 
BRANCH  27  33
HETATM   33  O6  UNL     1       4.454   9.630  21.976  1.00  0.00    -0.363 OA
HETATM   34  H34 UNL     1       5.041   9.793  21.216  1.00  0.00     0.213 HD
ENDBRANCH  27  33
BRANCH  27  35
HETATM   35  C23 UNL     1       2.115   9.410  22.352  1.00  0.00     0.232 C 
BRANCH  35  36
HETATM   36  O7  UNL     1       2.007   8.047  21.944  1.00  0.00    -0.396 OA
HETATM   37  H37 UNL     1       2.046   8.075  20.965  1.00  0.00     0.209 HD
ENDBRANCH  35  36
ENDBRANCH  27  35
ENDBRANCH  21  25
ENDBRANCH  16  19
ENDBRANCH   9  13
BRANCH   1  38
HETATM   38  C3  UNL     1      -5.952   4.002  12.741  1.00  0.00     0.041 C 
HETATM   39  C4  UNL     1      -7.356   4.060  12.137  1.00  0.00     0.015 C 
BRANCH  38  40
HETATM   40  C2  UNL     1      -4.824   3.654  11.706  1.00  0.00     0.141 C 
BRANCH  40  41
HETATM   41  O1  UNL     1      -5.223   2.638  10.781  1.00  0.00    -0.389 OA
HETATM   42  C1  UNL     1      -5.948   1.578  11.397  1.00  0.00     0.202 C 
ENDBRANCH  40  41
BRANCH  40  43
HETATM   43  C33 UNL     1      -3.386   3.383  12.210  1.00  0.00     0.109 C 
HETATM   44  C34 UNL     1      -2.602   4.689  12.408  1.00  0.00     0.024 C 
BRANCH  43  45
HETATM   45  C35 UNL     1      -2.559   2.452  11.364  1.00  0.00     0.145 C 
HETATM   46  O10 UNL     1      -1.617   2.784  10.657  1.00  0.00    -0.650 OA
BRANCH  45  47
HETATM   47  O11 UNL     1      -2.960   1.172  11.369  1.00  0.00    -0.776 OA
HETATM   48  H60 UNL     1      -2.335   0.712  10.772  1.00  0.00     0.167 HD
ENDBRANCH  45  47
ENDBRANCH  43  45
ENDBRANCH  40  43
ENDBRANCH  38  40
ENDBRANCH   1  38
BRANCH   5  49
HETATM   49  O3  UNL     1      -8.494   6.933  15.596  1.00  0.00    -0.395 OA
HETATM   50  H13 UNL     1      -9.117   7.589  15.239  1.00  0.00     0.210 HD
ENDBRANCH   5  49
TORSDOF 13
ENDMDL
MODEL 9
REMARK minimizedAffinity -9.18614197
REMARK CNNscore 0.272607416
REMARK CNNaffinity 6.30076599
REMARK  13 active torsions:
REMARK  status: ('A' for Active; 'I' for Inactive)
REMARK    1  A    between atoms: O1_2  and  C2_3 
REMARK    2  A    between atoms: C2_3  and  C3_4 
REMARK    3  A    between atoms: C2_3  and  C33_42 
REMARK    4  A    between atoms: C3_4  and  C5_6 
REMARK    5  A    between atoms: C8_10  and  O3_11 
REMARK    6  A    between atoms: C12_15  and  C14_17 
REMARK    7  A    between atoms: C17_20  and  C19_22 
REMARK    8  A    between atoms: C20_24  and  C21_25 
REMARK    9  A    between atoms: C22_27  and  O6_28 
REMARK   10  A    between atoms: C22_27  and  C23_29 
REMARK   11  A    between atoms: C23_29  and  O7_30 
REMARK   12  A    between atoms: C33_42  and  C35_44 
REMARK   13  A    between atoms: C35_44  and  O11_46 
ROOT
HETATM    1  C5  UNL     1      -4.037   6.276  14.493  1.00  0.00     0.137 C 
HETATM    2  O2  UNL     1      -3.253   7.350  13.946  1.00  0.00    -0.349 OA
HETATM    3  C6  UNL     1      -3.354   8.630  14.557  1.00  0.00     0.167 C 
HETATM    4  C7  UNL     1      -4.804   9.120  14.572  1.00  0.00     0.100 C 
HETATM    5  C8  UNL     1      -5.821   8.032  14.902  1.00  0.00     0.129 C 
HETATM    6  C9  UNL     1      -5.169   6.754  15.426  1.00  0.00     0.040 C 
HETATM    7  C10 UNL     1      -6.177   5.699  15.863  1.00  0.00     0.015 C 
HETATM    8  C11 UNL     1      -2.646   8.638  15.928  1.00  0.00     0.082 C 
HETATM    9  C12 UNL     1      -1.562   9.714  15.816  1.00  0.00     0.009 C 
HETATM   10  C13 UNL     1      -2.122  11.078  16.273  1.00  0.00     0.020 C 
HETATM   11  C32 UNL     1      -1.327   9.716  14.311  1.00  0.00     0.183 C 
HETATM   12  O9  UNL     1      -2.628   9.572  13.735  1.00  0.00    -0.354 OA
ENDROOT
BRANCH   9  13
HETATM   13  C14 UNL     1      -0.267   9.388  16.581  1.00  0.00     0.133 C 
HETATM   14  C15 UNL     1       0.785   8.604  15.813  1.00  0.00     0.036 C 
HETATM   15  C16 UNL     1       2.028   8.900  16.624  1.00  0.00     0.043 C 
HETATM   16  C17 UNL     1       1.820  10.357  17.067  1.00  0.00     0.084 C 
HETATM   17  C18 UNL     1       2.485  11.316  16.074  1.00  0.00     0.049 C 
HETATM   18  O8  UNL     1       0.398  10.594  16.992  1.00  0.00    -0.372 OA
BRANCH  16  19
HETATM   19  C19 UNL     1       2.289  10.574  18.523  1.00  0.00     0.160 C 
HETATM   20  O4  UNL     1       3.621  11.138  18.584  1.00  0.00    -0.375 OA
HETATM   21  C20 UNL     1       3.703  11.975  19.750  1.00  0.00     0.152 C 
HETATM   22  C29 UNL     1       2.405  11.774  20.529  1.00  0.00     0.041 C 
HETATM   23  C30 UNL     1       1.423  11.471  19.413  1.00  0.00     0.016 C 
HETATM   24  C31 UNL     1       0.133  10.842  19.913  1.00  0.00     0.012 C 
BRANCH  21  25
HETATM   25  C21 UNL     1       4.991  11.783  20.588  1.00  0.00     0.158 C 
HETATM   26  O5  UNL     1       5.773  12.970  20.375  1.00  0.00    -0.345 OA
HETATM   27  C22 UNL     1       7.054  13.011  20.998  1.00  0.00     0.187 C 
HETATM   28  C24 UNL     1       6.877  12.889  22.519  1.00  0.00     0.046 C 
HETATM   29  C25 UNL     1       8.172  12.984  23.327  1.00  0.00     0.015 C 
HETATM   30  C26 UNL     1       6.113  11.609  22.860  1.00  0.00     0.016 C 
HETATM   31  C27 UNL     1       4.774  11.533  22.103  1.00  0.00     0.014 C 
HETATM   32  C28 UNL     1       4.130  10.178  22.413  1.00  0.00     0.012 C 
BRANCH  27  33
HETATM   33  O6  UNL     1       7.564  14.322  20.721  1.00  0.00    -0.363 OA
HETATM   34  H34 UNL     1       6.774  14.889  20.767  1.00  0.00     0.213 HD
ENDBRANCH  27  33
BRANCH  27  35
HETATM   35  C23 UNL     1       8.037  12.024  20.324  1.00  0.00     0.232 C 
BRANCH  35  36
HETATM   36  O7  UNL     1       9.254  12.659  19.936  1.00  0.00    -0.396 OA
HETATM   37  H37 UNL     1       8.977  13.511  19.540  1.00  0.00     0.209 HD
ENDBRANCH  35  36
ENDBRANCH  27  35
ENDBRANCH  21  25
ENDBRANCH  16  19
ENDBRANCH   9  13
BRANCH   1  38
HETATM   38  C3  UNL     1      -4.296   5.273  13.318  1.00  0.00     0.041 C 
HETATM   39  C4  UNL     1      -3.312   4.104  13.257  1.00  0.00     0.015 C 
BRANCH  38  40
HETATM   40  C2  UNL     1      -5.760   4.899  12.893  1.00  0.00     0.141 C 
BRANCH  40  41
HETATM   41  O1  UNL     1      -6.743   5.722  13.528  1.00  0.00    -0.389 OA
HETATM   42  C1  UNL     1      -7.743   6.190  12.628  1.00  0.00     0.202 C 
ENDBRANCH  40  41
BRANCH  40  43
HETATM   43  C33 UNL     1      -6.206   3.417  12.920  1.00  0.00     0.109 C 
HETATM   44  C34 UNL     1      -6.046   2.754  11.544  1.00  0.00     0.024 C 
BRANCH  43  45
HETATM   45  C35 UNL     1      -7.606   3.163  13.413  1.00  0.00     0.145 C 
HETATM   46  O10 UNL     1      -8.552   2.818  12.717  1.00  0.00    -0.650 OA
BRANCH  45  47
HETATM   47  O11 UNL     1      -7.801   3.403  14.718  1.00  0.00    -0.776 OA
HETATM   48  H60 UNL     1      -8.747   3.203  14.870  1.00  0.00     0.167 HD
ENDBRANCH  45  47
ENDBRANCH  43  45
ENDBRANCH  40  43
ENDBRANCH  38  40
ENDBRANCH   1  38
BRANCH   5  49
HETATM   49  O3  UNL     1      -6.738   8.541  15.878  1.00  0.00    -0.395 OA
HETATM   50  H13 UNL     1      -7.216   9.275  15.455  1.00  0.00     0.210 HD
ENDBRANCH   5  49
TORSDOF 13
ENDMDL
