MODEL 1
REMARK minimizedAffinity -8.63136482
REMARK CNNscore 0.620307684
REMARK CNNaffinity 7.57036591
REMARK  10 active torsions:
REMARK  status: ('A' for Active; 'I' for Inactive)
REMARK    1  A    between atoms: C2_2  and  C3_3 
REMARK    2  A    between atoms: C5_5  and  S1_6 
REMARK    3  A    between atoms: C14_18  and  C15_19 
REMARK    4  A    between atoms: C15_19  and  O4_20 
REMARK    5  A    between atoms: C21_26  and  O5_27 
REMARK    6  A    between atoms: C33_40  and  C34_41 
REMARK    7  A    between atoms: C33_40  and  N1_49 
REMARK    8  A    between atoms: C34_41  and  C35_42 
REMARK    9  A    between atoms: C35_42  and  C36_43 
REMARK   10  A    between atoms: C36_43  and  O7_44 
REMARK       I    between atoms: C41_51  and  N2_52 
REMARK       I    between atoms: C41_51  and  N3_53 
ROOT
HETATM    1  C3  UNL     1     -14.772  44.746 -24.037  1.00  0.00     0.019 C 
HETATM    2  C4  UNL     1     -15.906  45.418 -24.855  1.00  0.00     0.034 C 
HETATM    3  C5  UNL     1     -17.116  44.520 -25.189  1.00  0.00     0.157 C 
HETATM    4  C6  UNL     1     -16.859  43.383 -26.249  1.00  0.00     0.121 A 
HETATM    5  C7  UNL     1     -17.914  42.287 -26.099  1.00  0.00     0.005 C 
HETATM    6  C8  UNL     1     -18.098  41.374 -27.069  1.00  0.00    -0.048 C 
HETATM    7  C9  UNL     1     -17.103  41.318 -28.187  1.00  0.00     0.044 C 
HETATM    8  C10 UNL     1     -17.093  42.701 -28.833  1.00  0.00     0.019 C 
HETATM    9  C11 UNL     1     -18.414  43.000 -29.622  1.00  0.00     0.039 C 
HETATM   10  C12 UNL     1     -19.759  42.568 -28.987  1.00  0.00     0.123 C 
HETATM   11  C13 UNL     1     -20.961  42.827 -29.932  1.00  0.00     0.039 C 
HETATM   12  C14 UNL     1     -21.145  41.806 -31.099  1.00  0.00     0.023 C 
HETATM   13  C16 UNL     1     -22.258  40.755 -30.824  1.00  0.00     0.101 C 
HETATM   14  C17 UNL     1     -21.868  39.777 -29.803  1.00  0.00    -0.101 C 
HETATM   15  C18 UNL     1     -21.363  39.108 -28.940  1.00  0.00    -0.066 C 
HETATM   16  C19 UNL     1     -20.562  38.521 -27.903  1.00  0.00     0.029 A 
HETATM   17  C20 UNL     1     -20.718  37.153 -27.646  1.00  0.00     0.057 A 
HETATM   18  C21 UNL     1     -19.975  36.548 -26.642  1.00  0.00     0.067 A 
HETATM   19  C22 UNL     1     -19.065  37.280 -25.893  1.00  0.00     0.037 A 
HETATM   20  C23 UNL     1     -18.893  38.643 -26.150  1.00  0.00     0.014 A 
HETATM   21  C24 UNL     1     -19.621  39.292 -27.168  1.00  0.00    -0.006 A 
HETATM   22  C25 UNL     1     -19.467  40.804 -27.358  1.00  0.00     0.185 C 
HETATM   23  O6  UNL     1     -19.728  41.165 -28.721  1.00  0.00    -0.371 OA
HETATM   24  C26 UNL     1     -16.716  43.824 -27.777  1.00  0.00     0.115 A 
HETATM   25  C27 UNL     1     -15.295  44.316 -28.101  1.00  0.00    -0.035 A 
HETATM   26  C28 UNL     1     -14.207  43.437 -28.170  1.00  0.00     0.010 A 
HETATM   27  C29 UNL     1     -12.916  43.902 -28.446  1.00  0.00     0.012 A 
HETATM   28  C30 UNL     1     -12.646  45.275 -28.604  1.00  0.00    -0.003 A 
HETATM   29  C31 UNL     1     -13.751  46.147 -28.567  1.00  0.00     0.012 A 
HETATM   30  C32 UNL     1     -15.053  45.675 -28.340  1.00  0.00     0.010 A 
HETATM   31  C33 UNL     1     -11.163  45.763 -28.671  1.00  0.00     0.170 C 
HETATM   32  O8  UNL     1     -10.579  46.166 -27.364  1.00  0.00    -0.316 OA
HETATM   33  C42 UNL     1     -11.341  45.880 -26.263  1.00  0.00     0.072 C 
HETATM   34  C43 UNL     1     -11.401  44.582 -25.757  1.00  0.00     0.037 C 
HETATM   35  C44 UNL     1     -12.450  44.239 -24.906  1.00  0.00     0.010 C 
HETATM   36  C45 UNL     1     -13.411  45.200 -24.556  1.00  0.00    -0.054 C 
HETATM   37  C46 UNL     1     -13.170  46.548 -24.875  1.00  0.00     0.010 C 
HETATM   38  C47 UNL     1     -12.130  46.892 -25.733  1.00  0.00     0.037 C 
HETATM   39 NA1  UNL     1     -15.618  44.121 -28.179  1.00  0.00    -0.404 Na
ATOM     40  HA1 UNL     1     -14.854  44.416 -28.786  1.00  0.00     0.154 HD
ENDROOT
BRANCH  31  41
HETATM   41  C34 UNL     1     -11.041  47.078 -29.514  1.00  0.00     0.070 C 
BRANCH  41  42
HETATM   42  C35 UNL     1      -9.986  48.082 -29.012  1.00  0.00     0.043 C 
BRANCH  42  43
HETATM   43  C36 UNL     1      -9.004  48.526 -30.103  1.00  0.00     0.058 C 
HETATM   44  C37 UNL     1      -9.326  47.981 -31.495  1.00  0.00     0.038 C 
HETATM   45  C38 UNL     1      -8.013  48.091 -32.267  1.00  0.00     0.003 C 
HETATM   46  C39 UNL     1      -6.901  48.096 -31.219  1.00  0.00     0.003 C 
HETATM   47  C40 UNL     1      -7.593  47.983 -29.861  1.00  0.00     0.038 C 
BRANCH  43  48
HETATM   48  O7  UNL     1      -8.950  49.954 -30.166  1.00  0.00    -0.390 OA
HETATM   49  H40 UNL     1      -8.776  50.276 -29.266  1.00  0.00     0.210 HD
ENDBRANCH  43  48
ENDBRANCH  42  43
ENDBRANCH  41  42
ENDBRANCH  31  41
BRANCH  31  50
HETATM   50  N1  UNL     1     -10.370  44.772 -29.442  1.00  0.00    -0.336 N 
HETATM   51  C41 UNL     1     -10.577  44.519 -30.671  1.00  0.00     0.124 C 
HETATM   52  N2  UNL     1     -11.460  45.033 -31.547  1.00  0.00    -0.279 NA
HETATM   53  N3  UNL     1      -9.801  43.605 -31.295  1.00  0.00    -0.279 NA
HETATM   54  H49 UNL     1     -12.177  45.599 -31.091  1.00  0.00     0.126 HD
HETATM   55  H50 UNL     1     -11.886  44.327 -32.135  1.00  0.00     0.126 HD
HETATM   56  H51 UNL     1      -9.010  43.367 -30.701  1.00  0.00     0.126 HD
HETATM   57  H52 UNL     1      -9.482  43.935 -32.198  1.00  0.00     0.126 HD
ATOM     58  H1  UNL     1      -9.623  44.270 -28.962  1.00  0.00     0.165 HD
ENDBRANCH  31  50
BRANCH   1  59
HETATM   59  C2  UNL     1     -14.926  44.884 -22.506  1.00  0.00     0.005 C 
HETATM   60  C1  UNL     1     -15.713  46.092 -22.011  1.00  0.00     0.006 C 
ENDBRANCH   1  59
BRANCH   3  61
HETATM   61  S1  UNL     1     -18.536  45.596 -25.576  1.00  0.00     0.108 S 
HETATM   62  O1  UNL     1     -19.617  44.993 -24.788  1.00  0.00    -0.595 OA
HETATM   63  O2  UNL     1     -18.729  45.474 -27.015  1.00  0.00    -0.595 OA
HETATM   64  O3  UNL     1     -18.122  46.923 -25.131  1.00  0.00    -0.595 OA
ENDBRANCH   3  61
BRANCH  12  65
HETATM   65  C15 UNL     1     -21.500  42.543 -32.402  1.00  0.00     0.169 C 
BRANCH  65  66
HETATM   66  O4  UNL     1     -21.991  43.858 -32.166  1.00  0.00    -0.400 OA
HETATM   67  H23 UNL     1     -21.614  44.181 -31.332  1.00  0.00     0.209 HD
ENDBRANCH  65  66
ENDBRANCH  12  65
BRANCH  18  68
HETATM   68  O5  UNL     1     -20.176  35.218 -26.410  1.00  0.00    -0.361 OA
HETATM   69  H27 UNL     1     -19.779  34.998 -25.547  1.00  0.00     0.217 HD
ENDBRANCH  18  68
TORSDOF 10
ENDMDL
MODEL 2
REMARK minimizedAffinity -7.74128151
REMARK CNNscore 0.524626672
REMARK CNNaffinity 7.20772409
REMARK  10 active torsions:
REMARK  status: ('A' for Active; 'I' for Inactive)
REMARK    1  A    between atoms: C2_2  and  C3_3 
REMARK    2  A    between atoms: C5_5  and  S1_6 
REMARK    3  A    between atoms: C14_18  and  C15_19 
REMARK    4  A    between atoms: C15_19  and  O4_20 
REMARK    5  A    between atoms: C21_26  and  O5_27 
REMARK    6  A    between atoms: C33_40  and  C34_41 
REMARK    7  A    between atoms: C33_40  and  N1_49 
REMARK    8  A    between atoms: C34_41  and  C35_42 
REMARK    9  A    between atoms: C35_42  and  C36_43 
REMARK   10  A    between atoms: C36_43  and  O7_44 
REMARK       I    between atoms: C41_51  and  N2_52 
REMARK       I    between atoms: C41_51  and  N3_53 
ROOT
HETATM    1  C3  UNL     1     -16.338  45.714 -22.340  1.00  0.00     0.019 C 
HETATM    2  C4  UNL     1     -17.103  46.153 -23.617  1.00  0.00     0.034 C 
HETATM    3  C5  UNL     1     -18.337  45.303 -23.987  1.00  0.00     0.157 C 
HETATM    4  C6  UNL     1     -18.037  43.851 -24.520  1.00  0.00     0.121 A 
HETATM    5  C7  UNL     1     -19.273  42.969 -24.346  1.00  0.00     0.005 C 
HETATM    6  C8  UNL     1     -19.377  41.795 -24.994  1.00  0.00    -0.048 C 
HETATM    7  C9  UNL     1     -18.167  41.269 -25.704  1.00  0.00     0.044 C 
HETATM    8  C10 UNL     1     -17.756  42.335 -26.717  1.00  0.00     0.019 C 
HETATM    9  C11 UNL     1     -18.773  42.453 -27.903  1.00  0.00     0.039 C 
HETATM   10  C12 UNL     1     -20.286  42.385 -27.581  1.00  0.00     0.123 C 
HETATM   11  C13 UNL     1     -21.158  42.402 -28.862  1.00  0.00     0.039 C 
HETATM   12  C14 UNL     1     -21.232  41.058 -29.655  1.00  0.00     0.023 C 
HETATM   13  C16 UNL     1     -22.548  40.268 -29.399  1.00  0.00     0.101 C 
HETATM   14  C17 UNL     1     -22.595  39.676 -28.058  1.00  0.00    -0.101 C 
HETATM   15  C18 UNL     1     -22.440  39.308 -26.923  1.00  0.00    -0.066 C 
HETATM   16  C19 UNL     1     -22.031  39.052 -25.570  1.00  0.00     0.029 A 
HETATM   17  C20 UNL     1     -22.485  37.878 -24.957  1.00  0.00     0.057 A 
HETATM   18  C21 UNL     1     -22.126  37.598 -23.646  1.00  0.00     0.067 A 
HETATM   19  C22 UNL     1     -21.309  38.464 -22.933  1.00  0.00     0.037 A 
HETATM   20  C23 UNL     1     -20.842  39.633 -23.541  1.00  0.00     0.014 A 
HETATM   21  C24 UNL     1     -21.175  39.947 -24.874  1.00  0.00    -0.006 A 
HETATM   22  C25 UNL     1     -20.714  41.280 -25.472  1.00  0.00     0.185 C 
HETATM   23  O6  UNL     1     -20.569  41.166 -26.895  1.00  0.00    -0.371 OA
HETATM   24  C26 UNL     1     -17.452  43.719 -26.001  1.00  0.00     0.115 A 
HETATM   25  C27 UNL     1     -15.931  43.944 -26.039  1.00  0.00    -0.035 A 
HETATM   26  C28 UNL     1     -15.032  43.006 -25.516  1.00  0.00     0.010 A 
HETATM   27  C29 UNL     1     -13.652  43.235 -25.539  1.00  0.00     0.012 A 
HETATM   28  C30 UNL     1     -13.113  44.438 -26.031  1.00  0.00    -0.003 A 
HETATM   29  C31 UNL     1     -14.021  45.360 -26.587  1.00  0.00     0.012 A 
HETATM   30  C32 UNL     1     -15.402  45.109 -26.609  1.00  0.00     0.010 A 
HETATM   31  C33 UNL     1     -11.595  44.744 -25.817  1.00  0.00     0.170 C 
HETATM   32  O8  UNL     1     -11.282  45.525 -24.592  1.00  0.00    -0.316 OA
HETATM   33  C42 UNL     1     -12.326  45.706 -23.724  1.00  0.00     0.072 C 
HETATM   34  C43 UNL     1     -12.736  44.675 -22.879  1.00  0.00     0.037 C 
HETATM   35  C44 UNL     1     -14.003  44.740 -22.303  1.00  0.00     0.010 C 
HETATM   36  C45 UNL     1     -14.834  45.841 -22.561  1.00  0.00    -0.054 C 
HETATM   37  C46 UNL     1     -14.288  46.968 -23.200  1.00  0.00     0.010 C 
HETATM   38  C47 UNL     1     -13.028  46.903 -23.785  1.00  0.00     0.037 C 
HETATM   39 NA1  UNL     1     -16.255  43.763 -26.142  1.00  0.00    -0.404 Na
ATOM     40  HA1 UNL     1     -15.327  43.762 -26.564  1.00  0.00     0.154 HD
ENDROOT
BRANCH  31  41
HETATM   41  C34 UNL     1     -11.041  45.668 -26.956  1.00  0.00     0.070 C 
BRANCH  41  42
HETATM   42  C35 UNL     1     -10.058  46.759 -26.492  1.00  0.00     0.043 C 
BRANCH  42  43
HETATM   43  C36 UNL     1      -8.619  46.519 -26.965  1.00  0.00     0.058 C 
HETATM   44  C37 UNL     1      -7.981  47.719 -27.666  1.00  0.00     0.038 C 
HETATM   45  C38 UNL     1      -6.831  47.125 -28.478  1.00  0.00     0.003 C 
HETATM   46  C39 UNL     1      -7.189  45.660 -28.716  1.00  0.00     0.003 C 
HETATM   47  C40 UNL     1      -8.542  45.434 -28.043  1.00  0.00     0.038 C 
BRANCH  43  48
HETATM   48  O7  UNL     1      -7.795  46.137 -25.859  1.00  0.00    -0.390 OA
HETATM   49  H40 UNL     1      -8.237  45.396 -25.413  1.00  0.00     0.210 HD
ENDBRANCH  43  48
ENDBRANCH  42  43
ENDBRANCH  41  42
ENDBRANCH  31  41
BRANCH  31  50
HETATM   50  N1  UNL     1     -10.828  43.483 -25.980  1.00  0.00    -0.336 N 
HETATM   51  C41 UNL     1      -9.778  43.215 -25.312  1.00  0.00     0.124 C 
HETATM   52  N2  UNL     1      -9.136  43.906 -24.352  1.00  0.00    -0.279 NA
HETATM   53  N3  UNL     1      -9.148  42.038 -25.520  1.00  0.00    -0.279 NA
HETATM   54  H49 UNL     1      -9.469  44.869 -24.276  1.00  0.00     0.126 HD
HETATM   55  H50 UNL     1      -8.129  43.886 -24.460  1.00  0.00     0.126 HD
HETATM   56  H51 UNL     1      -9.735  41.432 -26.089  1.00  0.00     0.126 HD
HETATM   57  H52 UNL     1      -8.902  41.583 -24.649  1.00  0.00     0.126 HD
ATOM     58  H1  UNL     1     -11.159  42.798 -26.659  1.00  0.00     0.165 HD
ENDBRANCH  31  50
BRANCH   1  59
HETATM   59  C2  UNL     1     -16.831  46.388 -21.040  1.00  0.00     0.005 C 
HETATM   60  C1  UNL     1     -18.169  45.905 -20.492  1.00  0.00     0.006 C 
ENDBRANCH   1  59
BRANCH   3  61
HETATM   61  S1  UNL     1     -19.407  46.294 -25.080  1.00  0.00     0.108 S 
HETATM   62  O1  UNL     1     -18.996  47.668 -24.771  1.00  0.00    -0.595 OA
HETATM   63  O2  UNL     1     -20.770  45.989 -24.664  1.00  0.00    -0.595 OA
HETATM   64  O3  UNL     1     -19.072  45.843 -26.428  1.00  0.00    -0.595 OA
ENDBRANCH   3  61
BRANCH  12  65
HETATM   65  C15 UNL     1     -21.126  41.323 -31.167  1.00  0.00     0.169 C 
BRANCH  65  66
HETATM   66  O4  UNL     1     -20.992  42.709 -31.467  1.00  0.00    -0.400 OA
HETATM   67  H23 UNL     1     -20.571  43.147 -30.710  1.00  0.00     0.209 HD
ENDBRANCH  65  66
ENDBRANCH  12  65
BRANCH  18  68
HETATM   68  O5  UNL     1     -22.610  36.455 -23.080  1.00  0.00    -0.361 OA
HETATM   69  H27 UNL     1     -22.479  36.515 -22.115  1.00  0.00     0.217 HD
ENDBRANCH  18  68
TORSDOF 10
ENDMDL
MODEL 3
REMARK minimizedAffinity -7.84833241
REMARK CNNscore 0.156151727
REMARK CNNaffinity 5.60408354
REMARK  10 active torsions:
REMARK  status: ('A' for Active; 'I' for Inactive)
REMARK    1  A    between atoms: C2_2  and  C3_3 
REMARK    2  A    between atoms: C5_5  and  S1_6 
REMARK    3  A    between atoms: C14_18  and  C15_19 
REMARK    4  A    between atoms: C15_19  and  O4_20 
REMARK    5  A    between atoms: C21_26  and  O5_27 
REMARK    6  A    between atoms: C33_40  and  C34_41 
REMARK    7  A    between atoms: C33_40  and  N1_49 
REMARK    8  A    between atoms: C34_41  and  C35_42 
REMARK    9  A    between atoms: C35_42  and  C36_43 
REMARK   10  A    between atoms: C36_43  and  O7_44 
REMARK       I    between atoms: C41_51  and  N2_52 
REMARK       I    between atoms: C41_51  and  N3_53 
ROOT
HETATM    1  C3  UNL     1      -9.057  45.579 -21.920  1.00  0.00     0.019 C 
HETATM    2  C4  UNL     1      -9.558  45.765 -23.377  1.00  0.00     0.034 C 
HETATM    3  C5  UNL     1     -10.997  46.300 -23.530  1.00  0.00     0.157 C 
HETATM    4  C6  UNL     1     -12.149  45.300 -23.132  1.00  0.00     0.121 A 
HETATM    5  C7  UNL     1     -13.428  46.080 -22.825  1.00  0.00     0.005 C 
HETATM    6  C8  UNL     1     -14.616  45.453 -22.763  1.00  0.00    -0.048 C 
HETATM    7  C9  UNL     1     -14.629  43.956 -22.777  1.00  0.00     0.044 C 
HETATM    8  C10 UNL     1     -13.931  43.525 -24.065  1.00  0.00     0.019 C 
HETATM    9  C11 UNL     1     -14.784  43.844 -25.341  1.00  0.00     0.039 C 
HETATM   10  C12 UNL     1     -15.525  45.201 -25.404  1.00  0.00     0.123 C 
HETATM   11  C13 UNL     1     -16.413  45.324 -26.669  1.00  0.00     0.039 C 
HETATM   12  C14 UNL     1     -17.768  44.547 -26.631  1.00  0.00     0.023 C 
HETATM   13  C16 UNL     1     -18.989  45.460 -26.323  1.00  0.00     0.101 C 
HETATM   14  C17 UNL     1     -19.014  45.913 -24.928  1.00  0.00    -0.101 C 
HETATM   15  C18 UNL     1     -18.828  46.185 -23.771  1.00  0.00    -0.066 C 
HETATM   16  C19 UNL     1     -18.347  46.388 -22.432  1.00  0.00     0.029 A 
HETATM   17  C20 UNL     1     -19.289  46.631 -21.426  1.00  0.00     0.057 A 
HETATM   18  C21 UNL     1     -18.866  46.848 -20.121  1.00  0.00     0.067 A 
HETATM   19  C22 UNL     1     -17.517  46.816 -19.797  1.00  0.00     0.037 A 
HETATM   20  C23 UNL     1     -16.571  46.563 -20.794  1.00  0.00     0.014 A 
HETATM   21  C24 UNL     1     -16.961  46.327 -22.128  1.00  0.00    -0.006 A 
HETATM   22  C25 UNL     1     -15.887  46.141 -23.204  1.00  0.00     0.185 C 
HETATM   23  O6  UNL     1     -16.387  45.323 -24.272  1.00  0.00    -0.371 OA
HETATM   24  C26 UNL     1     -12.450  44.093 -24.132  1.00  0.00     0.115 A 
HETATM   25  C27 UNL     1     -11.484  42.915 -23.917  1.00  0.00    -0.035 A 
HETATM   26  C28 UNL     1     -11.558  42.097 -22.782  1.00  0.00     0.010 A 
HETATM   27  C29 UNL     1     -10.659  41.043 -22.590  1.00  0.00     0.012 A 
HETATM   28  C30 UNL     1      -9.608  40.797 -23.494  1.00  0.00    -0.003 A 
HETATM   29  C31 UNL     1      -9.563  41.601 -24.648  1.00  0.00     0.012 A 
HETATM   30  C32 UNL     1     -10.495  42.628 -24.866  1.00  0.00     0.010 A 
HETATM   31  C33 UNL     1      -8.495  39.767 -23.115  1.00  0.00     0.170 C 
HETATM   32  O8  UNL     1      -7.303  40.353 -22.448  1.00  0.00    -0.316 OA
HETATM   33  C42 UNL     1      -7.417  41.668 -22.084  1.00  0.00     0.072 C 
HETATM   34  C43 UNL     1      -8.144  42.033 -20.951  1.00  0.00     0.037 C 
HETATM   35  C44 UNL     1      -8.566  43.355 -20.818  1.00  0.00     0.010 C 
HETATM   36  C45 UNL     1      -8.239  44.297 -21.806  1.00  0.00    -0.054 C 
HETATM   37  C46 UNL     1      -7.294  43.950 -22.788  1.00  0.00     0.010 C 
HETATM   38  C47 UNL     1      -6.879  42.630 -22.930  1.00  0.00     0.037 C 
HETATM   39 NA1  UNL     1     -11.832  43.068 -23.983  1.00  0.00    -0.404 Na
ATOM     40  HA1 UNL     1     -11.487  42.116 -24.106  1.00  0.00     0.154 HD
ENDROOT
BRANCH  31  41
HETATM   41  C34 UNL     1      -7.875  39.112 -24.397  1.00  0.00     0.070 C 
BRANCH  41  42
HETATM   42  C35 UNL     1      -6.644  38.220 -24.146  1.00  0.00     0.043 C 
BRANCH  42  43
HETATM   43  C36 UNL     1      -6.361  37.241 -25.291  1.00  0.00     0.058 C 
HETATM   44  C37 UNL     1      -7.392  37.283 -26.420  1.00  0.00     0.038 C 
HETATM   45  C38 UNL     1      -7.231  35.946 -27.141  1.00  0.00     0.003 C 
HETATM   46  C39 UNL     1      -6.618  34.985 -26.124  1.00  0.00     0.003 C 
HETATM   47  C40 UNL     1      -6.443  35.782 -24.833  1.00  0.00     0.038 C 
BRANCH  43  48
HETATM   48  O7  UNL     1      -5.063  37.486 -25.840  1.00  0.00    -0.390 OA
HETATM   49  H40 UNL     1      -4.433  37.486 -25.101  1.00  0.00     0.210 HD
ENDBRANCH  43  48
ENDBRANCH  42  43
ENDBRANCH  41  42
ENDBRANCH  31  41
BRANCH  31  50
HETATM   50  N1  UNL     1      -9.124  38.626 -22.403  1.00  0.00    -0.336 N 
HETATM   51  C41 UNL     1      -8.652  38.128 -21.332  1.00  0.00     0.124 C 
HETATM   52  N2  UNL     1      -7.577  38.463 -20.594  1.00  0.00    -0.279 NA
HETATM   53  N3  UNL     1      -9.296  37.094 -20.746  1.00  0.00    -0.279 NA
HETATM   54  H49 UNL     1      -6.964  39.122 -21.077  1.00  0.00     0.126 HD
HETATM   55  H50 UNL     1      -7.052  37.658 -20.276  1.00  0.00     0.126 HD
HETATM   56  H51 UNL     1     -10.209  36.971 -21.180  1.00  0.00     0.126 HD
HETATM   57  H52 UNL     1      -9.390  37.226 -19.747  1.00  0.00     0.126 HD
ATOM     58  H1  UNL     1      -9.977  38.222 -22.791  1.00  0.00     0.165 HD
ENDBRANCH  31  50
BRANCH   1  59
HETATM   59  C2  UNL     1      -8.348  46.818 -21.329  1.00  0.00     0.005 C 
HETATM   60  C1  UNL     1      -7.840  47.849 -22.331  1.00  0.00     0.006 C 
ENDBRANCH   1  59
BRANCH   3  61
HETATM   61  S1  UNL     1     -11.168  47.011 -25.199  1.00  0.00     0.108 S 
HETATM   62  O1  UNL     1     -10.769  45.896 -26.064  1.00  0.00    -0.595 OA
HETATM   63  O2  UNL     1     -10.241  48.135 -25.235  1.00  0.00    -0.595 OA
HETATM   64  O3  UNL     1     -12.576  47.387 -25.295  1.00  0.00    -0.595 OA
ENDBRANCH   3  61
BRANCH  12  65
HETATM   65  C15 UNL     1     -18.024  43.853 -27.980  1.00  0.00     0.169 C 
BRANCH  65  66
HETATM   66  O4  UNL     1     -17.153  44.319 -29.005  1.00  0.00    -0.400 OA
HETATM   67  H23 UNL     1     -16.332  44.629 -28.591  1.00  0.00     0.209 HD
ENDBRANCH  65  66
ENDBRANCH  12  65
BRANCH  18  68
HETATM   68  O5  UNL     1     -19.816  47.105 -19.175  1.00  0.00    -0.361 OA
HETATM   69  H27 UNL     1     -19.369  47.466 -18.387  1.00  0.00     0.217 HD
ENDBRANCH  18  68
TORSDOF 10
ENDMDL
MODEL 4
REMARK minimizedAffinity -10.427062
REMARK CNNscore 0.121782601
REMARK CNNaffinity 6.83143425
REMARK  10 active torsions:
REMARK  status: ('A' for Active; 'I' for Inactive)
REMARK    1  A    between atoms: C2_2  and  C3_3 
REMARK    2  A    between atoms: C5_5  and  S1_6 
REMARK    3  A    between atoms: C14_18  and  C15_19 
REMARK    4  A    between atoms: C15_19  and  O4_20 
REMARK    5  A    between atoms: C21_26  and  O5_27 
REMARK    6  A    between atoms: C33_40  and  C34_41 
REMARK    7  A    between atoms: C33_40  and  N1_49 
REMARK    8  A    between atoms: C34_41  and  C35_42 
REMARK    9  A    between atoms: C35_42  and  C36_43 
REMARK   10  A    between atoms: C36_43  and  O7_44 
REMARK       I    between atoms: C41_51  and  N2_52 
REMARK       I    between atoms: C41_51  and  N3_53 
ROOT
HETATM    1  C3  UNL     1     -11.024  42.501 -29.591  1.00  0.00     0.019 C 
HETATM    2  C4  UNL     1     -10.514  42.507 -28.126  1.00  0.00     0.034 C 
HETATM    3  C5  UNL     1     -11.591  42.713 -27.039  1.00  0.00     0.157 C 
HETATM    4  C6  UNL     1     -12.216  44.157 -26.956  1.00  0.00     0.121 A 
HETATM    5  C7  UNL     1     -13.572  44.094 -26.253  1.00  0.00     0.005 C 
HETATM    6  C8  UNL     1     -14.157  45.212 -25.788  1.00  0.00    -0.048 C 
HETATM    7  C9  UNL     1     -13.565  46.533 -26.171  1.00  0.00     0.044 C 
HETATM    8  C10 UNL     1     -12.116  46.520 -25.688  1.00  0.00     0.019 C 
HETATM    9  C11 UNL     1     -12.008  46.584 -24.126  1.00  0.00     0.039 C 
HETATM   10  C12 UNL     1     -13.000  45.741 -23.289  1.00  0.00     0.123 C 
HETATM   11  C13 UNL     1     -12.844  45.995 -21.767  1.00  0.00     0.039 C 
HETATM   12  C14 UNL     1     -13.466  47.323 -21.230  1.00  0.00     0.023 C 
HETATM   13  C16 UNL     1     -14.837  47.115 -20.524  1.00  0.00     0.101 C 
HETATM   14  C17 UNL     1     -15.912  46.795 -21.469  1.00  0.00    -0.101 C 
HETATM   15  C18 UNL     1     -16.625  46.523 -22.400  1.00  0.00    -0.066 C 
HETATM   16  C19 UNL     1     -17.228  46.179 -23.657  1.00  0.00     0.029 A 
HETATM   17  C20 UNL     1     -18.588  46.460 -23.833  1.00  0.00     0.057 A 
HETATM   18  C21 UNL     1     -19.213  46.131 -25.028  1.00  0.00     0.067 A 
HETATM   19  C22 UNL     1     -18.504  45.533 -26.060  1.00  0.00     0.037 A 
HETATM   20  C23 UNL     1     -17.143  45.259 -25.897  1.00  0.00     0.014 A 
HETATM   21  C24 UNL     1     -16.469  45.589 -24.704  1.00  0.00    -0.006 A 
HETATM   22  C25 UNL     1     -15.000  45.191 -24.534  1.00  0.00     0.185 C 
HETATM   23  O6  UNL     1     -14.337  46.097 -23.640  1.00  0.00    -0.371 OA
HETATM   24  C26 UNL     1     -11.309  45.314 -26.332  1.00  0.00     0.115 A 
HETATM   25  C27 UNL     1     -10.334  45.900 -27.367  1.00  0.00    -0.035 A 
HETATM   26  C28 UNL     1     -10.775  46.707 -28.424  1.00  0.00     0.010 A 
HETATM   27  C29 UNL     1      -9.879  47.216 -29.370  1.00  0.00     0.012 A 
HETATM   28  C30 UNL     1      -8.510  46.890 -29.337  1.00  0.00    -0.003 A 
HETATM   29  C31 UNL     1      -8.070  46.107 -28.253  1.00  0.00     0.012 A 
HETATM   30  C32 UNL     1      -8.961  45.638 -27.275  1.00  0.00     0.010 A 
HETATM   31  C33 UNL     1      -7.598  47.284 -30.544  1.00  0.00     0.170 C 
HETATM   32  O8  UNL     1      -7.454  46.234 -31.587  1.00  0.00    -0.316 OA
HETATM   33  C42 UNL     1      -8.280  45.150 -31.451  1.00  0.00     0.072 C 
HETATM   34  C43 UNL     1      -9.623  45.228 -31.815  1.00  0.00     0.037 C 
HETATM   35  C44 UNL     1     -10.511  44.274 -31.322  1.00  0.00     0.010 C 
HETATM   36  C45 UNL     1     -10.043  43.244 -30.492  1.00  0.00    -0.054 C 
HETATM   37  C46 UNL     1      -8.655  43.053 -30.364  1.00  0.00     0.010 C 
HETATM   38  C47 UNL     1      -7.767  44.009 -30.846  1.00  0.00     0.037 C 
HETATM   39 NA1  UNL     1     -10.585  45.928 -27.076  1.00  0.00    -0.404 Na
ATOM     40  HA1 UNL     1      -9.901  46.594 -27.434  1.00  0.00     0.154 HD
ENDROOT
BRANCH  31  41
HETATM   41  C34 UNL     1      -6.117  47.504 -30.081  1.00  0.00     0.070 C 
BRANCH  41  42
HETATM   42  C35 UNL     1      -5.927  48.563 -28.978  1.00  0.00     0.043 C 
BRANCH  42  43
HETATM   43  C36 UNL     1      -4.600  48.421 -28.223  1.00  0.00     0.058 C 
HETATM   44  C37 UNL     1      -4.757  48.094 -26.738  1.00  0.00     0.038 C 
HETATM   45  C38 UNL     1      -3.428  48.505 -26.109  1.00  0.00     0.003 C 
HETATM   46  C39 UNL     1      -2.823  49.555 -27.038  1.00  0.00     0.003 C 
HETATM   47  C40 UNL     1      -3.817  49.736 -28.184  1.00  0.00     0.038 C 
BRANCH  43  48
HETATM   48  O7  UNL     1      -3.790  47.413 -28.836  1.00  0.00    -0.390 OA
HETATM   49  H40 UNL     1      -3.733  47.626 -29.782  1.00  0.00     0.210 HD
ENDBRANCH  43  48
ENDBRANCH  42  43
ENDBRANCH  41  42
ENDBRANCH  31  41
BRANCH  31  50
HETATM   50  N1  UNL     1      -8.017  48.619 -31.041  1.00  0.00    -0.336 N 
HETATM   51  C41 UNL     1      -8.478  49.531 -30.284  1.00  0.00     0.124 C 
HETATM   52  N2  UNL     1      -8.678  49.564 -28.953  1.00  0.00    -0.279 NA
HETATM   53  N3  UNL     1      -8.828  50.720 -30.822  1.00  0.00    -0.279 NA
HETATM   54  H49 UNL     1      -8.591  48.641 -28.524  1.00  0.00     0.126 HD
HETATM   55  H50 UNL     1      -9.560  49.992 -28.698  1.00  0.00     0.126 HD
HETATM   56  H51 UNL     1      -8.491  50.772 -31.781  1.00  0.00     0.126 HD
HETATM   57  H52 UNL     1      -8.477  51.499 -30.278  1.00  0.00     0.126 HD
ATOM     58  H1  UNL     1      -7.930  48.814 -32.039  1.00  0.00     0.165 HD
ENDBRANCH  31  50
BRANCH   1  59
HETATM   59  C2  UNL     1     -11.413  41.103 -30.123  1.00  0.00     0.005 C 
HETATM   60  C1  UNL     1     -12.441  40.329 -29.305  1.00  0.00     0.006 C 
ENDBRANCH   1  59
BRANCH   3  61
HETATM   61  S1  UNL     1     -10.934  42.090 -25.457  1.00  0.00     0.108 S 
HETATM   62  O1  UNL     1      -9.501  41.950 -25.739  1.00  0.00    -0.595 OA
HETATM   63  O2  UNL     1     -11.609  40.817 -25.235  1.00  0.00    -0.595 OA
HETATM   64  O3  UNL     1     -11.268  43.129 -24.488  1.00  0.00    -0.595 OA
ENDBRANCH   3  61
BRANCH  12  65
HETATM   65  C15 UNL     1     -12.513  47.991 -20.224  1.00  0.00     0.169 C 
BRANCH  65  66
HETATM   66  O4  UNL     1     -13.202  48.547 -19.109  1.00  0.00    -0.400 OA
HETATM   67  H23 UNL     1     -14.023  48.047 -18.976  1.00  0.00     0.209 HD
ENDBRANCH  65  66
ENDBRANCH  12  65
BRANCH  18  68
HETATM   68  O5  UNL     1     -20.546  46.401 -25.148  1.00  0.00    -0.361 OA
HETATM   69  H27 UNL     1     -20.887  45.909 -25.917  1.00  0.00     0.217 HD
ENDBRANCH  18  68
TORSDOF 10
ENDMDL
MODEL 5
REMARK minimizedAffinity -9.2011528
REMARK CNNscore 0.112090327
REMARK CNNaffinity 6.95116282
REMARK  10 active torsions:
REMARK  status: ('A' for Active; 'I' for Inactive)
REMARK    1  A    between atoms: C2_2  and  C3_3 
REMARK    2  A    between atoms: C5_5  and  S1_6 
REMARK    3  A    between atoms: C14_18  and  C15_19 
REMARK    4  A    between atoms: C15_19  and  O4_20 
REMARK    5  A    between atoms: C21_26  and  O5_27 
REMARK    6  A    between atoms: C33_40  and  C34_41 
REMARK    7  A    between atoms: C33_40  and  N1_49 
REMARK    8  A    between atoms: C34_41  and  C35_42 
REMARK    9  A    between atoms: C35_42  and  C36_43 
REMARK   10  A    between atoms: C36_43  and  O7_44 
REMARK       I    between atoms: C41_51  and  N2_52 
REMARK       I    between atoms: C41_51  and  N3_53 
ROOT
HETATM    1  C3  UNL     1     -11.918  43.286 -27.074  1.00  0.00     0.019 C 
HETATM    2  C4  UNL     1     -10.494  42.905 -26.588  1.00  0.00     0.034 C 
HETATM    3  C5  UNL     1     -10.231  43.077 -25.077  1.00  0.00     0.157 C 
HETATM    4  C6  UNL     1     -10.142  44.562 -24.558  1.00  0.00     0.121 A 
HETATM    5  C7  UNL     1     -10.409  44.603 -23.054  1.00  0.00     0.005 C 
HETATM    6  C8  UNL     1     -10.091  45.690 -22.329  1.00  0.00    -0.048 C 
HETATM    7  C9  UNL     1      -9.685  46.933 -23.058  1.00  0.00     0.044 C 
HETATM    8  C10 UNL     1      -8.476  46.564 -23.914  1.00  0.00     0.019 C 
HETATM    9  C11 UNL     1      -7.196  46.291 -23.051  1.00  0.00     0.039 C 
HETATM   10  C12 UNL     1      -7.357  45.487 -21.737  1.00  0.00     0.123 C 
HETATM   11  C13 UNL     1      -6.030  45.397 -20.941  1.00  0.00     0.039 C 
HETATM   12  C14 UNL     1      -5.622  46.678 -20.146  1.00  0.00     0.023 C 
HETATM   13  C16 UNL     1      -5.934  46.582 -18.625  1.00  0.00     0.101 C 
HETATM   14  C17 UNL     1      -7.371  46.657 -18.340  1.00  0.00    -0.101 C 
HETATM   15  C18 UNL     1      -8.573  46.710 -18.336  1.00  0.00    -0.066 C 
HETATM   16  C19 UNL     1      -9.982  46.740 -18.615  1.00  0.00     0.029 A 
HETATM   17  C20 UNL     1     -10.832  47.290 -17.649  1.00  0.00     0.057 A 
HETATM   18  C21 UNL     1     -12.202  47.326 -17.872  1.00  0.00     0.067 A 
HETATM   19  C22 UNL     1     -12.742  46.832 -19.051  1.00  0.00     0.037 A 
HETATM   20  C23 UNL     1     -11.900  46.291 -20.026  1.00  0.00     0.014 A 
HETATM   21  C24 UNL     1     -10.503  46.248 -19.842  1.00  0.00    -0.006 A 
HETATM   22  C25 UNL     1      -9.625  45.568 -20.897  1.00  0.00     0.185 C 
HETATM   23  O6  UNL     1      -8.309  46.140 -20.896  1.00  0.00    -0.371 OA
HETATM   24  C26 UNL     1      -8.825  45.388 -24.921  1.00  0.00     0.115 A 
HETATM   25  C27 UNL     1      -8.895  45.987 -26.336  1.00  0.00    -0.035 A 
HETATM   26  C28 UNL     1      -9.745  47.056 -26.645  1.00  0.00     0.010 A 
HETATM   27  C29 UNL     1      -9.813  47.577 -27.942  1.00  0.00     0.012 A 
HETATM   28  C30 UNL     1      -9.080  47.011 -29.002  1.00  0.00    -0.003 A 
HETATM   29  C31 UNL     1      -8.202  45.960 -28.676  1.00  0.00     0.012 A 
HETATM   30  C32 UNL     1      -8.096  45.470 -27.365  1.00  0.00     0.010 A 
HETATM   31  C33 UNL     1      -9.369  47.471 -30.467  1.00  0.00     0.170 C 
HETATM   32  O8  UNL     1     -10.369  46.645 -31.195  1.00  0.00    -0.316 OA
HETATM   33  C42 UNL     1     -11.036  45.722 -30.436  1.00  0.00     0.072 C 
HETATM   34  C43 UNL     1     -12.076  46.111 -29.592  1.00  0.00     0.037 C 
HETATM   35  C44 UNL     1     -12.471  45.251 -28.569  1.00  0.00     0.010 C 
HETATM   36  C45 UNL     1     -11.838  44.008 -28.415  1.00  0.00    -0.054 C 
HETATM   37  C46 UNL     1     -10.984  43.550 -29.435  1.00  0.00     0.010 C 
HETATM   38  C47 UNL     1     -10.580  44.409 -30.451  1.00  0.00     0.037 C 
HETATM   39 NA1  UNL     1      -8.810  46.000 -25.961  1.00  0.00    -0.404 Na
ATOM     40  HA1 UNL     1      -8.507  46.591 -26.734  1.00  0.00     0.154 HD
ENDROOT
BRANCH  31  41
HETATM   41  C34 UNL     1      -8.093  47.325 -31.365  1.00  0.00     0.070 C 
BRANCH  41  42
HETATM   42  C35 UNL     1      -7.802  45.895 -31.860  1.00  0.00     0.043 C 
BRANCH  42  43
HETATM   43  C36 UNL     1      -6.412  45.743 -32.489  1.00  0.00     0.058 C 
HETATM   44  C37 UNL     1      -5.276  45.604 -31.475  1.00  0.00     0.038 C 
HETATM   45  C38 UNL     1      -4.017  45.986 -32.249  1.00  0.00     0.003 C 
HETATM   46  C39 UNL     1      -4.478  46.872 -33.404  1.00  0.00     0.003 C 
HETATM   47  C40 UNL     1      -5.996  46.992 -33.271  1.00  0.00     0.038 C 
BRANCH  43  48
HETATM   48  O7  UNL     1      -6.389  44.614 -33.367  1.00  0.00    -0.390 OA
HETATM   49  H40 UNL     1      -7.137  44.710 -33.980  1.00  0.00     0.210 HD
ENDBRANCH  43  48
ENDBRANCH  42  43
ENDBRANCH  41  42
ENDBRANCH  31  41
BRANCH  31  50
HETATM   50  N1  UNL     1      -9.636  48.932 -30.464  1.00  0.00    -0.336 N 
HETATM   51  C41 UNL     1      -8.729  49.806 -30.645  1.00  0.00     0.124 C 
HETATM   52  N2  UNL     1      -7.411  49.681 -30.889  1.00  0.00    -0.279 NA
HETATM   53  N3  UNL     1      -9.064  51.115 -30.633  1.00  0.00    -0.279 NA
HETATM   54  H49 UNL     1      -7.076  48.728 -30.741  1.00  0.00     0.126 HD
HETATM   55  H50 UNL     1      -6.849  50.340 -30.364  1.00  0.00     0.126 HD
HETATM   56  H51 UNL     1     -10.077  51.208 -30.653  1.00  0.00     0.126 HD
HETATM   57  H52 UNL     1      -8.643  51.619 -31.404  1.00  0.00     0.126 HD
ATOM     58  H1  UNL     1     -10.592  49.250 -30.310  1.00  0.00     0.165 HD
ENDBRANCH  31  50
BRANCH   1  59
HETATM   59  C2  UNL     1     -12.928  42.117 -27.061  1.00  0.00     0.005 C 
HETATM   60  C1  UNL     1     -12.345  40.717 -27.225  1.00  0.00     0.006 C 
ENDBRANCH   1  59
BRANCH   3  61
HETATM   61  S1  UNL     1      -8.802  42.040 -24.623  1.00  0.00     0.108 S 
HETATM   62  O1  UNL     1      -8.711  42.238 -23.173  1.00  0.00    -0.595 OA
HETATM   63  O2  UNL     1      -7.674  42.599 -25.357  1.00  0.00    -0.595 OA
HETATM   64  O3  UNL     1      -9.183  40.692 -25.034  1.00  0.00    -0.595 OA
ENDBRANCH   3  61
BRANCH  12  65
HETATM   65  C15 UNL     1      -4.116  46.948 -20.304  1.00  0.00     0.169 C 
BRANCH  65  66
HETATM   66  O4  UNL     1      -3.440  45.882 -20.962  1.00  0.00    -0.400 OA
HETATM   67  H23 UNL     1      -4.072  45.430 -21.543  1.00  0.00     0.209 HD
ENDBRANCH  65  66
ENDBRANCH  12  65
BRANCH  18  68
HETATM   68  O5  UNL     1     -12.996  47.849 -16.894  1.00  0.00    -0.361 OA
HETATM   69  H27 UNL     1     -13.918  47.591 -17.081  1.00  0.00     0.217 HD
ENDBRANCH  18  68
TORSDOF 10
ENDMDL
MODEL 6
REMARK minimizedAffinity -9.27535343
REMARK CNNscore 0.102937266
REMARK CNNaffinity 6.12741661
REMARK  10 active torsions:
REMARK  status: ('A' for Active; 'I' for Inactive)
REMARK    1  A    between atoms: C2_2  and  C3_3 
REMARK    2  A    between atoms: C5_5  and  S1_6 
REMARK    3  A    between atoms: C14_18  and  C15_19 
REMARK    4  A    between atoms: C15_19  and  O4_20 
REMARK    5  A    between atoms: C21_26  and  O5_27 
REMARK    6  A    between atoms: C33_40  and  C34_41 
REMARK    7  A    between atoms: C33_40  and  N1_49 
REMARK    8  A    between atoms: C34_41  and  C35_42 
REMARK    9  A    between atoms: C35_42  and  C36_43 
REMARK   10  A    between atoms: C36_43  and  O7_44 
REMARK       I    between atoms: C41_51  and  N2_52 
REMARK       I    between atoms: C41_51  and  N3_53 
ROOT
HETATM    1  C3  UNL     1      -6.564  44.464 -19.190  1.00  0.00     0.019 C 
HETATM    2  C4  UNL     1      -7.325  45.266 -18.101  1.00  0.00     0.034 C 
HETATM    3  C5  UNL     1      -8.856  45.070 -18.069  1.00  0.00     0.157 C 
HETATM    4  C6  UNL     1      -9.656  45.705 -19.269  1.00  0.00     0.121 A 
HETATM    5  C7  UNL     1     -11.015  45.019 -19.405  1.00  0.00     0.005 C 
HETATM    6  C8  UNL     1     -11.994  45.574 -20.142  1.00  0.00    -0.048 C 
HETATM    7  C9  UNL     1     -11.652  46.751 -21.001  1.00  0.00     0.044 C 
HETATM    8  C10 UNL     1     -11.092  47.824 -20.070  1.00  0.00     0.019 C 
HETATM    9  C11 UNL     1     -12.193  48.441 -19.141  1.00  0.00     0.039 C 
HETATM   10  C12 UNL     1     -13.236  47.487 -18.510  1.00  0.00     0.123 C 
HETATM   11  C13 UNL     1     -14.322  48.254 -17.712  1.00  0.00     0.039 C 
HETATM   12  C14 UNL     1     -15.428  48.955 -18.563  1.00  0.00     0.023 C 
HETATM   13  C16 UNL     1     -16.764  48.159 -18.606  1.00  0.00     0.101 C 
HETATM   14  C17 UNL     1     -16.668  46.944 -19.422  1.00  0.00    -0.101 C 
HETATM   15  C18 UNL     1     -16.365  45.999 -20.102  1.00  0.00    -0.066 C 
HETATM   16  C19 UNL     1     -15.735  44.968 -20.879  1.00  0.00     0.029 A 
HETATM   17  C20 UNL     1     -16.530  44.237 -21.770  1.00  0.00     0.057 A 
HETATM   18  C21 UNL     1     -15.964  43.223 -22.529  1.00  0.00     0.067 A 
HETATM   19  C22 UNL     1     -14.612  42.928 -22.427  1.00  0.00     0.037 A 
HETATM   20  C23 UNL     1     -13.809  43.660 -21.548  1.00  0.00     0.014 A 
HETATM   21  C24 UNL     1     -14.343  44.705 -20.768  1.00  0.00    -0.006 A 
HETATM   22  C25 UNL     1     -13.447  45.423 -19.754  1.00  0.00     0.185 C 
HETATM   23  O6  UNL     1     -13.905  46.766 -19.545  1.00  0.00    -0.371 OA
HETATM   24  C26 UNL     1      -9.821  47.293 -19.283  1.00  0.00     0.115 A 
HETATM   25  C27 UNL     1      -8.580  47.992 -19.865  1.00  0.00    -0.035 A 
HETATM   26  C28 UNL     1      -8.271  47.934 -21.230  1.00  0.00     0.010 A 
HETATM   27  C29 UNL     1      -7.128  48.558 -21.742  1.00  0.00     0.012 A 
HETATM   28  C30 UNL     1      -6.211  49.217 -20.901  1.00  0.00    -0.003 A 
HETATM   29  C31 UNL     1      -6.548  49.302 -19.537  1.00  0.00     0.012 A 
HETATM   30  C32 UNL     1      -7.720  48.718 -19.031  1.00  0.00     0.010 A 
HETATM   31  C33 UNL     1      -4.838  49.688 -21.483  1.00  0.00     0.170 C 
HETATM   32  O8  UNL     1      -3.728  48.712 -21.328  1.00  0.00    -0.316 OA
HETATM   33  C42 UNL     1      -4.090  47.471 -20.878  1.00  0.00     0.072 C 
HETATM   34  C43 UNL     1      -4.688  46.549 -21.735  1.00  0.00     0.037 C 
HETATM   35  C44 UNL     1      -5.385  45.473 -21.188  1.00  0.00     0.010 C 
HETATM   36  C45 UNL     1      -5.456  45.321 -19.795  1.00  0.00    -0.054 C 
HETATM   37  C46 UNL     1      -4.630  46.117 -18.982  1.00  0.00     0.010 C 
HETATM   38  C47 UNL     1      -3.942  47.198 -19.524  1.00  0.00     0.037 C 
HETATM   39 NA1  UNL     1      -8.960  47.945 -19.821  1.00  0.00    -0.404 Na
ATOM     40  HA1 UNL     1      -8.424  48.733 -20.184  1.00  0.00     0.154 HD
ENDROOT
BRANCH  31  41
HETATM   41  C34 UNL     1      -4.299  50.939 -20.708  1.00  0.00     0.070 C 
BRANCH  41  42
HETATM   42  C35 UNL     1      -3.267  50.630 -19.605  1.00  0.00     0.043 C 
BRANCH  42  43
HETATM   43  C36 UNL     1      -1.822  50.909 -20.033  1.00  0.00     0.058 C 
HETATM   44  C37 UNL     1      -1.069  51.868 -19.110  1.00  0.00     0.038 C 
HETATM   45  C38 UNL     1       0.086  52.394 -19.958  1.00  0.00     0.003 C 
HETATM   46  C39 UNL     1      -0.348  52.239 -21.414  1.00  0.00     0.003 C 
HETATM   47  C40 UNL     1      -1.750  51.632 -21.380  1.00  0.00     0.038 C 
BRANCH  43  48
HETATM   48  O7  UNL     1      -1.089  49.683 -20.122  1.00  0.00    -0.390 OA
HETATM   49  H40 UNL     1      -1.602  49.081 -20.686  1.00  0.00     0.210 HD
ENDBRANCH  43  48
ENDBRANCH  42  43
ENDBRANCH  41  42
ENDBRANCH  31  41
BRANCH  31  50
HETATM   50  N1  UNL     1      -5.054  50.192 -22.863  1.00  0.00    -0.336 N 
HETATM   51  C41 UNL     1      -5.112  51.429 -23.152  1.00  0.00     0.124 C 
HETATM   52  N2  UNL     1      -4.985  52.528 -22.384  1.00  0.00    -0.279 NA
HETATM   53  N3  UNL     1      -5.303  51.797 -24.438  1.00  0.00    -0.279 NA
HETATM   54  H49 UNL     1      -5.008  52.310 -21.387  1.00  0.00     0.126 HD
HETATM   55  H50 UNL     1      -5.665  53.244 -22.607  1.00  0.00     0.126 HD
HETATM   56  H51 UNL     1      -5.196  50.987 -25.044  1.00  0.00     0.126 HD
HETATM   57  H52 UNL     1      -4.671  52.538 -24.716  1.00  0.00     0.126 HD
ATOM     58  H1  UNL     1      -5.160  49.512 -23.616  1.00  0.00     0.165 HD
ENDBRANCH  31  50
BRANCH   1  59
HETATM   59  C2  UNL     1      -6.083  43.069 -18.731  1.00  0.00     0.005 C 
HETATM   60  C1  UNL     1      -5.701  42.934 -17.261  1.00  0.00     0.006 C 
ENDBRANCH   1  59
BRANCH   3  61
HETATM   61  S1  UNL     1      -9.461  45.565 -16.423  1.00  0.00     0.108 S 
HETATM   62  O1  UNL     1      -9.941  46.931 -16.656  1.00  0.00    -0.595 OA
HETATM   63  O2  UNL     1      -8.296  45.500 -15.549  1.00  0.00    -0.595 OA
HETATM   64  O3  UNL     1     -10.506  44.594 -16.110  1.00  0.00    -0.595 OA
ENDBRANCH   3  61
BRANCH  12  65
HETATM   65  C15 UNL     1     -15.728  50.355 -18.000  1.00  0.00     0.169 C 
BRANCH  65  66
HETATM   66  O4  UNL     1     -16.083  50.321 -16.622  1.00  0.00    -0.400 OA
HETATM   67  H23 UNL     1     -15.664  49.546 -16.216  1.00  0.00     0.209 HD
ENDBRANCH  65  66
ENDBRANCH  12  65
BRANCH  18  68
HETATM   68  O5  UNL     1     -16.780  42.520 -23.368  1.00  0.00    -0.361 OA
HETATM   69  H27 UNL     1     -16.310  41.710 -23.641  1.00  0.00     0.217 HD
ENDBRANCH  18  68
TORSDOF 10
ENDMDL
MODEL 7
REMARK minimizedAffinity -8.49956512
REMARK CNNscore 0.0983992144
REMARK CNNaffinity 7.02905512
REMARK  10 active torsions:
REMARK  status: ('A' for Active; 'I' for Inactive)
REMARK    1  A    between atoms: C2_2  and  C3_3 
REMARK    2  A    between atoms: C5_5  and  S1_6 
REMARK    3  A    between atoms: C14_18  and  C15_19 
REMARK    4  A    between atoms: C15_19  and  O4_20 
REMARK    5  A    between atoms: C21_26  and  O5_27 
REMARK    6  A    between atoms: C33_40  and  C34_41 
REMARK    7  A    between atoms: C33_40  and  N1_49 
REMARK    8  A    between atoms: C34_41  and  C35_42 
REMARK    9  A    between atoms: C35_42  and  C36_43 
REMARK   10  A    between atoms: C36_43  and  O7_44 
REMARK       I    between atoms: C41_51  and  N2_52 
REMARK       I    between atoms: C41_51  and  N3_53 
ROOT
HETATM    1  C3  UNL     1      -7.969  45.487 -21.267  1.00  0.00     0.019 C 
HETATM    2  C4  UNL     1      -7.672  46.585 -20.211  1.00  0.00     0.034 C 
HETATM    3  C5  UNL     1      -6.839  47.786 -20.707  1.00  0.00     0.157 C 
HETATM    4  C6  UNL     1      -5.321  47.493 -21.009  1.00  0.00     0.121 A 
HETATM    5  C7  UNL     1      -4.766  48.558 -21.954  1.00  0.00     0.005 C 
HETATM    6  C8  UNL     1      -3.439  48.709 -22.117  1.00  0.00    -0.048 C 
HETATM    7  C9  UNL     1      -2.532  47.672 -21.531  1.00  0.00     0.044 C 
HETATM    8  C10 UNL     1      -2.825  47.630 -20.033  1.00  0.00     0.019 C 
HETATM    9  C11 UNL     1      -2.327  48.917 -19.292  1.00  0.00     0.039 C 
HETATM   10  C12 UNL     1      -2.546  50.288 -19.977  1.00  0.00     0.123 C 
HETATM   11  C13 UNL     1      -1.902  51.450 -19.179  1.00  0.00     0.039 C 
HETATM   12  C14 UNL     1      -0.353  51.594 -19.313  1.00  0.00     0.023 C 
HETATM   13  C16 UNL     1       0.076  52.723 -20.293  1.00  0.00     0.101 C 
HETATM   14  C17 UNL     1      -0.183  52.378 -21.695  1.00  0.00    -0.101 C 
HETATM   15  C18 UNL     1      -0.501  51.910 -22.757  1.00  0.00    -0.066 C 
HETATM   16  C19 UNL     1      -1.015  51.153 -23.864  1.00  0.00     0.029 A 
HETATM   17  C20 UNL     1      -0.412  51.327 -25.116  1.00  0.00     0.057 A 
HETATM   18  C21 UNL     1      -0.887  50.626 -26.216  1.00  0.00     0.067 A 
HETATM   19  C22 UNL     1      -1.950  49.742 -26.090  1.00  0.00     0.037 A 
HETATM   20  C23 UNL     1      -2.550  49.554 -24.842  1.00  0.00     0.014 A 
HETATM   21  C24 UNL     1      -2.089  50.238 -23.699  1.00  0.00    -0.006 A 
HETATM   22  C25 UNL     1      -2.831  50.069 -22.370  1.00  0.00     0.185 C 
HETATM   23  O6  UNL     1      -1.936  50.274 -21.268  1.00  0.00    -0.371 OA
HETATM   24  C26 UNL     1      -4.350  47.288 -19.757  1.00  0.00     0.115 A 
HETATM   25  C27 UNL     1      -4.419  45.853 -19.208  1.00  0.00    -0.035 A 
HETATM   26  C28 UNL     1      -3.876  44.767 -19.907  1.00  0.00     0.010 A 
HETATM   27  C29 UNL     1      -3.965  43.465 -19.404  1.00  0.00     0.012 A 
HETATM   28  C30 UNL     1      -4.654  43.182 -18.210  1.00  0.00    -0.003 A 
HETATM   29  C31 UNL     1      -5.166  44.282 -17.496  1.00  0.00     0.012 A 
HETATM   30  C32 UNL     1      -5.034  45.595 -17.976  1.00  0.00     0.010 A 
HETATM   31  C33 UNL     1      -4.930  41.694 -17.816  1.00  0.00     0.170 C 
HETATM   32  O8  UNL     1      -6.239  41.160 -18.275  1.00  0.00    -0.316 OA
HETATM   33  C42 UNL     1      -6.938  41.965 -19.134  1.00  0.00     0.072 C 
HETATM   34  C43 UNL     1      -6.581  42.052 -20.479  1.00  0.00     0.037 C 
HETATM   35  C44 UNL     1      -7.035  43.135 -21.228  1.00  0.00     0.010 C 
HETATM   36  C45 UNL     1      -7.857  44.104 -20.631  1.00  0.00    -0.054 C 
HETATM   37  C46 UNL     1      -8.400  43.844 -19.361  1.00  0.00     0.010 C 
HETATM   38  C47 UNL     1      -7.940  42.770 -18.606  1.00  0.00     0.037 C 
HETATM   39 NA1  UNL     1      -4.232  46.174 -19.311  1.00  0.00    -0.404 Na
ATOM     40  HA1 UNL     1      -3.938  45.385 -18.736  1.00  0.00     0.154 HD
ENDROOT
BRANCH  31  41
HETATM   41  C34 UNL     1      -5.027  41.533 -16.260  1.00  0.00     0.070 C 
BRANCH  41  42
HETATM   42  C35 UNL     1      -3.851  42.134 -15.466  1.00  0.00     0.043 C 
BRANCH  42  43
HETATM   43  C36 UNL     1      -2.951  41.074 -14.821  1.00  0.00     0.058 C 
HETATM   44  C37 UNL     1      -3.659  39.755 -14.510  1.00  0.00     0.038 C 
HETATM   45  C38 UNL     1      -2.783  39.086 -13.453  1.00  0.00     0.003 C 
HETATM   46  C39 UNL     1      -2.006  40.209 -12.769  1.00  0.00     0.003 C 
HETATM   47  C40 UNL     1      -2.452  41.508 -13.439  1.00  0.00     0.038 C 
BRANCH  43  48
HETATM   48  O7  UNL     1      -1.824  40.808 -15.661  1.00  0.00    -0.390 OA
HETATM   49  H40 UNL     1      -1.411  41.663 -15.869  1.00  0.00     0.210 HD
ENDBRANCH  43  48
ENDBRANCH  42  43
ENDBRANCH  41  42
ENDBRANCH  31  41
BRANCH  31  50
HETATM   50  N1  UNL     1      -3.746  40.877 -18.185  1.00  0.00    -0.336 N 
HETATM   51  C41 UNL     1      -3.789  39.614 -18.330  1.00  0.00     0.124 C 
HETATM   52  N2  UNL     1      -4.811  38.742 -18.228  1.00  0.00    -0.279 NA
HETATM   53  N3  UNL     1      -2.663  38.951 -18.675  1.00  0.00    -0.279 NA
HETATM   54  H49 UNL     1      -5.641  39.163 -17.807  1.00  0.00     0.126 HD
HETATM   55  H50 UNL     1      -4.556  37.894 -17.738  1.00  0.00     0.126 HD
HETATM   56  H51 UNL     1      -1.946  39.618 -18.950  1.00  0.00     0.126 HD
HETATM   57  H52 UNL     1      -2.832  38.281 -19.415  1.00  0.00     0.126 HD
ATOM     58  H1  UNL     1      -2.855  41.352 -18.329  1.00  0.00     0.165 HD
ENDBRANCH  31  50
BRANCH   1  59
HETATM   59  C2  UNL     1      -9.283  45.700 -22.052  1.00  0.00     0.005 C 
HETATM   60  C1  UNL     1     -10.326  46.597 -21.395  1.00  0.00     0.006 C 
ENDBRANCH   1  59
BRANCH   3  61
HETATM   61  S1  UNL     1      -7.120  49.184 -19.572  1.00  0.00     0.108 S 
HETATM   62  O1  UNL     1      -8.569  49.130 -19.351  1.00  0.00    -0.595 OA
HETATM   63  O2  UNL     1      -6.688  50.367 -20.305  1.00  0.00    -0.595 OA
HETATM   64  O3  UNL     1      -6.310  48.871 -18.398  1.00  0.00    -0.595 OA
ENDBRANCH   3  61
BRANCH  12  65
HETATM   65  C15 UNL     1       0.276  51.894 -17.941  1.00  0.00     0.169 C 
BRANCH  65  66
HETATM   66  O4  UNL     1       0.531  50.712 -17.190  1.00  0.00    -0.400 OA
HETATM   67  H23 UNL     1       0.672  49.980 -17.810  1.00  0.00     0.209 HD
ENDBRANCH  65  66
ENDBRANCH  12  65
BRANCH  18  68
HETATM   68  O5  UNL     1      -0.286  50.843 -27.421  1.00  0.00    -0.361 OA
HETATM   69  H27 UNL     1      -0.864  50.482 -28.118  1.00  0.00     0.217 HD
ENDBRANCH  18  68
TORSDOF 10
ENDMDL
MODEL 8
REMARK minimizedAffinity -7.52290487
REMARK CNNscore 0.096632801
REMARK CNNaffinity 5.81921005
REMARK  10 active torsions:
REMARK  status: ('A' for Active; 'I' for Inactive)
REMARK    1  A    between atoms: C2_2  and  C3_3 
REMARK    2  A    between atoms: C5_5  and  S1_6 
REMARK    3  A    between atoms: C14_18  and  C15_19 
REMARK    4  A    between atoms: C15_19  and  O4_20 
REMARK    5  A    between atoms: C21_26  and  O5_27 
REMARK    6  A    between atoms: C33_40  and  C34_41 
REMARK    7  A    between atoms: C33_40  and  N1_49 
REMARK    8  A    between atoms: C34_41  and  C35_42 
REMARK    9  A    between atoms: C35_42  and  C36_43 
REMARK   10  A    between atoms: C36_43  and  O7_44 
REMARK       I    between atoms: C41_51  and  N2_52 
REMARK       I    between atoms: C41_51  and  N3_53 
ROOT
HETATM    1  C3  UNL     1     -13.961  48.387 -19.774  1.00  0.00     0.019 C 
HETATM    2  C4  UNL     1     -13.191  47.498 -18.761  1.00  0.00     0.034 C 
HETATM    3  C5  UNL     1     -11.665  47.718 -18.698  1.00  0.00     0.157 C 
HETATM    4  C6  UNL     1     -10.845  47.217 -19.947  1.00  0.00     0.121 A 
HETATM    5  C7  UNL     1      -9.498  47.938 -20.006  1.00  0.00     0.005 C 
HETATM    6  C8  UNL     1      -8.504  47.474 -20.784  1.00  0.00    -0.048 C 
HETATM    7  C9  UNL     1      -8.818  46.379 -21.756  1.00  0.00     0.044 C 
HETATM    8  C10 UNL     1      -9.363  45.211 -20.937  1.00  0.00     0.019 C 
HETATM    9  C11 UNL     1      -8.257  44.529 -20.062  1.00  0.00     0.039 C 
HETATM   10  C12 UNL     1      -7.236  45.437 -19.334  1.00  0.00     0.123 C 
HETATM   11  C13 UNL     1      -6.141  44.617 -18.605  1.00  0.00     0.039 C 
HETATM   12  C14 UNL     1      -5.016  44.022 -19.510  1.00  0.00     0.023 C 
HETATM   13  C16 UNL     1      -3.696  44.842 -19.466  1.00  0.00     0.101 C 
HETATM   14  C17 UNL     1      -3.809  46.128 -20.162  1.00  0.00    -0.101 C 
HETATM   15  C18 UNL     1      -4.126  47.129 -20.750  1.00  0.00    -0.066 C 
HETATM   16  C19 UNL     1      -4.771  48.218 -21.430  1.00  0.00     0.029 A 
HETATM   17  C20 UNL     1      -3.985  49.045 -22.240  1.00  0.00     0.057 A 
HETATM   18  C21 UNL     1      -4.565  50.118 -22.903  1.00  0.00     0.067 A 
HETATM   19  C22 UNL     1      -5.924  50.376 -22.783  1.00  0.00     0.037 A 
HETATM   20  C23 UNL     1      -6.718  49.548 -21.985  1.00  0.00     0.014 A 
HETATM   21  C24 UNL     1      -6.169  48.443 -21.305  1.00  0.00    -0.006 A 
HETATM   22  C25 UNL     1      -7.057  47.614 -20.373  1.00  0.00     0.185 C 
HETATM   23  O6  UNL     1      -6.574  46.266 -20.290  1.00  0.00    -0.371 OA
HETATM   24  C26 UNL     1     -10.650  45.641 -20.113  1.00  0.00     0.115 A 
HETATM   25  C27 UNL     1     -11.873  44.978 -20.769  1.00  0.00    -0.035 A 
HETATM   26  C28 UNL     1     -12.175  45.162 -22.124  1.00  0.00     0.010 A 
HETATM   27  C29 UNL     1     -13.302  44.569 -22.703  1.00  0.00     0.012 A 
HETATM   28  C30 UNL     1     -14.211  43.815 -21.937  1.00  0.00    -0.003 A 
HETATM   29  C31 UNL     1     -13.882  43.606 -20.585  1.00  0.00     0.012 A 
HETATM   30  C32 UNL     1     -12.724  44.159 -20.016  1.00  0.00     0.010 A 
HETATM   31  C33 UNL     1     -15.571  43.377 -22.572  1.00  0.00     0.170 C 
HETATM   32  O8  UNL     1     -16.701  44.313 -22.334  1.00  0.00    -0.316 OA
HETATM   33  C42 UNL     1     -16.366  45.511 -21.763  1.00  0.00     0.072 C 
HETATM   34  C43 UNL     1     -15.781  46.523 -22.523  1.00  0.00     0.037 C 
HETATM   35  C44 UNL     1     -15.108  47.553 -21.869  1.00  0.00     0.010 C 
HETATM   36  C45 UNL     1     -15.048  47.572 -20.467  1.00  0.00    -0.054 C 
HETATM   37  C46 UNL     1     -15.863  46.686 -19.741  1.00  0.00     0.010 C 
HETATM   38  C47 UNL     1     -16.527  45.650 -20.390  1.00  0.00     0.037 C 
HETATM   39 NA1  UNL     1     -11.494  45.028 -20.718  1.00  0.00    -0.404 Na
ATOM     40  HA1 UNL     1     -12.013  44.269 -21.158  1.00  0.00     0.154 HD
ENDROOT
BRANCH  31  41
HETATM   41  C34 UNL     1     -16.092  42.048 -21.925  1.00  0.00     0.070 C 
BRANCH  41  42
HETATM   42  C35 UNL     1     -17.623  41.938 -21.797  1.00  0.00     0.043 C 
BRANCH  42  43
HETATM   43  C36 UNL     1     -18.116  41.994 -20.347  1.00  0.00     0.058 C 
HETATM   44  C37 UNL     1     -18.844  40.731 -19.884  1.00  0.00     0.038 C 
HETATM   45  C38 UNL     1     -19.666  41.179 -18.678  1.00  0.00     0.003 C 
HETATM   46  C39 UNL     1     -19.879  42.682 -18.841  1.00  0.00     0.003 C 
HETATM   47  C40 UNL     1     -19.181  43.075 -20.142  1.00  0.00     0.038 C 
BRANCH  43  48
HETATM   48  O7  UNL     1     -17.019  42.245 -19.463  1.00  0.00    -0.390 OA
HETATM   49  H40 UNL     1     -16.556  43.032 -19.796  1.00  0.00     0.210 HD
ENDBRANCH  43  48
ENDBRANCH  42  43
ENDBRANCH  41  42
ENDBRANCH  31  41
BRANCH  31  50
HETATM   50  N1  UNL     1     -15.338  43.012 -23.993  1.00  0.00    -0.336 N 
HETATM   51  C41 UNL     1     -16.167  43.269 -24.923  1.00  0.00     0.124 C 
HETATM   52  N2  UNL     1     -17.357  43.898 -24.904  1.00  0.00    -0.279 NA
HETATM   53  N3  UNL     1     -15.868  42.907 -26.190  1.00  0.00    -0.279 NA
HETATM   54  H49 UNL     1     -17.707  44.040 -23.954  1.00  0.00     0.126 HD
HETATM   55  H50 UNL     1     -18.055  43.435 -25.473  1.00  0.00     0.126 HD
HETATM   56  H51 UNL     1     -14.893  42.620 -26.242  1.00  0.00     0.126 HD
HETATM   57  H52 UNL     1     -16.057  43.652 -26.850  1.00  0.00     0.126 HD
ATOM     58  H1  UNL     1     -14.470  42.534 -24.234  1.00  0.00     0.165 HD
ENDBRANCH  31  50
BRANCH   1  59
HETATM   59  C2  UNL     1     -14.471  49.722 -19.187  1.00  0.00     0.005 C 
HETATM   60  C1  UNL     1     -15.426  49.620 -18.003  1.00  0.00     0.006 C 
ENDBRANCH   1  59
BRANCH   3  61
HETATM   61  S1  UNL     1     -11.060  47.079 -17.102  1.00  0.00     0.108 S 
HETATM   62  O1  UNL     1     -10.303  48.216 -16.568  1.00  0.00    -0.595 OA
HETATM   63  O2  UNL     1     -10.225  45.932 -17.439  1.00  0.00    -0.595 OA
HETATM   64  O3  UNL     1     -12.271  46.746 -16.358  1.00  0.00    -0.595 OA
ENDBRANCH   3  61
BRANCH  12  65
HETATM   65  C15 UNL     1      -4.693  42.580 -19.082  1.00  0.00     0.169 C 
BRANCH  65  66
HETATM   66  O4  UNL     1      -3.308  42.274 -19.208  1.00  0.00    -0.400 OA
HETATM   67  H23 UNL     1      -2.803  43.097 -19.114  1.00  0.00     0.209 HD
ENDBRANCH  65  66
ENDBRANCH  12  65
BRANCH  18  68
HETATM   68  O5  UNL     1      -3.758  50.913 -23.664  1.00  0.00    -0.361 OA
HETATM   69  H27 UNL     1      -4.242  51.736 -23.861  1.00  0.00     0.217 HD
ENDBRANCH  18  68
TORSDOF 10
ENDMDL
MODEL 9
REMARK minimizedAffinity -7.67089033
REMARK CNNscore 0.0949897394
REMARK CNNaffinity 6.51182032
REMARK  10 active torsions:
REMARK  status: ('A' for Active; 'I' for Inactive)
REMARK    1  A    between atoms: C2_2  and  C3_3 
REMARK    2  A    between atoms: C5_5  and  S1_6 
REMARK    3  A    between atoms: C14_18  and  C15_19 
REMARK    4  A    between atoms: C15_19  and  O4_20 
REMARK    5  A    between atoms: C21_26  and  O5_27 
REMARK    6  A    between atoms: C33_40  and  C34_41 
REMARK    7  A    between atoms: C33_40  and  N1_49 
REMARK    8  A    between atoms: C34_41  and  C35_42 
REMARK    9  A    between atoms: C35_42  and  C36_43 
REMARK   10  A    between atoms: C36_43  and  O7_44 
REMARK       I    between atoms: C41_51  and  N2_52 
REMARK       I    between atoms: C41_51  and  N3_53 
ROOT
HETATM    1  C3  UNL     1       0.876  54.885  -7.223  1.00  0.00     0.019 C 
HETATM    2  C4  UNL     1       1.358  53.588  -6.521  1.00  0.00     0.034 C 
HETATM    3  C5  UNL     1       2.669  53.708  -5.715  1.00  0.00     0.157 C 
HETATM    4  C6  UNL     1       3.985  53.884  -6.563  1.00  0.00     0.121 A 
HETATM    5  C7  UNL     1       5.081  54.501  -5.696  1.00  0.00     0.005 C 
HETATM    6  C8  UNL     1       6.368  54.468  -6.087  1.00  0.00    -0.048 C 
HETATM    7  C9  UNL     1       6.671  54.020  -7.483  1.00  0.00     0.044 C 
HETATM    8  C10 UNL     1       6.096  52.613  -7.626  1.00  0.00     0.019 C 
HETATM    9  C11 UNL     1       6.894  51.555  -6.791  1.00  0.00     0.039 C 
HETATM   10  C12 UNL     1       7.359  51.946  -5.367  1.00  0.00     0.123 C 
HETATM   11  C13 UNL     1       8.230  50.843  -4.712  1.00  0.00     0.039 C 
HETATM   12  C14 UNL     1       9.708  50.757  -5.208  1.00  0.00     0.023 C 
HETATM   13  C16 UNL     1      10.723  51.409  -4.225  1.00  0.00     0.101 C 
HETATM   14  C17 UNL     1      10.633  52.873  -4.215  1.00  0.00    -0.101 C 
HETATM   15  C18 UNL     1      10.375  54.042  -4.342  1.00  0.00    -0.066 C 
HETATM   16  C19 UNL     1       9.838  55.341  -4.639  1.00  0.00     0.029 A 
HETATM   17  C20 UNL     1      10.695  56.443  -4.544  1.00  0.00     0.057 A 
HETATM   18  C21 UNL     1      10.214  57.718  -4.809  1.00  0.00     0.067 A 
HETATM   19  C22 UNL     1       8.891  57.916  -5.179  1.00  0.00     0.037 A 
HETATM   20  C23 UNL     1       8.031  56.819  -5.287  1.00  0.00     0.014 A 
HETATM   21  C24 UNL     1       8.485  55.508  -5.038  1.00  0.00    -0.006 A 
HETATM   22  C25 UNL     1       7.489  54.345  -5.082  1.00  0.00     0.185 C 
HETATM   23  O6  UNL     1       8.159  53.127  -5.437  1.00  0.00    -0.371 OA
HETATM   24  C26 UNL     1       4.534  52.601  -7.340  1.00  0.00     0.115 A 
HETATM   25  C27 UNL     1       3.812  52.391  -8.682  1.00  0.00    -0.035 A 
HETATM   26  C28 UNL     1       4.021  53.240  -9.775  1.00  0.00     0.010 A 
HETATM   27  C29 UNL     1       3.342  53.048 -10.983  1.00  0.00     0.012 A 
HETATM   28  C30 UNL     1       2.376  52.035 -11.131  1.00  0.00    -0.003 A 
HETATM   29  C31 UNL     1       2.198  51.164 -10.039  1.00  0.00     0.012 A 
HETATM   30  C32 UNL     1       2.916  51.326  -8.844  1.00  0.00     0.010 A 
HETATM   31  C33 UNL     1       1.477  52.011 -12.410  1.00  0.00     0.170 C 
HETATM   32  O8  UNL     1       0.182  52.727 -12.275  1.00  0.00    -0.316 OA
HETATM   33  C42 UNL     1       0.031  53.466 -11.132  1.00  0.00     0.072 C 
HETATM   34  C43 UNL     1       0.651  54.707 -11.000  1.00  0.00     0.037 C 
HETATM   35  C44 UNL     1       0.805  55.251  -9.726  1.00  0.00     0.010 C 
HETATM   36  C45 UNL     1       0.320  54.558  -8.605  1.00  0.00    -0.054 C 
HETATM   37  C46 UNL     1      -0.520  53.448  -8.805  1.00  0.00     0.010 C 
HETATM   38  C47 UNL     1      -0.667  52.898 -10.074  1.00  0.00     0.037 C 
HETATM   39 NA1  UNL     1       4.124  52.398  -8.456  1.00  0.00    -0.404 Na
ATOM     40  HA1 UNL     1       3.973  51.978  -9.373  1.00  0.00     0.154 HD
ENDROOT
BRANCH  31  41
HETATM   41  C34 UNL     1       1.021  50.550 -12.750  1.00  0.00     0.070 C 
BRANCH  41  42
HETATM   42  C35 UNL     1      -0.236  50.447 -13.634  1.00  0.00     0.043 C 
BRANCH  42  43
HETATM   43  C36 UNL     1       0.042  49.847 -15.017  1.00  0.00     0.058 C 
HETATM   44  C37 UNL     1       0.308  50.884 -16.108  1.00  0.00     0.038 C 
HETATM   45  C38 UNL     1       0.041  50.145 -17.417  1.00  0.00     0.003 C 
HETATM   46  C39 UNL     1      -0.904  48.996 -17.073  1.00  0.00     0.003 C 
HETATM   47  C40 UNL     1      -1.171  49.096 -15.572  1.00  0.00     0.038 C 
BRANCH  43  48
HETATM   48  O7  UNL     1       1.156  48.951 -14.949  1.00  0.00    -0.390 OA
HETATM   49  H40 UNL     1       0.977  48.323 -14.230  1.00  0.00     0.210 HD
ENDBRANCH  43  48
ENDBRANCH  42  43
ENDBRANCH  41  42
ENDBRANCH  31  41
BRANCH  31  50
HETATM   50  N1  UNL     1       2.303  52.406 -13.579  1.00  0.00    -0.336 N 
HETATM   51  C41 UNL     1       3.183  51.649 -14.099  1.00  0.00     0.124 C 
HETATM   52  N2  UNL     1       3.567  50.395 -13.795  1.00  0.00    -0.279 NA
HETATM   53  N3  UNL     1       3.883  52.089 -15.167  1.00  0.00    -0.279 NA
HETATM   54  H49 UNL     1       3.194  50.080 -12.898  1.00  0.00     0.126 HD
HETATM   55  H50 UNL     1       4.572  50.274 -13.822  1.00  0.00     0.126 HD
HETATM   56  H51 UNL     1       3.460  52.943 -15.524  1.00  0.00     0.126 HD
HETATM   57  H52 UNL     1       3.941  51.387 -15.896  1.00  0.00     0.126 HD
ATOM     58  H1  UNL     1       2.157  53.331 -13.985  1.00  0.00     0.165 HD
ENDBRANCH  31  50
BRANCH   1  59
HETATM   59  C2  UNL     1      -0.072  55.755  -6.367  1.00  0.00     0.005 C 
HETATM   60  C1  UNL     1       0.526  57.025  -5.773  1.00  0.00     0.006 C 
ENDBRANCH   1  59
BRANCH   3  61
HETATM   61  S1  UNL     1       2.730  52.336  -4.517  1.00  0.00     0.108 S 
HETATM   62  O1  UNL     1       3.467  52.925  -3.394  1.00  0.00    -0.595 OA
HETATM   63  O2  UNL     1       3.457  51.268  -5.192  1.00  0.00    -0.595 OA
HETATM   64  O3  UNL     1       1.330  52.031  -4.237  1.00  0.00    -0.595 OA
ENDBRANCH   3  61
BRANCH  12  65
HETATM   65  C15 UNL     1      10.121  49.288  -5.407  1.00  0.00     0.169 C 
BRANCH  65  66
HETATM   66  O4  UNL     1       9.361  48.396  -4.598  1.00  0.00    -0.400 OA
HETATM   67  H23 UNL     1       8.495  48.799  -4.428  1.00  0.00     0.209 HD
ENDBRANCH  65  66
ENDBRANCH  12  65
BRANCH  18  68
HETATM   68  O5  UNL     1      11.077  58.768  -4.681  1.00  0.00    -0.361 OA
HETATM   69  H27 UNL     1      10.554  59.590  -4.660  1.00  0.00     0.217 HD
ENDBRANCH  18  68
TORSDOF 10
ENDMDL
