MODEL 1
REMARK minimizedAffinity -8.52655602
REMARK CNNscore 0.334201276
REMARK CNNaffinity 6.80014849
REMARK  9 active torsions:
REMARK  status: ('A' for Active; 'I' for Inactive)
REMARK    1  A    between atoms: C7_8  and  O1_9 
REMARK    2  A    between atoms: O1_9  and  C8_10 
REMARK    3  A    between atoms: C8_10  and  C9_11 
REMARK       I    between atoms: C9_11  and  N1_13 
REMARK    4  A    between atoms: N1_13  and  N2_14 
REMARK    5  A    between atoms: C10_16  and  C11_17 
REMARK    6  A    between atoms: C14_20  and  O3_21 
REMARK    7  A    between atoms: C16_23  and  O4_24 
REMARK    8  A    between atoms: C25_33  and  C26_34 
REMARK    9  A    between atoms: C32_42  and  O7_43 
ROOT
HETATM    1  C11 UNL     1      -2.060  51.129 -11.884  1.00  0.00     0.028 C 
HETATM    2  C12 UNL     1      -3.410  51.872 -12.114  1.00  0.00     0.021 C 
HETATM    3  C13 UNL     1      -4.194  52.099 -10.811  1.00  0.00     0.033 C 
HETATM    4  C14 UNL     1      -4.381  50.840  -9.963  1.00  0.00     0.121 C 
HETATM    5  C15 UNL     1      -3.118  49.969  -9.861  1.00  0.00     0.070 C 
HETATM    6  C16 UNL     1      -2.385  49.763 -11.206  1.00  0.00     0.073 C 
HETATM    7  C17 UNL     1      -1.146  48.872 -11.026  1.00  0.00     0.039 C 
HETATM    8  C18 UNL     1      -0.353  48.678 -12.321  1.00  0.00     0.011 C 
HETATM    9  C19 UNL     1      -0.059  49.981 -13.101  1.00  0.00     0.026 C 
HETATM   10  C20 UNL     1      -1.309  50.896 -13.244  1.00  0.00     0.009 C 
HETATM   11  C21 UNL     1      -0.979  52.212 -13.986  1.00  0.00     0.007 C 
HETATM   12  C22 UNL     1       0.413  52.256 -14.608  1.00  0.00     0.013 C 
HETATM   13  C23 UNL     1       0.821  50.984 -15.377  1.00  0.00    -0.005 C 
HETATM   14  C24 UNL     1       2.304  51.170 -15.797  1.00  0.00     0.019 C 
HETATM   15  C25 UNL     1      -0.077  50.715 -16.635  1.00  0.00     0.028 C 
HETATM   16  C30 UNL     1       0.007  49.191 -16.787  1.00  0.00     0.013 C 
HETATM   17  C31 UNL     1      -0.180  48.701 -15.362  1.00  0.00     0.040 C 
HETATM   18  C32 UNL     1       0.616  49.693 -14.483  1.00  0.00     0.070 C 
ENDROOT
BRANCH   1  19
HETATM   19  C10 UNL     1      -1.208  52.051 -10.990  1.00  0.00     0.093 C 
HETATM   20  N2  UNL     1      -0.938  53.280 -11.298  1.00  0.00    -0.312 N 
ATOM     21  H2  UNL     1      -1.336  53.723 -12.126  1.00  0.00     0.185 HD
BRANCH  20  22
HETATM   22  N1  UNL     1      -0.090  53.957 -10.457  1.00  0.00    -0.269 N 
HETATM   23  C9  UNL     1       1.289  54.022 -10.697  1.00  0.00     0.260 C 
HETATM   24  O2  UNL     1       1.890  53.310 -11.500  1.00  0.00    -0.269 OA
HETATM   25  H9  UNL     1      -0.520  54.796 -10.072  1.00  0.00     0.190 HD
BRANCH  23  26
HETATM   26  C8  UNL     1       1.979  55.079  -9.824  1.00  0.00     0.280 C 
BRANCH  26  27
HETATM   27  O1  UNL     1       3.385  54.947  -9.709  1.00  0.00    -0.342 OA
BRANCH  27  28
HETATM   28  C7  UNL     1       4.041  55.694  -8.770  1.00  0.00     0.075 A 
HETATM   29  C2  UNL     1       5.410  55.404  -8.609  1.00  0.00    -0.027 A 
HETATM   30  C1  UNL     1       6.077  54.348  -9.449  1.00  0.00     0.051 C 
HETATM   31  C3  UNL     1       6.167  56.127  -7.673  1.00  0.00     0.033 A 
HETATM   32  C4  UNL     1       5.565  57.115  -6.900  1.00  0.00     0.034 A 
HETATM   33 CL1  UNL     1       6.503  58.004  -5.764  1.00  0.00    -0.084 Cl
HETATM   34  C5  UNL     1       4.208  57.389  -7.043  1.00  0.00     0.026 A 
HETATM   35  C6  UNL     1       3.447  56.677  -7.973  1.00  0.00     0.039 A 
ENDBRANCH  27  28
ENDBRANCH  26  27
ENDBRANCH  23  26
ENDBRANCH  20  22
ENDBRANCH   1  19
BRANCH   6  36
HETATM   36  O4  UNL     1      -3.297  49.024 -12.045  1.00  0.00    -0.389 OA
HETATM   37  H19 UNL     1      -2.838  48.661 -12.816  1.00  0.00     0.210 HD
ENDBRANCH   6  36
BRANCH   4  38
HETATM   38  O3  UNL     1      -5.464  50.071 -10.482  1.00  0.00    -0.395 OA
HETATM   39  H16 UNL     1      -6.257  50.631 -10.476  1.00  0.00     0.210 HD
ENDBRANCH   4  38
BRANCH  18  40
HETATM   40  O7  UNL     1       1.895  49.098 -14.221  1.00  0.00    -0.389 OA
HETATM   41  H41 UNL     1       1.764  48.215 -13.839  1.00  0.00     0.210 HD
ENDBRANCH  18  40
BRANCH  15  42
HETATM   42  C26 UNL     1       0.215  51.477 -17.901  1.00  0.00    -0.045 A 
HETATM   43  C27 UNL     1       0.847  52.642 -18.037  1.00  0.00     0.087 A 
HETATM   44  C28 UNL     1       0.930  52.933 -19.468  1.00  0.00     0.283 A 
HETATM   45  O5  UNL     1       1.437  53.931 -19.946  1.00  0.00    -0.260 OA
HETATM   46  O6  UNL     1       0.363  51.913 -20.160  1.00  0.00    -0.314 OA
HETATM   47  C29 UNL     1      -0.143  50.946 -19.240  1.00  0.00     0.213 A 
ENDBRANCH  15  42
TORSDOF 9
ENDMDL
MODEL 2
REMARK minimizedAffinity -7.73609781
REMARK CNNscore 0.327978373
REMARK CNNaffinity 6.72521162
REMARK  9 active torsions:
REMARK  status: ('A' for Active; 'I' for Inactive)
REMARK    1  A    between atoms: C7_8  and  O1_9 
REMARK    2  A    between atoms: O1_9  and  C8_10 
REMARK    3  A    between atoms: C8_10  and  C9_11 
REMARK       I    between atoms: C9_11  and  N1_13 
REMARK    4  A    between atoms: N1_13  and  N2_14 
REMARK    5  A    between atoms: C10_16  and  C11_17 
REMARK    6  A    between atoms: C14_20  and  O3_21 
REMARK    7  A    between atoms: C16_23  and  O4_24 
REMARK    8  A    between atoms: C25_33  and  C26_34 
REMARK    9  A    between atoms: C32_42  and  O7_43 
ROOT
HETATM    1  C11 UNL     1      -0.389  51.711 -10.727  1.00  0.00     0.028 C 
HETATM    2  C12 UNL     1      -1.931  51.912 -10.630  1.00  0.00     0.021 C 
HETATM    3  C13 UNL     1      -2.386  52.371  -9.235  1.00  0.00     0.033 C 
HETATM    4  C14 UNL     1      -1.857  51.511  -8.088  1.00  0.00     0.121 C 
HETATM    5  C15 UNL     1      -0.376  51.125  -8.234  1.00  0.00     0.070 C 
HETATM    6  C16 UNL     1       0.016  50.654  -9.653  1.00  0.00     0.073 C 
HETATM    7  C17 UNL     1       1.503  50.273  -9.716  1.00  0.00     0.039 C 
HETATM    8  C18 UNL     1       1.954  49.847 -11.116  1.00  0.00     0.011 C 
HETATM    9  C19 UNL     1       1.521  50.802 -12.254  1.00  0.00     0.026 C 
HETATM   10  C20 UNL     1       0.024  51.215 -12.160  1.00  0.00     0.009 C 
HETATM   11  C21 UNL     1      -0.372  52.206 -13.279  1.00  0.00     0.007 C 
HETATM   12  C22 UNL     1       0.691  52.404 -14.353  1.00  0.00     0.013 C 
HETATM   13  C23 UNL     1       1.345  51.107 -14.868  1.00  0.00    -0.005 C 
HETATM   14  C24 UNL     1       2.487  51.531 -15.831  1.00  0.00     0.019 C 
HETATM   15  C25 UNL     1       0.332  50.159 -15.600  1.00  0.00     0.028 C 
HETATM   16  C30 UNL     1       0.950  48.772 -15.379  1.00  0.00     0.013 C 
HETATM   17  C31 UNL     1       1.331  48.806 -13.909  1.00  0.00     0.040 C 
HETATM   18  C32 UNL     1       1.882  50.230 -13.664  1.00  0.00     0.070 C 
ENDROOT
BRANCH   1  19
HETATM   19  C10 UNL     1       0.243  53.093 -10.471  1.00  0.00     0.093 C 
HETATM   20  N2  UNL     1       1.340  53.254  -9.801  1.00  0.00    -0.312 N 
ATOM     21  H2  UNL     1       1.881  52.458  -9.462  1.00  0.00     0.185 HD
BRANCH  20  22
HETATM   22  N1  UNL     1       1.739  54.547  -9.568  1.00  0.00    -0.269 N 
HETATM   23  C9  UNL     1       1.748  55.094  -8.278  1.00  0.00     0.260 C 
HETATM   24  O2  UNL     1       1.191  54.589  -7.304  1.00  0.00    -0.269 OA
HETATM   25  H9  UNL     1       2.500  54.830 -10.182  1.00  0.00     0.190 HD
BRANCH  23  26
HETATM   26  C8  UNL     1       2.521  56.418  -8.217  1.00  0.00     0.280 C 
BRANCH  26  27
HETATM   27  O1  UNL     1       3.796  56.406  -8.836  1.00  0.00    -0.342 OA
BRANCH  27  28
HETATM   28  C7  UNL     1       4.910  56.356  -8.045  1.00  0.00     0.075 A 
HETATM   29  C2  UNL     1       5.923  55.476  -8.475  1.00  0.00    -0.027 A 
HETATM   30  C1  UNL     1       5.761  54.676  -9.739  1.00  0.00     0.051 C 
HETATM   31  C3  UNL     1       7.107  55.364  -7.729  1.00  0.00     0.033 A 
HETATM   32  C4  UNL     1       7.275  56.109  -6.565  1.00  0.00     0.034 A 
HETATM   33 CL1  UNL     1       8.735  55.976  -5.665  1.00  0.00    -0.084 Cl
HETATM   34  C5  UNL     1       6.267  56.964  -6.128  1.00  0.00     0.026 A 
HETATM   35  C6  UNL     1       5.085  57.084  -6.864  1.00  0.00     0.039 A 
ENDBRANCH  27  28
ENDBRANCH  26  27
ENDBRANCH  23  26
ENDBRANCH  20  22
ENDBRANCH   1  19
BRANCH   6  36
HETATM   36  O4  UNL     1      -0.725  49.437  -9.885  1.00  0.00    -0.389 OA
HETATM   37  H19 UNL     1      -0.373  48.961 -10.651  1.00  0.00     0.210 HD
ENDBRANCH   6  36
BRANCH   4  38
HETATM   38  O3  UNL     1      -2.657  50.337  -7.963  1.00  0.00    -0.395 OA
HETATM   39  H16 UNL     1      -3.574  50.616  -7.811  1.00  0.00     0.210 HD
ENDBRANCH   4  38
BRANCH  18  40
HETATM   40  O7  UNL     1       3.313  50.152 -13.743  1.00  0.00    -0.389 OA
HETATM   41  H41 UNL     1       3.630  49.470 -13.129  1.00  0.00     0.210 HD
ENDBRANCH  18  40
BRANCH  15  42
HETATM   42  C26 UNL     1      -0.019  50.454 -17.034  1.00  0.00    -0.045 A 
HETATM   43  C27 UNL     1       0.162  51.587 -17.713  1.00  0.00     0.087 A 
HETATM   44  C28 UNL     1      -0.287  51.355 -19.085  1.00  0.00     0.283 A 
HETATM   45  O5  UNL     1      -0.274  52.188 -19.972  1.00  0.00    -0.260 OA
HETATM   46  O6  UNL     1      -0.706  50.069 -19.201  1.00  0.00    -0.314 OA
HETATM   47  C29 UNL     1      -0.592  49.422 -17.933  1.00  0.00     0.213 A 
ENDBRANCH  15  42
TORSDOF 9
ENDMDL
MODEL 3
REMARK minimizedAffinity -7.95152283
REMARK CNNscore 0.28576678
REMARK CNNaffinity 5.89691973
REMARK  9 active torsions:
REMARK  status: ('A' for Active; 'I' for Inactive)
REMARK    1  A    between atoms: C7_8  and  O1_9 
REMARK    2  A    between atoms: O1_9  and  C8_10 
REMARK    3  A    between atoms: C8_10  and  C9_11 
REMARK       I    between atoms: C9_11  and  N1_13 
REMARK    4  A    between atoms: N1_13  and  N2_14 
REMARK    5  A    between atoms: C10_16  and  C11_17 
REMARK    6  A    between atoms: C14_20  and  O3_21 
REMARK    7  A    between atoms: C16_23  and  O4_24 
REMARK    8  A    between atoms: C25_33  and  C26_34 
REMARK    9  A    between atoms: C32_42  and  O7_43 
ROOT
HETATM    1  C11 UNL     1      -9.506  47.001 -29.577  1.00  0.00     0.028 C 
HETATM    2  C12 UNL     1     -10.061  47.833 -30.772  1.00  0.00     0.021 C 
HETATM    3  C13 UNL     1      -8.969  48.226 -31.782  1.00  0.00     0.033 C 
HETATM    4  C14 UNL     1      -7.743  48.889 -31.154  1.00  0.00     0.121 C 
HETATM    5  C15 UNL     1      -7.267  48.212 -29.859  1.00  0.00     0.070 C 
HETATM    6  C16 UNL     1      -8.408  47.859 -28.877  1.00  0.00     0.073 C 
HETATM    7  C17 UNL     1      -7.853  47.201 -27.603  1.00  0.00     0.039 C 
HETATM    8  C18 UNL     1      -8.948  46.785 -26.618  1.00  0.00     0.011 C 
HETATM    9  C19 UNL     1     -10.121  45.998 -27.249  1.00  0.00     0.026 C 
HETATM   10  C20 UNL     1     -10.650  46.648 -28.560  1.00  0.00     0.009 C 
HETATM   11  C21 UNL     1     -11.790  45.818 -29.196  1.00  0.00     0.007 C 
HETATM   12  C22 UNL     1     -12.306  44.679 -28.324  1.00  0.00     0.013 C 
HETATM   13  C23 UNL     1     -12.551  45.050 -26.848  1.00  0.00    -0.005 C 
HETATM   14  C24 UNL     1     -12.923  43.737 -26.110  1.00  0.00     0.019 C 
HETATM   15  C25 UNL     1     -13.681  46.123 -26.666  1.00  0.00     0.028 C 
HETATM   16  C30 UNL     1     -13.278  46.816 -25.357  1.00  0.00     0.013 C 
HETATM   17  C31 UNL     1     -11.785  47.027 -25.536  1.00  0.00     0.040 C 
HETATM   18  C32 UNL     1     -11.271  45.740 -26.220  1.00  0.00     0.070 C 
ENDROOT
BRANCH   1  19
HETATM   19  C10 UNL     1      -8.949  45.697 -30.181  1.00  0.00     0.093 C 
HETATM   20  N2  UNL     1      -8.372  44.780 -29.470  1.00  0.00    -0.312 N 
ATOM     21  H2  UNL     1      -8.315  44.849 -28.454  1.00  0.00     0.185 HD
BRANCH  20  22
HETATM   22  N1  UNL     1      -7.839  43.713 -30.151  1.00  0.00    -0.269 N 
HETATM   23  C9  UNL     1      -8.643  42.667 -30.625  1.00  0.00     0.260 C 
HETATM   24  O2  UNL     1      -9.808  42.475 -30.282  1.00  0.00    -0.269 OA
HETATM   25  H9  UNL     1      -7.061  43.987 -30.746  1.00  0.00     0.190 HD
BRANCH  23  26
HETATM   26  C8  UNL     1      -7.893  41.766 -31.615  1.00  0.00     0.280 C 
BRANCH  26  27
HETATM   27  O1  UNL     1      -6.542  42.119 -31.854  1.00  0.00    -0.342 OA
BRANCH  27  28
HETATM   28  C7  UNL     1      -5.886  41.539 -32.905  1.00  0.00     0.075 A 
HETATM   29  C2  UNL     1      -4.742  42.222 -33.361  1.00  0.00    -0.027 A 
HETATM   30  C1  UNL     1      -4.290  43.494 -32.696  1.00  0.00     0.051 C 
HETATM   31  C3  UNL     1      -4.001  41.696 -34.431  1.00  0.00     0.033 A 
HETATM   32  C4  UNL     1      -4.401  40.514 -35.046  1.00  0.00     0.034 A 
HETATM   33 CL1  UNL     1      -3.479  39.870 -36.348  1.00  0.00    -0.084 Cl
HETATM   34  C5  UNL     1      -5.543  39.848 -34.610  1.00  0.00     0.026 A 
HETATM   35  C6  UNL     1      -6.287  40.362 -33.544  1.00  0.00     0.039 A 
ENDBRANCH  27  28
ENDBRANCH  26  27
ENDBRANCH  23  26
ENDBRANCH  20  22
ENDBRANCH   1  19
BRANCH   6  36
HETATM   36  O4  UNL     1      -8.982  49.118 -28.467  1.00  0.00    -0.389 OA
HETATM   37  H19 UNL     1      -9.546  49.001 -27.689  1.00  0.00     0.210 HD
ENDBRANCH   6  36
BRANCH   4  38
HETATM   38  O3  UNL     1      -8.017  50.268 -30.913  1.00  0.00    -0.395 OA
HETATM   39  H16 UNL     1      -8.255  50.677 -31.761  1.00  0.00     0.210 HD
ENDBRANCH   4  38
BRANCH  18  40
HETATM   40  O7  UNL     1     -10.742  44.893 -25.189  1.00  0.00    -0.389 OA
HETATM   41  H41 UNL     1     -10.080  45.386 -24.677  1.00  0.00     0.210 HD
ENDBRANCH  18  40
BRANCH  15  42
HETATM   42  C26 UNL     1     -15.115  45.668 -26.704  1.00  0.00    -0.045 A 
HETATM   43  C27 UNL     1     -16.031  45.736 -25.737  1.00  0.00     0.087 A 
HETATM   44  C28 UNL     1     -17.285  45.219 -26.282  1.00  0.00     0.283 A 
HETATM   45  O5  UNL     1     -18.327  45.126 -25.660  1.00  0.00    -0.260 OA
HETATM   46  O6  UNL     1     -17.095  44.875 -27.581  1.00  0.00    -0.314 OA
HETATM   47  C29 UNL     1     -15.730  45.106 -27.932  1.00  0.00     0.213 A 
ENDBRANCH  15  42
TORSDOF 9
ENDMDL
MODEL 4
REMARK minimizedAffinity -8.07155228
REMARK CNNscore 0.278570831
REMARK CNNaffinity 6.72282267
REMARK  9 active torsions:
REMARK  status: ('A' for Active; 'I' for Inactive)
REMARK    1  A    between atoms: C7_8  and  O1_9 
REMARK    2  A    between atoms: O1_9  and  C8_10 
REMARK    3  A    between atoms: C8_10  and  C9_11 
REMARK       I    between atoms: C9_11  and  N1_13 
REMARK    4  A    between atoms: N1_13  and  N2_14 
REMARK    5  A    between atoms: C10_16  and  C11_17 
REMARK    6  A    between atoms: C14_20  and  O3_21 
REMARK    7  A    between atoms: C16_23  and  O4_24 
REMARK    8  A    between atoms: C25_33  and  C26_34 
REMARK    9  A    between atoms: C32_42  and  O7_43 
ROOT
HETATM    1  C11 UNL     1      -2.005  51.004 -11.647  1.00  0.00     0.028 C 
HETATM    2  C12 UNL     1      -3.415  51.615 -11.901  1.00  0.00     0.021 C 
HETATM    3  C13 UNL     1      -4.208  51.844 -10.603  1.00  0.00     0.033 C 
HETATM    4  C14 UNL     1      -4.280  50.622  -9.688  1.00  0.00     0.121 C 
HETATM    5  C15 UNL     1      -2.947  49.868  -9.554  1.00  0.00     0.070 C 
HETATM    6  C16 UNL     1      -2.207  49.653 -10.894  1.00  0.00     0.073 C 
HETATM    7  C17 UNL     1      -0.895  48.883 -10.680  1.00  0.00     0.039 C 
HETATM    8  C18 UNL     1      -0.097  48.688 -11.972  1.00  0.00     0.011 C 
HETATM    9  C19 UNL     1       0.079  49.968 -12.823  1.00  0.00     0.026 C 
HETATM   10  C20 UNL     1      -1.246  50.763 -13.001  1.00  0.00     0.009 C 
HETATM   11  C21 UNL     1      -1.035  52.061 -13.815  1.00  0.00     0.007 C 
HETATM   12  C22 UNL     1       0.344  52.190 -14.453  1.00  0.00     0.013 C 
HETATM   13  C23 UNL     1       0.856  50.919 -15.158  1.00  0.00    -0.005 C 
HETATM   14  C24 UNL     1       2.314  51.207 -15.604  1.00  0.00     0.019 C 
HETATM   15  C25 UNL     1      -0.024  50.506 -16.391  1.00  0.00     0.028 C 
HETATM   16  C30 UNL     1       0.189  48.989 -16.463  1.00  0.00     0.013 C 
HETATM   17  C31 UNL     1       0.054  48.562 -15.012  1.00  0.00     0.040 C 
HETATM   18  C32 UNL     1       0.768  49.665 -14.195  1.00  0.00     0.070 C 
ENDROOT
BRANCH   1  19
HETATM   19  C10 UNL     1      -1.230  52.042 -10.813  1.00  0.00     0.093 C 
HETATM   20  N2  UNL     1      -1.576  52.382  -9.611  1.00  0.00    -0.312 N 
ATOM     21  H2  UNL     1      -2.350  51.926  -9.129  1.00  0.00     0.185 HD
BRANCH  20  22
HETATM   22  N1  UNL     1      -0.851  53.386  -9.019  1.00  0.00    -0.269 N 
HETATM   23  C9  UNL     1      -0.914  53.625  -7.639  1.00  0.00     0.260 C 
HETATM   24  O2  UNL     1      -1.768  53.154  -6.890  1.00  0.00    -0.269 OA
HETATM   25  H9  UNL     1       0.060  53.511  -9.456  1.00  0.00     0.190 HD
BRANCH  23  26
HETATM   26  C8  UNL     1       0.202  54.565  -7.164  1.00  0.00     0.280 C 
BRANCH  26  27
HETATM   27  O1  UNL     1       0.706  55.454  -8.146  1.00  0.00    -0.342 OA
BRANCH  27  28
HETATM   28  C7  UNL     1       2.007  55.324  -8.546  1.00  0.00     0.075 A 
HETATM   29  C2  UNL     1       2.884  56.334  -8.105  1.00  0.00    -0.027 A 
HETATM   30  C1  UNL     1       2.388  57.457  -7.235  1.00  0.00     0.051 C 
HETATM   31  C3  UNL     1       4.241  56.278  -8.460  1.00  0.00     0.033 A 
HETATM   32  C4  UNL     1       4.715  55.238  -9.254  1.00  0.00     0.034 A 
HETATM   33 CL1  UNL     1       6.382  55.171  -9.673  1.00  0.00    -0.084 Cl
HETATM   34  C5  UNL     1       3.846  54.249  -9.707  1.00  0.00     0.026 A 
HETATM   35  C6  UNL     1       2.494  54.294  -9.357  1.00  0.00     0.039 A 
ENDBRANCH  27  28
ENDBRANCH  26  27
ENDBRANCH  23  26
ENDBRANCH  20  22
ENDBRANCH   1  19
BRANCH   6  36
HETATM   36  O4  UNL     1      -3.058  48.795 -11.683  1.00  0.00    -0.389 OA
HETATM   37  H19 UNL     1      -2.574  48.432 -12.438  1.00  0.00     0.210 HD
ENDBRANCH   6  36
BRANCH   4  38
HETATM   38  O3  UNL     1      -5.297  49.736 -10.154  1.00  0.00    -0.395 OA
HETATM   39  H16 UNL     1      -6.135  50.226 -10.169  1.00  0.00     0.210 HD
ENDBRANCH   4  38
BRANCH  18  40
HETATM   40  O7  UNL     1       2.095  49.196 -13.916  1.00  0.00    -0.389 OA
HETATM   41  H41 UNL     1       2.043  48.326 -13.486  1.00  0.00     0.210 HD
ENDBRANCH  18  40
BRANCH  15  42
HETATM   42  C26 UNL     1       0.193  51.221 -17.698  1.00  0.00    -0.045 A 
HETATM   43  C27 UNL     1      -0.185  50.843 -18.920  1.00  0.00     0.087 A 
HETATM   44  C28 UNL     1       0.207  51.902 -19.848  1.00  0.00     0.283 A 
HETATM   45  O5  UNL     1       0.023  51.875 -21.051  1.00  0.00    -0.260 OA
HETATM   46  O6  UNL     1       0.791  52.909 -19.150  1.00  0.00    -0.314 OA
HETATM   47  C29 UNL     1       0.847  52.551 -17.769  1.00  0.00     0.213 A 
ENDBRANCH  15  42
TORSDOF 9
ENDMDL
MODEL 5
REMARK minimizedAffinity -9.08111954
REMARK CNNscore 0.231352657
REMARK CNNaffinity 6.56142092
REMARK  9 active torsions:
REMARK  status: ('A' for Active; 'I' for Inactive)
REMARK    1  A    between atoms: C7_8  and  O1_9 
REMARK    2  A    between atoms: O1_9  and  C8_10 
REMARK    3  A    between atoms: C8_10  and  C9_11 
REMARK       I    between atoms: C9_11  and  N1_13 
REMARK    4  A    between atoms: N1_13  and  N2_14 
REMARK    5  A    between atoms: C10_16  and  C11_17 
REMARK    6  A    between atoms: C14_20  and  O3_21 
REMARK    7  A    between atoms: C16_23  and  O4_24 
REMARK    8  A    between atoms: C25_33  and  C26_34 
REMARK    9  A    between atoms: C32_42  and  O7_43 
ROOT
HETATM    1  C11 UNL     1      -0.369  52.569 -11.102  1.00  0.00     0.028 C 
HETATM    2  C12 UNL     1      -0.685  51.044 -11.041  1.00  0.00     0.021 C 
HETATM    3  C13 UNL     1      -1.924  50.659 -11.866  1.00  0.00     0.033 C 
HETATM    4  C14 UNL     1      -3.163  51.503 -11.568  1.00  0.00     0.121 C 
HETATM    5  C15 UNL     1      -2.871  53.006 -11.431  1.00  0.00     0.070 C 
HETATM    6  C16 UNL     1      -1.625  53.330 -10.575  1.00  0.00     0.073 C 
HETATM    7  C17 UNL     1      -1.407  54.847 -10.472  1.00  0.00     0.039 C 
HETATM    8  C18 UNL     1      -0.154  55.221  -9.676  1.00  0.00     0.011 C 
HETATM    9  C19 UNL     1       1.124  54.448 -10.082  1.00  0.00     0.026 C 
HETATM   10  C20 UNL     1       0.886  52.917 -10.224  1.00  0.00     0.009 C 
HETATM   11  C21 UNL     1       2.165  52.174 -10.674  1.00  0.00     0.007 C 
HETATM   12  C22 UNL     1       3.426  53.030 -10.677  1.00  0.00     0.013 C 
HETATM   13  C23 UNL     1       3.620  53.905  -9.423  1.00  0.00    -0.005 C 
HETATM   14  C24 UNL     1       4.863  54.798  -9.685  1.00  0.00     0.019 C 
HETATM   15  C25 UNL     1       3.813  53.064  -8.112  1.00  0.00     0.028 C 
HETATM   16  C30 UNL     1       3.288  54.010  -7.025  1.00  0.00     0.013 C 
HETATM   17  C31 UNL     1       2.002  54.540  -7.635  1.00  0.00     0.040 C 
HETATM   18  C32 UNL     1       2.324  54.767  -9.130  1.00  0.00     0.070 C 
ENDROOT
BRANCH   1  19
HETATM   19  C10 UNL     1      -0.055  52.885 -12.577  1.00  0.00     0.093 C 
HETATM   20  N2  UNL     1       0.781  52.193 -13.285  1.00  0.00    -0.312 N 
ATOM     21  H2  UNL     1       1.228  51.354 -12.914  1.00  0.00     0.185 HD
BRANCH  20  22
HETATM   22  N1  UNL     1       1.035  52.643 -14.557  1.00  0.00    -0.269 N 
HETATM   23  C9  UNL     1       1.223  51.757 -15.627  1.00  0.00     0.260 C 
HETATM   24  O2  UNL     1       1.421  50.549 -15.504  1.00  0.00    -0.269 OA
HETATM   25  H9  UNL     1       0.534  53.503 -14.768  1.00  0.00     0.190 HD
BRANCH  23  26
HETATM   26  C8  UNL     1       1.173  52.472 -16.984  1.00  0.00     0.280 C 
BRANCH  26  27
HETATM   27  O1  UNL     1       0.143  52.042 -17.859  1.00  0.00    -0.342 OA
BRANCH  27  28
HETATM   28  C7  UNL     1       0.287  52.260 -19.201  1.00  0.00     0.075 A 
HETATM   29  C2  UNL     1      -0.140  51.210 -20.038  1.00  0.00    -0.027 A 
HETATM   30  C1  UNL     1      -0.729  49.955 -19.455  1.00  0.00     0.051 C 
HETATM   31  C3  UNL     1      -0.037  51.348 -21.431  1.00  0.00     0.033 A 
HETATM   32  C4  UNL     1       0.494  52.510 -21.982  1.00  0.00     0.034 A 
HETATM   33 CL1  UNL     1       0.604  52.676 -23.691  1.00  0.00    -0.084 Cl
HETATM   34  C5  UNL     1       0.935  53.541 -21.157  1.00  0.00     0.026 A 
HETATM   35  C6  UNL     1       0.836  53.414 -19.768  1.00  0.00     0.039 A 
ENDBRANCH  27  28
ENDBRANCH  26  27
ENDBRANCH  23  26
ENDBRANCH  20  22
ENDBRANCH   1  19
BRANCH   6  36
HETATM   36  O4  UNL     1      -1.930  52.872  -9.241  1.00  0.00    -0.389 OA
HETATM   37  H19 UNL     1      -1.301  53.235  -8.601  1.00  0.00     0.210 HD
ENDBRANCH   6  36
BRANCH   4  38
HETATM   38  O3  UNL     1      -3.798  51.019 -10.386  1.00  0.00    -0.395 OA
HETATM   39  H16 UNL     1      -4.023  50.086 -10.530  1.00  0.00     0.210 HD
ENDBRANCH   4  38
BRANCH  18  40
HETATM   40  O7  UNL     1       2.641  56.158  -9.291  1.00  0.00    -0.389 OA
HETATM   41  H41 UNL     1       1.915  56.695  -8.934  1.00  0.00     0.210 HD
ENDBRANCH  18  40
BRANCH  15  42
HETATM   42  C26 UNL     1       5.175  52.490  -7.823  1.00  0.00    -0.045 A 
HETATM   43  C27 UNL     1       5.832  51.543  -8.492  1.00  0.00     0.087 A 
HETATM   44  C28 UNL     1       7.137  51.378  -7.854  1.00  0.00     0.283 A 
HETATM   45  O5  UNL     1       7.988  50.582  -8.205  1.00  0.00    -0.260 OA
HETATM   46  O6  UNL     1       7.240  52.258  -6.825  1.00  0.00    -0.314 OA
HETATM   47  C29 UNL     1       6.023  52.996  -6.715  1.00  0.00     0.213 A 
ENDBRANCH  15  42
TORSDOF 9
ENDMDL
MODEL 6
REMARK minimizedAffinity -9.83131695
REMARK CNNscore 0.203900591
REMARK CNNaffinity 6.3199544
REMARK  9 active torsions:
REMARK  status: ('A' for Active; 'I' for Inactive)
REMARK    1  A    between atoms: C7_8  and  O1_9 
REMARK    2  A    between atoms: O1_9  and  C8_10 
REMARK    3  A    between atoms: C8_10  and  C9_11 
REMARK       I    between atoms: C9_11  and  N1_13 
REMARK    4  A    between atoms: N1_13  and  N2_14 
REMARK    5  A    between atoms: C10_16  and  C11_17 
REMARK    6  A    between atoms: C14_20  and  O3_21 
REMARK    7  A    between atoms: C16_23  and  O4_24 
REMARK    8  A    between atoms: C25_33  and  C26_34 
REMARK    9  A    between atoms: C32_42  and  O7_43 
ROOT
HETATM    1  C11 UNL     1      -6.979  46.818 -30.281  1.00  0.00     0.028 C 
HETATM    2  C12 UNL     1      -6.320  45.607 -31.006  1.00  0.00     0.021 C 
HETATM    3  C13 UNL     1      -4.935  45.940 -31.587  1.00  0.00     0.033 C 
HETATM    4  C14 UNL     1      -4.906  47.199 -32.454  1.00  0.00     0.121 C 
HETATM    5  C15 UNL     1      -5.705  48.374 -31.868  1.00  0.00     0.070 C 
HETATM    6  C16 UNL     1      -7.095  47.979 -31.317  1.00  0.00     0.073 C 
HETATM    7  C17 UNL     1      -7.837  49.205 -30.764  1.00  0.00     0.039 C 
HETATM    8  C18 UNL     1      -9.200  48.859 -30.159  1.00  0.00     0.011 C 
HETATM    9  C19 UNL     1      -9.188  47.661 -29.180  1.00  0.00     0.026 C 
HETATM   10  C20 UNL     1      -8.400  46.438 -29.730  1.00  0.00     0.009 C 
HETATM   11  C21 UNL     1      -8.362  45.272 -28.715  1.00  0.00     0.007 C 
HETATM   12  C22 UNL     1      -9.264  45.461 -27.501  1.00  0.00     0.013 C 
HETATM   13  C23 UNL     1     -10.685  45.968 -27.819  1.00  0.00    -0.005 C 
HETATM   14  C24 UNL     1     -11.383  46.234 -26.459  1.00  0.00     0.019 C 
HETATM   15  C25 UNL     1     -11.519  44.952 -28.676  1.00  0.00     0.028 C 
HETATM   16  C30 UNL     1     -12.495  45.868 -29.426  1.00  0.00     0.013 C 
HETATM   17  C31 UNL     1     -11.598  46.999 -29.897  1.00  0.00     0.040 C 
HETATM   18  C32 UNL     1     -10.631  47.268 -28.721  1.00  0.00     0.070 C 
ENDROOT
BRANCH   1  19
HETATM   19  C10 UNL     1      -6.056  47.166 -29.097  1.00  0.00     0.093 C 
HETATM   20  N2  UNL     1      -5.804  48.384 -28.733  1.00  0.00    -0.312 N 
ATOM     21  H2  UNL     1      -6.262  49.180 -29.177  1.00  0.00     0.185 HD
BRANCH  20  22
HETATM   22  N1  UNL     1      -4.891  48.552 -27.722  1.00  0.00    -0.269 N 
HETATM   23  C9  UNL     1      -3.831  49.462 -27.830  1.00  0.00     0.260 C 
HETATM   24  O2  UNL     1      -3.476  49.995 -28.880  1.00  0.00    -0.269 OA
HETATM   25  H9  UNL     1      -5.317  48.465 -26.801  1.00  0.00     0.190 HD
BRANCH  23  26
HETATM   26  C8  UNL     1      -3.142  49.710 -26.481  1.00  0.00     0.280 C 
BRANCH  26  27
HETATM   27  O1  UNL     1      -1.778  50.087 -26.557  1.00  0.00    -0.342 OA
BRANCH  27  28
HETATM   28  C7  UNL     1      -1.220  50.754 -25.502  1.00  0.00     0.075 A 
HETATM   29  C2  UNL     1      -0.034  51.459 -25.785  1.00  0.00    -0.027 A 
HETATM   30  C1  UNL     1       0.540  51.471 -27.176  1.00  0.00     0.051 C 
HETATM   31  C3  UNL     1       0.605  52.180 -24.764  1.00  0.00     0.033 A 
HETATM   32  C4  UNL     1       0.077  52.188 -23.477  1.00  0.00     0.034 A 
HETATM   33 CL1  UNL     1       0.860  53.085 -22.234  1.00  0.00    -0.084 Cl
HETATM   34  C5  UNL     1      -1.084  51.475 -23.189  1.00  0.00     0.026 A 
HETATM   35  C6  UNL     1      -1.729  50.756 -24.199  1.00  0.00     0.039 A 
ENDBRANCH  27  28
ENDBRANCH  26  27
ENDBRANCH  23  26
ENDBRANCH  20  22
ENDBRANCH   1  19
BRANCH   6  36
HETATM   36  O4  UNL     1      -7.857  47.522 -32.455  1.00  0.00    -0.389 OA
HETATM   37  H19 UNL     1      -8.798  47.469 -32.239  1.00  0.00     0.210 HD
ENDBRANCH   6  36
BRANCH   4  38
HETATM   38  O3  UNL     1      -5.381  46.889 -33.762  1.00  0.00    -0.395 OA
HETATM   39  H16 UNL     1      -4.817  46.187 -34.126  1.00  0.00     0.210 HD
ENDBRANCH   4  38
BRANCH  18  40
HETATM   40  O7  UNL     1     -11.161  48.375 -27.978  1.00  0.00    -0.389 OA
HETATM   41  H41 UNL     1     -11.306  49.124 -28.579  1.00  0.00     0.210 HD
ENDBRANCH  18  40
BRANCH  15  42
HETATM   42  C26 UNL     1     -12.178  43.794 -27.976  1.00  0.00    -0.045 A 
HETATM   43  C27 UNL     1     -12.811  42.752 -28.516  1.00  0.00     0.087 A 
HETATM   44  C28 UNL     1     -13.222  41.872 -27.423  1.00  0.00     0.283 A 
HETATM   45  O5  UNL     1     -13.838  40.832 -27.563  1.00  0.00    -0.260 OA
HETATM   46  O6  UNL     1     -12.797  42.399 -26.247  1.00  0.00    -0.314 OA
HETATM   47  C29 UNL     1     -12.139  43.641 -26.500  1.00  0.00     0.213 A 
ENDBRANCH  15  42
TORSDOF 9
ENDMDL
MODEL 7
REMARK minimizedAffinity -7.79414463
REMARK CNNscore 0.203465
REMARK CNNaffinity 5.76454353
REMARK  9 active torsions:
REMARK  status: ('A' for Active; 'I' for Inactive)
REMARK    1  A    between atoms: C7_8  and  O1_9 
REMARK    2  A    between atoms: O1_9  and  C8_10 
REMARK    3  A    between atoms: C8_10  and  C9_11 
REMARK       I    between atoms: C9_11  and  N1_13 
REMARK    4  A    between atoms: N1_13  and  N2_14 
REMARK    5  A    between atoms: C10_16  and  C11_17 
REMARK    6  A    between atoms: C14_20  and  O3_21 
REMARK    7  A    between atoms: C16_23  and  O4_24 
REMARK    8  A    between atoms: C25_33  and  C26_34 
REMARK    9  A    between atoms: C32_42  and  O7_43 
ROOT
HETATM    1  C11 UNL     1      -9.838  46.945 -30.267  1.00  0.00     0.028 C 
HETATM    2  C12 UNL     1      -9.618  48.442 -29.892  1.00  0.00     0.021 C 
HETATM    3  C13 UNL     1      -8.712  49.179 -30.893  1.00  0.00     0.033 C 
HETATM    4  C14 UNL     1      -7.389  48.471 -31.182  1.00  0.00     0.121 C 
HETATM    5  C15 UNL     1      -7.528  46.952 -31.374  1.00  0.00     0.070 C 
HETATM    6  C16 UNL     1      -8.436  46.265 -30.327  1.00  0.00     0.073 C 
HETATM    7  C17 UNL     1      -8.513  44.751 -30.575  1.00  0.00     0.039 C 
HETATM    8  C18 UNL     1      -9.442  44.029 -29.595  1.00  0.00     0.011 C 
HETATM    9  C19 UNL     1     -10.829  44.689 -29.414  1.00  0.00     0.026 C 
HETATM   10  C20 UNL     1     -10.745  46.228 -29.203  1.00  0.00     0.009 C 
HETATM   11  C21 UNL     1     -12.145  46.870 -29.071  1.00  0.00     0.007 C 
HETATM   12  C22 UNL     1     -13.291  45.871 -28.955  1.00  0.00     0.013 C 
HETATM   13  C23 UNL     1     -13.041  44.707 -27.975  1.00  0.00    -0.005 C 
HETATM   14  C24 UNL     1     -14.245  43.737 -28.113  1.00  0.00     0.019 C 
HETATM   15  C25 UNL     1     -12.884  45.182 -26.488  1.00  0.00     0.028 C 
HETATM   16  C30 UNL     1     -11.996  44.090 -25.879  1.00  0.00     0.013 C 
HETATM   17  C31 UNL     1     -10.922  43.904 -26.936  1.00  0.00     0.040 C 
HETATM   18  C32 UNL     1     -11.664  43.991 -28.290  1.00  0.00     0.070 C 
ENDROOT
BRANCH   1  19
HETATM   19  C10 UNL     1     -10.560  46.943 -31.628  1.00  0.00     0.093 C 
HETATM   20  N2  UNL     1     -11.261  45.940 -32.054  1.00  0.00    -0.312 N 
ATOM     21  H2  UNL     1     -11.424  45.117 -31.473  1.00  0.00     0.185 HD
BRANCH  20  22
HETATM   22  N1  UNL     1     -11.772  46.037 -33.324  1.00  0.00    -0.269 N 
HETATM   23  C9  UNL     1     -11.249  45.289 -34.388  1.00  0.00     0.260 C 
HETATM   24  O2  UNL     1     -10.175  44.690 -34.355  1.00  0.00    -0.269 OA
HETATM   25  H9  UNL     1     -12.781  46.172 -33.323  1.00  0.00     0.190 HD
BRANCH  23  26
HETATM   26  C8  UNL     1     -12.165  45.315 -35.619  1.00  0.00     0.280 C 
BRANCH  26  27
HETATM   27  O1  UNL     1     -12.721  46.580 -35.935  1.00  0.00    -0.342 OA
BRANCH  27  28
HETATM   28  C7  UNL     1     -12.462  47.124 -37.162  1.00  0.00     0.075 A 
HETATM   29  C2  UNL     1     -13.545  47.782 -37.777  1.00  0.00    -0.027 A 
HETATM   30  C1  UNL     1     -14.879  47.878 -37.086  1.00  0.00     0.051 C 
HETATM   31  C3  UNL     1     -13.371  48.378 -39.036  1.00  0.00     0.033 A 
HETATM   32  C4  UNL     1     -12.139  48.308 -39.679  1.00  0.00     0.034 A 
HETATM   33 CL1  UNL     1     -11.930  49.053 -41.216  1.00  0.00    -0.084 Cl
HETATM   34  C5  UNL     1     -11.072  47.641 -39.082  1.00  0.00     0.026 A 
HETATM   35  C6  UNL     1     -11.235  47.046 -37.828  1.00  0.00     0.039 A 
ENDBRANCH  27  28
ENDBRANCH  26  27
ENDBRANCH  23  26
ENDBRANCH  20  22
ENDBRANCH   1  19
BRANCH   6  36
HETATM   36  O4  UNL     1      -7.773  46.435 -29.056  1.00  0.00    -0.389 OA
HETATM   37  H19 UNL     1      -8.155  45.847 -28.389  1.00  0.00     0.210 HD
ENDBRANCH   6  36
BRANCH   4  38
HETATM   38  O3  UNL     1      -6.460  48.747 -30.135  1.00  0.00    -0.395 OA
HETATM   39  H16 UNL     1      -6.350  49.710 -30.082  1.00  0.00     0.210 HD
ENDBRANCH   4  38
BRANCH  18  40
HETATM   40  O7  UNL     1     -11.924  42.647 -28.720  1.00  0.00    -0.389 OA
HETATM   41  H41 UNL     1     -11.091  42.148 -28.732  1.00  0.00     0.210 HD
ENDBRANCH  18  40
BRANCH  15  42
HETATM   42  C26 UNL     1     -14.130  45.475 -25.694  1.00  0.00    -0.045 A 
HETATM   43  C27 UNL     1     -14.934  46.535 -25.779  1.00  0.00     0.087 A 
HETATM   44  C28 UNL     1     -16.037  46.327 -24.842  1.00  0.00     0.283 A 
HETATM   45  O5  UNL     1     -16.949  47.111 -24.656  1.00  0.00    -0.260 OA
HETATM   46  O6  UNL     1     -15.878  45.125 -24.233  1.00  0.00    -0.314 OA
HETATM   47  C29 UNL     1     -14.672  44.518 -24.698  1.00  0.00     0.213 A 
ENDBRANCH  15  42
TORSDOF 9
ENDMDL
MODEL 8
REMARK minimizedAffinity -7.79936886
REMARK CNNscore 0.201471373
REMARK CNNaffinity 5.96411896
REMARK  9 active torsions:
REMARK  status: ('A' for Active; 'I' for Inactive)
REMARK    1  A    between atoms: C7_8  and  O1_9 
REMARK    2  A    between atoms: O1_9  and  C8_10 
REMARK    3  A    between atoms: C8_10  and  C9_11 
REMARK       I    between atoms: C9_11  and  N1_13 
REMARK    4  A    between atoms: N1_13  and  N2_14 
REMARK    5  A    between atoms: C10_16  and  C11_17 
REMARK    6  A    between atoms: C14_20  and  O3_21 
REMARK    7  A    between atoms: C16_23  and  O4_24 
REMARK    8  A    between atoms: C25_33  and  C26_34 
REMARK    9  A    between atoms: C32_42  and  O7_43 
ROOT
HETATM    1  C11 UNL     1       1.139  52.760 -10.681  1.00  0.00     0.028 C 
HETATM    2  C12 UNL     1      -0.103  51.826 -10.568  1.00  0.00     0.021 C 
HETATM    3  C13 UNL     1      -1.377  52.455 -11.156  1.00  0.00     0.033 C 
HETATM    4  C14 UNL     1      -1.680  53.861 -10.637  1.00  0.00     0.121 C 
HETATM    5  C15 UNL     1      -0.444  54.770 -10.550  1.00  0.00     0.070 C 
HETATM    6  C16 UNL     1       0.799  54.086  -9.934  1.00  0.00     0.073 C 
HETATM    7  C17 UNL     1       1.986  55.060  -9.868  1.00  0.00     0.039 C 
HETATM    8  C18 UNL     1       3.258  54.416  -9.311  1.00  0.00     0.011 C 
HETATM    9  C19 UNL     1       3.623  53.052  -9.943  1.00  0.00     0.026 C 
HETATM   10  C20 UNL     1       2.407  52.087 -10.044  1.00  0.00     0.009 C 
HETATM   11  C21 UNL     1       2.786  50.750 -10.721  1.00  0.00     0.007 C 
HETATM   12  C22 UNL     1       4.281  50.558 -10.949  1.00  0.00     0.013 C 
HETATM   13  C23 UNL     1       5.175  50.927  -9.748  1.00  0.00    -0.005 C 
HETATM   14  C24 UNL     1       6.646  50.806 -10.229  1.00  0.00     0.019 C 
HETATM   15  C25 UNL     1       4.928  50.013  -8.497  1.00  0.00     0.028 C 
HETATM   16  C30 UNL     1       5.320  50.928  -7.330  1.00  0.00     0.013 C 
HETATM   17  C31 UNL     1       4.652  52.242  -7.696  1.00  0.00     0.040 C 
HETATM   18  C32 UNL     1       4.841  52.383  -9.224  1.00  0.00     0.070 C 
ENDROOT
BRANCH   1  19
HETATM   19  C10 UNL     1       1.384  52.971 -12.188  1.00  0.00     0.093 C 
HETATM   20  N2  UNL     1       0.694  52.371 -13.106  1.00  0.00    -0.312 N 
ATOM     21  H2  UNL     1      -0.098  51.772 -12.873  1.00  0.00     0.185 HD
BRANCH  20  22
HETATM   22  N1  UNL     1       1.081  52.579 -14.407  1.00  0.00    -0.269 N 
HETATM   23  C9  UNL     1       0.892  51.605 -15.396  1.00  0.00     0.260 C 
HETATM   24  O2  UNL     1       0.608  50.430 -15.170  1.00  0.00    -0.269 OA
HETATM   25  H9  UNL     1       0.950  53.546 -14.696  1.00  0.00     0.190 HD
BRANCH  23  26
HETATM   26  C8  UNL     1       1.100  52.168 -16.809  1.00  0.00     0.280 C 
BRANCH  26  27
HETATM   27  O1  UNL     1       0.183  51.708 -17.786  1.00  0.00    -0.342 OA
BRANCH  27  28
HETATM   28  C7  UNL     1       0.328  52.135 -19.077  1.00  0.00     0.075 A 
HETATM   29  C2  UNL     1      -0.096  51.230 -20.070  1.00  0.00    -0.027 A 
HETATM   30  C1  UNL     1      -0.683  49.896 -19.693  1.00  0.00     0.051 C 
HETATM   31  C3  UNL     1       0.008  51.586 -21.424  1.00  0.00     0.033 A 
HETATM   32  C4  UNL     1       0.538  52.821 -21.783  1.00  0.00     0.034 A 
HETATM   33 CL1  UNL     1       0.650  53.255 -23.445  1.00  0.00    -0.084 Cl
HETATM   34  C5  UNL     1       0.976  53.710 -20.805  1.00  0.00     0.026 A 
HETATM   35  C6  UNL     1       0.875  53.365 -19.454  1.00  0.00     0.039 A 
ENDBRANCH  27  28
ENDBRANCH  26  27
ENDBRANCH  23  26
ENDBRANCH  20  22
ENDBRANCH   1  19
BRANCH   6  36
HETATM   36  O4  UNL     1       0.446  53.782  -8.568  1.00  0.00    -0.389 OA
HETATM   37  H19 UNL     1       1.234  53.560  -8.051  1.00  0.00     0.210 HD
ENDBRANCH   6  36
BRANCH   4  38
HETATM   38  O3  UNL     1      -2.312  53.773  -9.361  1.00  0.00    -0.395 OA
HETATM   39  H16 UNL     1      -3.119  53.244  -9.464  1.00  0.00     0.210 HD
ENDBRANCH   4  38
BRANCH  18  40
HETATM   40  O7  UNL     1       5.981  53.229  -9.435  1.00  0.00    -0.389 OA
HETATM   41  H41 UNL     1       5.856  54.061  -8.951  1.00  0.00     0.210 HD
ENDBRANCH  18  40
BRANCH  15  42
HETATM   42  C26 UNL     1       5.579  48.656  -8.461  1.00  0.00    -0.045 A 
HETATM   43  C27 UNL     1       6.653  48.272  -7.769  1.00  0.00     0.087 A 
HETATM   44  C28 UNL     1       6.853  46.847  -8.023  1.00  0.00     0.283 A 
HETATM   45  O5  UNL     1       7.757  46.178  -7.556  1.00  0.00    -0.260 OA
HETATM   46  O6  UNL     1       5.871  46.402  -8.847  1.00  0.00    -0.314 OA
HETATM   47  C29 UNL     1       5.022  47.495  -9.198  1.00  0.00     0.213 A 
ENDBRANCH  15  42
TORSDOF 9
ENDMDL
MODEL 9
REMARK minimizedAffinity -8.47731113
REMARK CNNscore 0.198615342
REMARK CNNaffinity 5.89440727
REMARK  9 active torsions:
REMARK  status: ('A' for Active; 'I' for Inactive)
REMARK    1  A    between atoms: C7_8  and  O1_9 
REMARK    2  A    between atoms: O1_9  and  C8_10 
REMARK    3  A    between atoms: C8_10  and  C9_11 
REMARK       I    between atoms: C9_11  and  N1_13 
REMARK    4  A    between atoms: N1_13  and  N2_14 
REMARK    5  A    between atoms: C10_16  and  C11_17 
REMARK    6  A    between atoms: C14_20  and  O3_21 
REMARK    7  A    between atoms: C16_23  and  O4_24 
REMARK    8  A    between atoms: C25_33  and  C26_34 
REMARK    9  A    between atoms: C32_42  and  O7_43 
ROOT
HETATM    1  C11 UNL     1      -4.469  47.936 -20.756  1.00  0.00     0.028 C 
HETATM    2  C12 UNL     1      -3.312  47.345 -19.897  1.00  0.00     0.021 C 
HETATM    3  C13 UNL     1      -3.808  46.355 -18.829  1.00  0.00     0.033 C 
HETATM    4  C14 UNL     1      -4.941  46.891 -17.955  1.00  0.00     0.121 C 
HETATM    5  C15 UNL     1      -6.022  47.653 -18.739  1.00  0.00     0.070 C 
HETATM    6  C16 UNL     1      -5.462  48.645 -19.784  1.00  0.00     0.073 C 
HETATM    7  C17 UNL     1      -6.599  49.376 -20.514  1.00  0.00     0.039 C 
HETATM    8  C18 UNL     1      -6.097  50.335 -21.596  1.00  0.00     0.011 C 
HETATM    9  C19 UNL     1      -5.044  49.733 -22.557  1.00  0.00     0.026 C 
HETATM   10  C20 UNL     1      -3.918  48.960 -21.812  1.00  0.00     0.009 C 
HETATM   11  C21 UNL     1      -2.905  48.329 -22.794  1.00  0.00     0.007 C 
HETATM   12  C22 UNL     1      -3.078  48.761 -24.246  1.00  0.00     0.013 C 
HETATM   13  C23 UNL     1      -3.292  50.273 -24.453  1.00  0.00    -0.005 C 
HETATM   14  C24 UNL     1      -3.593  50.482 -25.962  1.00  0.00     0.019 C 
HETATM   15  C25 UNL     1      -2.053  51.132 -24.015  1.00  0.00     0.028 C 
HETATM   16  C30 UNL     1      -2.693  52.475 -23.639  1.00  0.00     0.013 C 
HETATM   17  C31 UNL     1      -3.897  52.053 -22.817  1.00  0.00     0.040 C 
HETATM   18  C32 UNL     1      -4.466  50.808 -23.536  1.00  0.00     0.070 C 
ENDROOT
BRANCH   1  19
HETATM   19  C10 UNL     1      -5.109  46.745 -21.496  1.00  0.00     0.093 C 
HETATM   20  N2  UNL     1      -6.282  46.802 -22.043  1.00  0.00    -0.312 N 
ATOM     21  H2  UNL     1      -6.819  47.669 -22.068  1.00  0.00     0.185 HD
BRANCH  20  22
HETATM   22  N1  UNL     1      -6.767  45.638 -22.588  1.00  0.00    -0.269 N 
HETATM   23  C9  UNL     1      -8.143  45.413 -22.735  1.00  0.00     0.260 C 
HETATM   24  O2  UNL     1      -9.020  46.083 -22.193  1.00  0.00    -0.269 OA
HETATM   25  H9  UNL     1      -6.171  45.285 -23.333  1.00  0.00     0.190 HD
BRANCH  23  26
HETATM   26  C8  UNL     1      -8.437  44.211 -23.643  1.00  0.00     0.280 C 
BRANCH  26  27
HETATM   27  O1  UNL     1      -7.466  43.179 -23.618  1.00  0.00    -0.342 OA
BRANCH  27  28
HETATM   28  C7  UNL     1      -7.881  41.882 -23.747  1.00  0.00     0.075 A 
HETATM   29  C2  UNL     1      -7.499  41.014 -22.706  1.00  0.00    -0.027 A 
HETATM   30  C1  UNL     1      -6.704  41.522 -21.534  1.00  0.00     0.051 C 
HETATM   31  C3  UNL     1      -7.887  39.665 -22.750  1.00  0.00     0.033 A 
HETATM   32  C4  UNL     1      -8.633  39.186 -23.823  1.00  0.00     0.034 A 
HETATM   33 CL1  UNL     1      -9.115  37.535 -23.862  1.00  0.00    -0.084 Cl
HETATM   34  C5  UNL     1      -8.995  40.038 -24.862  1.00  0.00     0.026 A 
HETATM   35  C6  UNL     1      -8.615  41.383 -24.827  1.00  0.00     0.039 A 
ENDBRANCH  27  28
ENDBRANCH  26  27
ENDBRANCH  23  26
ENDBRANCH  20  22
ENDBRANCH   1  19
BRANCH   6  36
HETATM   36  O4  UNL     1      -4.749  49.651 -19.032  1.00  0.00    -0.389 OA
HETATM   37  H19 UNL     1      -4.561  50.423 -19.584  1.00  0.00     0.210 HD
ENDBRANCH   6  36
BRANCH   4  38
HETATM   38  O3  UNL     1      -4.401  47.726 -16.932  1.00  0.00    -0.395 OA
HETATM   39  H16 UNL     1      -3.769  47.197 -16.419  1.00  0.00     0.210 HD
ENDBRANCH   4  38
BRANCH  18  40
HETATM   40  O7  UNL     1      -5.545  51.254 -24.370  1.00  0.00    -0.389 OA
HETATM   41  H41 UNL     1      -6.182  51.751 -23.831  1.00  0.00     0.210 HD
ENDBRANCH  18  40
BRANCH  15  42
HETATM   42  C26 UNL     1      -0.890  51.249 -24.964  1.00  0.00    -0.045 A 
HETATM   43  C27 UNL     1       0.192  52.020 -24.854  1.00  0.00     0.087 A 
HETATM   44  C28 UNL     1       1.056  51.732 -25.998  1.00  0.00     0.283 A 
HETATM   45  O5  UNL     1       2.124  52.272 -26.216  1.00  0.00    -0.260 OA
HETATM   46  O6  UNL     1       0.476  50.767 -26.758  1.00  0.00    -0.314 OA
HETATM   47  C29 UNL     1      -0.783  50.413 -26.186  1.00  0.00     0.213 A 
ENDBRANCH  15  42
TORSDOF 9
ENDMDL
