MODEL 1
REMARK minimizedAffinity -7.09872055
REMARK CNNscore 0.863089561
REMARK CNNaffinity 6.34485245
REMARK  10 active torsions:
REMARK  status: ('A' for Active; 'I' for Inactive)
REMARK    1  A    between atoms: C9_9  and  O1_10 
REMARK    2  A    between atoms: C11_12  and  O2_13 
REMARK    3  A    between atoms: O2_13  and  C12_14 
REMARK    4  A    between atoms: C14_16  and  O3_17 
REMARK    5  A    between atoms: C15_18  and  O4_19 
REMARK    6  A    between atoms: C16_20  and  C17_21 
REMARK    7  A    between atoms: C17_21  and  O5_22 
REMARK    8  A    between atoms: C20_26  and  C21_27 
REMARK    9  A    between atoms: C22_29  and  O8_30 
REMARK   10  A    between atoms: C25_33  and  C26_34 
ROOT
HETATM    1  C1  UNL     1       2.758  54.750  -7.177  1.00  0.00     0.019 C 
HETATM    2  C2  UNL     1       2.582  54.911  -8.701  1.00  0.00    -0.005 C 
HETATM    3  C3  UNL     1       1.226  55.628  -8.960  1.00  0.00     0.013 C 
HETATM    4  C4  UNL     1       0.002  54.746  -8.705  1.00  0.00     0.007 C 
HETATM    5  C5  UNL     1       0.056  53.487  -9.586  1.00  0.00     0.011 C 
HETATM    6  C6  UNL     1       1.359  52.687  -9.306  1.00  0.00     0.026 C 
HETATM    7  C7  UNL     1       1.389  51.356 -10.093  1.00  0.00     0.011 C 
HETATM    8  C8  UNL     1       0.350  51.292 -11.206  1.00  0.00     0.039 C 
HETATM    9  C9  UNL     1      -1.096  51.482 -10.699  1.00  0.00     0.074 C 
HETATM   10  C10 UNL     1      -1.971  51.850 -11.921  1.00  0.00     0.071 C 
HETATM   11  C11 UNL     1      -3.459  51.920 -11.568  1.00  0.00     0.127 C 
HETATM   12  C18 UNL     1      -3.710  52.614 -10.226  1.00  0.00     0.033 C 
HETATM   13  C19 UNL     1      -2.507  53.426  -9.750  1.00  0.00     0.022 C 
HETATM   14  C20 UNL     1      -1.219  52.568  -9.556  1.00  0.00     0.048 C 
HETATM   15  C22 UNL     1       2.647  53.547  -9.457  1.00  0.00     0.070 C 
HETATM   16  C23 UNL     1       2.994  53.928 -10.906  1.00  0.00     0.040 C 
HETATM   17  C24 UNL     1       3.655  55.311 -10.857  1.00  0.00     0.013 C 
HETATM   18  C25 UNL     1       3.728  55.743  -9.375  1.00  0.00     0.028 C 
ENDROOT
BRANCH  11  19
HETATM   19  O2  UNL     1      -3.935  50.571 -11.458  1.00  0.00    -0.356 OA
BRANCH  19  20
HETATM   20  C12 UNL     1      -4.533  50.262 -10.204  1.00  0.00     0.263 C 
HETATM   21  C13 UNL     1      -6.051  50.169 -10.299  1.00  0.00     0.095 C 
HETATM   22  C14 UNL     1      -6.468  48.936 -11.088  1.00  0.00     0.154 C 
HETATM   23  C15 UNL     1      -5.803  47.671 -10.527  1.00  0.00     0.178 C 
HETATM   24  C16 UNL     1      -4.289  47.837 -10.350  1.00  0.00     0.179 C 
HETATM   25  O6  UNL     1      -3.978  49.063  -9.658  1.00  0.00    -0.351 OA
BRANCH  22  26
HETATM   26  O3  UNL     1      -7.893  48.811 -11.002  1.00  0.00    -0.393 OA
HETATM   27  H22 UNL     1      -8.065  48.244 -10.222  1.00  0.00     0.210 HD
ENDBRANCH  22  26
BRANCH  23  28
HETATM   28  O4  UNL     1      -6.405  47.413  -9.235  1.00  0.00    -0.390 OA
HETATM   29  H24 UNL     1      -5.907  47.935  -8.576  1.00  0.00     0.210 HD
ENDBRANCH  23  28
BRANCH  24  30
HETATM   30  C17 UNL     1      -3.450  47.636 -11.625  1.00  0.00     0.198 C 
BRANCH  30  31
HETATM   31  O5  UNL     1      -4.148  47.977 -12.816  1.00  0.00    -0.398 OA
HETATM   32  H28 UNL     1      -3.508  47.909 -13.551  1.00  0.00     0.209 HD
ENDBRANCH  30  31
ENDBRANCH  24  30
ENDBRANCH  19  20
ENDBRANCH  11  19
BRANCH   9  33
HETATM   33  O1  UNL     1      -1.512  50.196 -10.210  1.00  0.00    -0.389 OA
HETATM   34  H14 UNL     1      -2.287  49.903 -10.741  1.00  0.00     0.210 HD
ENDBRANCH   9  33
BRANCH  14  35
HETATM   35  C21 UNL     1      -1.397  51.879  -8.190  1.00  0.00     0.244 C 
HETATM   36  O7  UNL     1      -1.587  52.451  -7.119  1.00  0.00    -0.306 OA
ENDBRANCH  14  35
BRANCH  15  37
HETATM   37  O8  UNL     1       3.763  52.811  -8.933  1.00  0.00    -0.389 OA
HETATM   38  H34 UNL     1       3.742  51.901  -9.266  1.00  0.00     0.210 HD
ENDBRANCH  15  37
BRANCH  18  39
HETATM   39  C26 UNL     1       5.119  55.630  -8.795  1.00  0.00    -0.045 A 
HETATM   40  C27 UNL     1       5.581  56.056  -7.617  1.00  0.00     0.087 A 
HETATM   41  C28 UNL     1       6.983  55.666  -7.529  1.00  0.00     0.283 A 
HETATM   42  O9  UNL     1       7.716  55.913  -6.590  1.00  0.00    -0.260 OA
HETATM   43  O10 UNL     1       7.326  54.976  -8.650  1.00  0.00    -0.314 OA
HETATM   44  C29 UNL     1       6.196  54.913  -9.520  1.00  0.00     0.213 A 
ENDBRANCH  18  39
TORSDOF 10
ENDMDL
MODEL 2
REMARK minimizedAffinity -7.19833708
REMARK CNNscore 0.761820912
REMARK CNNaffinity 6.00501585
REMARK  10 active torsions:
REMARK  status: ('A' for Active; 'I' for Inactive)
REMARK    1  A    between atoms: C9_9  and  O1_10 
REMARK    2  A    between atoms: C11_12  and  O2_13 
REMARK    3  A    between atoms: O2_13  and  C12_14 
REMARK    4  A    between atoms: C14_16  and  O3_17 
REMARK    5  A    between atoms: C15_18  and  O4_19 
REMARK    6  A    between atoms: C16_20  and  C17_21 
REMARK    7  A    between atoms: C17_21  and  O5_22 
REMARK    8  A    between atoms: C20_26  and  C21_27 
REMARK    9  A    between atoms: C22_29  and  O8_30 
REMARK   10  A    between atoms: C25_33  and  C26_34 
ROOT
HETATM    1  C1  UNL     1       1.971  55.061  -6.262  1.00  0.00     0.019 C 
HETATM    2  C2  UNL     1       2.231  55.581  -7.691  1.00  0.00    -0.005 C 
HETATM    3  C3  UNL     1       0.871  56.027  -8.299  1.00  0.00     0.013 C 
HETATM    4  C4  UNL     1      -0.050  54.863  -8.671  1.00  0.00     0.007 C 
HETATM    5  C5  UNL     1       0.643  53.930  -9.676  1.00  0.00     0.011 C 
HETATM    6  C6  UNL     1       1.974  53.388  -9.082  1.00  0.00     0.026 C 
HETATM    7  C7  UNL     1       2.639  52.357 -10.023  1.00  0.00     0.011 C 
HETATM    8  C8  UNL     1       2.059  52.368 -11.432  1.00  0.00     0.039 C 
HETATM    9  C9  UNL     1       0.540  52.095 -11.467  1.00  0.00     0.074 C 
HETATM   10  C10 UNL     1       0.014  52.577 -12.840  1.00  0.00     0.071 C 
HETATM   11  C11 UNL     1      -1.461  52.223 -13.052  1.00  0.00     0.127 C 
HETATM   12  C18 UNL     1      -2.305  52.459 -11.797  1.00  0.00     0.033 C 
HETATM   13  C19 UNL     1      -1.606  53.357 -10.778  1.00  0.00     0.022 C 
HETATM   14  C20 UNL     1      -0.245  52.781 -10.278  1.00  0.00     0.048 C 
HETATM   15  C22 UNL     1       2.928  54.518  -8.596  1.00  0.00     0.070 C 
HETATM   16  C23 UNL     1       3.572  55.339  -9.726  1.00  0.00     0.040 C 
HETATM   17  C24 UNL     1       3.743  56.768  -9.196  1.00  0.00     0.013 C 
HETATM   18  C25 UNL     1       3.226  56.793  -7.740  1.00  0.00     0.028 C 
ENDROOT
BRANCH  11  19
HETATM   19  O2  UNL     1      -1.523  50.823 -13.363  1.00  0.00    -0.356 OA
BRANCH  19  20
HETATM   20  C12 UNL     1      -2.798  50.380 -13.814  1.00  0.00     0.263 C 
HETATM   21  C13 UNL     1      -3.268  51.142 -15.047  1.00  0.00     0.095 C 
HETATM   22  C14 UNL     1      -2.427  50.774 -16.262  1.00  0.00     0.154 C 
HETATM   23  C15 UNL     1      -2.376  49.252 -16.457  1.00  0.00     0.178 C 
HETATM   24  C16 UNL     1      -1.998  48.512 -15.169  1.00  0.00     0.179 C 
HETATM   25  O6  UNL     1      -2.790  48.970 -14.054  1.00  0.00    -0.351 OA
BRANCH  22  26
HETATM   26  O3  UNL     1      -3.016  51.389 -17.415  1.00  0.00    -0.393 OA
HETATM   27  H22 UNL     1      -3.645  50.730 -17.778  1.00  0.00     0.210 HD
ENDBRANCH  22  26
BRANCH  23  28
HETATM   28  O4  UNL     1      -3.698  48.833 -16.874  1.00  0.00    -0.390 OA
HETATM   29  H24 UNL     1      -4.222  48.685 -16.062  1.00  0.00     0.210 HD
ENDBRANCH  23  28
BRANCH  24  30
HETATM   30  C17 UNL     1      -0.492  48.459 -14.855  1.00  0.00     0.198 C 
BRANCH  30  31
HETATM   31  O5  UNL     1       0.314  48.240 -16.007  1.00  0.00    -0.398 OA
HETATM   32  H28 UNL     1       1.245  48.319 -15.723  1.00  0.00     0.209 HD
ENDBRANCH  30  31
ENDBRANCH  24  30
ENDBRANCH  19  20
ENDBRANCH  11  19
BRANCH   9  33
HETATM   33  O1  UNL     1       0.397  50.666 -11.398  1.00  0.00    -0.389 OA
HETATM   34  H14 UNL     1      -0.053  50.364 -12.220  1.00  0.00     0.210 HD
ENDBRANCH   9  33
BRANCH  14  35
HETATM   35  C21 UNL     1      -0.619  51.729  -9.216  1.00  0.00     0.244 C 
HETATM   36  O7  UNL     1      -1.606  51.770  -8.485  1.00  0.00    -0.306 OA
ENDBRANCH  14  35
BRANCH  15  37
HETATM   37  O8  UNL     1       3.995  53.931  -7.837  1.00  0.00    -0.389 OA
HETATM   38  H34 UNL     1       4.350  53.162  -8.308  1.00  0.00     0.210 HD
ENDBRANCH  15  37
BRANCH  18  39
HETATM   39  C26 UNL     1       4.339  56.835  -6.719  1.00  0.00    -0.045 A 
HETATM   40  C27 UNL     1       5.615  57.197  -6.873  1.00  0.00     0.087 A 
HETATM   41  C28 UNL     1       6.261  57.093  -5.569  1.00  0.00     0.283 A 
HETATM   42  O9  UNL     1       7.434  57.332  -5.353  1.00  0.00    -0.260 OA
HETATM   43  O10 UNL     1       5.342  56.703  -4.646  1.00  0.00    -0.314 OA
HETATM   44  C29 UNL     1       4.086  56.507  -5.294  1.00  0.00     0.213 A 
ENDBRANCH  18  39
TORSDOF 10
ENDMDL
MODEL 3
REMARK minimizedAffinity -8.03827667
REMARK CNNscore 0.742398679
REMARK CNNaffinity 6.038517
REMARK  10 active torsions:
REMARK  status: ('A' for Active; 'I' for Inactive)
REMARK    1  A    between atoms: C9_9  and  O1_10 
REMARK    2  A    between atoms: C11_12  and  O2_13 
REMARK    3  A    between atoms: O2_13  and  C12_14 
REMARK    4  A    between atoms: C14_16  and  O3_17 
REMARK    5  A    between atoms: C15_18  and  O4_19 
REMARK    6  A    between atoms: C16_20  and  C17_21 
REMARK    7  A    between atoms: C17_21  and  O5_22 
REMARK    8  A    between atoms: C20_26  and  C21_27 
REMARK    9  A    between atoms: C22_29  and  O8_30 
REMARK   10  A    between atoms: C25_33  and  C26_34 
ROOT
HETATM    1  C1  UNL     1      -2.509  52.092 -22.563  1.00  0.00     0.019 C 
HETATM    2  C2  UNL     1      -2.073  50.735 -21.975  1.00  0.00    -0.005 C 
HETATM    3  C3  UNL     1      -2.547  49.612 -22.941  1.00  0.00     0.013 C 
HETATM    4  C4  UNL     1      -4.057  49.370 -22.912  1.00  0.00     0.007 C 
HETATM    5  C5  UNL     1      -4.515  49.005 -21.491  1.00  0.00     0.011 C 
HETATM    6  C6  UNL     1      -4.136  50.137 -20.494  1.00  0.00     0.026 C 
HETATM    7  C7  UNL     1      -4.684  49.852 -19.077  1.00  0.00     0.011 C 
HETATM    8  C8  UNL     1      -5.141  48.411 -18.887  1.00  0.00     0.039 C 
HETATM    9  C9  UNL     1      -6.237  47.984 -19.886  1.00  0.00     0.074 C 
HETATM   10  C10 UNL     1      -6.277  46.437 -19.897  1.00  0.00     0.071 C 
HETATM   11  C11 UNL     1      -7.430  45.893 -20.745  1.00  0.00     0.127 C 
HETATM   12  C18 UNL     1      -7.603  46.661 -22.059  1.00  0.00     0.033 C 
HETATM   13  C19 UNL     1      -6.375  47.495 -22.418  1.00  0.00     0.022 C 
HETATM   14  C20 UNL     1      -6.016  48.564 -21.340  1.00  0.00     0.048 C 
HETATM   15  C22 UNL     1      -2.624  50.503 -20.533  1.00  0.00     0.070 C 
HETATM   16  C23 UNL     1      -1.694  49.434 -19.934  1.00  0.00     0.040 C 
HETATM   17  C24 UNL     1      -0.383  49.490 -20.727  1.00  0.00     0.013 C 
HETATM   18  C25 UNL     1      -0.520  50.611 -21.782  1.00  0.00     0.028 C 
ENDROOT
BRANCH  11  19
HETATM   19  O2  UNL     1      -8.634  46.058 -19.982  1.00  0.00    -0.356 OA
BRANCH  19  20
HETATM   20  C12 UNL     1      -9.718  46.619 -20.714  1.00  0.00     0.263 C 
HETATM   21  C13 UNL     1     -10.805  45.593 -21.011  1.00  0.00     0.095 C 
HETATM   22  C14 UNL     1     -11.537  45.198 -19.737  1.00  0.00     0.154 C 
HETATM   23  C15 UNL     1     -12.045  46.438 -18.985  1.00  0.00     0.178 C 
HETATM   24  C16 UNL     1     -10.949  47.493 -18.794  1.00  0.00     0.179 C 
HETATM   25  O6  UNL     1     -10.257  47.754 -20.032  1.00  0.00    -0.351 OA
BRANCH  22  26
HETATM   26  O3  UNL     1     -12.646  44.366 -20.099  1.00  0.00    -0.393 OA
HETATM   27  H22 UNL     1     -13.406  44.972 -20.226  1.00  0.00     0.210 HD
ENDBRANCH  22  26
BRANCH  23  28
HETATM   28  O4  UNL     1     -13.115  47.006 -19.779  1.00  0.00    -0.390 OA
HETATM   29  H24 UNL     1     -12.703  47.603 -20.433  1.00  0.00     0.210 HD
ENDBRANCH  23  28
BRANCH  24  30
HETATM   30  C17 UNL     1      -9.994  47.246 -17.612  1.00  0.00     0.198 C 
BRANCH  30  31
HETATM   31  O5  UNL     1      -9.374  48.433 -17.134  1.00  0.00    -0.398 OA
HETATM   32  H28 UNL     1      -8.870  48.189 -16.333  1.00  0.00     0.209 HD
ENDBRANCH  30  31
ENDBRANCH  24  30
ENDBRANCH  19  20
ENDBRANCH  11  19
BRANCH   9  33
HETATM   33  O1  UNL     1      -7.476  48.469 -19.341  1.00  0.00    -0.389 OA
HETATM   34  H14 UNL     1      -8.057  47.694 -19.167  1.00  0.00     0.210 HD
ENDBRANCH   9  33
BRANCH  14  35
HETATM   35  C21 UNL     1      -6.986  49.734 -21.596  1.00  0.00     0.244 C 
HETATM   36  O7  UNL     1      -7.477  50.032 -22.682  1.00  0.00    -0.306 OA
ENDBRANCH  14  35
BRANCH  15  37
HETATM   37  O8  UNL     1      -2.418  51.711 -19.788  1.00  0.00    -0.389 OA
HETATM   38  H34 UNL     1      -2.886  51.659 -18.940  1.00  0.00     0.210 HD
ENDBRANCH  15  37
BRANCH  18  39
HETATM   39  C26 UNL     1       0.249  51.860 -21.421  1.00  0.00    -0.045 A 
HETATM   40  C27 UNL     1       0.712  52.828 -22.216  1.00  0.00     0.087 A 
HETATM   41  C28 UNL     1       1.352  53.825 -21.366  1.00  0.00     0.283 A 
HETATM   42  O9  UNL     1       1.898  54.835 -21.769  1.00  0.00    -0.260 OA
HETATM   43  O10 UNL     1       1.226  53.449 -20.065  1.00  0.00    -0.314 OA
HETATM   44  C29 UNL     1       0.541  52.199 -20.007  1.00  0.00     0.213 A 
ENDBRANCH  18  39
TORSDOF 10
ENDMDL
MODEL 4
REMARK minimizedAffinity -7.71747589
REMARK CNNscore 0.729820073
REMARK CNNaffinity 6.1694665
REMARK  10 active torsions:
REMARK  status: ('A' for Active; 'I' for Inactive)
REMARK    1  A    between atoms: C9_9  and  O1_10 
REMARK    2  A    between atoms: C11_12  and  O2_13 
REMARK    3  A    between atoms: O2_13  and  C12_14 
REMARK    4  A    between atoms: C14_16  and  O3_17 
REMARK    5  A    between atoms: C15_18  and  O4_19 
REMARK    6  A    between atoms: C16_20  and  C17_21 
REMARK    7  A    between atoms: C17_21  and  O5_22 
REMARK    8  A    between atoms: C20_26  and  C21_27 
REMARK    9  A    between atoms: C22_29  and  O8_30 
REMARK   10  A    between atoms: C25_33  and  C26_34 
ROOT
HETATM    1  C1  UNL     1       4.824  57.117  -5.476  1.00  0.00     0.019 C 
HETATM    2  C2  UNL     1       5.161  56.351  -6.772  1.00  0.00    -0.005 C 
HETATM    3  C3  UNL     1       4.420  57.043  -7.951  1.00  0.00     0.013 C 
HETATM    4  C4  UNL     1       2.909  56.800  -7.958  1.00  0.00     0.007 C 
HETATM    5  C5  UNL     1       2.608  55.293  -8.019  1.00  0.00     0.011 C 
HETATM    6  C6  UNL     1       3.262  54.563  -6.812  1.00  0.00     0.026 C 
HETATM    7  C7  UNL     1       2.883  53.064  -6.782  1.00  0.00     0.011 C 
HETATM    8  C8  UNL     1       2.276  52.571  -8.090  1.00  0.00     0.039 C 
HETATM    9  C9  UNL     1       1.007  53.347  -8.503  1.00  0.00     0.074 C 
HETATM   10  C10 UNL     1       0.770  53.080 -10.009  1.00  0.00     0.071 C 
HETATM   11  C11 UNL     1      -0.549  53.681 -10.503  1.00  0.00     0.127 C 
HETATM   12  C18 UNL     1      -0.801  55.081  -9.937  1.00  0.00     0.033 C 
HETATM   13  C19 UNL     1       0.462  55.720  -9.364  1.00  0.00     0.022 C 
HETATM   14  C20 UNL     1       1.099  54.896  -8.202  1.00  0.00     0.048 C 
HETATM   15  C22 UNL     1       4.788  54.838  -6.686  1.00  0.00     0.070 C 
HETATM   16  C23 UNL     1       5.649  54.169  -7.772  1.00  0.00     0.040 C 
HETATM   17  C24 UNL     1       6.834  55.104  -8.039  1.00  0.00     0.013 C 
HETATM   18  C25 UNL     1       6.697  56.318  -7.093  1.00  0.00     0.028 C 
ENDROOT
BRANCH  11  19
HETATM   19  O2  UNL     1      -1.606  52.826 -10.041  1.00  0.00    -0.356 OA
BRANCH  19  20
HETATM   20  C12 UNL     1      -1.577  51.513 -10.589  1.00  0.00     0.263 C 
HETATM   21  C13 UNL     1      -2.308  50.507  -9.708  1.00  0.00     0.095 C 
HETATM   22  C14 UNL     1      -3.809  50.758  -9.732  1.00  0.00     0.154 C 
HETATM   23  C15 UNL     1      -4.336  50.818 -11.172  1.00  0.00     0.178 C 
HETATM   24  C16 UNL     1      -3.514  51.764 -12.056  1.00  0.00     0.179 C 
HETATM   25  O6  UNL     1      -2.102  51.506 -11.919  1.00  0.00    -0.351 OA
BRANCH  22  26
HETATM   26  O3  UNL     1      -4.452  49.690  -9.026  1.00  0.00    -0.393 OA
HETATM   27  H22 UNL     1      -4.658  49.010  -9.700  1.00  0.00     0.210 HD
ENDBRANCH  22  26
BRANCH  23  28
HETATM   28  O4  UNL     1      -4.252  49.475 -11.710  1.00  0.00    -0.390 OA
HETATM   29  H24 UNL     1      -3.351  49.366 -12.072  1.00  0.00     0.210 HD
ENDBRANCH  23  28
BRANCH  24  30
HETATM   30  C17 UNL     1      -3.868  53.256 -11.932  1.00  0.00     0.198 C 
BRANCH  30  31
HETATM   31  O5  UNL     1      -4.287  53.837 -13.161  1.00  0.00    -0.398 OA
HETATM   32  H28 UNL     1      -4.579  54.748 -12.961  1.00  0.00     0.209 HD
ENDBRANCH  30  31
ENDBRANCH  24  30
ENDBRANCH  19  20
ENDBRANCH  11  19
BRANCH   9  33
HETATM   33  O1  UNL     1      -0.072  52.759  -7.758  1.00  0.00    -0.389 OA
HETATM   34  H14 UNL     1      -0.718  52.385  -8.400  1.00  0.00     0.210 HD
ENDBRANCH   9  33
BRANCH  14  35
HETATM   35  C21 UNL     1       0.260  55.243  -6.957  1.00  0.00     0.244 C 
HETATM   36  O7  UNL     1      -0.433  56.248  -6.817  1.00  0.00    -0.306 OA
ENDBRANCH  14  35
BRANCH  15  37
HETATM   37  O8  UNL     1       5.247  54.347  -5.418  1.00  0.00    -0.389 OA
HETATM   38  H34 UNL     1       4.897  53.456  -5.265  1.00  0.00     0.210 HD
ENDBRANCH  15  37
BRANCH  18  39
HETATM   39  C26 UNL     1       7.661  56.274  -5.931  1.00  0.00    -0.045 A 
HETATM   40  C27 UNL     1       8.262  55.222  -5.370  1.00  0.00     0.087 A 
HETATM   41  C28 UNL     1       9.122  55.725  -4.305  1.00  0.00     0.283 A 
HETATM   42  O9  UNL     1       9.804  55.031  -3.575  1.00  0.00    -0.260 OA
HETATM   43  O10 UNL     1       9.047  57.083  -4.274  1.00  0.00    -0.314 OA
HETATM   44  C29 UNL     1       8.128  57.520  -5.274  1.00  0.00     0.213 A 
ENDBRANCH  18  39
TORSDOF 10
ENDMDL
MODEL 5
REMARK minimizedAffinity -7.78121662
REMARK CNNscore 0.725836158
REMARK CNNaffinity 6.23606491
REMARK  10 active torsions:
REMARK  status: ('A' for Active; 'I' for Inactive)
REMARK    1  A    between atoms: C9_9  and  O1_10 
REMARK    2  A    between atoms: C11_12  and  O2_13 
REMARK    3  A    between atoms: O2_13  and  C12_14 
REMARK    4  A    between atoms: C14_16  and  O3_17 
REMARK    5  A    between atoms: C15_18  and  O4_19 
REMARK    6  A    between atoms: C16_20  and  C17_21 
REMARK    7  A    between atoms: C17_21  and  O5_22 
REMARK    8  A    between atoms: C20_26  and  C21_27 
REMARK    9  A    between atoms: C22_29  and  O8_30 
REMARK   10  A    between atoms: C25_33  and  C26_34 
ROOT
HETATM    1  C1  UNL     1      -1.158  50.741 -22.720  1.00  0.00     0.019 C 
HETATM    2  C2  UNL     1      -1.249  50.163 -21.293  1.00  0.00    -0.005 C 
HETATM    3  C3  UNL     1      -1.183  48.612 -21.392  1.00  0.00     0.013 C 
HETATM    4  C4  UNL     1      -2.456  47.974 -21.952  1.00  0.00     0.007 C 
HETATM    5  C5  UNL     1      -3.669  48.348 -21.085  1.00  0.00     0.011 C 
HETATM    6  C6  UNL     1      -3.830  49.893 -21.020  1.00  0.00     0.026 C 
HETATM    7  C7  UNL     1      -5.108  50.300 -20.250  1.00  0.00     0.011 C 
HETATM    8  C8  UNL     1      -5.711  49.157 -19.442  1.00  0.00     0.039 C 
HETATM    9  C9  UNL     1      -6.077  47.929 -20.303  1.00  0.00     0.074 C 
HETATM   10  C10 UNL     1      -6.234  46.723 -19.348  1.00  0.00     0.071 C 
HETATM   11  C11 UNL     1      -6.742  45.473 -20.071  1.00  0.00     0.127 C 
HETATM   12  C18 UNL     1      -6.072  45.273 -21.434  1.00  0.00     0.033 C 
HETATM   13  C19 UNL     1      -4.792  46.093 -21.585  1.00  0.00     0.022 C 
HETATM   14  C20 UNL     1      -5.021  47.629 -21.440  1.00  0.00     0.048 C 
HETATM   15  C22 UNL     1      -2.539  50.621 -20.544  1.00  0.00     0.070 C 
HETATM   16  C23 UNL     1      -2.209  50.425 -19.055  1.00  0.00     0.040 C 
HETATM   17  C24 UNL     1      -0.680  50.429 -18.934  1.00  0.00     0.013 C 
HETATM   18  C25 UNL     1      -0.098  50.656 -20.348  1.00  0.00     0.028 C 
ENDROOT
BRANCH  11  19
HETATM   19  O2  UNL     1      -8.147  45.653 -20.298  1.00  0.00    -0.356 OA
BRANCH  19  20
HETATM   20  C12 UNL     1      -8.958  44.584 -19.824  1.00  0.00     0.263 C 
HETATM   21  C13 UNL     1      -8.821  44.382 -18.320  1.00  0.00     0.095 C 
HETATM   22  C14 UNL     1      -9.456  45.538 -17.560  1.00  0.00     0.154 C 
HETATM   23  C15 UNL     1     -10.900  45.777 -18.024  1.00  0.00     0.178 C 
HETATM   24  C16 UNL     1     -11.014  45.874 -19.549  1.00  0.00     0.179 C 
HETATM   25  O6  UNL     1     -10.325  44.782 -20.192  1.00  0.00    -0.351 OA
BRANCH  22  26
HETATM   26  O3  UNL     1      -9.444  45.215 -16.164  1.00  0.00    -0.393 OA
HETATM   27  H22 UNL     1     -10.297  44.764 -15.986  1.00  0.00     0.210 HD
ENDBRANCH  22  26
BRANCH  23  28
HETATM   28  O4  UNL     1     -11.685  44.651 -17.561  1.00  0.00    -0.390 OA
HETATM   29  H24 UNL     1     -11.611  43.951 -18.238  1.00  0.00     0.210 HD
ENDBRANCH  23  28
BRANCH  24  30
HETATM   30  C17 UNL     1     -10.661  47.246 -20.152  1.00  0.00     0.198 C 
BRANCH  30  31
HETATM   31  O5  UNL     1     -11.220  48.336 -19.428  1.00  0.00    -0.398 OA
HETATM   32  H28 UNL     1     -10.863  49.154 -19.826  1.00  0.00     0.209 HD
ENDBRANCH  30  31
ENDBRANCH  24  30
ENDBRANCH  19  20
ENDBRANCH  11  19
BRANCH   9  33
HETATM   33  O1  UNL     1      -7.360  48.224 -20.882  1.00  0.00    -0.389 OA
HETATM   34  H14 UNL     1      -8.000  47.546 -20.567  1.00  0.00     0.210 HD
ENDBRANCH   9  33
BRANCH  14  35
HETATM   35  C21 UNL     1      -5.570  48.084 -22.806  1.00  0.00     0.244 C 
HETATM   36  O7  UNL     1      -4.947  48.085 -23.865  1.00  0.00    -0.306 OA
ENDBRANCH  14  35
BRANCH  15  37
HETATM   37  O8  UNL     1      -2.692  52.031 -20.762  1.00  0.00    -0.389 OA
HETATM   38  H34 UNL     1      -3.561  52.321 -20.445  1.00  0.00     0.210 HD
ENDBRANCH  15  37
BRANCH  18  39
HETATM   39  C26 UNL     1       0.431  52.056 -20.551  1.00  0.00    -0.045 A 
HETATM   40  C27 UNL     1       1.008  52.595 -21.628  1.00  0.00     0.087 A 
HETATM   41  C28 UNL     1       1.303  53.989 -21.318  1.00  0.00     0.283 A 
HETATM   42  O9  UNL     1       1.848  54.770 -22.075  1.00  0.00    -0.260 OA
HETATM   43  O10 UNL     1       0.859  54.270 -20.063  1.00  0.00    -0.314 OA
HETATM   44  C29 UNL     1       0.296  53.089 -19.494  1.00  0.00     0.213 A 
ENDBRANCH  18  39
TORSDOF 10
ENDMDL
MODEL 6
REMARK minimizedAffinity -8.04715061
REMARK CNNscore 0.633732438
REMARK CNNaffinity 6.08380508
REMARK  10 active torsions:
REMARK  status: ('A' for Active; 'I' for Inactive)
REMARK    1  A    between atoms: C9_9  and  O1_10 
REMARK    2  A    between atoms: C11_12  and  O2_13 
REMARK    3  A    between atoms: O2_13  and  C12_14 
REMARK    4  A    between atoms: C14_16  and  O3_17 
REMARK    5  A    between atoms: C15_18  and  O4_19 
REMARK    6  A    between atoms: C16_20  and  C17_21 
REMARK    7  A    between atoms: C17_21  and  O5_22 
REMARK    8  A    between atoms: C20_26  and  C21_27 
REMARK    9  A    between atoms: C22_29  and  O8_30 
REMARK   10  A    between atoms: C25_33  and  C26_34 
ROOT
HETATM    1  C1  UNL     1      -2.554  51.910 -22.967  1.00  0.00     0.019 C 
HETATM    2  C2  UNL     1      -2.292  50.452 -22.540  1.00  0.00    -0.005 C 
HETATM    3  C3  UNL     1      -2.501  49.537 -23.780  1.00  0.00     0.013 C 
HETATM    4  C4  UNL     1      -3.968  49.371 -24.184  1.00  0.00     0.007 C 
HETATM    5  C5  UNL     1      -4.783  48.791 -23.018  1.00  0.00     0.011 C 
HETATM    6  C6  UNL     1      -4.674  49.714 -21.771  1.00  0.00     0.026 C 
HETATM    7  C7  UNL     1      -5.575  49.219 -20.616  1.00  0.00     0.011 C 
HETATM    8  C8  UNL     1      -6.072  47.792 -20.811  1.00  0.00     0.039 C 
HETATM    9  C9  UNL     1      -6.870  47.599 -22.119  1.00  0.00     0.074 C 
HETATM   10  C10 UNL     1      -6.912  46.081 -22.417  1.00  0.00     0.071 C 
HETATM   11  C11 UNL     1      -7.805  45.750 -23.615  1.00  0.00     0.127 C 
HETATM   12  C18 UNL     1      -7.625  46.740 -24.770  1.00  0.00     0.033 C 
HETATM   13  C19 UNL     1      -6.342  47.560 -24.646  1.00  0.00     0.022 C 
HETATM   14  C20 UNL     1      -6.274  48.408 -23.339  1.00  0.00     0.048 C 
HETATM   15  C22 UNL     1      -3.203  50.004 -21.354  1.00  0.00     0.070 C 
HETATM   16  C23 UNL     1      -2.467  48.803 -20.737  1.00  0.00     0.040 C 
HETATM   17  C24 UNL     1      -0.993  48.927 -21.144  1.00  0.00     0.013 C 
HETATM   18  C25 UNL     1      -0.845  50.217 -21.981  1.00  0.00     0.028 C 
ENDROOT
BRANCH  11  19
HETATM   19  O2  UNL     1      -9.167  45.842 -23.170  1.00  0.00    -0.356 OA
BRANCH  19  20
HETATM   20  C12 UNL     1     -10.105  46.103 -24.209  1.00  0.00     0.263 C 
HETATM   21  C13 UNL     1     -10.747  44.827 -24.738  1.00  0.00     0.095 C 
HETATM   22  C14 UNL     1     -11.681  44.222 -23.699  1.00  0.00     0.154 C 
HETATM   23  C15 UNL     1     -12.692  45.261 -23.195  1.00  0.00     0.178 C 
HETATM   24  C16 UNL     1     -12.019  46.570 -22.765  1.00  0.00     0.179 C 
HETATM   25  O6  UNL     1     -11.098  47.035 -23.773  1.00  0.00    -0.351 OA
BRANCH  22  26
HETATM   26  O3  UNL     1     -12.377  43.127 -24.308  1.00  0.00    -0.393 OA
HETATM   27  H22 UNL     1     -13.201  43.506 -24.679  1.00  0.00     0.210 HD
ENDBRANCH  22  26
BRANCH  23  28
HETATM   28  O4  UNL     1     -13.602  45.533 -24.288  1.00  0.00    -0.390 OA
HETATM   29  H24 UNL     1     -13.194  46.233 -24.835  1.00  0.00     0.210 HD
ENDBRANCH  23  28
BRANCH  24  30
HETATM   30  C17 UNL     1     -11.412  46.567 -21.351  1.00  0.00     0.198 C 
BRANCH  30  31
HETATM   31  O5  UNL     1     -12.128  47.384 -20.432  1.00  0.00    -0.398 OA
HETATM   32  H28 UNL     1     -11.728  47.241 -19.552  1.00  0.00     0.209 HD
ENDBRANCH  30  31
ENDBRANCH  24  30
ENDBRANCH  19  20
ENDBRANCH  11  19
BRANCH   9  33
HETATM   33  O1  UNL     1      -8.206  48.046 -21.832  1.00  0.00    -0.389 OA
HETATM   34  H14 UNL     1      -8.816  47.283 -21.955  1.00  0.00     0.210 HD
ENDBRANCH   9  33
BRANCH  14  35
HETATM   35  C21 UNL     1      -7.137  49.652 -23.621  1.00  0.00     0.244 C 
HETATM   36  O7  UNL     1      -7.526  50.460 -22.782  1.00  0.00    -0.306 OA
ENDBRANCH  14  35
BRANCH  15  37
HETATM   37  O8  UNL     1      -3.194  51.055 -20.377  1.00  0.00    -0.389 OA
HETATM   38  H34 UNL     1      -3.868  50.881 -19.702  1.00  0.00     0.210 HD
ENDBRANCH  15  37
BRANCH  18  39
HETATM   39  C26 UNL     1      -0.192  51.346 -21.217  1.00  0.00    -0.045 A 
HETATM   40  C27 UNL     1       0.345  52.479 -21.675  1.00  0.00     0.087 A 
HETATM   41  C28 UNL     1       0.807  53.243 -20.523  1.00  0.00     0.283 A 
HETATM   42  O9  UNL     1       1.365  54.323 -20.582  1.00  0.00    -0.260 OA
HETATM   43  O10 UNL     1       0.502  52.564 -19.385  1.00  0.00    -0.314 OA
HETATM   44  C29 UNL     1      -0.131  51.334 -19.734  1.00  0.00     0.213 A 
ENDBRANCH  18  39
TORSDOF 10
ENDMDL
MODEL 7
REMARK minimizedAffinity -6.99622679
REMARK CNNscore 0.606646001
REMARK CNNaffinity 6.15408278
REMARK  10 active torsions:
REMARK  status: ('A' for Active; 'I' for Inactive)
REMARK    1  A    between atoms: C9_9  and  O1_10 
REMARK    2  A    between atoms: C11_12  and  O2_13 
REMARK    3  A    between atoms: O2_13  and  C12_14 
REMARK    4  A    between atoms: C14_16  and  O3_17 
REMARK    5  A    between atoms: C15_18  and  O4_19 
REMARK    6  A    between atoms: C16_20  and  C17_21 
REMARK    7  A    between atoms: C17_21  and  O5_22 
REMARK    8  A    between atoms: C20_26  and  C21_27 
REMARK    9  A    between atoms: C22_29  and  O8_30 
REMARK   10  A    between atoms: C25_33  and  C26_34 
ROOT
HETATM    1  C1  UNL     1      -7.138  44.973 -29.279  1.00  0.00     0.019 C 
HETATM    2  C2  UNL     1      -8.007  46.138 -29.796  1.00  0.00    -0.005 C 
HETATM    3  C3  UNL     1      -9.485  45.657 -29.843  1.00  0.00     0.013 C 
HETATM    4  C4  UNL     1      -9.776  44.668 -30.974  1.00  0.00     0.007 C 
HETATM    5  C5  UNL     1      -9.431  45.293 -32.335  1.00  0.00     0.011 C 
HETATM    6  C6  UNL     1      -7.935  45.719 -32.370  1.00  0.00     0.026 C 
HETATM    7  C7  UNL     1      -7.527  46.247 -33.765  1.00  0.00     0.011 C 
HETATM    8  C8  UNL     1      -8.719  46.564 -34.660  1.00  0.00     0.039 C 
HETATM    9  C9  UNL     1      -9.646  45.352 -34.892  1.00  0.00     0.074 C 
HETATM   10  C10 UNL     1     -11.001  45.896 -35.402  1.00  0.00     0.071 C 
HETATM   11  C11 UNL     1     -11.960  44.774 -35.809  1.00  0.00     0.127 C 
HETATM   12  C18 UNL     1     -11.942  43.602 -34.823  1.00  0.00     0.033 C 
HETATM   13  C19 UNL     1     -11.313  43.974 -33.481  1.00  0.00     0.022 C 
HETATM   14  C20 UNL     1      -9.835  44.456 -33.603  1.00  0.00     0.048 C 
HETATM   15  C22 UNL     1      -7.541  46.657 -31.192  1.00  0.00     0.070 C 
HETATM   16  C23 UNL     1      -8.122  48.078 -31.287  1.00  0.00     0.040 C 
HETATM   17  C24 UNL     1      -8.378  48.550 -29.850  1.00  0.00     0.013 C 
HETATM   18  C25 UNL     1      -7.924  47.422 -28.897  1.00  0.00     0.028 C 
ENDROOT
BRANCH  11  19
HETATM   19  O2  UNL     1     -11.520  44.279 -37.083  1.00  0.00    -0.356 OA
BRANCH  19  20
HETATM   20  C12 UNL     1     -12.147  44.900 -38.200  1.00  0.00     0.263 C 
HETATM   21  C13 UNL     1     -11.174  45.753 -39.004  1.00  0.00     0.095 C 
HETATM   22  C14 UNL     1     -10.165  44.879 -39.734  1.00  0.00     0.154 C 
HETATM   23  C15 UNL     1     -10.870  43.796 -40.563  1.00  0.00     0.178 C 
HETATM   24  C16 UNL     1     -11.915  43.025 -39.748  1.00  0.00     0.179 C 
HETATM   25  O6  UNL     1     -12.783  43.926 -39.031  1.00  0.00    -0.351 OA
BRANCH  22  26
HETATM   26  O3  UNL     1      -9.388  45.718 -40.597  1.00  0.00    -0.393 OA
HETATM   27  H22 UNL     1      -9.855  45.721 -41.458  1.00  0.00     0.210 HD
ENDBRANCH  22  26
BRANCH  23  28
HETATM   28  O4  UNL     1     -11.531  44.468 -41.663  1.00  0.00    -0.390 OA
HETATM   29  H24 UNL     1     -12.407  44.756 -41.340  1.00  0.00     0.210 HD
ENDBRANCH  23  28
BRANCH  24  30
HETATM   30  C17 UNL     1     -11.359  41.895 -38.863  1.00  0.00     0.198 C 
BRANCH  30  31
HETATM   31  O5  UNL     1     -12.274  41.464 -37.863  1.00  0.00    -0.398 OA
HETATM   32  H28 UNL     1     -11.871  40.689 -37.423  1.00  0.00     0.209 HD
ENDBRANCH  30  31
ENDBRANCH  24  30
ENDBRANCH  19  20
ENDBRANCH  11  19
BRANCH   9  33
HETATM   33  O1  UNL     1      -9.035  44.586 -35.944  1.00  0.00    -0.389 OA
HETATM   34  H14 UNL     1      -9.661  44.555 -36.702  1.00  0.00     0.210 HD
ENDBRANCH   9  33
BRANCH  14  35
HETATM   35  C21 UNL     1      -9.001  43.167 -33.728  1.00  0.00     0.244 C 
HETATM   36  O7  UNL     1      -7.815  43.108 -34.043  1.00  0.00    -0.306 OA
ENDBRANCH  14  35
BRANCH  15  37
HETATM   37  O8  UNL     1      -6.112  46.784 -31.156  1.00  0.00    -0.389 OA
HETATM   38  H34 UNL     1      -5.775  46.953 -32.049  1.00  0.00     0.210 HD
ENDBRANCH  15  37
BRANCH  18  39
HETATM   39  C26 UNL     1      -6.612  47.720 -28.210  1.00  0.00    -0.045 A 
HETATM   40  C27 UNL     1      -5.460  48.144 -28.735  1.00  0.00     0.087 A 
HETATM   41  C28 UNL     1      -4.513  48.312 -27.638  1.00  0.00     0.283 A 
HETATM   42  O9  UNL     1      -3.358  48.671 -27.765  1.00  0.00    -0.260 OA
HETATM   43  O10 UNL     1      -5.134  48.018 -26.464  1.00  0.00    -0.314 OA
HETATM   44  C29 UNL     1      -6.478  47.621 -26.736  1.00  0.00     0.213 A 
ENDBRANCH  18  39
TORSDOF 10
ENDMDL
MODEL 8
REMARK minimizedAffinity -8.07957172
REMARK CNNscore 0.576651037
REMARK CNNaffinity 5.91157532
REMARK  10 active torsions:
REMARK  status: ('A' for Active; 'I' for Inactive)
REMARK    1  A    between atoms: C9_9  and  O1_10 
REMARK    2  A    between atoms: C11_12  and  O2_13 
REMARK    3  A    between atoms: O2_13  and  C12_14 
REMARK    4  A    between atoms: C14_16  and  O3_17 
REMARK    5  A    between atoms: C15_18  and  O4_19 
REMARK    6  A    between atoms: C16_20  and  C17_21 
REMARK    7  A    between atoms: C17_21  and  O5_22 
REMARK    8  A    between atoms: C20_26  and  C21_27 
REMARK    9  A    between atoms: C22_29  and  O8_30 
REMARK   10  A    between atoms: C25_33  and  C26_34 
ROOT
HETATM    1  C1  UNL     1      -2.054  51.664 -23.010  1.00  0.00     0.019 C 
HETATM    2  C2  UNL     1      -1.951  50.433 -22.086  1.00  0.00    -0.005 C 
HETATM    3  C3  UNL     1      -2.160  49.158 -22.951  1.00  0.00     0.013 C 
HETATM    4  C4  UNL     1      -3.607  48.951 -23.406  1.00  0.00     0.007 C 
HETATM    5  C5  UNL     1      -4.544  48.866 -22.190  1.00  0.00     0.011 C 
HETATM    6  C6  UNL     1      -4.433  50.157 -21.331  1.00  0.00     0.026 C 
HETATM    7  C7  UNL     1      -5.447  50.152 -20.164  1.00  0.00     0.011 C 
HETATM    8  C8  UNL     1      -6.056  48.780 -19.903  1.00  0.00     0.039 C 
HETATM    9  C9  UNL     1      -6.782  48.192 -21.132  1.00  0.00     0.074 C 
HETATM   10  C10 UNL     1      -6.940  46.671 -20.894  1.00  0.00     0.071 C 
HETATM   11  C11 UNL     1      -7.780  45.999 -21.983  1.00  0.00     0.127 C 
HETATM   12  C18 UNL     1      -7.438  46.510 -23.385  1.00  0.00     0.033 C 
HETATM   13  C19 UNL     1      -6.098  47.241 -23.433  1.00  0.00     0.022 C 
HETATM   14  C20 UNL     1      -6.039  48.487 -22.495  1.00  0.00     0.048 C 
HETATM   15  C22 UNL     1      -2.972  50.484 -20.907  1.00  0.00     0.070 C 
HETATM   16  C23 UNL     1      -2.387  49.531 -19.851  1.00  0.00     0.040 C 
HETATM   17  C24 UNL     1      -0.885  49.415 -20.139  1.00  0.00     0.013 C 
HETATM   18  C25 UNL     1      -0.569  50.321 -21.351  1.00  0.00     0.028 C 
ENDROOT
BRANCH  11  19
HETATM   19  O2  UNL     1      -9.154  46.323 -21.722  1.00  0.00    -0.356 OA
BRANCH  19  20
HETATM   20  C12 UNL     1      -9.773  45.500 -20.740  1.00  0.00     0.263 C 
HETATM   21  C13 UNL     1     -10.345  46.314 -19.586  1.00  0.00     0.095 C 
HETATM   22  C14 UNL     1     -11.554  47.119 -20.041  1.00  0.00     0.154 C 
HETATM   23  C15 UNL     1     -12.586  46.220 -20.736  1.00  0.00     0.178 C 
HETATM   24  C16 UNL     1     -11.956  45.341 -21.823  1.00  0.00     0.179 C 
HETATM   25  O6  UNL     1     -10.777  44.672 -21.331  1.00  0.00    -0.351 OA
BRANCH  22  26
HETATM   26  O3  UNL     1     -12.145  47.729 -18.886  1.00  0.00    -0.393 OA
HETATM   27  H22 UNL     1     -12.818  47.093 -18.563  1.00  0.00     0.210 HD
ENDBRANCH  22  26
BRANCH  23  28
HETATM   28  O4  UNL     1     -13.163  45.369 -19.715  1.00  0.00    -0.390 OA
HETATM   29  H24 UNL     1     -12.581  44.589 -19.627  1.00  0.00     0.210 HD
ENDBRANCH  23  28
BRANCH  24  30
HETATM   30  C17 UNL     1     -11.735  46.029 -23.181  1.00  0.00     0.198 C 
BRANCH  30  31
HETATM   31  O5  UNL     1     -12.638  47.102 -23.420  1.00  0.00    -0.398 OA
HETATM   32  H28 UNL     1     -12.357  47.530 -24.253  1.00  0.00     0.209 HD
ENDBRANCH  30  31
ENDBRANCH  24  30
ENDBRANCH  19  20
ENDBRANCH  11  19
BRANCH   9  33
HETATM   33  O1  UNL     1      -8.089  48.792 -21.139  1.00  0.00    -0.389 OA
HETATM   34  H14 UNL     1      -8.755  48.073 -21.048  1.00  0.00     0.210 HD
ENDBRANCH   9  33
BRANCH  14  35
HETATM   35  C21 UNL     1      -6.768  49.604 -23.265  1.00  0.00     0.244 C 
HETATM   36  O7  UNL     1      -7.905  49.533 -23.724  1.00  0.00    -0.306 OA
ENDBRANCH  14  35
BRANCH  15  37
HETATM   37  O8  UNL     1      -2.933  51.807 -20.352  1.00  0.00    -0.389 OA
HETATM   38  H34 UNL     1      -3.661  51.921 -19.723  1.00  0.00     0.210 HD
ENDBRANCH  15  37
BRANCH  18  39
HETATM   39  C26 UNL     1       0.131  51.602 -20.963  1.00  0.00    -0.045 A 
HETATM   40  C27 UNL     1       0.748  52.497 -21.739  1.00  0.00     0.087 A 
HETATM   41  C28 UNL     1       1.226  53.571 -20.876  1.00  0.00     0.283 A 
HETATM   42  O9  UNL     1       1.850  54.543 -21.256  1.00  0.00    -0.260 OA
HETATM   43  O10 UNL     1       0.850  53.314 -19.594  1.00  0.00    -0.314 OA
HETATM   44  C29 UNL     1       0.152  52.070 -19.556  1.00  0.00     0.213 A 
ENDBRANCH  18  39
TORSDOF 10
ENDMDL
MODEL 9
REMARK minimizedAffinity -7.28316784
REMARK CNNscore 0.532606661
REMARK CNNaffinity 5.59618616
REMARK  10 active torsions:
REMARK  status: ('A' for Active; 'I' for Inactive)
REMARK    1  A    between atoms: C9_9  and  O1_10 
REMARK    2  A    between atoms: C11_12  and  O2_13 
REMARK    3  A    between atoms: O2_13  and  C12_14 
REMARK    4  A    between atoms: C14_16  and  O3_17 
REMARK    5  A    between atoms: C15_18  and  O4_19 
REMARK    6  A    between atoms: C16_20  and  C17_21 
REMARK    7  A    between atoms: C17_21  and  O5_22 
REMARK    8  A    between atoms: C20_26  and  C21_27 
REMARK    9  A    between atoms: C22_29  and  O8_30 
REMARK   10  A    between atoms: C25_33  and  C26_34 
ROOT
HETATM    1  C1  UNL     1       6.782  53.903  -6.113  1.00  0.00     0.019 C 
HETATM    2  C2  UNL     1       5.753  55.027  -6.352  1.00  0.00    -0.005 C 
HETATM    3  C3  UNL     1       4.361  54.518  -5.882  1.00  0.00     0.013 C 
HETATM    4  C4  UNL     1       3.740  53.472  -6.810  1.00  0.00     0.007 C 
HETATM    5  C5  UNL     1       3.589  54.039  -8.231  1.00  0.00     0.011 C 
HETATM    6  C6  UNL     1       4.971  54.489  -8.782  1.00  0.00     0.026 C 
HETATM    7  C7  UNL     1       4.872  54.958 -10.252  1.00  0.00     0.011 C 
HETATM    8  C8  UNL     1       3.439  55.213 -10.706  1.00  0.00     0.039 C 
HETATM    9  C9  UNL     1       2.528  53.975 -10.567  1.00  0.00     0.074 C 
HETATM   10  C10 UNL     1       1.063  54.470 -10.612  1.00  0.00     0.071 C 
HETATM   11  C11 UNL     1       0.060  53.313 -10.631  1.00  0.00     0.127 C 
HETATM   12  C18 UNL     1       0.445  52.190  -9.664  1.00  0.00     0.033 C 
HETATM   13  C19 UNL     1       1.474  52.635  -8.626  1.00  0.00     0.022 C 
HETATM   14  C20 UNL     1       2.811  53.137  -9.256  1.00  0.00     0.048 C 
HETATM   15  C22 UNL     1       5.707  55.488  -7.842  1.00  0.00     0.070 C 
HETATM   16  C23 UNL     1       5.083  56.893  -7.790  1.00  0.00     0.040 C 
HETATM   17  C24 UNL     1       5.307  57.427  -6.370  1.00  0.00     0.013 C 
HETATM   18  C25 UNL     1       6.090  56.352  -5.583  1.00  0.00     0.028 C 
ENDROOT
BRANCH  11  19
HETATM   19  O2  UNL     1       0.063  52.767 -11.958  1.00  0.00    -0.356 OA
BRANCH  19  20
HETATM   20  C12 UNL     1      -0.266  51.384 -12.022  1.00  0.00     0.263 C 
HETATM   21  C13 UNL     1      -1.735  51.157 -12.355  1.00  0.00     0.095 C 
HETATM   22  C14 UNL     1      -2.030  51.555 -13.794  1.00  0.00     0.154 C 
HETATM   23  C15 UNL     1      -1.061  50.866 -14.766  1.00  0.00     0.178 C 
HETATM   24  C16 UNL     1       0.404  51.029 -14.344  1.00  0.00     0.179 C 
HETATM   25  O6  UNL     1       0.582  50.703 -12.950  1.00  0.00    -0.351 OA
BRANCH  22  26
HETATM   26  O3  UNL     1      -3.376  51.167 -14.098  1.00  0.00    -0.393 OA
HETATM   27  H22 UNL     1      -3.316  50.261 -14.468  1.00  0.00     0.210 HD
ENDBRANCH  22  26
BRANCH  23  28
HETATM   28  O4  UNL     1      -1.397  49.457 -14.773  1.00  0.00    -0.390 OA
HETATM   29  H24 UNL     1      -0.911  49.041 -14.034  1.00  0.00     0.210 HD
ENDBRANCH  23  28
BRANCH  24  30
HETATM   30  C17 UNL     1       1.059  52.365 -14.737  1.00  0.00     0.198 C 
BRANCH  30  31
HETATM   31  O5  UNL     1       2.478  52.344 -14.639  1.00  0.00    -0.398 OA
HETATM   32  H28 UNL     1       2.801  53.193 -14.999  1.00  0.00     0.209 HD
ENDBRANCH  30  31
ENDBRANCH  24  30
ENDBRANCH  19  20
ENDBRANCH  11  19
BRANCH   9  33
HETATM   33  O1  UNL     1       2.776  53.172 -11.733  1.00  0.00    -0.389 OA
HETATM   34  H14 UNL     1       1.932  53.094 -12.235  1.00  0.00     0.210 HD
ENDBRANCH   9  33
BRANCH  14  35
HETATM   35  C21 UNL     1       3.595  51.858  -9.605  1.00  0.00     0.244 C 
HETATM   36  O7  UNL     1       4.752  51.817 -10.016  1.00  0.00    -0.306 OA
ENDBRANCH  14  35
BRANCH  15  37
HETATM   37  O8  UNL     1       7.060  55.641  -8.293  1.00  0.00    -0.389 OA
HETATM   38  H34 UNL     1       7.074  55.774  -9.253  1.00  0.00     0.210 HD
ENDBRANCH  15  37
BRANCH  18  39
HETATM   39  C26 UNL     1       7.546  56.706  -5.389  1.00  0.00    -0.045 A 
HETATM   40  C27 UNL     1       8.620  55.913  -5.418  1.00  0.00     0.087 A 
HETATM   41  C28 UNL     1       9.793  56.754  -5.208  1.00  0.00     0.283 A 
HETATM   42  O9  UNL     1      10.939  56.350  -5.158  1.00  0.00    -0.260 OA
HETATM   43  O10 UNL     1       9.397  58.050  -5.094  1.00  0.00    -0.314 OA
HETATM   44  C29 UNL     1       7.975  58.112  -5.188  1.00  0.00     0.213 A 
ENDBRANCH  18  39
TORSDOF 10
ENDMDL
