MODEL 1
REMARK minimizedAffinity -9.10618305
REMARK CNNscore 0.631073415
REMARK CNNaffinity 6.92906427
REMARK  11 active torsions:
REMARK  status: ('A' for Active; 'I' for Inactive)
REMARK    1  A    between atoms: C2_2  and  O2_4 
REMARK    2  A    between atoms: O2_4  and  C3_5 
REMARK    3  A    between atoms: C4_6  and  O3_7 
REMARK    4  A    between atoms: O3_7  and  C5_8 
REMARK    5  A    between atoms: C15_18  and  C16_19 
REMARK    6  A    between atoms: C20_23  and  C21_24 
REMARK    7  A    between atoms: C21_24  and  O4_27 
REMARK    8  A    between atoms: C24_29  and  O6_30 
REMARK    9  A    between atoms: C30_36  and  O7_37 
REMARK   10  A    between atoms: C36_44  and  O9_45 
REMARK   11  A    between atoms: C37_46  and  O10_47 
ROOT
HETATM    1  C5  UNL     1      -3.782   7.461  13.130  1.00  0.00     0.133 C 
HETATM    2  C6  UNL     1      -4.064   8.829  13.759  1.00  0.00     0.034 C 
HETATM    3  C7  UNL     1      -3.711   8.822  15.238  1.00  0.00     0.013 C 
HETATM    4  C8  UNL     1      -2.261   8.434  15.475  1.00  0.00    -0.025 A 
HETATM    5  C9  UNL     1      -1.802   8.664  16.896  1.00  0.00     0.021 A 
HETATM    6  C10 UNL     1      -1.163   9.476  15.778  1.00  0.00    -0.027 A 
HETATM    7  C11 UNL     1      -1.482  10.964  15.765  1.00  0.00     0.011 C 
HETATM    8  C12 UNL     1      -0.426  11.843  16.463  1.00  0.00     0.011 C 
HETATM    9  C13 UNL     1       0.919  11.140  16.721  1.00  0.00    -0.028 C 
HETATM   10  C14 UNL     1       0.818  10.295  18.026  1.00  0.00     0.016 C 
HETATM   11  C15 UNL     1       2.169  12.092  16.796  1.00  0.00     0.057 C 
HETATM   12  C24 UNL     1       3.354  11.130  16.475  1.00  0.00     0.126 C 
HETATM   13  C25 UNL     1       2.732   9.850  15.845  1.00  0.00     0.042 C 
HETATM   14  C26 UNL     1       1.290  10.253  15.471  1.00  0.00    -0.029 C 
HETATM   15  C27 UNL     1       1.407  11.059  14.122  1.00  0.00     0.016 C 
HETATM   16  C28 UNL     1       0.223   9.133  15.198  1.00  0.00     0.006 C 
HETATM   17  C29 UNL     1       0.662   7.699  15.482  1.00  0.00     0.038 C 
HETATM   18  C30 UNL     1      -0.422   6.628  15.229  1.00  0.00     0.124 C 
HETATM   19  C31 UNL     1      -1.859   7.090  14.804  1.00  0.00     0.034 C 
HETATM   20  C32 UNL     1      -2.274   7.041  13.272  1.00  0.00    -0.015 C 
HETATM   21  C33 UNL     1      -2.136   5.614  12.677  1.00  0.00     0.018 C 
HETATM   22  C34 UNL     1      -1.416   7.961  12.382  1.00  0.00     0.018 C 
ENDROOT
BRANCH   1  23
HETATM   23  O3  UNL     1      -4.626   6.518  13.815  1.00  0.00    -0.352 OA
BRANCH  23  24
HETATM   24  C4  UNL     1      -5.993   6.542  13.404  1.00  0.00     0.292 C 
HETATM   25  C3  UNL     1      -6.498   5.083  13.346  1.00  0.00     0.218 C 
HETATM   26  C37 UNL     1      -8.024   5.102  13.368  1.00  0.00     0.183 C 
HETATM   27  C36 UNL     1      -8.529   5.760  14.663  1.00  0.00     0.173 C 
HETATM   28  C35 UNL     1      -7.481   6.708  15.268  1.00  0.00     0.205 C 
HETATM   29  O8  UNL     1      -6.771   7.402  14.249  1.00  0.00    -0.356 OA
BRANCH  25  30
HETATM   30  O2  UNL     1      -6.031   4.481  12.115  1.00  0.00    -0.309 OA
BRANCH  30  31
HETATM   31  C2  UNL     1      -5.268   3.361  12.244  1.00  0.00     0.255 C 
HETATM   32  C1  UNL     1      -5.888   2.225  11.493  1.00  0.00     0.126 C 
HETATM   33  O1  UNL     1      -4.243   3.258  12.900  1.00  0.00    -0.266 OA
ENDBRANCH  30  31
ENDBRANCH  25  30
BRANCH  26  34
HETATM   34  O10 UNL     1      -8.563   3.773  13.277  1.00  0.00    -0.390 OA
HETATM   35  H60 UNL     1      -9.527   3.881  13.157  1.00  0.00     0.210 HD
ENDBRANCH  26  34
BRANCH  27  36
HETATM   36  O9  UNL     1      -9.747   6.447  14.335  1.00  0.00    -0.391 OA
HETATM   37  H58 UNL     1      -9.961   7.053  15.064  1.00  0.00     0.210 HD
ENDBRANCH  27  36
ENDBRANCH  23  24
ENDBRANCH   1  23
BRANCH  18  38
HETATM   38  O7  UNL     1       0.111   5.599  14.401  1.00  0.00    -0.395 OA
HETATM   39  H47 UNL     1       0.617   6.015  13.682  1.00  0.00     0.210 HD
ENDBRANCH  18  38
BRANCH  11  40
HETATM   40  C16 UNL     1       2.352  13.140  17.931  1.00  0.00     0.065 C 
HETATM   41  C17 UNL     1       2.904  14.510  17.534  1.00  0.00     0.046 C 
HETATM   42  C18 UNL     1       1.057  13.330  18.737  1.00  0.00     0.041 C 
HETATM   43  C19 UNL     1       1.539  13.507  20.156  1.00  0.00     0.038 C 
HETATM   44  C20 UNL     1       2.786  12.637  20.219  1.00  0.00     0.156 C 
HETATM   45  O5  UNL     1       3.310  12.588  18.876  1.00  0.00    -0.372 OA
BRANCH  44  46
HETATM   46  C21 UNL     1       2.552  11.197  20.773  1.00  0.00     0.076 C 
HETATM   47  C22 UNL     1       1.080  10.795  20.634  1.00  0.00     0.048 C 
HETATM   48  C23 UNL     1       2.970  11.101  22.246  1.00  0.00     0.048 C 
BRANCH  46  49
HETATM   49  O4  UNL     1       3.332  10.244  20.036  1.00  0.00    -0.388 OA
HETATM   50  H35 UNL     1       3.262   9.388  20.492  1.00  0.00     0.210 HD
ENDBRANCH  46  49
ENDBRANCH  44  46
ENDBRANCH  11  40
BRANCH  12  51
HETATM   51  O6  UNL     1       4.109  10.755  17.610  1.00  0.00    -0.395 OA
HETATM   52  H37 UNL     1       4.866  11.359  17.673  1.00  0.00     0.210 HD
ENDBRANCH  12  51
TORSDOF 11
ENDMDL
MODEL 2
REMARK minimizedAffinity -8.10211468
REMARK CNNscore 0.568487346
REMARK CNNaffinity 6.23054361
REMARK  11 active torsions:
REMARK  status: ('A' for Active; 'I' for Inactive)
REMARK    1  A    between atoms: C2_2  and  O2_4 
REMARK    2  A    between atoms: O2_4  and  C3_5 
REMARK    3  A    between atoms: C4_6  and  O3_7 
REMARK    4  A    between atoms: O3_7  and  C5_8 
REMARK    5  A    between atoms: C15_18  and  C16_19 
REMARK    6  A    between atoms: C20_23  and  C21_24 
REMARK    7  A    between atoms: C21_24  and  O4_27 
REMARK    8  A    between atoms: C24_29  and  O6_30 
REMARK    9  A    between atoms: C30_36  and  O7_37 
REMARK   10  A    between atoms: C36_44  and  O9_45 
REMARK   11  A    between atoms: C37_46  and  O10_47 
ROOT
HETATM    1  C5  UNL     1     -19.344  -0.173  15.651  1.00  0.00     0.133 C 
HETATM    2  C6  UNL     1     -18.631   0.575  16.783  1.00  0.00     0.034 C 
HETATM    3  C7  UNL     1     -17.233   0.990  16.354  1.00  0.00     0.013 C 
HETATM    4  C8  UNL     1     -17.253   1.850  15.101  1.00  0.00    -0.025 A 
HETATM    5  C9  UNL     1     -15.923   2.493  14.792  1.00  0.00     0.021 A 
HETATM    6  C10 UNL     1     -17.103   3.385  15.147  1.00  0.00    -0.027 A 
HETATM    7  C11 UNL     1     -17.013   4.115  16.480  1.00  0.00     0.011 C 
HETATM    8  C12 UNL     1     -16.472   5.555  16.376  1.00  0.00     0.011 C 
HETATM    9  C13 UNL     1     -16.466   6.132  14.950  1.00  0.00    -0.028 C 
HETATM   10  C14 UNL     1     -15.191   5.641  14.199  1.00  0.00     0.016 C 
HETATM   11  C15 UNL     1     -16.568   7.699  14.860  1.00  0.00     0.057 C 
HETATM   12  C24 UNL     1     -17.114   7.927  13.417  1.00  0.00     0.126 C 
HETATM   13  C25 UNL     1     -17.674   6.559  12.930  1.00  0.00     0.042 C 
HETATM   14  C26 UNL     1     -17.788   5.701  14.207  1.00  0.00    -0.029 C 
HETATM   15  C27 UNL     1     -19.110   6.173  14.924  1.00  0.00     0.016 C 
HETATM   16  C28 UNL     1     -17.917   4.140  14.079  1.00  0.00     0.006 C 
HETATM   17  C29 UNL     1     -17.758   3.565  12.674  1.00  0.00     0.038 C 
HETATM   18  C30 UNL     1     -17.863   2.025  12.591  1.00  0.00     0.124 C 
HETATM   19  C31 UNL     1     -18.027   1.204  13.917  1.00  0.00     0.034 C 
HETATM   20  C32 UNL     1     -19.470   0.700  14.350  1.00  0.00    -0.015 C 
HETATM   21  C33 UNL     1     -20.127  -0.190  13.261  1.00  0.00     0.018 C 
HETATM   22  C34 UNL     1     -20.459   1.851  14.617  1.00  0.00     0.018 C 
ENDROOT
BRANCH   1  23
HETATM   23  O3  UNL     1     -18.560  -1.349  15.385  1.00  0.00    -0.352 OA
BRANCH  23  24
HETATM   24  C4  UNL     1     -17.216  -1.084  14.984  1.00  0.00     0.292 C 
HETATM   25  C3  UNL     1     -16.296  -2.097  15.703  1.00  0.00     0.218 C 
HETATM   26  C37 UNL     1     -14.962  -2.144  14.961  1.00  0.00     0.183 C 
HETATM   27  C36 UNL     1     -15.177  -2.600  13.508  1.00  0.00     0.173 C 
HETATM   28  C35 UNL     1     -16.609  -2.319  13.028  1.00  0.00     0.205 C 
HETATM   29  O8  UNL     1     -17.093  -1.088  13.554  1.00  0.00    -0.356 OA
BRANCH  25  30
HETATM   30  O2  UNL     1     -16.088  -1.648  17.063  1.00  0.00    -0.309 OA
BRANCH  30  31
HETATM   31  C2  UNL     1     -16.468  -2.509  18.046  1.00  0.00     0.255 C 
HETATM   32  C1  UNL     1     -17.023  -3.763  17.448  1.00  0.00     0.126 C 
HETATM   33  O1  UNL     1     -16.410  -2.302  19.248  1.00  0.00    -0.266 OA
ENDBRANCH  30  31
ENDBRANCH  25  30
BRANCH  26  34
HETATM   34  O10 UNL     1     -14.042  -3.042  15.603  1.00  0.00    -0.390 OA
HETATM   35  H60 UNL     1     -13.182  -2.910  15.157  1.00  0.00     0.210 HD
ENDBRANCH  26  34
BRANCH  27  36
HETATM   36  O9  UNL     1     -14.200  -1.917  12.709  1.00  0.00    -0.391 OA
HETATM   37  H58 UNL     1     -14.456  -2.004  11.775  1.00  0.00     0.210 HD
ENDBRANCH  27  36
ENDBRANCH  23  24
ENDBRANCH   1  23
BRANCH  18  38
HETATM   38  O7  UNL     1     -18.802   1.667  11.582  1.00  0.00    -0.395 OA
HETATM   39  H47 UNL     1     -19.582   2.244  11.670  1.00  0.00     0.210 HD
ENDBRANCH  18  38
BRANCH  11  40
HETATM   40  C16 UNL     1     -15.445   8.640  15.385  1.00  0.00     0.065 C 
HETATM   41  C17 UNL     1     -15.869  10.018  15.894  1.00  0.00     0.046 C 
HETATM   42  C18 UNL     1     -14.584   7.948  16.454  1.00  0.00     0.041 C 
HETATM   43  C19 UNL     1     -13.188   8.443  16.169  1.00  0.00     0.038 C 
HETATM   44  C20 UNL     1     -13.176   8.620  14.657  1.00  0.00     0.156 C 
HETATM   45  O5  UNL     1     -14.541   8.890  14.274  1.00  0.00    -0.372 OA
BRANCH  44  46
HETATM   46  C21 UNL     1     -12.609   7.406  13.859  1.00  0.00     0.076 C 
HETATM   47  C22 UNL     1     -11.214   7.723  13.310  1.00  0.00     0.048 C 
HETATM   48  C23 UNL     1     -13.539   7.026  12.700  1.00  0.00     0.048 C 
BRANCH  46  49
HETATM   49  O4  UNL     1     -12.486   6.259  14.713  1.00  0.00    -0.388 OA
HETATM   50  H35 UNL     1     -12.257   5.497  14.154  1.00  0.00     0.210 HD
ENDBRANCH  46  49
ENDBRANCH  44  46
ENDBRANCH  11  40
BRANCH  12  51
HETATM   51  O6  UNL     1     -16.133   8.368  12.498  1.00  0.00    -0.395 OA
HETATM   52  H37 UNL     1     -16.177   9.337  12.464  1.00  0.00     0.210 HD
ENDBRANCH  12  51
TORSDOF 11
ENDMDL
MODEL 3
REMARK minimizedAffinity -9.62066078
REMARK CNNscore 0.354358524
REMARK CNNaffinity 7.27931023
REMARK  11 active torsions:
REMARK  status: ('A' for Active; 'I' for Inactive)
REMARK    1  A    between atoms: C2_2  and  O2_4 
REMARK    2  A    between atoms: O2_4  and  C3_5 
REMARK    3  A    between atoms: C4_6  and  O3_7 
REMARK    4  A    between atoms: O3_7  and  C5_8 
REMARK    5  A    between atoms: C15_18  and  C16_19 
REMARK    6  A    between atoms: C20_23  and  C21_24 
REMARK    7  A    between atoms: C21_24  and  O4_27 
REMARK    8  A    between atoms: C24_29  and  O6_30 
REMARK    9  A    between atoms: C30_36  and  O7_37 
REMARK   10  A    between atoms: C36_44  and  O9_45 
REMARK   11  A    between atoms: C37_46  and  O10_47 
ROOT
HETATM    1  C5  UNL     1       2.016   8.044  12.969  1.00  0.00     0.133 C 
HETATM    2  C6  UNL     1       1.348   6.776  12.426  1.00  0.00     0.034 C 
HETATM    3  C7  UNL     1       0.752   5.956  13.559  1.00  0.00     0.013 C 
HETATM    4  C8  UNL     1      -0.249   6.757  14.375  1.00  0.00    -0.025 A 
HETATM    5  C9  UNL     1      -1.050   5.914  15.339  1.00  0.00     0.021 A 
HETATM    6  C10 UNL     1      -1.774   6.606  14.193  1.00  0.00    -0.027 A 
HETATM    7  C11 UNL     1      -2.341   5.696  13.112  1.00  0.00     0.011 C 
HETATM    8  C12 UNL     1      -3.827   5.336  13.304  1.00  0.00     0.011 C 
HETATM    9  C13 UNL     1      -4.574   6.226  14.313  1.00  0.00    -0.028 C 
HETATM   10  C14 UNL     1      -4.303   5.707  15.758  1.00  0.00     0.016 C 
HETATM   11  C15 UNL     1      -6.123   6.357  14.075  1.00  0.00     0.057 C 
HETATM   12  C24 UNL     1      -6.473   7.688  14.808  1.00  0.00     0.126 C 
HETATM   13  C25 UNL     1      -5.129   8.433  15.048  1.00  0.00     0.042 C 
HETATM   14  C26 UNL     1      -4.113   7.723  14.129  1.00  0.00    -0.029 C 
HETATM   15  C27 UNL     1      -4.364   8.299  12.685  1.00  0.00     0.016 C 
HETATM   16  C28 UNL     1      -2.575   7.908  14.391  1.00  0.00     0.006 C 
HETATM   17  C29 UNL     1      -2.194   8.669  15.659  1.00  0.00     0.038 C 
HETATM   18  C30 UNL     1      -0.673   8.808  15.897  1.00  0.00     0.124 C 
HETATM   19  C31 UNL     1       0.316   8.105  14.905  1.00  0.00     0.034 C 
HETATM   20  C32 UNL     1       1.006   8.957  13.755  1.00  0.00    -0.015 C 
HETATM   21  C33 UNL     1       1.813  10.154  14.321  1.00  0.00     0.018 C 
HETATM   22  C34 UNL     1      -0.005   9.555  12.756  1.00  0.00     0.018 C 
ENDROOT
BRANCH   1  23
HETATM   23  O3  UNL     1       3.070   7.604  13.843  1.00  0.00    -0.352 OA
BRANCH  23  24
HETATM   24  C4  UNL     1       4.347   8.178  13.563  1.00  0.00     0.292 C 
HETATM   25  C3  UNL     1       5.292   7.832  14.735  1.00  0.00     0.218 C 
HETATM   26  C37 UNL     1       6.732   8.019  14.261  1.00  0.00     0.183 C 
HETATM   27  C36 UNL     1       7.029   7.082  13.079  1.00  0.00     0.173 C 
HETATM   28  C35 UNL     1       5.747   6.680  12.333  1.00  0.00     0.205 C 
HETATM   29  O8  UNL     1       4.828   7.765  12.275  1.00  0.00    -0.356 OA
BRANCH  25  30
HETATM   30  O2  UNL     1       5.014   8.732  15.834  1.00  0.00    -0.309 OA
BRANCH  30  31
HETATM   31  C2  UNL     1       5.803   9.838  15.920  1.00  0.00     0.255 C 
HETATM   32  C1  UNL     1       5.322  10.891  14.972  1.00  0.00     0.126 C 
HETATM   33  O1  UNL     1       6.787   9.968  16.632  1.00  0.00    -0.266 OA
ENDBRANCH  30  31
ENDBRANCH  25  30
BRANCH  26  34
HETATM   34  O10 UNL     1       7.667   7.751  15.319  1.00  0.00    -0.390 OA
HETATM   35  H60 UNL     1       8.542   8.025  14.981  1.00  0.00     0.210 HD
ENDBRANCH  26  34
BRANCH  27  36
HETATM   36  O9  UNL     1       7.954   7.771  12.223  1.00  0.00    -0.391 OA
HETATM   37  H58 UNL     1       7.979   7.309  11.368  1.00  0.00     0.210 HD
ENDBRANCH  27  36
ENDBRANCH  23  24
ENDBRANCH   1  23
BRANCH  18  38
HETATM   38  O7  UNL     1      -0.354  10.173  16.145  1.00  0.00    -0.395 OA
HETATM   39  H47 UNL     1      -0.839  10.723  15.504  1.00  0.00     0.210 HD
ENDBRANCH  18  38
BRANCH  11  40
HETATM   40  C16 UNL     1      -7.094   5.150  14.222  1.00  0.00     0.065 C 
HETATM   41  C17 UNL     1      -7.838   5.011  15.551  1.00  0.00     0.046 C 
HETATM   42  C18 UNL     1      -8.107   5.097  13.067  1.00  0.00     0.041 C 
HETATM   43  C19 UNL     1      -8.257   3.622  12.787  1.00  0.00     0.038 C 
HETATM   44  C20 UNL     1      -6.878   3.059  13.101  1.00  0.00     0.156 C 
HETATM   45  O5  UNL     1      -6.299   3.940  14.086  1.00  0.00    -0.372 OA
BRANCH  44  46
HETATM   46  C21 UNL     1      -5.934   2.914  11.868  1.00  0.00     0.076 C 
HETATM   47  C22 UNL     1      -6.273   1.649  11.072  1.00  0.00     0.048 C 
HETATM   48  C23 UNL     1      -4.463   2.863  12.304  1.00  0.00     0.048 C 
BRANCH  46  49
HETATM   49  O4  UNL     1      -6.088   4.034  10.984  1.00  0.00    -0.388 OA
HETATM   50  H35 UNL     1      -5.395   3.972  10.304  1.00  0.00     0.210 HD
ENDBRANCH  46  49
ENDBRANCH  44  46
ENDBRANCH  11  40
BRANCH  12  51
HETATM   51  O6  UNL     1      -7.116   7.500  16.055  1.00  0.00    -0.395 OA
HETATM   52  H37 UNL     1      -8.073   7.553  15.903  1.00  0.00     0.210 HD
ENDBRANCH  12  51
TORSDOF 11
ENDMDL
MODEL 4
REMARK minimizedAffinity -8.57262897
REMARK CNNscore 0.334249705
REMARK CNNaffinity 6.82517242
REMARK  11 active torsions:
REMARK  status: ('A' for Active; 'I' for Inactive)
REMARK    1  A    between atoms: C2_2  and  O2_4 
REMARK    2  A    between atoms: O2_4  and  C3_5 
REMARK    3  A    between atoms: C4_6  and  O3_7 
REMARK    4  A    between atoms: O3_7  and  C5_8 
REMARK    5  A    between atoms: C15_18  and  C16_19 
REMARK    6  A    between atoms: C20_23  and  C21_24 
REMARK    7  A    between atoms: C21_24  and  O4_27 
REMARK    8  A    between atoms: C24_29  and  O6_30 
REMARK    9  A    between atoms: C30_36  and  O7_37 
REMARK   10  A    between atoms: C36_44  and  O9_45 
REMARK   11  A    between atoms: C37_46  and  O10_47 
ROOT
HETATM    1  C5  UNL     1      -3.578   6.967  12.968  1.00  0.00     0.133 C 
HETATM    2  C6  UNL     1      -4.430   8.102  13.548  1.00  0.00     0.034 C 
HETATM    3  C7  UNL     1      -4.334   8.122  15.065  1.00  0.00     0.013 C 
HETATM    4  C8  UNL     1      -2.899   8.258  15.544  1.00  0.00    -0.025 A 
HETATM    5  C9  UNL     1      -2.782   8.541  17.023  1.00  0.00     0.021 A 
HETATM    6  C10 UNL     1      -2.313   9.599  16.035  1.00  0.00    -0.027 A 
HETATM    7  C11 UNL     1      -3.142  10.875  15.976  1.00  0.00     0.011 C 
HETATM    8  C12 UNL     1      -2.598  12.023  16.849  1.00  0.00     0.011 C 
HETATM    9  C13 UNL     1      -1.148  11.828  17.328  1.00  0.00    -0.028 C 
HETATM   10  C14 UNL     1      -1.140  10.916  18.592  1.00  0.00     0.016 C 
HETATM   11  C15 UNL     1      -0.354  13.153  17.620  1.00  0.00     0.057 C 
HETATM   12  C24 UNL     1       1.133  12.699  17.500  1.00  0.00     0.126 C 
HETATM   13  C25 UNL     1       1.122  11.326  16.766  1.00  0.00     0.042 C 
HETATM   14  C26 UNL     1      -0.290  11.215  16.155  1.00  0.00    -0.029 C 
HETATM   15  C27 UNL     1      -0.263  12.098  14.850  1.00  0.00     0.016 C 
HETATM   16  C28 UNL     1      -0.824   9.810  15.697  1.00  0.00     0.006 C 
HETATM   17  C29 UNL     1       0.053   8.610  16.044  1.00  0.00     0.038 C 
HETATM   18  C30 UNL     1      -0.518   7.243  15.604  1.00  0.00     0.124 C 
HETATM   19  C31 UNL     1      -1.939   7.193  14.943  1.00  0.00     0.034 C 
HETATM   20  C32 UNL     1      -2.062   7.102  13.362  1.00  0.00    -0.015 C 
HETATM   21  C33 UNL     1      -1.327   5.860  12.791  1.00  0.00     0.018 C 
HETATM   22  C34 UNL     1      -1.466   8.324  12.636  1.00  0.00     0.018 C 
ENDROOT
BRANCH   1  23
HETATM   23  O3  UNL     1      -4.120   5.743  13.494  1.00  0.00    -0.352 OA
BRANCH  23  24
HETATM   24  C4  UNL     1      -5.325   5.311  12.861  1.00  0.00     0.292 C 
HETATM   25  C3  UNL     1      -5.228   3.784  12.646  1.00  0.00     0.218 C 
HETATM   26  C37 UNL     1      -6.636   3.242  12.412  1.00  0.00     0.183 C 
HETATM   27  C36 UNL     1      -7.525   3.524  13.635  1.00  0.00     0.173 C 
HETATM   28  C35 UNL     1      -7.006   4.717  14.453  1.00  0.00     0.205 C 
HETATM   29  O8  UNL     1      -6.479   5.730  13.605  1.00  0.00    -0.356 OA
BRANCH  25  30
HETATM   30  O2  UNL     1      -4.404   3.533  11.483  1.00  0.00    -0.309 OA
BRANCH  30  31
HETATM   31  C2  UNL     1      -3.286   2.782  11.687  1.00  0.00     0.255 C 
HETATM   32  C1  UNL     1      -3.634   1.327  11.686  1.00  0.00     0.126 C 
HETATM   33  O1  UNL     1      -2.158   3.208  11.882  1.00  0.00    -0.266 OA
ENDBRANCH  30  31
ENDBRANCH  25  30
BRANCH  26  34
HETATM   34  O10 UNL     1      -6.614   1.826  12.165  1.00  0.00    -0.390 OA
HETATM   35  H60 UNL     1      -7.521   1.587  11.890  1.00  0.00     0.210 HD
ENDBRANCH  26  34
BRANCH  27  36
HETATM   36  O9  UNL     1      -8.854   3.750  13.141  1.00  0.00    -0.391 OA
HETATM   37  H58 UNL     1      -9.379   4.153  13.853  1.00  0.00     0.210 HD
ENDBRANCH  27  36
ENDBRANCH  23  24
ENDBRANCH   1  23
BRANCH  18  38
HETATM   38  O7  UNL     1       0.474   6.529  14.873  1.00  0.00    -0.395 OA
HETATM   39  H47 UNL     1       0.902   7.145  14.253  1.00  0.00     0.210 HD
ENDBRANCH  18  38
BRANCH  11  40
HETATM   40  C16 UNL     1      -0.743  14.121  18.776  1.00  0.00     0.065 C 
HETATM   41  C17 UNL     1      -2.196  14.092  19.252  1.00  0.00     0.046 C 
HETATM   42  C18 UNL     1       0.190  13.957  19.986  1.00  0.00     0.041 C 
HETATM   43  C19 UNL     1       0.367  15.365  20.498  1.00  0.00     0.038 C 
HETATM   44  C20 UNL     1       0.302  16.212  19.235  1.00  0.00     0.156 C 
HETATM   45  O5  UNL     1      -0.510  15.474  18.298  1.00  0.00    -0.372 OA
BRANCH  44  46
HETATM   46  C21 UNL     1       1.686  16.563  18.609  1.00  0.00     0.076 C 
HETATM   47  C22 UNL     1       1.715  16.201  17.120  1.00  0.00     0.048 C 
HETATM   48  C23 UNL     1       2.821  15.827  19.334  1.00  0.00     0.048 C 
BRANCH  46  49
HETATM   49  O4  UNL     1       1.943  17.971  18.715  1.00  0.00    -0.388 OA
HETATM   50  H35 UNL     1       2.861  18.126  18.437  1.00  0.00     0.210 HD
ENDBRANCH  46  49
ENDBRANCH  44  46
ENDBRANCH  11  40
BRANCH  12  51
HETATM   51  O6  UNL     1       1.784  12.541  18.745  1.00  0.00    -0.395 OA
HETATM   52  H37 UNL     1       2.251  13.369  18.940  1.00  0.00     0.210 HD
ENDBRANCH  12  51
TORSDOF 11
ENDMDL
MODEL 5
REMARK minimizedAffinity -10.1736097
REMARK CNNscore 0.318819165
REMARK CNNaffinity 6.8529973
REMARK  11 active torsions:
REMARK  status: ('A' for Active; 'I' for Inactive)
REMARK    1  A    between atoms: C2_2  and  O2_4 
REMARK    2  A    between atoms: O2_4  and  C3_5 
REMARK    3  A    between atoms: C4_6  and  O3_7 
REMARK    4  A    between atoms: O3_7  and  C5_8 
REMARK    5  A    between atoms: C15_18  and  C16_19 
REMARK    6  A    between atoms: C20_23  and  C21_24 
REMARK    7  A    between atoms: C21_24  and  O4_27 
REMARK    8  A    between atoms: C24_29  and  O6_30 
REMARK    9  A    between atoms: C30_36  and  O7_37 
REMARK   10  A    between atoms: C36_44  and  O9_45 
REMARK   11  A    between atoms: C37_46  and  O10_47 
ROOT
HETATM    1  C5  UNL     1      -4.288   6.986  14.412  1.00  0.00     0.133 C 
HETATM    2  C6  UNL     1      -3.352   6.040  13.653  1.00  0.00     0.034 C 
HETATM    3  C7  UNL     1      -2.674   6.766  12.503  1.00  0.00     0.013 C 
HETATM    4  C8  UNL     1      -1.902   7.986  12.975  1.00  0.00    -0.025 A 
HETATM    5  C9  UNL     1      -1.008   8.581  11.913  1.00  0.00     0.021 A 
HETATM    6  C10 UNL     1      -0.369   7.977  13.154  1.00  0.00    -0.027 A 
HETATM    7  C11 UNL     1       0.430   6.698  12.941  1.00  0.00     0.011 C 
HETATM    8  C12 UNL     1       1.944   6.922  12.759  1.00  0.00     0.011 C 
HETATM    9  C13 UNL     1       2.438   8.316  13.182  1.00  0.00    -0.028 C 
HETATM   10  C14 UNL     1       2.190   9.327  12.022  1.00  0.00     0.016 C 
HETATM   11  C15 UNL     1       3.942   8.385  13.637  1.00  0.00     0.057 C 
HETATM   12  C24 UNL     1       3.978   9.674  14.515  1.00  0.00     0.126 C 
HETATM   13  C25 UNL     1       2.501  10.023  14.857  1.00  0.00     0.042 C 
HETATM   14  C26 UNL     1       1.702   8.750  14.508  1.00  0.00    -0.029 C 
HETATM   15  C27 UNL     1       1.921   7.762  15.716  1.00  0.00     0.016 C 
HETATM   16  C28 UNL     1       0.145   8.843  14.321  1.00  0.00     0.006 C 
HETATM   17  C29 UNL     1      -0.454  10.247  14.345  1.00  0.00     0.038 C 
HETATM   18  C30 UNL     1      -1.983  10.301  14.130  1.00  0.00     0.124 C 
HETATM   19  C31 UNL     1      -2.753   8.970  13.826  1.00  0.00     0.034 C 
HETATM   20  C32 UNL     1      -3.527   8.230  14.999  1.00  0.00    -0.015 C 
HETATM   21  C33 UNL     1      -4.588   9.146  15.665  1.00  0.00     0.018 C 
HETATM   22  C34 UNL     1      -2.598   7.755  16.133  1.00  0.00     0.018 C 
ENDROOT
BRANCH   1  23
HETATM   23  O3  UNL     1      -5.286   7.414  13.468  1.00  0.00    -0.352 OA
BRANCH  23  24
HETATM   24  C4  UNL     1      -6.601   6.932  13.739  1.00  0.00     0.292 C 
HETATM   25  C3  UNL     1      -6.470   5.592  14.497  1.00  0.00     0.218 C 
HETATM   26  C37 UNL     1      -7.799   5.300  15.190  1.00  0.00     0.183 C 
HETATM   27  C36 UNL     1      -8.134   6.417  16.192  1.00  0.00     0.173 C 
HETATM   28  C35 UNL     1      -7.431   7.735  15.833  1.00  0.00     0.205 C 
HETATM   29  O8  UNL     1      -7.384   7.922  14.423  1.00  0.00    -0.356 OA
BRANCH  25  30
HETATM   30  O2  UNL     1      -6.172   4.547  13.541  1.00  0.00    -0.309 OA
BRANCH  30  31
HETATM   31  C2  UNL     1      -7.198   4.159  12.735  1.00  0.00     0.255 C 
HETATM   32  C1  UNL     1      -7.351   2.671  12.774  1.00  0.00     0.126 C 
HETATM   33  O1  UNL     1      -7.888   4.891  12.042  1.00  0.00    -0.266 OA
ENDBRANCH  30  31
ENDBRANCH  25  30
BRANCH  26  34
HETATM   34  O10 UNL     1      -7.759   4.042  15.884  1.00  0.00    -0.390 OA
HETATM   35  H60 UNL     1      -8.675   3.867  16.176  1.00  0.00     0.210 HD
ENDBRANCH  26  34
BRANCH  27  36
HETATM   36  O9  UNL     1      -9.563   6.555  16.200  1.00  0.00    -0.391 OA
HETATM   37  H58 UNL     1      -9.785   7.393  16.640  1.00  0.00     0.210 HD
ENDBRANCH  27  36
ENDBRANCH  23  24
ENDBRANCH   1  23
BRANCH  18  38
HETATM   38  O7  UNL     1      -2.580  11.079  15.163  1.00  0.00    -0.395 OA
HETATM   39  H47 UNL     1      -2.177  10.824  16.011  1.00  0.00     0.210 HD
ENDBRANCH  18  38
BRANCH  11  40
HETATM   40  C16 UNL     1       5.123   8.121  12.658  1.00  0.00     0.065 C 
HETATM   41  C17 UNL     1       6.274   9.128  12.665  1.00  0.00     0.046 C 
HETATM   42  C18 UNL     1       5.689   6.702  12.828  1.00  0.00     0.041 C 
HETATM   43  C19 UNL     1       6.022   6.277  11.419  1.00  0.00     0.038 C 
HETATM   44  C20 UNL     1       4.959   6.971  10.578  1.00  0.00     0.156 C 
HETATM   45  O5  UNL     1       4.577   8.154  11.311  1.00  0.00    -0.372 OA
BRANCH  44  46
HETATM   46  C21 UNL     1       3.710   6.097  10.250  1.00  0.00     0.076 C 
HETATM   47  C22 UNL     1       4.086   4.940   9.319  1.00  0.00     0.048 C 
HETATM   48  C23 UNL     1       2.606   6.939   9.596  1.00  0.00     0.048 C 
BRANCH  46  49
HETATM   49  O4  UNL     1       3.168   5.527  11.451  1.00  0.00    -0.388 OA
HETATM   50  H35 UNL     1       2.323   5.104  11.222  1.00  0.00     0.210 HD
ENDBRANCH  46  49
ENDBRANCH  44  46
ENDBRANCH  11  40
BRANCH  12  51
HETATM   51  O6  UNL     1       4.570  10.786  13.872  1.00  0.00    -0.395 OA
HETATM   52  H37 UNL     1       5.505  10.813  14.131  1.00  0.00     0.210 HD
ENDBRANCH  12  51
TORSDOF 11
ENDMDL
MODEL 6
REMARK minimizedAffinity -10.8737993
REMARK CNNscore 0.308869123
REMARK CNNaffinity 7.01820993
REMARK  11 active torsions:
REMARK  status: ('A' for Active; 'I' for Inactive)
REMARK    1  A    between atoms: C2_2  and  O2_4 
REMARK    2  A    between atoms: O2_4  and  C3_5 
REMARK    3  A    between atoms: C4_6  and  O3_7 
REMARK    4  A    between atoms: O3_7  and  C5_8 
REMARK    5  A    between atoms: C15_18  and  C16_19 
REMARK    6  A    between atoms: C20_23  and  C21_24 
REMARK    7  A    between atoms: C21_24  and  O4_27 
REMARK    8  A    between atoms: C24_29  and  O6_30 
REMARK    9  A    between atoms: C30_36  and  O7_37 
REMARK   10  A    between atoms: C36_44  and  O9_45 
REMARK   11  A    between atoms: C37_46  and  O10_47 
ROOT
HETATM    1  C5  UNL     1      -4.210   7.021  14.563  1.00  0.00     0.133 C 
HETATM    2  C6  UNL     1      -3.231   6.000  13.975  1.00  0.00     0.034 C 
HETATM    3  C7  UNL     1      -2.471   6.600  12.803  1.00  0.00     0.013 C 
HETATM    4  C8  UNL     1      -1.725   7.864  13.195  1.00  0.00    -0.025 A 
HETATM    5  C9  UNL     1      -0.757   8.344  12.139  1.00  0.00     0.021 A 
HETATM    6  C10 UNL     1      -0.208   7.876  13.478  1.00  0.00    -0.027 A 
HETATM    7  C11 UNL     1       0.595   6.583  13.458  1.00  0.00     0.011 C 
HETATM    8  C12 UNL     1       2.120   6.787  13.357  1.00  0.00     0.011 C 
HETATM    9  C13 UNL     1       2.593   8.220  13.663  1.00  0.00    -0.028 C 
HETATM   10  C14 UNL     1       2.430   9.101  12.387  1.00  0.00     0.016 C 
HETATM   11  C15 UNL     1       4.063   8.338  14.210  1.00  0.00     0.057 C 
HETATM   12  C24 UNL     1       4.047   9.713  14.946  1.00  0.00     0.126 C 
HETATM   13  C25 UNL     1       2.552  10.095  15.146  1.00  0.00     0.042 C 
HETATM   14  C26 UNL     1       1.771   8.791  14.881  1.00  0.00    -0.029 C 
HETATM   15  C27 UNL     1       1.900   7.938  16.200  1.00  0.00     0.016 C 
HETATM   16  C28 UNL     1       0.230   8.863  14.579  1.00  0.00     0.006 C 
HETATM   17  C29 UNL     1      -0.360  10.260  14.412  1.00  0.00     0.038 C 
HETATM   18  C30 UNL     1      -1.870  10.290  14.088  1.00  0.00     0.124 C 
HETATM   19  C31 UNL     1      -2.626   8.933  13.875  1.00  0.00     0.034 C 
HETATM   20  C32 UNL     1      -3.483   8.321  15.065  1.00  0.00    -0.015 C 
HETATM   21  C33 UNL     1      -4.581   9.302  15.556  1.00  0.00     0.018 C 
HETATM   22  C34 UNL     1      -2.637   7.971  16.304  1.00  0.00     0.018 C 
ENDROOT
BRANCH   1  23
HETATM   23  O3  UNL     1      -5.138   7.345  13.513  1.00  0.00    -0.352 OA
BRANCH  23  24
HETATM   24  C4  UNL     1      -6.472   6.892  13.742  1.00  0.00     0.292 C 
HETATM   25  C3  UNL     1      -6.393   5.537  14.482  1.00  0.00     0.218 C 
HETATM   26  C37 UNL     1      -7.747   5.268  15.135  1.00  0.00     0.183 C 
HETATM   27  C36 UNL     1      -8.080   6.377  16.146  1.00  0.00     0.173 C 
HETATM   28  C35 UNL     1      -7.336   7.683  15.826  1.00  0.00     0.205 C 
HETATM   29  O8  UNL     1      -7.247   7.891  14.421  1.00  0.00    -0.356 OA
BRANCH  25  30
HETATM   30  O2  UNL     1      -6.097   4.500  13.517  1.00  0.00    -0.309 OA
BRANCH  30  31
HETATM   31  C2  UNL     1      -7.120   4.128  12.700  1.00  0.00     0.255 C 
HETATM   32  C1  UNL     1      -7.293   2.642  12.735  1.00  0.00     0.126 C 
HETATM   33  O1  UNL     1      -7.792   4.870  12.002  1.00  0.00    -0.266 OA
ENDBRANCH  30  31
ENDBRANCH  25  30
BRANCH  26  34
HETATM   34  O10 UNL     1      -7.756   3.999  15.810  1.00  0.00    -0.390 OA
HETATM   35  H60 UNL     1      -8.683   3.842  16.075  1.00  0.00     0.210 HD
ENDBRANCH  26  34
BRANCH  27  36
HETATM   36  O9  UNL     1      -9.505   6.551  16.119  1.00  0.00    -0.391 OA
HETATM   37  H58 UNL     1      -9.718   7.388  16.567  1.00  0.00     0.210 HD
ENDBRANCH  27  36
ENDBRANCH  23  24
ENDBRANCH   1  23
BRANCH  18  38
HETATM   38  O7  UNL     1      -2.531  11.173  14.989  1.00  0.00    -0.395 OA
HETATM   39  H47 UNL     1      -2.189  11.010  15.885  1.00  0.00     0.210 HD
ENDBRANCH  18  38
BRANCH  11  40
HETATM   40  C16 UNL     1       5.306   7.973  13.348  1.00  0.00     0.065 C 
HETATM   41  C17 UNL     1       5.068   7.098  12.117  1.00  0.00     0.046 C 
HETATM   42  C18 UNL     1       6.094   9.226  12.935  1.00  0.00     0.041 C 
HETATM   43  C19 UNL     1       7.535   8.787  13.013  1.00  0.00     0.038 C 
HETATM   44  C20 UNL     1       7.539   7.783  14.157  1.00  0.00     0.156 C 
HETATM   45  O5  UNL     1       6.212   7.219  14.200  1.00  0.00    -0.372 OA
BRANCH  44  46
HETATM   46  C21 UNL     1       7.933   8.373  15.546  1.00  0.00     0.076 C 
HETATM   47  C22 UNL     1       8.074   9.897  15.467  1.00  0.00     0.048 C 
HETATM   48  C23 UNL     1       9.249   7.765  16.048  1.00  0.00     0.048 C 
BRANCH  46  49
HETATM   49  O4  UNL     1       6.919   8.084  16.519  1.00  0.00    -0.388 OA
HETATM   50  H35 UNL     1       7.260   8.349  17.390  1.00  0.00     0.210 HD
ENDBRANCH  46  49
ENDBRANCH  44  46
ENDBRANCH  11  40
BRANCH  12  51
HETATM   51  O6  UNL     1       4.687  10.751  14.230  1.00  0.00    -0.395 OA
HETATM   52  H37 UNL     1       5.603  10.806  14.548  1.00  0.00     0.210 HD
ENDBRANCH  12  51
TORSDOF 11
ENDMDL
MODEL 7
REMARK minimizedAffinity -7.91186571
REMARK CNNscore 0.293487579
REMARK CNNaffinity 5.91316032
REMARK  11 active torsions:
REMARK  status: ('A' for Active; 'I' for Inactive)
REMARK    1  A    between atoms: C2_2  and  O2_4 
REMARK    2  A    between atoms: O2_4  and  C3_5 
REMARK    3  A    between atoms: C4_6  and  O3_7 
REMARK    4  A    between atoms: O3_7  and  C5_8 
REMARK    5  A    between atoms: C15_18  and  C16_19 
REMARK    6  A    between atoms: C20_23  and  C21_24 
REMARK    7  A    between atoms: C21_24  and  O4_27 
REMARK    8  A    between atoms: C24_29  and  O6_30 
REMARK    9  A    between atoms: C30_36  and  O7_37 
REMARK   10  A    between atoms: C36_44  and  O9_45 
REMARK   11  A    between atoms: C37_46  and  O10_47 
ROOT
HETATM    1  C5  UNL     1     -16.686  -2.589  14.781  1.00  0.00     0.133 C 
HETATM    2  C6  UNL     1     -16.409  -1.754  16.035  1.00  0.00     0.034 C 
HETATM    3  C7  UNL     1     -15.407  -0.651  15.734  1.00  0.00     0.013 C 
HETATM    4  C8  UNL     1     -15.878   0.254  14.607  1.00  0.00    -0.025 A 
HETATM    5  C9  UNL     1     -15.045   1.504  14.452  1.00  0.00     0.021 A 
HETATM    6  C10 UNL     1     -16.503   1.641  14.865  1.00  0.00    -0.027 A 
HETATM    7  C11 UNL     1     -16.754   2.127  16.286  1.00  0.00     0.011 C 
HETATM    8  C12 UNL     1     -16.995   3.645  16.401  1.00  0.00     0.011 C 
HETATM    9  C13 UNL     1     -17.308   4.344  15.066  1.00  0.00    -0.028 C 
HETATM   10  C14 UNL     1     -15.975   4.653  14.320  1.00  0.00     0.016 C 
HETATM   11  C15 UNL     1     -18.171   5.654  15.180  1.00  0.00     0.057 C 
HETATM   12  C24 UNL     1     -18.792   5.783  13.756  1.00  0.00     0.126 C 
HETATM   13  C25 UNL     1     -18.616   4.400  13.064  1.00  0.00     0.042 C 
HETATM   14  C26 UNL     1     -18.263   3.427  14.209  1.00  0.00    -0.029 C 
HETATM   15  C27 UNL     1     -19.628   3.084  14.916  1.00  0.00     0.016 C 
HETATM   16  C28 UNL     1     -17.608   2.040  13.867  1.00  0.00     0.006 C 
HETATM   17  C29 UNL     1     -17.219   1.820  12.408  1.00  0.00     0.038 C 
HETATM   18  C30 UNL     1     -16.553   0.456  12.116  1.00  0.00     0.124 C 
HETATM   19  C31 UNL     1     -16.260  -0.516  13.311  1.00  0.00     0.034 C 
HETATM   20  C32 UNL     1     -17.256  -1.718  13.602  1.00  0.00    -0.015 C 
HETATM   21  C33 UNL     1     -17.414  -2.654  12.374  1.00  0.00     0.018 C 
HETATM   22  C34 UNL     1     -18.678  -1.252  13.971  1.00  0.00     0.018 C 
ENDROOT
BRANCH   1  23
HETATM   23  O3  UNL     1     -15.430  -3.178  14.399  1.00  0.00    -0.352 OA
BRANCH  23  24
HETATM   24  C4  UNL     1     -14.774  -3.898  15.444  1.00  0.00     0.292 C 
HETATM   25  C3  UNL     1     -15.043  -5.403  15.225  1.00  0.00     0.218 C 
HETATM   26  C37 UNL     1     -14.006  -6.195  16.018  1.00  0.00     0.183 C 
HETATM   27  C36 UNL     1     -12.588  -5.858  15.527  1.00  0.00     0.173 C 
HETATM   28  C35 UNL     1     -12.531  -4.478  14.854  1.00  0.00     0.205 C 
HETATM   29  O8  UNL     1     -13.383  -3.550  15.516  1.00  0.00    -0.356 OA
BRANCH  25  30
HETATM   30  O2  UNL     1     -16.372  -5.711  15.707  1.00  0.00    -0.309 OA
BRANCH  30  31
HETATM   31  C2  UNL     1     -16.640  -5.363  16.995  1.00  0.00     0.255 C 
HETATM   32  C1  UNL     1     -18.115  -5.192  17.187  1.00  0.00     0.126 C 
HETATM   33  O1  UNL     1     -15.818  -5.175  17.878  1.00  0.00    -0.266 OA
ENDBRANCH  30  31
ENDBRANCH  25  30
BRANCH  26  34
HETATM   34  O10 UNL     1     -14.223  -7.610  15.891  1.00  0.00    -0.390 OA
HETATM   35  H60 UNL     1     -13.616  -8.034  16.529  1.00  0.00     0.210 HD
ENDBRANCH  26  34
BRANCH  27  36
HETATM   36  O9  UNL     1     -11.722  -5.934  16.670  1.00  0.00    -0.391 OA
HETATM   37  H58 UNL     1     -10.879  -5.508  16.441  1.00  0.00     0.210 HD
ENDBRANCH  27  36
ENDBRANCH  23  24
ENDBRANCH   1  23
BRANCH  18  38
HETATM   38  O7  UNL     1     -17.216  -0.172  11.024  1.00  0.00    -0.395 OA
HETATM   39  H47 UNL     1     -18.176  -0.071  11.149  1.00  0.00     0.210 HD
ENDBRANCH  18  38
BRANCH  11  40
HETATM   40  C16 UNL     1     -17.646   6.940  15.880  1.00  0.00     0.065 C 
HETATM   41  C17 UNL     1     -18.667   7.789  16.639  1.00  0.00     0.046 C 
HETATM   42  C18 UNL     1     -16.456   6.634  16.803  1.00  0.00     0.041 C 
HETATM   43  C19 UNL     1     -15.546   7.825  16.624  1.00  0.00     0.038 C 
HETATM   44  C20 UNL     1     -15.770   8.227  15.174  1.00  0.00     0.156 C 
HETATM   45  O5  UNL     1     -17.108   7.804  14.842  1.00  0.00    -0.372 OA
BRANCH  44  46
HETATM   46  C21 UNL     1     -14.738   7.638  14.163  1.00  0.00     0.076 C 
HETATM   47  C22 UNL     1     -15.442   7.148  12.894  1.00  0.00     0.048 C 
HETATM   48  C23 UNL     1     -13.953   6.478  14.791  1.00  0.00     0.048 C 
BRANCH  46  49
HETATM   49  O4  UNL     1     -13.791   8.643  13.771  1.00  0.00    -0.388 OA
HETATM   50  H35 UNL     1     -13.095   8.207  13.251  1.00  0.00     0.210 HD
ENDBRANCH  46  49
ENDBRANCH  44  46
ENDBRANCH  11  40
BRANCH  12  51
HETATM   51  O6  UNL     1     -18.178   6.772  12.953  1.00  0.00    -0.395 OA
HETATM   52  H37 UNL     1     -18.695   7.589  13.045  1.00  0.00     0.210 HD
ENDBRANCH  12  51
TORSDOF 11
ENDMDL
MODEL 8
REMARK minimizedAffinity -8.77439022
REMARK CNNscore 0.28238818
REMARK CNNaffinity 6.64273453
REMARK  11 active torsions:
REMARK  status: ('A' for Active; 'I' for Inactive)
REMARK    1  A    between atoms: C2_2  and  O2_4 
REMARK    2  A    between atoms: O2_4  and  C3_5 
REMARK    3  A    between atoms: C4_6  and  O3_7 
REMARK    4  A    between atoms: O3_7  and  C5_8 
REMARK    5  A    between atoms: C15_18  and  C16_19 
REMARK    6  A    between atoms: C20_23  and  C21_24 
REMARK    7  A    between atoms: C21_24  and  O4_27 
REMARK    8  A    between atoms: C24_29  and  O6_30 
REMARK    9  A    between atoms: C30_36  and  O7_37 
REMARK   10  A    between atoms: C36_44  and  O9_45 
REMARK   11  A    between atoms: C37_46  and  O10_47 
ROOT
HETATM    1  C5  UNL     1      -1.485   6.875  12.465  1.00  0.00     0.133 C 
HETATM    2  C6  UNL     1      -2.517   7.932  12.872  1.00  0.00     0.034 C 
HETATM    3  C7  UNL     1      -2.728   7.923  14.378  1.00  0.00     0.013 C 
HETATM    4  C8  UNL     1      -1.431   8.151  15.135  1.00  0.00    -0.025 A 
HETATM    5  C9  UNL     1      -1.633   8.407  16.610  1.00  0.00     0.021 A 
HETATM    6  C10 UNL     1      -1.057   9.518  15.745  1.00  0.00    -0.027 A 
HETATM    7  C11 UNL     1      -1.950  10.732  15.533  1.00  0.00     0.011 C 
HETATM    8  C12 UNL     1      -1.678  11.895  16.507  1.00  0.00     0.011 C 
HETATM    9  C13 UNL     1      -0.342  11.793  17.264  1.00  0.00    -0.028 C 
HETATM   10  C14 UNL     1      -0.518  10.855  18.496  1.00  0.00     0.016 C 
HETATM   11  C15 UNL     1       0.276  13.165  17.722  1.00  0.00     0.057 C 
HETATM   12  C24 UNL     1       1.787  12.821  17.897  1.00  0.00     0.126 C 
HETATM   13  C25 UNL     1       2.025  11.469  17.165  1.00  0.00     0.042 C 
HETATM   14  C26 UNL     1       0.775  11.271  16.282  1.00  0.00    -0.029 C 
HETATM   15  C27 UNL     1       0.996  12.184  15.016  1.00  0.00     0.016 C 
HETATM   16  C28 UNL     1       0.450   9.843  15.715  1.00  0.00     0.006 C 
HETATM   17  C29 UNL     1       1.328   8.701  16.220  1.00  0.00     0.038 C 
HETATM   18  C30 UNL     1       0.960   7.307  15.662  1.00  0.00     0.124 C 
HETATM   19  C31 UNL     1      -0.293   7.171  14.730  1.00  0.00     0.034 C 
HETATM   20  C32 UNL     1      -0.092   7.108  13.155  1.00  0.00    -0.015 C 
HETATM   21  C33 UNL     1       0.833   5.936  12.732  1.00  0.00     0.018 C 
HETATM   22  C34 UNL     1       0.543   8.387  12.574  1.00  0.00     0.018 C 
ENDROOT
BRANCH   1  23
HETATM   23  O3  UNL     1      -2.028   5.603  12.861  1.00  0.00    -0.352 OA
BRANCH  23  24
HETATM   24  C4  UNL     1      -3.133   5.161  12.071  1.00  0.00     0.292 C 
HETATM   25  C3  UNL     1      -3.038   3.625  11.938  1.00  0.00     0.218 C 
HETATM   26  C37 UNL     1      -4.406   3.094  11.517  1.00  0.00     0.183 C 
HETATM   27  C36 UNL     1      -5.463   3.445  12.579  1.00  0.00     0.173 C 
HETATM   28  C35 UNL     1      -5.048   4.666  13.415  1.00  0.00     0.205 C 
HETATM   29  O8  UNL     1      -4.376   5.631  12.614  1.00  0.00    -0.356 OA
BRANCH  25  30
HETATM   30  O2  UNL     1      -2.054   3.309  10.925  1.00  0.00    -0.309 OA
BRANCH  30  31
HETATM   31  C2  UNL     1      -1.005   2.538  11.324  1.00  0.00     0.255 C 
HETATM   32  C1  UNL     1      -1.099   1.178  10.707  1.00  0.00     0.126 C 
HETATM   33  O1  UNL     1      -0.121   2.869  12.100  1.00  0.00    -0.266 OA
ENDBRANCH  30  31
ENDBRANCH  25  30
BRANCH  26  34
HETATM   34  O10 UNL     1      -4.379   1.669  11.336  1.00  0.00    -0.390 OA
HETATM   35  H60 UNL     1      -5.239   1.432  10.938  1.00  0.00     0.210 HD
ENDBRANCH  26  34
BRANCH  27  36
HETATM   36  O9  UNL     1      -6.697   3.669  11.880  1.00  0.00    -0.391 OA
HETATM   37  H58 UNL     1      -7.314   4.111  12.487  1.00  0.00     0.210 HD
ENDBRANCH  27  36
ENDBRANCH  23  24
ENDBRANCH   1  23
BRANCH  18  38
HETATM   38  O7  UNL     1       2.128   6.683  15.139  1.00  0.00    -0.395 OA
HETATM   39  H47 UNL     1       2.623   7.342  14.622  1.00  0.00     0.210 HD
ENDBRANCH  18  38
BRANCH  11  40
HETATM   40  C16 UNL     1      -0.406  14.075  18.784  1.00  0.00     0.065 C 
HETATM   41  C17 UNL     1       0.457  14.549  19.954  1.00  0.00     0.046 C 
HETATM   42  C18 UNL     1      -1.088  15.288  18.133  1.00  0.00     0.041 C 
HETATM   43  C19 UNL     1      -2.349  15.469  18.942  1.00  0.00     0.038 C 
HETATM   44  C20 UNL     1      -2.722  14.049  19.340  1.00  0.00     0.156 C 
HETATM   45  O5  UNL     1      -1.487  13.304  19.377  1.00  0.00    -0.372 OA
BRANCH  44  46
HETATM   46  C21 UNL     1      -3.756  13.355  18.401  1.00  0.00     0.076 C 
HETATM   47  C22 UNL     1      -5.159  13.932  18.618  1.00  0.00     0.048 C 
HETATM   48  C23 UNL     1      -3.786  11.839  18.639  1.00  0.00     0.048 C 
BRANCH  46  49
HETATM   49  O4  UNL     1      -3.409  13.573  17.025  1.00  0.00    -0.388 OA
HETATM   50  H35 UNL     1      -3.995  13.020  16.481  1.00  0.00     0.210 HD
ENDBRANCH  46  49
ENDBRANCH  44  46
ENDBRANCH  11  40
BRANCH  12  51
HETATM   51  O6  UNL     1       2.188  12.681  19.247  1.00  0.00    -0.395 OA
HETATM   52  H37 UNL     1       2.544  13.536  19.538  1.00  0.00     0.210 HD
ENDBRANCH  12  51
TORSDOF 11
ENDMDL
MODEL 9
REMARK minimizedAffinity -8.19956017
REMARK CNNscore 0.278139472
REMARK CNNaffinity 7.32908964
REMARK  11 active torsions:
REMARK  status: ('A' for Active; 'I' for Inactive)
REMARK    1  A    between atoms: C2_2  and  O2_4 
REMARK    2  A    between atoms: O2_4  and  C3_5 
REMARK    3  A    between atoms: C4_6  and  O3_7 
REMARK    4  A    between atoms: O3_7  and  C5_8 
REMARK    5  A    between atoms: C15_18  and  C16_19 
REMARK    6  A    between atoms: C20_23  and  C21_24 
REMARK    7  A    between atoms: C21_24  and  O4_27 
REMARK    8  A    between atoms: C24_29  and  O6_30 
REMARK    9  A    between atoms: C30_36  and  O7_37 
REMARK   10  A    between atoms: C36_44  and  O9_45 
REMARK   11  A    between atoms: C37_46  and  O10_47 
ROOT
HETATM    1  C5  UNL     1      -6.469   5.983  13.330  1.00  0.00     0.133 C 
HETATM    2  C6  UNL     1      -7.578   6.266  12.312  1.00  0.00     0.034 C 
HETATM    3  C7  UNL     1      -8.934   5.865  12.872  1.00  0.00     0.013 C 
HETATM    4  C8  UNL     1      -9.242   6.574  14.180  1.00  0.00    -0.025 A 
HETATM    5  C9  UNL     1     -10.673   6.405  14.633  1.00  0.00     0.021 A 
HETATM    6  C10 UNL     1     -10.181   7.796  14.259  1.00  0.00    -0.027 A 
HETATM    7  C11 UNL     1     -10.777   8.399  12.995  1.00  0.00     0.011 C 
HETATM    8  C12 UNL     1     -11.980   9.329  13.244  1.00  0.00     0.011 C 
HETATM    9  C13 UNL     1     -12.145   9.781  14.707  1.00  0.00    -0.028 C 
HETATM   10  C14 UNL     1     -12.886   8.670  15.510  1.00  0.00     0.016 C 
HETATM   11  C15 UNL     1     -12.873  11.160  14.905  1.00  0.00     0.057 C 
HETATM   12  C24 UNL     1     -12.385  11.608  16.317  1.00  0.00     0.126 C 
HETATM   13  C25 UNL     1     -11.144  10.734  16.658  1.00  0.00     0.042 C 
HETATM   14  C26 UNL     1     -10.725  10.099  15.316  1.00  0.00    -0.029 C 
HETATM   15  C27 UNL     1      -9.930  11.218  14.542  1.00  0.00     0.016 C 
HETATM   16  C28 UNL     1      -9.783   8.842  15.319  1.00  0.00     0.006 C 
HETATM   17  C29 UNL     1      -9.472   8.236  16.684  1.00  0.00     0.038 C 
HETATM   18  C30 UNL     1      -8.565   6.985  16.645  1.00  0.00     0.124 C 
HETATM   19  C31 UNL     1      -8.129   6.408  15.254  1.00  0.00     0.034 C 
HETATM   20  C32 UNL     1      -6.689   6.757  14.680  1.00  0.00    -0.015 C 
HETATM   21  C33 UNL     1      -5.556   6.326  15.648  1.00  0.00     0.018 C 
HETATM   22  C34 UNL     1      -6.487   8.264  14.427  1.00  0.00     0.018 C 
ENDROOT
BRANCH   1  23
HETATM   23  O3  UNL     1      -6.485   4.563  13.564  1.00  0.00    -0.352 OA
BRANCH  23  24
HETATM   24  C4  UNL     1      -5.357   3.865  13.037  1.00  0.00     0.292 C 
HETATM   25  C3  UNL     1      -5.424   3.947  11.496  1.00  0.00     0.218 C 
HETATM   26  C37 UNL     1      -4.038   3.631  10.938  1.00  0.00     0.183 C 
HETATM   27  C36 UNL     1      -3.011   4.653  11.453  1.00  0.00     0.173 C 
HETATM   28  C35 UNL     1      -3.464   5.302  12.771  1.00  0.00     0.205 C 
HETATM   29  O8  UNL     1      -4.133   4.361  13.602  1.00  0.00    -0.356 OA
BRANCH  25  30
HETATM   30  O2  UNL     1      -6.380   2.969  11.023  1.00  0.00    -0.309 OA
BRANCH  30  31
HETATM   31  C2  UNL     1      -6.477   1.822  11.748  1.00  0.00     0.255 C 
HETATM   32  C1  UNL     1      -5.376   0.879  11.373  1.00  0.00     0.126 C 
HETATM   33  O1  UNL     1      -7.344   1.557  12.567  1.00  0.00    -0.266 OA
ENDBRANCH  30  31
ENDBRANCH  25  30
BRANCH  26  34
HETATM   34  O10 UNL     1      -4.039   3.651   9.501  1.00  0.00    -0.390 OA
HETATM   35  H60 UNL     1      -3.167   3.307   9.227  1.00  0.00     0.210 HD
ENDBRANCH  26  34
BRANCH  27  36
HETATM   36  O9  UNL     1      -1.766   3.955  11.601  1.00  0.00    -0.391 OA
HETATM   37  H58 UNL     1      -1.169   4.506  12.135  1.00  0.00     0.210 HD
ENDBRANCH  27  36
ENDBRANCH  23  24
ENDBRANCH   1  23
BRANCH  18  38
HETATM   38  O7  UNL     1      -7.481   7.156  17.553  1.00  0.00    -0.395 OA
HETATM   39  H47 UNL     1      -7.135   8.060  17.452  1.00  0.00     0.210 HD
ENDBRANCH  18  38
BRANCH  11  40
HETATM   40  C16 UNL     1     -14.370  11.374  14.534  1.00  0.00     0.065 C 
HETATM   41  C17 UNL     1     -15.329  10.216  14.811  1.00  0.00     0.046 C 
HETATM   42  C18 UNL     1     -14.929  12.658  15.167  1.00  0.00     0.041 C 
HETATM   43  C19 UNL     1     -15.847  13.212  14.104  1.00  0.00     0.038 C 
HETATM   44  C20 UNL     1     -15.173  12.801  12.804  1.00  0.00     0.156 C 
HETATM   45  O5  UNL     1     -14.428  11.601  13.099  1.00  0.00    -0.372 OA
BRANCH  44  46
HETATM   46  C21 UNL     1     -14.245  13.885  12.174  1.00  0.00     0.076 C 
HETATM   47  C22 UNL     1     -13.984  15.019  13.171  1.00  0.00     0.048 C 
HETATM   48  C23 UNL     1     -14.864  14.463  10.895  1.00  0.00     0.048 C 
BRANCH  46  49
HETATM   49  O4  UNL     1     -12.975  13.316  11.825  1.00  0.00    -0.388 OA
HETATM   50  H35 UNL     1     -12.480  13.984  11.320  1.00  0.00     0.210 HD
ENDBRANCH  46  49
ENDBRANCH  44  46
ENDBRANCH  11  40
BRANCH  12  51
HETATM   51  O6  UNL     1     -13.353  11.439  17.335  1.00  0.00    -0.395 OA
HETATM   52  H37 UNL     1     -13.822  12.282  17.438  1.00  0.00     0.210 HD
ENDBRANCH  12  51
TORSDOF 11
ENDMDL
