MODEL 1
REMARK minimizedAffinity -9.36261559
REMARK  5 active torsions:
REMARK  status: ('A' for Active; 'I' for Inactive)
REMARK    1  A    between atoms: C4_4  and  C5_5 
REMARK    2  A    between atoms: C5_5  and  C6_6 
REMARK    3  A    between atoms: C6_6  and  C7_7 
REMARK    4  A    between atoms: C7_7  and  C9_9 
REMARK    5  A    between atoms: C24_24  and  O1_25 
ROOT
HETATM    1  C9  UNL     1       1.272   6.618  12.781  1.00  0.00    -0.002 C 
HETATM    2  C10 UNL     1       0.577   7.928  13.214  1.00  0.00     0.007 C 
HETATM    3  C11 UNL     1      -0.932   7.614  13.357  1.00  0.00     0.015 C 
HETATM    4  C12 UNL     1      -1.044   6.080  13.228  1.00  0.00    -0.013 C 
HETATM    5  C13 UNL     1      -0.809   5.490  14.656  1.00  0.00     0.021 C 
HETATM    6  C14 UNL     1      -2.353   5.450  12.763  1.00  0.00    -0.068 C 
HETATM    7  C15 UNL     1      -2.332   4.249  12.123  1.00  0.00    -0.068 C 
HETATM    8  C16 UNL     1      -1.016   3.553  11.754  1.00  0.00     0.036 C 
HETATM    9  C17 UNL     1       0.300   4.282  12.102  1.00  0.00     0.015 C 
HETATM   10  C18 UNL     1       0.093   5.797  12.179  1.00  0.00    -0.029 C 
HETATM   11  C19 UNL     1      -0.236   6.314  10.744  1.00  0.00     0.016 C 
HETATM   12  C20 UNL     1      -3.638   3.554  11.679  1.00  0.00    -0.017 C 
HETATM   13  C21 UNL     1      -3.864   3.940  10.195  1.00  0.00     0.020 C 
HETATM   14  C22 UNL     1      -3.567   2.004  11.796  1.00  0.00     0.016 C 
HETATM   15  C23 UNL     1      -4.895   1.310  11.482  1.00  0.00     0.033 C 
HETATM   16  C24 UNL     1      -6.046   1.848  12.324  1.00  0.00     0.118 C 
HETATM   17  C25 UNL     1      -6.148   3.372  12.263  1.00  0.00     0.037 C 
HETATM   18  C26 UNL     1      -4.806   4.028  12.605  1.00  0.00     0.001 C 
HETATM   19  C27 UNL     1      -4.919   5.551  12.619  1.00  0.00     0.010 C 
HETATM   20  C28 UNL     1      -3.625   6.187  13.126  1.00  0.00     0.036 C 
ENDROOT
BRANCH   1  21
HETATM   21  C7  UNL     1       2.588   6.719  11.958  1.00  0.00    -0.014 C 
HETATM   22  C8  UNL     1       2.787   8.165  11.476  1.00  0.00     0.010 C 
BRANCH  21  23
HETATM   23  C6  UNL     1       2.846   5.679  10.835  1.00  0.00     0.008 C 
BRANCH  23  24
HETATM   24  C5  UNL     1       3.604   6.109   9.560  1.00  0.00     0.028 C 
BRANCH  24  25
HETATM   25  C4  UNL     1       2.760   6.199   8.321  1.00  0.00    -0.025 C 
HETATM   26  C2  UNL     1       2.455   7.281   7.580  1.00  0.00    -0.091 C 
HETATM   27  C1  UNL     1       2.904   8.690   7.860  1.00  0.00     0.042 C 
HETATM   28  C3  UNL     1       1.588   7.146   6.355  1.00  0.00     0.042 C 
ENDBRANCH  24  25
ENDBRANCH  23  24
ENDBRANCH  21  23
ENDBRANCH   1  21
BRANCH  16  29
HETATM   29  O1  UNL     1      -7.271   1.269  11.883  1.00  0.00    -0.396 OA
HETATM   30  H39 UNL     1      -7.431   1.568  10.970  1.00  0.00     0.210 HD
ENDBRANCH  16  29
TORSDOF 5
ENDMDL
MODEL 2
REMARK minimizedAffinity -8.73039436
REMARK  5 active torsions:
REMARK  status: ('A' for Active; 'I' for Inactive)
REMARK    1  A    between atoms: C4_4  and  C5_5 
REMARK    2  A    between atoms: C5_5  and  C6_6 
REMARK    3  A    between atoms: C6_6  and  C7_7 
REMARK    4  A    between atoms: C7_7  and  C9_9 
REMARK    5  A    between atoms: C24_24  and  O1_25 
ROOT
HETATM    1  C9  UNL     1      -5.822   7.236  14.375  1.00  0.00    -0.002 C 
HETATM    2  C10 UNL     1      -5.540   8.467  15.265  1.00  0.00     0.007 C 
HETATM    3  C11 UNL     1      -4.050   8.837  15.066  1.00  0.00     0.015 C 
HETATM    4  C12 UNL     1      -3.564   7.958  13.895  1.00  0.00    -0.013 C 
HETATM    5  C13 UNL     1      -3.908   8.728  12.579  1.00  0.00     0.021 C 
HETATM    6  C14 UNL     1      -2.083   7.617  13.764  1.00  0.00    -0.068 C 
HETATM    7  C15 UNL     1      -1.708   6.465  13.144  1.00  0.00    -0.068 C 
HETATM    8  C16 UNL     1      -2.738   5.435  12.663  1.00  0.00     0.036 C 
HETATM    9  C17 UNL     1      -4.228   5.732  12.941  1.00  0.00     0.015 C 
HETATM   10  C18 UNL     1      -4.396   6.649  14.155  1.00  0.00    -0.029 C 
HETATM   11  C19 UNL     1      -3.945   5.861  15.423  1.00  0.00     0.016 C 
HETATM   12  C20 UNL     1      -0.218   6.106  12.949  1.00  0.00    -0.017 C 
HETATM   13  C21 UNL     1       0.173   5.181  14.128  1.00  0.00     0.020 C 
HETATM   14  C22 UNL     1       0.053   5.364  11.608  1.00  0.00     0.016 C 
HETATM   15  C23 UNL     1       1.539   5.116  11.341  1.00  0.00     0.033 C 
HETATM   16  C24 UNL     1       2.364   6.398  11.409  1.00  0.00     0.118 C 
HETATM   17  C25 UNL     1       2.118   7.180  12.699  1.00  0.00     0.037 C 
HETATM   18  C26 UNL     1       0.621   7.425  12.918  1.00  0.00     0.001 C 
HETATM   19  C27 UNL     1       0.373   8.270  14.165  1.00  0.00     0.010 C 
HETATM   20  C28 UNL     1      -1.103   8.651  14.278  1.00  0.00     0.036 C 
ENDROOT
BRANCH   1  21
HETATM   21  C7  UNL     1      -6.956   6.261  14.805  1.00  0.00    -0.014 C 
HETATM   22  C8  UNL     1      -7.210   6.396  16.315  1.00  0.00     0.010 C 
BRANCH  21  23
HETATM   23  C6  UNL     1      -6.878   4.781  14.346  1.00  0.00     0.008 C 
BRANCH  23  24
HETATM   24  C5  UNL     1      -7.212   4.420  12.882  1.00  0.00     0.028 C 
BRANCH  24  25
HETATM   25  C4  UNL     1      -6.932   2.993  12.502  1.00  0.00    -0.025 C 
HETATM   26  C2  UNL     1      -6.124   2.517  11.536  1.00  0.00    -0.091 C 
HETATM   27  C1  UNL     1      -5.308   3.351  10.585  1.00  0.00     0.042 C 
HETATM   28  C3  UNL     1      -5.980   1.031  11.327  1.00  0.00     0.042 C 
ENDBRANCH  24  25
ENDBRANCH  23  24
ENDBRANCH  21  23
ENDBRANCH   1  21
BRANCH  16  29
HETATM   29  O1  UNL     1       3.749   6.080  11.299  1.00  0.00    -0.396 OA
HETATM   30  H39 UNL     1       3.996   5.548  12.076  1.00  0.00     0.210 HD
ENDBRANCH  16  29
TORSDOF 5
ENDMDL
MODEL 3
REMARK minimizedAffinity -8.6386652
REMARK  5 active torsions:
REMARK  status: ('A' for Active; 'I' for Inactive)
REMARK    1  A    between atoms: C4_4  and  C5_5 
REMARK    2  A    between atoms: C5_5  and  C6_6 
REMARK    3  A    between atoms: C6_6  and  C7_7 
REMARK    4  A    between atoms: C7_7  and  C9_9 
REMARK    5  A    between atoms: C24_24  and  O1_25 
ROOT
HETATM    1  C9  UNL     1       0.607   7.374  12.747  1.00  0.00    -0.002 C 
HETATM    2  C10 UNL     1       0.904   8.605  13.632  1.00  0.00     0.007 C 
HETATM    3  C11 UNL     1      -0.339   8.827  14.528  1.00  0.00     0.015 C 
HETATM    4  C12 UNL     1      -1.230   7.588  14.306  1.00  0.00    -0.013 C 
HETATM    5  C13 UNL     1      -0.735   6.491  15.303  1.00  0.00     0.021 C 
HETATM    6  C14 UNL     1      -2.733   7.679  14.551  1.00  0.00    -0.068 C 
HETATM    7  C15 UNL     1      -3.578   6.859  13.868  1.00  0.00    -0.068 C 
HETATM    8  C16 UNL     1      -3.074   5.913  12.771  1.00  0.00     0.036 C 
HETATM    9  C17 UNL     1      -1.566   5.946  12.436  1.00  0.00     0.015 C 
HETATM   10  C18 UNL     1      -0.949   7.302  12.785  1.00  0.00    -0.029 C 
HETATM   11  C19 UNL     1      -1.554   8.372  11.824  1.00  0.00     0.016 C 
HETATM   12  C20 UNL     1      -5.102   6.886  14.121  1.00  0.00    -0.017 C 
HETATM   13  C21 UNL     1      -5.713   7.821  13.048  1.00  0.00     0.020 C 
HETATM   14  C22 UNL     1      -5.758   5.479  14.003  1.00  0.00     0.016 C 
HETATM   15  C23 UNL     1      -7.242   5.469  14.376  1.00  0.00     0.033 C 
HETATM   16  C24 UNL     1      -7.497   6.053  15.762  1.00  0.00     0.118 C 
HETATM   17  C25 UNL     1      -6.854   7.428  15.940  1.00  0.00     0.037 C 
HETATM   18  C26 UNL     1      -5.365   7.391  15.577  1.00  0.00     0.001 C 
HETATM   19  C27 UNL     1      -4.699   8.742  15.825  1.00  0.00     0.010 C 
HETATM   20  C28 UNL     1      -3.187   8.647  15.623  1.00  0.00     0.036 C 
ENDROOT
BRANCH   1  21
HETATM   21  C7  UNL     1       1.309   7.277  11.362  1.00  0.00    -0.014 C 
HETATM   22  C8  UNL     1       0.257   7.065  10.261  1.00  0.00     0.010 C 
BRANCH  21  23
HETATM   23  C6  UNL     1       2.526   6.326  11.210  1.00  0.00     0.008 C 
BRANCH  23  24
HETATM   24  C5  UNL     1       3.467   6.483   9.996  1.00  0.00     0.028 C 
BRANCH  24  25
HETATM   25  C4  UNL     1       2.796   6.377   8.656  1.00  0.00    -0.025 C 
HETATM   26  C2  UNL     1       2.594   7.336   7.731  1.00  0.00    -0.091 C 
HETATM   27  C1  UNL     1       3.005   8.778   7.860  1.00  0.00     0.042 C 
HETATM   28  C3  UNL     1       1.897   7.009   6.435  1.00  0.00     0.042 C 
ENDBRANCH  24  25
ENDBRANCH  23  24
ENDBRANCH  21  23
ENDBRANCH   1  21
BRANCH  16  29
HETATM   29  O1  UNL     1      -8.901   6.150  15.987  1.00  0.00    -0.396 OA
HETATM   30  H39 UNL     1      -9.263   6.786  15.345  1.00  0.00     0.210 HD
ENDBRANCH  16  29
TORSDOF 5
ENDMDL
MODEL 4
REMARK minimizedAffinity -8.51047707
REMARK  5 active torsions:
REMARK  status: ('A' for Active; 'I' for Inactive)
REMARK    1  A    between atoms: C4_4  and  C5_5 
REMARK    2  A    between atoms: C5_5  and  C6_6 
REMARK    3  A    between atoms: C6_6  and  C7_7 
REMARK    4  A    between atoms: C7_7  and  C9_9 
REMARK    5  A    between atoms: C24_24  and  O1_25 
ROOT
HETATM    1  C9  UNL     1       1.883   7.226  12.208  1.00  0.00    -0.002 C 
HETATM    2  C10 UNL     1       2.070   5.727  11.885  1.00  0.00     0.007 C 
HETATM    3  C11 UNL     1       0.668   5.074  11.940  1.00  0.00     0.015 C 
HETATM    4  C12 UNL     1      -0.325   6.248  12.065  1.00  0.00    -0.013 C 
HETATM    5  C13 UNL     1      -0.633   6.736  10.612  1.00  0.00     0.021 C 
HETATM    6  C14 UNL     1      -1.697   6.020  12.692  1.00  0.00    -0.068 C 
HETATM    7  C15 UNL     1      -2.335   7.051  13.311  1.00  0.00    -0.068 C 
HETATM    8  C16 UNL     1      -1.667   8.419  13.495  1.00  0.00     0.036 C 
HETATM    9  C17 UNL     1      -0.219   8.582  12.984  1.00  0.00     0.015 C 
HETATM   10  C18 UNL     1       0.514   7.239  12.952  1.00  0.00    -0.029 C 
HETATM   11  C19 UNL     1       0.705   6.756  14.423  1.00  0.00     0.016 C 
HETATM   12  C20 UNL     1      -3.745   6.874  13.916  1.00  0.00    -0.017 C 
HETATM   13  C21 UNL     1      -3.546   6.562  15.420  1.00  0.00     0.020 C 
HETATM   14  C22 UNL     1      -4.626   8.149  13.774  1.00  0.00     0.016 C 
HETATM   15  C23 UNL     1      -6.066   7.947  14.253  1.00  0.00     0.033 C 
HETATM   16  C24 UNL     1      -6.744   6.761  13.576  1.00  0.00     0.118 C 
HETATM   17  C25 UNL     1      -5.908   5.484  13.666  1.00  0.00     0.037 C 
HETATM   18  C26 UNL     1      -4.482   5.723  13.157  1.00  0.00     0.001 C 
HETATM   19  C27 UNL     1      -3.663   4.433  13.175  1.00  0.00     0.010 C 
HETATM   20  C28 UNL     1      -2.304   4.645  12.509  1.00  0.00     0.036 C 
ENDROOT
BRANCH   1  21
HETATM   21  C7  UNL     1       3.072   7.995  12.851  1.00  0.00    -0.014 C 
HETATM   22  C8  UNL     1       2.743   9.495  12.919  1.00  0.00     0.010 C 
BRANCH  21  23
HETATM   23  C6  UNL     1       4.506   7.727  12.322  1.00  0.00     0.008 C 
BRANCH  23  24
HETATM   24  C5  UNL     1       4.697   7.167  10.895  1.00  0.00     0.028 C 
BRANCH  24  25
HETATM   25  C4  UNL     1       4.084   7.996   9.802  1.00  0.00    -0.025 C 
HETATM   26  C2  UNL     1       3.288   7.605   8.788  1.00  0.00    -0.091 C 
HETATM   27  C1  UNL     1       2.841   6.194   8.519  1.00  0.00     0.042 C 
HETATM   28  C3  UNL     1       2.770   8.613   7.795  1.00  0.00     0.042 C 
ENDBRANCH  24  25
ENDBRANCH  23  24
ENDBRANCH  21  23
ENDBRANCH   1  21
BRANCH  16  29
HETATM   29  O1  UNL     1      -8.021   6.539  14.169  1.00  0.00    -0.396 OA
HETATM   30  H39 UNL     1      -7.878   6.285  15.098  1.00  0.00     0.210 HD
ENDBRANCH  16  29
TORSDOF 5
ENDMDL
MODEL 5
REMARK minimizedAffinity -8.38623142
REMARK  5 active torsions:
REMARK  status: ('A' for Active; 'I' for Inactive)
REMARK    1  A    between atoms: C4_4  and  C5_5 
REMARK    2  A    between atoms: C5_5  and  C6_6 
REMARK    3  A    between atoms: C6_6  and  C7_7 
REMARK    4  A    between atoms: C7_7  and  C9_9 
REMARK    5  A    between atoms: C24_24  and  O1_25 
ROOT
HETATM    1  C9  UNL     1      -2.249   5.762  13.341  1.00  0.00    -0.002 C 
HETATM    2  C10 UNL     1      -2.443   5.114  11.952  1.00  0.00     0.007 C 
HETATM    3  C11 UNL     1      -1.057   5.093  11.265  1.00  0.00     0.015 C 
HETATM    4  C12 UNL     1      -0.053   5.517  12.357  1.00  0.00    -0.013 C 
HETATM    5  C13 UNL     1       0.339   4.220  13.137  1.00  0.00     0.021 C 
HETATM    6  C14 UNL     1       1.280   6.145  11.963  1.00  0.00    -0.068 C 
HETATM    7  C15 UNL     1       1.901   7.002  12.819  1.00  0.00    -0.068 C 
HETATM    8  C16 UNL     1       1.246   7.445  14.133  1.00  0.00     0.036 C 
HETATM    9  C17 UNL     1      -0.170   6.912  14.442  1.00  0.00     0.015 C 
HETATM   10  C18 UNL     1      -0.922   6.556  13.157  1.00  0.00    -0.029 C 
HETATM   11  C19 UNL     1      -1.197   7.876  12.374  1.00  0.00     0.016 C 
HETATM   12  C20 UNL     1       3.274   7.622  12.478  1.00  0.00    -0.017 C 
HETATM   13  C21 UNL     1       2.991   9.012  11.855  1.00  0.00     0.020 C 
HETATM   14  C22 UNL     1       4.182   7.801  13.729  1.00  0.00     0.016 C 
HETATM   15  C23 UNL     1       5.591   8.294  13.390  1.00  0.00     0.033 C 
HETATM   16  C24 UNL     1       6.285   7.410  12.359  1.00  0.00     0.118 C 
HETATM   17  C25 UNL     1       5.425   7.182  11.116  1.00  0.00     0.037 C 
HETATM   18  C26 UNL     1       4.031   6.669  11.497  1.00  0.00     0.001 C 
HETATM   19  C27 UNL     1       3.192   6.368  10.257  1.00  0.00     0.010 C 
HETATM   20  C28 UNL     1       1.874   5.698  10.643  1.00  0.00     0.036 C 
ENDROOT
BRANCH   1  21
HETATM   21  C7  UNL     1      -3.458   6.498  13.986  1.00  0.00    -0.014 C 
HETATM   22  C8  UNL     1      -3.549   6.137  15.478  1.00  0.00     0.010 C 
BRANCH  21  23
HETATM   23  C6  UNL     1      -4.836   6.431  13.276  1.00  0.00     0.008 C 
BRANCH  23  24
HETATM   24  C5  UNL     1      -5.782   5.244  13.562  1.00  0.00     0.028 C 
BRANCH  24  25
HETATM   25  C4  UNL     1      -5.593   4.053  12.666  1.00  0.00    -0.025 C 
HETATM   26  C2  UNL     1      -6.450   3.047  12.401  1.00  0.00    -0.091 C 
HETATM   27  C1  UNL     1      -7.829   2.894  12.984  1.00  0.00     0.042 C 
HETATM   28  C3  UNL     1      -6.058   1.943  11.454  1.00  0.00     0.042 C 
ENDBRANCH  24  25
ENDBRANCH  23  24
ENDBRANCH  21  23
ENDBRANCH   1  21
BRANCH  16  29
HETATM   29  O1  UNL     1       7.525   8.002  11.980  1.00  0.00    -0.396 OA
HETATM   30  H39 UNL     1       7.329   8.846  11.537  1.00  0.00     0.210 HD
ENDBRANCH  16  29
TORSDOF 5
ENDMDL
MODEL 6
REMARK minimizedAffinity -8.35430717
REMARK  5 active torsions:
REMARK  status: ('A' for Active; 'I' for Inactive)
REMARK    1  A    between atoms: C4_4  and  C5_5 
REMARK    2  A    between atoms: C5_5  and  C6_6 
REMARK    3  A    between atoms: C6_6  and  C7_7 
REMARK    4  A    between atoms: C7_7  and  C9_9 
REMARK    5  A    between atoms: C24_24  and  O1_25 
ROOT
HETATM    1  C9  UNL     1      -1.413   6.103  12.113  1.00  0.00    -0.002 C 
HETATM    2  C10 UNL     1      -1.960   7.250  12.992  1.00  0.00     0.007 C 
HETATM    3  C11 UNL     1      -0.849   8.325  13.075  1.00  0.00     0.015 C 
HETATM    4  C12 UNL     1       0.223   7.883  12.057  1.00  0.00    -0.013 C 
HETATM    5  C13 UNL     1      -0.204   8.464  10.670  1.00  0.00     0.021 C 
HETATM    6  C14 UNL     1       1.670   8.335  12.233  1.00  0.00    -0.068 C 
HETATM    7  C15 UNL     1       2.680   7.566  11.744  1.00  0.00    -0.068 C 
HETATM    8  C16 UNL     1       2.417   6.194  11.111  1.00  0.00     0.036 C 
HETATM    9  C17 UNL     1       0.958   5.690  11.079  1.00  0.00     0.015 C 
HETATM   10  C18 UNL     1       0.127   6.320  12.200  1.00  0.00    -0.029 C 
HETATM   11  C19 UNL     1       0.663   5.781  13.562  1.00  0.00     0.016 C 
HETATM   12  C20 UNL     1       4.155   8.010  11.859  1.00  0.00    -0.017 C 
HETATM   13  C21 UNL     1       4.727   7.329  13.127  1.00  0.00     0.020 C 
HETATM   14  C22 UNL     1       5.009   7.592  10.627  1.00  0.00     0.016 C 
HETATM   15  C23 UNL     1       6.440   8.136  10.667  1.00  0.00     0.033 C 
HETATM   16  C24 UNL     1       6.481   9.650  10.845  1.00  0.00     0.118 C 
HETATM   17  C25 UNL     1       5.638  10.119  12.031  1.00  0.00     0.037 C 
HETATM   18  C26 UNL     1       4.209   9.571  11.941  1.00  0.00     0.001 C 
HETATM   19  C27 UNL     1       3.341  10.097  13.082  1.00  0.00     0.010 C 
HETATM   20  C28 UNL     1       1.882   9.684  12.888  1.00  0.00     0.036 C 
ENDROOT
BRANCH   1  21
HETATM   21  C7  UNL     1      -1.964   4.667  12.350  1.00  0.00    -0.014 C 
HETATM   22  C8  UNL     1      -2.132   3.949  11.001  1.00  0.00     0.010 C 
BRANCH  21  23
HETATM   23  C6  UNL     1      -3.195   4.486  13.276  1.00  0.00     0.008 C 
BRANCH  23  24
HETATM   24  C5  UNL     1      -4.464   3.797  12.727  1.00  0.00     0.028 C 
BRANCH  24  25
HETATM   25  C4  UNL     1      -5.732   4.586  12.886  1.00  0.00    -0.025 C 
HETATM   26  C2  UNL     1      -7.003   4.144  12.962  1.00  0.00    -0.091 C 
HETATM   27  C1  UNL     1      -7.435   2.704  12.888  1.00  0.00     0.042 C 
HETATM   28  C3  UNL     1      -8.140   5.118  13.131  1.00  0.00     0.042 C 
ENDBRANCH  24  25
ENDBRANCH  23  24
ENDBRANCH  21  23
ENDBRANCH   1  21
BRANCH  16  29
HETATM   29  O1  UNL     1       7.831  10.072  11.022  1.00  0.00    -0.396 OA
HETATM   30  H39 UNL     1       8.159   9.685  11.852  1.00  0.00     0.210 HD
ENDBRANCH  16  29
TORSDOF 5
ENDMDL
MODEL 7
REMARK minimizedAffinity -8.31206512
REMARK  5 active torsions:
REMARK  status: ('A' for Active; 'I' for Inactive)
REMARK    1  A    between atoms: C4_4  and  C5_5 
REMARK    2  A    between atoms: C5_5  and  C6_6 
REMARK    3  A    between atoms: C6_6  and  C7_7 
REMARK    4  A    between atoms: C7_7  and  C9_9 
REMARK    5  A    between atoms: C24_24  and  O1_25 
ROOT
HETATM    1  C9  UNL     1      -1.360  10.088  14.979  1.00  0.00    -0.002 C 
HETATM    2  C10 UNL     1      -0.213   9.112  14.632  1.00  0.00     0.007 C 
HETATM    3  C11 UNL     1      -0.869   7.823  14.079  1.00  0.00     0.015 C 
HETATM    4  C12 UNL     1      -2.363   8.167  13.904  1.00  0.00    -0.013 C 
HETATM    5  C13 UNL     1      -2.512   8.822  12.492  1.00  0.00     0.021 C 
HETATM    6  C14 UNL     1      -3.407   7.055  13.923  1.00  0.00    -0.068 C 
HETATM    7  C15 UNL     1      -4.677   7.330  14.326  1.00  0.00    -0.068 C 
HETATM    8  C16 UNL     1      -5.071   8.710  14.870  1.00  0.00     0.036 C 
HETATM    9  C17 UNL     1      -3.960   9.777  14.981  1.00  0.00     0.015 C 
HETATM   10  C18 UNL     1      -2.580   9.131  15.127  1.00  0.00    -0.029 C 
HETATM   11  C19 UNL     1      -2.526   8.411  16.510  1.00  0.00     0.016 C 
HETATM   12  C20 UNL     1      -5.776   6.244  14.315  1.00  0.00    -0.017 C 
HETATM   13  C21 UNL     1      -5.829   5.653  15.746  1.00  0.00     0.020 C 
HETATM   14  C22 UNL     1      -7.178   6.809  13.946  1.00  0.00     0.016 C 
HETATM   15  C23 UNL     1      -8.250   5.725  13.805  1.00  0.00     0.033 C 
HETATM   16  C24 UNL     1      -7.848   4.632  12.821  1.00  0.00     0.118 C 
HETATM   17  C25 UNL     1      -6.464   4.057  13.125  1.00  0.00     0.037 C 
HETATM   18  C26 UNL     1      -5.417   5.171  13.236  1.00  0.00     0.001 C 
HETATM   19  C27 UNL     1      -4.020   4.599  13.465  1.00  0.00     0.010 C 
HETATM   20  C28 UNL     1      -2.965   5.703  13.403  1.00  0.00     0.036 C 
ENDROOT
BRANCH   1  21
HETATM   21  C7  UNL     1      -1.117  11.141  16.098  1.00  0.00    -0.014 C 
HETATM   22  C8  UNL     1       0.077  12.033  15.719  1.00  0.00     0.010 C 
BRANCH  21  23
HETATM   23  C6  UNL     1      -1.053  10.661  17.572  1.00  0.00     0.008 C 
BRANCH  23  24
HETATM   24  C5  UNL     1      -0.715  11.674  18.688  1.00  0.00     0.028 C 
BRANCH  24  25
HETATM   25  C4  UNL     1       0.090  11.116  19.827  1.00  0.00    -0.025 C 
HETATM   26  C2  UNL     1       1.397  10.790  19.862  1.00  0.00    -0.091 C 
HETATM   27  C1  UNL     1       2.360  10.910  18.712  1.00  0.00     0.042 C 
HETATM   28  C3  UNL     1       2.013  10.248  21.125  1.00  0.00     0.042 C 
ENDBRANCH  24  25
ENDBRANCH  23  24
ENDBRANCH  21  23
ENDBRANCH   1  21
BRANCH  16  29
HETATM   29  O1  UNL     1      -8.816   3.587  12.847  1.00  0.00    -0.396 OA
HETATM   30  H39 UNL     1      -8.797   3.184  13.733  1.00  0.00     0.210 HD
ENDBRANCH  16  29
TORSDOF 5
ENDMDL
MODEL 8
REMARK minimizedAffinity -8.29640961
REMARK  5 active torsions:
REMARK  status: ('A' for Active; 'I' for Inactive)
REMARK    1  A    between atoms: C4_4  and  C5_5 
REMARK    2  A    between atoms: C5_5  and  C6_6 
REMARK    3  A    between atoms: C6_6  and  C7_7 
REMARK    4  A    between atoms: C7_7  and  C9_9 
REMARK    5  A    between atoms: C24_24  and  O1_25 
ROOT
HETATM    1  C9  UNL     1      -5.719   7.496  14.555  1.00  0.00    -0.002 C 
HETATM    2  C10 UNL     1      -5.331   8.746  15.377  1.00  0.00     0.007 C 
HETATM    3  C11 UNL     1      -3.842   9.042  15.072  1.00  0.00     0.015 C 
HETATM    4  C12 UNL     1      -3.468   8.100  13.909  1.00  0.00    -0.013 C 
HETATM    5  C13 UNL     1      -3.861   8.837  12.587  1.00  0.00     0.021 C 
HETATM    6  C14 UNL     1      -2.013   7.691  13.701  1.00  0.00    -0.068 C 
HETATM    7  C15 UNL     1      -1.727   6.501  13.104  1.00  0.00    -0.068 C 
HETATM    8  C16 UNL     1      -2.827   5.501  12.728  1.00  0.00     0.036 C 
HETATM    9  C17 UNL     1      -4.283   5.873  13.085  1.00  0.00     0.015 C 
HETATM   10  C18 UNL     1      -4.336   6.840  14.270  1.00  0.00    -0.029 C 
HETATM   11  C19 UNL     1      -3.838   6.079  15.538  1.00  0.00     0.016 C 
HETATM   12  C20 UNL     1      -0.268   6.071  12.832  1.00  0.00    -0.017 C 
HETATM   13  C21 UNL     1       0.158   5.172  14.020  1.00  0.00     0.020 C 
HETATM   14  C22 UNL     1      -0.113   5.269  11.507  1.00  0.00     0.016 C 
HETATM   15  C23 UNL     1       1.342   4.947  11.159  1.00  0.00     0.033 C 
HETATM   16  C24 UNL     1       2.222   6.193  11.126  1.00  0.00     0.118 C 
HETATM   17  C25 UNL     1       2.091   7.031  12.398  1.00  0.00     0.037 C 
HETATM   18  C26 UNL     1       0.622   7.350  12.698  1.00  0.00     0.001 C 
HETATM   19  C27 UNL     1       0.488   8.250  13.925  1.00  0.00     0.010 C 
HETATM   20  C28 UNL     1      -0.961   8.699  14.113  1.00  0.00     0.036 C 
ENDROOT
BRANCH   1  21
HETATM   21  C7  UNL     1      -6.863   6.589  15.090  1.00  0.00    -0.014 C 
HETATM   22  C8  UNL     1      -7.233   7.012  16.521  1.00  0.00     0.010 C 
BRANCH  21  23
HETATM   23  C6  UNL     1      -6.723   5.050  14.945  1.00  0.00     0.008 C 
BRANCH  23  24
HETATM   24  C5  UNL     1      -7.781   4.263  14.141  1.00  0.00     0.028 C 
BRANCH  24  25
HETATM   25  C4  UNL     1      -8.095   4.827  12.785  1.00  0.00    -0.025 C 
HETATM   26  C2  UNL     1      -8.997   5.770  12.448  1.00  0.00    -0.091 C 
HETATM   27  C1  UNL     1      -9.926   6.474  13.400  1.00  0.00     0.042 C 
HETATM   28  C3  UNL     1      -9.147   6.202  11.012  1.00  0.00     0.042 C 
ENDBRANCH  24  25
ENDBRANCH  23  24
ENDBRANCH  21  23
ENDBRANCH   1  21
BRANCH  16  29
HETATM   29  O1  UNL     1       3.583   5.811  10.945  1.00  0.00    -0.396 OA
HETATM   30  H39 UNL     1       3.856   5.297  11.725  1.00  0.00     0.210 HD
ENDBRANCH  16  29
TORSDOF 5
ENDMDL
MODEL 9
REMARK minimizedAffinity -8.05527496
REMARK  5 active torsions:
REMARK  status: ('A' for Active; 'I' for Inactive)
REMARK    1  A    between atoms: C4_4  and  C5_5 
REMARK    2  A    between atoms: C5_5  and  C6_6 
REMARK    3  A    between atoms: C6_6  and  C7_7 
REMARK    4  A    between atoms: C7_7  and  C9_9 
REMARK    5  A    between atoms: C24_24  and  O1_25 
ROOT
HETATM    1  C9  UNL     1       2.136   7.816  12.171  1.00  0.00    -0.002 C 
HETATM    2  C10 UNL     1       2.599   6.405  11.745  1.00  0.00     0.007 C 
HETATM    3  C11 UNL     1       1.333   5.517  11.671  1.00  0.00     0.015 C 
HETATM    4  C12 UNL     1       0.144   6.487  11.830  1.00  0.00    -0.013 C 
HETATM    5  C13 UNL     1      -0.186   7.036  10.404  1.00  0.00     0.021 C 
HETATM    6  C14 UNL     1      -1.191   5.973  12.361  1.00  0.00    -0.068 C 
HETATM    7  C15 UNL     1      -2.026   6.821  13.020  1.00  0.00    -0.068 C 
HETATM    8  C16 UNL     1      -1.619   8.264  13.345  1.00  0.00     0.036 C 
HETATM    9  C17 UNL     1      -0.203   8.718  12.929  1.00  0.00     0.015 C 
HETATM   10  C18 UNL     1       0.757   7.529  12.836  1.00  0.00    -0.029 C 
HETATM   11  C19 UNL     1       0.969   6.963  14.274  1.00  0.00     0.016 C 
HETATM   12  C20 UNL     1      -3.407   6.353  13.531  1.00  0.00    -0.017 C 
HETATM   13  C21 UNL     1      -3.218   5.953  15.016  1.00  0.00     0.020 C 
HETATM   14  C22 UNL     1      -4.493   7.463  13.437  1.00  0.00     0.016 C 
HETATM   15  C23 UNL     1      -5.893   6.976  13.819  1.00  0.00     0.033 C 
HETATM   16  C24 UNL     1      -6.322   5.752  13.017  1.00  0.00     0.118 C 
HETATM   17  C25 UNL     1      -5.278   4.636  13.056  1.00  0.00     0.037 C 
HETATM   18  C26 UNL     1      -3.896   5.160  12.647  1.00  0.00     0.001 C 
HETATM   19  C27 UNL     1      -2.864   4.035  12.611  1.00  0.00     0.010 C 
HETATM   20  C28 UNL     1      -1.538   4.534  12.040  1.00  0.00     0.036 C 
ENDROOT
BRANCH   1  21
HETATM   21  C7  UNL     1       3.143   8.722  12.936  1.00  0.00    -0.014 C 
HETATM   22  C8  UNL     1       2.434  10.003  13.405  1.00  0.00     0.010 C 
BRANCH  21  23
HETATM   23  C6  UNL     1       4.523   9.012  12.290  1.00  0.00     0.008 C 
BRANCH  23  24
HETATM   24  C5  UNL     1       4.756   8.660  10.804  1.00  0.00     0.028 C 
BRANCH  24  25
HETATM   25  C4  UNL     1       5.427   7.338  10.563  1.00  0.00    -0.025 C 
HETATM   26  C2  UNL     1       6.426   6.756  11.255  1.00  0.00    -0.091 C 
HETATM   27  C1  UNL     1       7.117   7.342  12.457  1.00  0.00     0.042 C 
HETATM   28  C3  UNL     1       6.951   5.405  10.843  1.00  0.00     0.042 C 
ENDBRANCH  24  25
ENDBRANCH  23  24
ENDBRANCH  21  23
ENDBRANCH   1  21
BRANCH  16  29
HETATM   29  O1  UNL     1      -7.563   5.263  13.519  1.00  0.00    -0.396 OA
HETATM   30  H39 UNL     1      -7.416   4.960  14.432  1.00  0.00     0.210 HD
ENDBRANCH  16  29
TORSDOF 5
ENDMDL
