MODEL 1
REMARK minimizedAffinity -8.42590046
REMARK  7 active torsions:
REMARK  status: ('A' for Active; 'I' for Inactive)
REMARK    1  A    between atoms: N1_2  and  C2_3 
REMARK    2  A    between atoms: C2_3  and  C3_4 
REMARK    3  A    between atoms: C5_6  and  O1_7 
REMARK    4  A    between atoms: C25_28  and  N2_29 
REMARK    5  A    between atoms: C25_28  and  C26_30 
REMARK    6  A    between atoms: C26_30  and  C27_31 
REMARK    7  A    between atoms: C27_31  and  O3_32 
ROOT
HETATM    1  C3  UNL     1      -0.592   9.833  16.602  1.00  0.00    -0.021 A 
HETATM    2  C4  UNL     1       0.058  11.003  17.053  1.00  0.00     0.045 A 
HETATM    3  C5  UNL     1       1.441  11.090  17.066  1.00  0.00     0.066 A 
HETATM    4  C6  UNL     1       2.208   9.997  16.704  1.00  0.00     0.045 A 
HETATM    5  C7  UNL     1       1.609   8.789  16.290  1.00  0.00    -0.037 A 
HETATM    6  C8  UNL     1       0.191   8.712  16.163  1.00  0.00    -0.042 A 
HETATM    7  C9  UNL     1      -0.507   7.448  15.662  1.00  0.00     0.044 C 
HETATM    8  C10 UNL     1      -0.857   7.280  14.148  1.00  0.00    -0.010 C 
HETATM    9  C11 UNL     1      -1.627   8.434  13.495  1.00  0.00     0.005 C 
HETATM   10  C12 UNL     1      -1.782   8.208  11.991  1.00  0.00     0.001 C 
HETATM   11  C13 UNL     1      -0.443   8.119  11.257  1.00  0.00     0.007 C 
HETATM   12  C14 UNL     1       0.756   7.819  12.187  1.00  0.00     0.022 C 
HETATM   13  C15 UNL     1       0.307   6.792  13.257  1.00  0.00     0.012 C 
HETATM   14  C16 UNL     1       2.062   7.416  11.391  1.00  0.00     0.082 C 
HETATM   15  C17 UNL     1       2.143   5.887  11.134  1.00  0.00     0.045 C 
HETATM   16  C18 UNL     1       3.385   5.510  10.300  1.00  0.00    -0.002 C 
HETATM   17  C19 UNL     1       3.045   4.686   9.048  1.00  0.00     0.005 C 
HETATM   18  C20 UNL     1       2.971   5.524   7.781  1.00  0.00     0.003 C 
HETATM   19  C21 UNL     1       2.344   6.882   8.053  1.00  0.00     0.038 C 
HETATM   20  C22 UNL     1       3.064   7.682   9.182  1.00  0.00     0.065 C 
HETATM   21  C23 UNL     1       3.611   8.973   8.563  1.00  0.00     0.046 C 
HETATM   22  O2  UNL     1       2.016   8.086  10.096  1.00  0.00    -0.367 OA
HETATM   23  C24 UNL     1       4.134   6.829   9.949  1.00  0.00     0.064 C 
HETATM   24  C25 UNL     1       4.636   7.480  11.294  1.00  0.00     0.180 C 
HETATM   25  C28 UNL     1       3.360   7.994  12.053  1.00  0.00     0.139 C 
HETATM   26  C29 UNL     1       3.383   7.818  13.515  1.00  0.00    -0.096 C 
HETATM   27  C30 UNL     1       3.150   7.728  14.686  1.00  0.00    -0.101 C 
HETATM   28  C31 UNL     1       2.580   7.645  16.035  1.00  0.00     0.133 C 
ENDROOT
BRANCH  24  29
HETATM   29  N2  UNL     1       5.363   6.433  12.066  1.00  0.00     0.090 N 
HETATM   30  H35 UNL     1       5.640   6.799  12.980  1.00  0.00     0.313 HD
HETATM   31  H36 UNL     1       6.221   6.150  11.596  1.00  0.00     0.313 HD
ENDBRANCH  24  29
BRANCH  24  32
HETATM   32  C26 UNL     1       5.655   8.651  11.137  1.00  0.00     0.069 C 
BRANCH  32  33
HETATM   33  C27 UNL     1       5.245   9.986  11.756  1.00  0.00     0.166 C 
BRANCH  33  34
HETATM   34  O3  UNL     1       5.931  11.048  11.102  1.00  0.00    -0.401 OA
HETATM   35  H41 UNL     1       6.887  10.909  11.226  1.00  0.00     0.209 HD
ENDBRANCH  33  34
ENDBRANCH  32  33
ENDBRANCH  24  32
BRANCH   3  36
HETATM   36  O1  UNL     1       2.087  12.219  17.461  1.00  0.00    -0.361 OA
HETATM   37  H8  UNL     1       1.423  12.908  17.627  1.00  0.00     0.217 HD
ENDBRANCH   3  36
BRANCH   1  38
HETATM   38  C2  UNL     1      -2.110   9.742  16.745  1.00  0.00     0.308 C 
BRANCH  38  39
HETATM   39  N1  UNL     1      -2.593   9.590  18.127  1.00  0.00     0.083 N 
HETATM   40  C1  UNL     1      -3.414  10.733  18.511  1.00  0.00     0.307 C 
HETATM   41  H4  UNL     1      -1.783   9.545  18.748  1.00  0.00     0.315 HD
ENDBRANCH  38  39
ENDBRANCH   1  38
TORSDOF 7
ENDMDL
MODEL 2
REMARK minimizedAffinity -8.23515797
REMARK  7 active torsions:
REMARK  status: ('A' for Active; 'I' for Inactive)
REMARK    1  A    between atoms: N1_2  and  C2_3 
REMARK    2  A    between atoms: C2_3  and  C3_4 
REMARK    3  A    between atoms: C5_6  and  O1_7 
REMARK    4  A    between atoms: C25_28  and  N2_29 
REMARK    5  A    between atoms: C25_28  and  C26_30 
REMARK    6  A    between atoms: C26_30  and  C27_31 
REMARK    7  A    between atoms: C27_31  and  O3_32 
ROOT
HETATM    1  C3  UNL     1       4.938   7.305  12.500  1.00  0.00    -0.021 A 
HETATM    2  C4  UNL     1       5.694   7.260  13.692  1.00  0.00     0.045 A 
HETATM    3  C5  UNL     1       5.358   8.051  14.779  1.00  0.00     0.066 A 
HETATM    4  C6  UNL     1       4.315   8.954  14.684  1.00  0.00     0.045 A 
HETATM    5  C7  UNL     1       3.557   9.073  13.500  1.00  0.00    -0.037 A 
HETATM    6  C8  UNL     1       3.812   8.193  12.407  1.00  0.00    -0.042 A 
HETATM    7  C9  UNL     1       2.982   8.237  11.125  1.00  0.00     0.044 C 
HETATM    8  C10 UNL     1       1.744   7.300  10.947  1.00  0.00    -0.010 C 
HETATM    9  C11 UNL     1       1.975   5.808  11.210  1.00  0.00     0.005 C 
HETATM   10  C12 UNL     1       0.662   5.029  11.138  1.00  0.00     0.001 C 
HETATM   11  C13 UNL     1      -0.366   5.490  12.173  1.00  0.00     0.007 C 
HETATM   12  C14 UNL     1      -0.076   6.893  12.752  1.00  0.00     0.022 C 
HETATM   13  C15 UNL     1       0.442   7.803  11.611  1.00  0.00     0.012 C 
HETATM   14  C16 UNL     1      -1.298   7.484  13.566  1.00  0.00     0.082 C 
HETATM   15  C17 UNL     1      -2.271   8.284  12.660  1.00  0.00     0.045 C 
HETATM   16  C18 UNL     1      -3.494   8.800  13.447  1.00  0.00    -0.002 C 
HETATM   17  C19 UNL     1      -4.835   8.396  12.815  1.00  0.00     0.005 C 
HETATM   18  C20 UNL     1      -5.460   7.173  13.468  1.00  0.00     0.003 C 
HETATM   19  C21 UNL     1      -4.403   6.151  13.853  1.00  0.00     0.038 C 
HETATM   20  C22 UNL     1      -3.283   6.732  14.769  1.00  0.00     0.065 C 
HETATM   21  C23 UNL     1      -3.326   5.973  16.100  1.00  0.00     0.046 C 
HETATM   22  O2  UNL     1      -2.035   6.361  14.134  1.00  0.00    -0.367 OA
HETATM   23  C24 UNL     1      -3.358   8.292  14.913  1.00  0.00     0.064 C 
HETATM   24  C25 UNL     1      -2.070   8.947  15.541  1.00  0.00     0.180 C 
HETATM   25  C28 UNL     1      -0.834   8.290  14.829  1.00  0.00     0.139 C 
HETATM   26  C29 UNL     1       0.287   9.201  14.544  1.00  0.00    -0.096 C 
HETATM   27  C30 UNL     1       1.282   9.749  14.162  1.00  0.00    -0.101 C 
HETATM   28  C31 UNL     1       2.520  10.188  13.510  1.00  0.00     0.133 C 
ENDROOT
BRANCH  24  29
HETATM   29  N2  UNL     1      -2.139  10.416  15.301  1.00  0.00     0.090 N 
HETATM   30  H35 UNL     1      -1.282  10.867  15.631  1.00  0.00     0.313 HD
HETATM   31  H36 UNL     1      -2.906  10.843  15.817  1.00  0.00     0.313 HD
ENDBRANCH  24  29
BRANCH  24  32
HETATM   32  C26 UNL     1      -1.921   8.794  17.087  1.00  0.00     0.069 C 
BRANCH  32  33
HETATM   33  C27 UNL     1      -2.239  10.035  17.918  1.00  0.00     0.166 C 
BRANCH  33  34
HETATM   34  O3  UNL     1      -3.250   9.727  18.872  1.00  0.00    -0.401 OA
HETATM   35  H41 UNL     1      -4.045   9.446  18.386  1.00  0.00     0.209 HD
ENDBRANCH  33  34
ENDBRANCH  32  33
ENDBRANCH  24  32
BRANCH   3  36
HETATM   36  O1  UNL     1       6.049   7.997  15.949  1.00  0.00    -0.361 OA
HETATM   37  H8  UNL     1       6.706   7.285  15.882  1.00  0.00     0.217 HD
ENDBRANCH   3  36
BRANCH   1  38
HETATM   38  C2  UNL     1       5.438   6.520  11.289  1.00  0.00     0.308 C 
BRANCH  38  39
HETATM   39  N1  UNL     1       6.673   7.042  10.681  1.00  0.00     0.083 N 
HETATM   40  C1  UNL     1       6.619   8.497  10.581  1.00  0.00     0.307 C 
HETATM   41  H4  UNL     1       6.759   6.652   9.741  1.00  0.00     0.315 HD
ENDBRANCH  38  39
ENDBRANCH   1  38
TORSDOF 7
ENDMDL
MODEL 3
REMARK minimizedAffinity -8.1862154
REMARK  7 active torsions:
REMARK  status: ('A' for Active; 'I' for Inactive)
REMARK    1  A    between atoms: N1_2  and  C2_3 
REMARK    2  A    between atoms: C2_3  and  C3_4 
REMARK    3  A    between atoms: C5_6  and  O1_7 
REMARK    4  A    between atoms: C25_28  and  N2_29 
REMARK    5  A    between atoms: C25_28  and  C26_30 
REMARK    6  A    between atoms: C26_30  and  C27_31 
REMARK    7  A    between atoms: C27_31  and  O3_32 
ROOT
HETATM    1  C3  UNL     1      -2.215   7.848  15.249  1.00  0.00    -0.021 A 
HETATM    2  C4  UNL     1      -2.697   6.539  15.026  1.00  0.00     0.045 A 
HETATM    3  C5  UNL     1      -2.474   5.893  13.821  1.00  0.00     0.066 A 
HETATM    4  C6  UNL     1      -1.833   6.552  12.788  1.00  0.00     0.045 A 
HETATM    5  C7  UNL     1      -1.373   7.877  12.942  1.00  0.00    -0.037 A 
HETATM    6  C8  UNL     1      -1.493   8.524  14.207  1.00  0.00    -0.042 A 
HETATM    7  C9  UNL     1      -0.957   9.935  14.447  1.00  0.00     0.044 C 
HETATM    8  C10 UNL     1       0.478  10.153  15.026  1.00  0.00    -0.010 C 
HETATM    9  C11 UNL     1       0.818   9.385  16.310  1.00  0.00     0.005 C 
HETATM   10  C12 UNL     1       2.286   9.576  16.690  1.00  0.00     0.001 C 
HETATM   11  C13 UNL     1       3.253   9.068  15.620  1.00  0.00     0.007 C 
HETATM   12  C14 UNL     1       2.605   8.898  14.227  1.00  0.00     0.022 C 
HETATM   13  C15 UNL     1       1.622  10.072  13.991  1.00  0.00     0.012 C 
HETATM   14  C16 UNL     1       3.670   8.686  13.077  1.00  0.00     0.082 C 
HETATM   15  C17 UNL     1       4.144  10.030  12.463  1.00  0.00     0.045 C 
HETATM   16  C18 UNL     1       5.232   9.819  11.389  1.00  0.00    -0.002 C 
HETATM   17  C19 UNL     1       6.503  10.644  11.646  1.00  0.00     0.005 C 
HETATM   18  C20 UNL     1       7.609   9.846  12.319  1.00  0.00     0.003 C 
HETATM   19  C21 UNL     1       7.045   8.882  13.350  1.00  0.00     0.038 C 
HETATM   20  C22 UNL     1       5.965   7.916  12.771  1.00  0.00     0.065 C 
HETATM   21  C23 UNL     1       6.489   6.484  12.924  1.00  0.00     0.046 C 
HETATM   22  O2  UNL     1       4.831   8.027  13.665  1.00  0.00    -0.367 OA
HETATM   23  C24 UNL     1       5.527   8.293  11.313  1.00  0.00     0.064 C 
HETATM   24  C25 UNL     1       4.218   7.564  10.823  1.00  0.00     0.180 C 
HETATM   25  C28 UNL     1       3.179   7.660  11.997  1.00  0.00     0.139 C 
HETATM   26  C29 UNL     1       1.783   7.887  11.587  1.00  0.00    -0.096 C 
HETATM   27  C30 UNL     1       0.612   8.125  11.503  1.00  0.00    -0.101 C 
HETATM   28  C31 UNL     1      -0.793   8.506  11.682  1.00  0.00     0.133 C 
ENDROOT
BRANCH  24  29
HETATM   29  N2  UNL     1       3.740   8.258   9.595  1.00  0.00     0.090 N 
HETATM   30  H35 UNL     1       2.849   7.859   9.288  1.00  0.00     0.313 HD
HETATM   31  H36 UNL     1       4.391   8.138   8.820  1.00  0.00     0.313 HD
ENDBRANCH  24  29
BRANCH  24  32
HETATM   32  C26 UNL     1       4.394   6.071  10.405  1.00  0.00     0.069 C 
BRANCH  32  33
HETATM   33  C27 UNL     1       3.270   5.474   9.560  1.00  0.00     0.166 C 
BRANCH  33  34
HETATM   34  O3  UNL     1       3.111   4.096   9.881  1.00  0.00    -0.401 OA
HETATM   35  H41 UNL     1       3.948   3.642   9.681  1.00  0.00     0.209 HD
ENDBRANCH  33  34
ENDBRANCH  32  33
ENDBRANCH  24  32
BRANCH   3  36
HETATM   36  O1  UNL     1      -2.896   4.619  13.599  1.00  0.00    -0.361 OA
HETATM   37  H8  UNL     1      -3.272   4.275  14.426  1.00  0.00     0.217 HD
ENDBRANCH   3  36
BRANCH   1  38
HETATM   38  C2  UNL     1      -2.614   8.563  16.538  1.00  0.00     0.308 C 
BRANCH  38  39
HETATM   39  N1  UNL     1      -3.806   9.419  16.427  1.00  0.00     0.083 N 
HETATM   40  C1  UNL     1      -4.790   8.814  15.536  1.00  0.00     0.307 C 
HETATM   41  H4  UNL     1      -3.520  10.319  16.036  1.00  0.00     0.315 HD
ENDBRANCH  38  39
ENDBRANCH   1  38
TORSDOF 7
ENDMDL
MODEL 4
REMARK minimizedAffinity -8.15223885
REMARK  7 active torsions:
REMARK  status: ('A' for Active; 'I' for Inactive)
REMARK    1  A    between atoms: N1_2  and  C2_3 
REMARK    2  A    between atoms: C2_3  and  C3_4 
REMARK    3  A    between atoms: C5_6  and  O1_7 
REMARK    4  A    between atoms: C25_28  and  N2_29 
REMARK    5  A    between atoms: C25_28  and  C26_30 
REMARK    6  A    between atoms: C26_30  and  C27_31 
REMARK    7  A    between atoms: C27_31  and  O3_32 
ROOT
HETATM    1  C3  UNL     1      -1.815   6.504  12.890  1.00  0.00    -0.021 A 
HETATM    2  C4  UNL     1      -1.768   5.194  12.363  1.00  0.00     0.045 A 
HETATM    3  C5  UNL     1      -0.914   4.877  11.318  1.00  0.00     0.066 A 
HETATM    4  C6  UNL     1      -0.144   5.863  10.727  1.00  0.00     0.045 A 
HETATM    5  C7  UNL     1      -0.189   7.197  11.185  1.00  0.00    -0.037 A 
HETATM    6  C8  UNL     1      -0.976   7.525  12.328  1.00  0.00    -0.042 A 
HETATM    7  C9  UNL     1      -1.013   8.940  12.903  1.00  0.00     0.044 C 
HETATM    8  C10 UNL     1      -0.050   9.353  14.062  1.00  0.00    -0.010 C 
HETATM    9  C11 UNL     1      -0.029   8.435  15.290  1.00  0.00     0.005 C 
HETATM   10  C12 UNL     1       1.049   8.871  16.282  1.00  0.00     0.001 C 
HETATM   11  C13 UNL     1       2.460   8.827  15.692  1.00  0.00     0.007 C 
HETATM   12  C14 UNL     1       2.486   8.804  14.147  1.00  0.00     0.022 C 
HETATM   13  C15 UNL     1       1.376   9.748  13.619  1.00  0.00     0.012 C 
HETATM   14  C16 UNL     1       3.926   9.081  13.554  1.00  0.00     0.082 C 
HETATM   15  C17 UNL     1       4.187  10.594  13.331  1.00  0.00     0.045 C 
HETATM   16  C18 UNL     1       5.617  10.861  12.816  1.00  0.00    -0.002 C 
HETATM   17  C19 UNL     1       6.386  11.881  13.670  1.00  0.00     0.005 C 
HETATM   18  C20 UNL     1       7.323  11.233  14.678  1.00  0.00     0.003 C 
HETATM   19  C21 UNL     1       6.710   9.976  15.272  1.00  0.00     0.038 C 
HETATM   20  C22 UNL     1       6.274   8.931  14.199  1.00  0.00     0.065 C 
HETATM   21  C23 UNL     1       7.091   7.655  14.431  1.00  0.00     0.046 C 
HETATM   22  O2  UNL     1       4.904   8.596  14.523  1.00  0.00    -0.367 OA
HETATM   23  C24 UNL     1       6.350   9.490  12.736  1.00  0.00     0.064 C 
HETATM   24  C25 UNL     1       5.611   8.601  11.665  1.00  0.00     0.180 C 
HETATM   25  C28 UNL     1       4.218   8.215  12.280  1.00  0.00     0.139 C 
HETATM   26  C29 UNL     1       3.092   8.200  11.330  1.00  0.00    -0.096 C 
HETATM   27  C30 UNL     1       2.033   8.179  10.772  1.00  0.00    -0.101 C 
HETATM   28  C31 UNL     1       0.625   8.186  10.362  1.00  0.00     0.133 C 
ENDROOT
BRANCH  24  29
HETATM   29  N2  UNL     1       5.470   9.406  10.420  1.00  0.00     0.090 N 
HETATM   30  H35 UNL     1       4.927   8.887   9.724  1.00  0.00     0.313 HD
HETATM   31  H36 UNL     1       6.375   9.599   9.994  1.00  0.00     0.313 HD
ENDBRANCH  24  29
BRANCH  24  32
HETATM   32  C26 UNL     1       6.364   7.305  11.228  1.00  0.00     0.069 C 
BRANCH  32  33
HETATM   33  C27 UNL     1       5.489   6.086  10.938  1.00  0.00     0.166 C 
BRANCH  33  34
HETATM   34  O3  UNL     1       6.314   4.980  10.586  1.00  0.00    -0.401 OA
HETATM   35  H41 UNL     1       6.815   5.221   9.788  1.00  0.00     0.209 HD
ENDBRANCH  33  34
ENDBRANCH  32  33
ENDBRANCH  24  32
BRANCH   3  36
HETATM   36  O1  UNL     1      -0.825   3.615  10.820  1.00  0.00    -0.361 OA
HETATM   37  H8  UNL     1      -1.374   3.031  11.368  1.00  0.00     0.217 HD
ENDBRANCH   3  36
BRANCH   1  38
HETATM   38  C2  UNL     1      -2.875   6.828  13.941  1.00  0.00     0.308 C 
BRANCH  38  39
HETATM   39  N1  UNL     1      -4.257   6.866  13.434  1.00  0.00     0.083 N 
HETATM   40  C1  UNL     1      -4.675   8.242  13.188  1.00  0.00     0.307 C 
HETATM   41  H4  UNL     1      -4.870   6.458  14.142  1.00  0.00     0.315 HD
ENDBRANCH  38  39
ENDBRANCH   1  38
TORSDOF 7
ENDMDL
MODEL 5
REMARK minimizedAffinity -7.91414595
REMARK  7 active torsions:
REMARK  status: ('A' for Active; 'I' for Inactive)
REMARK    1  A    between atoms: N1_2  and  C2_3 
REMARK    2  A    between atoms: C2_3  and  C3_4 
REMARK    3  A    between atoms: C5_6  and  O1_7 
REMARK    4  A    between atoms: C25_28  and  N2_29 
REMARK    5  A    between atoms: C25_28  and  C26_30 
REMARK    6  A    between atoms: C26_30  and  C27_31 
REMARK    7  A    between atoms: C27_31  and  O3_32 
ROOT
HETATM    1  C3  UNL     1       0.916   6.694  10.981  1.00  0.00    -0.021 A 
HETATM    2  C4  UNL     1       0.906   7.392   9.753  1.00  0.00     0.045 A 
HETATM    3  C5  UNL     1       0.031   8.445   9.539  1.00  0.00     0.066 A 
HETATM    4  C6  UNL     1      -0.899   8.782  10.506  1.00  0.00     0.045 A 
HETATM    5  C7  UNL     1      -0.962   8.087  11.732  1.00  0.00    -0.037 A 
HETATM    6  C8  UNL     1      -0.002   7.073  12.019  1.00  0.00    -0.042 A 
HETATM    7  C9  UNL     1       0.014   6.331  13.355  1.00  0.00     0.044 C 
HETATM    8  C10 UNL     1       0.917   6.827  14.529  1.00  0.00    -0.010 C 
HETATM    9  C11 UNL     1       2.396   7.063  14.200  1.00  0.00     0.005 C 
HETATM   10  C12 UNL     1       3.132   7.676  15.390  1.00  0.00     0.001 C 
HETATM   11  C13 UNL     1       2.567   9.034  15.811  1.00  0.00     0.007 C 
HETATM   12  C14 UNL     1       1.138   9.300  15.286  1.00  0.00     0.022 C 
HETATM   13  C15 UNL     1       0.326   7.983  15.367  1.00  0.00     0.012 C 
HETATM   14  C16 UNL     1       0.451  10.544  15.982  1.00  0.00     0.082 C 
HETATM   15  C17 UNL     1      -0.319  10.143  17.268  1.00  0.00     0.045 C 
HETATM   16  C18 UNL     1      -0.929  11.370  17.978  1.00  0.00    -0.002 C 
HETATM   17  C19 UNL     1      -0.528  11.474  19.458  1.00  0.00     0.005 C 
HETATM   18  C20 UNL     1       0.625  12.436  19.700  1.00  0.00     0.003 C 
HETATM   19  C21 UNL     1       1.654  12.356  18.585  1.00  0.00     0.038 C 
HETATM   20  C22 UNL     1       1.050  12.592  17.166  1.00  0.00     0.065 C 
HETATM   21  C23 UNL     1       1.715  13.840  16.577  1.00  0.00     0.046 C 
HETATM   22  O2  UNL     1       1.507  11.476  16.363  1.00  0.00    -0.367 OA
HETATM   23  C24 UNL     1      -0.518  12.634  17.168  1.00  0.00     0.064 C 
HETATM   24  C25 UNL     1      -1.169  12.532  15.736  1.00  0.00     0.180 C 
HETATM   25  C28 UNL     1      -0.423  11.376  14.980  1.00  0.00     0.139 C 
HETATM   26  C29 UNL     1      -1.274  10.529  14.126  1.00  0.00    -0.096 C 
HETATM   27  C30 UNL     1      -1.760   9.685  13.430  1.00  0.00    -0.101 C 
HETATM   28  C31 UNL     1      -2.110   8.497  12.644  1.00  0.00     0.133 C 
ENDROOT
BRANCH  24  29
HETATM   29  N2  UNL     1      -2.619  12.242  15.913  1.00  0.00     0.090 N 
HETATM   30  H35 UNL     1      -3.063  12.095  15.003  1.00  0.00     0.313 HD
HETATM   31  H36 UNL     1      -3.107  13.023  16.349  1.00  0.00     0.313 HD
ENDBRANCH  24  29
BRANCH  24  32
HETATM   32  C26 UNL     1      -1.117  13.834  14.878  1.00  0.00     0.069 C 
BRANCH  32  33
HETATM   33  C27 UNL     1      -2.412  14.222  14.167  1.00  0.00     0.166 C 
BRANCH  33  34
HETATM   34  O3  UNL     1      -2.136  14.533  12.805  1.00  0.00    -0.401 OA
HETATM   35  H41 UNL     1      -1.516  15.283  12.788  1.00  0.00     0.209 HD
ENDBRANCH  33  34
ENDBRANCH  32  33
ENDBRANCH  24  32
BRANCH   3  36
HETATM   36  O1  UNL     1       0.029   9.154   8.379  1.00  0.00    -0.361 OA
HETATM   37  H8  UNL     1       0.766   8.841   7.829  1.00  0.00     0.217 HD
ENDBRANCH   3  36
BRANCH   1  38
HETATM   38  C2  UNL     1       1.799   5.454  11.108  1.00  0.00     0.308 C 
BRANCH  38  39
HETATM   39  N1  UNL     1       3.198   5.647  10.695  1.00  0.00     0.083 N 
HETATM   40  C1  UNL     1       3.523   4.782   9.565  1.00  0.00     0.307 C 
HETATM   41  H4  UNL     1       3.803   5.400  11.481  1.00  0.00     0.315 HD
ENDBRANCH  38  39
ENDBRANCH   1  38
TORSDOF 7
ENDMDL
MODEL 6
REMARK minimizedAffinity -7.70647764
REMARK  7 active torsions:
REMARK  status: ('A' for Active; 'I' for Inactive)
REMARK    1  A    between atoms: N1_2  and  C2_3 
REMARK    2  A    between atoms: C2_3  and  C3_4 
REMARK    3  A    between atoms: C5_6  and  O1_7 
REMARK    4  A    between atoms: C25_28  and  N2_29 
REMARK    5  A    between atoms: C25_28  and  C26_30 
REMARK    6  A    between atoms: C26_30  and  C27_31 
REMARK    7  A    between atoms: C27_31  and  O3_32 
ROOT
HETATM    1  C3  UNL     1       7.087  11.266  14.550  1.00  0.00    -0.021 A 
HETATM    2  C4  UNL     1       7.597  12.236  13.659  1.00  0.00     0.045 A 
HETATM    3  C5  UNL     1       7.826  11.929  12.327  1.00  0.00     0.066 A 
HETATM    4  C6  UNL     1       7.625  10.639  11.868  1.00  0.00     0.045 A 
HETATM    5  C7  UNL     1       7.161   9.622  12.728  1.00  0.00    -0.037 A 
HETATM    6  C8  UNL     1       6.813   9.939  14.074  1.00  0.00    -0.042 A 
HETATM    7  C9  UNL     1       6.249   8.890  15.031  1.00  0.00     0.044 C 
HETATM    8  C10 UNL     1       4.705   8.713  15.195  1.00  0.00    -0.010 C 
HETATM    9  C11 UNL     1       3.901   9.984  15.495  1.00  0.00     0.005 C 
HETATM   10  C12 UNL     1       2.400   9.696  15.493  1.00  0.00     0.001 C 
HETATM   11  C13 UNL     1       1.891   9.177  14.147  1.00  0.00     0.007 C 
HETATM   12  C14 UNL     1       3.007   8.621  13.234  1.00  0.00     0.022 C 
HETATM   13  C15 UNL     1       4.026   7.849  14.109  1.00  0.00     0.012 C 
HETATM   14  C16 UNL     1       2.442   7.806  12.002  1.00  0.00     0.082 C 
HETATM   15  C17 UNL     1       2.250   6.302  12.334  1.00  0.00     0.045 C 
HETATM   16  C18 UNL     1       1.636   5.526  11.150  1.00  0.00    -0.002 C 
HETATM   17  C19 UNL     1       0.373   4.738  11.534  1.00  0.00     0.005 C 
HETATM   18  C20 UNL     1      -0.916   5.464  11.179  1.00  0.00     0.003 C 
HETATM   19  C21 UNL     1      -0.790   6.960  11.416  1.00  0.00     0.038 C 
HETATM   20  C22 UNL     1       0.413   7.608  10.662  1.00  0.00     0.065 C 
HETATM   21  C23 UNL     1      -0.153   8.640   9.681  1.00  0.00     0.046 C 
HETATM   22  O2  UNL     1       1.135   8.361  11.666  1.00  0.00    -0.367 OA
HETATM   23  C24 UNL     1       1.366   6.549  10.008  1.00  0.00     0.064 C 
HETATM   24  C25 UNL     1       2.752   7.131   9.535  1.00  0.00     0.180 C 
HETATM   25  C28 UNL     1       3.282   8.042  10.699  1.00  0.00     0.139 C 
HETATM   26  C29 UNL     1       4.734   7.979  10.937  1.00  0.00    -0.096 C 
HETATM   27  C30 UNL     1       5.856   8.049  11.351  1.00  0.00    -0.101 C 
HETATM   28  C31 UNL     1       7.100   8.234  12.106  1.00  0.00     0.133 C 
ENDROOT
BRANCH  24  29
HETATM   29  N2  UNL     1       3.662   5.984   9.262  1.00  0.00     0.090 N 
HETATM   30  H35 UNL     1       4.597   6.325   9.023  1.00  0.00     0.313 HD
HETATM   31  H36 UNL     1       3.343   5.435   8.466  1.00  0.00     0.313 HD
ENDBRANCH  24  29
BRANCH  24  32
HETATM   32  C26 UNL     1       2.721   7.951   8.207  1.00  0.00     0.069 C 
BRANCH  32  33
HETATM   33  C27 UNL     1       1.883   7.360   7.074  1.00  0.00     0.166 C 
BRANCH  33  34
HETATM   34  O3  UNL     1       2.399   6.083   6.713  1.00  0.00    -0.401 OA
HETATM   35  H41 UNL     1       3.317   6.204   6.413  1.00  0.00     0.209 HD
ENDBRANCH  33  34
ENDBRANCH  32  33
ENDBRANCH  24  32
BRANCH   3  36
HETATM   36  O1  UNL     1       8.282  12.856  11.443  1.00  0.00    -0.361 OA
HETATM   37  H8  UNL     1       8.318  13.715  11.894  1.00  0.00     0.217 HD
ENDBRANCH   3  36
BRANCH   1  38
HETATM   38  C2  UNL     1       6.990  11.619  16.033  1.00  0.00     0.308 C 
BRANCH  38  39
HETATM   39  N1  UNL     1       8.144  11.201  16.845  1.00  0.00     0.083 N 
HETATM   40  C1  UNL     1       7.766  11.075  18.248  1.00  0.00     0.307 C 
HETATM   41  H4  UNL     1       8.870  11.916  16.765  1.00  0.00     0.315 HD
ENDBRANCH  38  39
ENDBRANCH   1  38
TORSDOF 7
ENDMDL
MODEL 7
REMARK minimizedAffinity -7.60428524
REMARK  7 active torsions:
REMARK  status: ('A' for Active; 'I' for Inactive)
REMARK    1  A    between atoms: N1_2  and  C2_3 
REMARK    2  A    between atoms: C2_3  and  C3_4 
REMARK    3  A    between atoms: C5_6  and  O1_7 
REMARK    4  A    between atoms: C25_28  and  N2_29 
REMARK    5  A    between atoms: C25_28  and  C26_30 
REMARK    6  A    between atoms: C26_30  and  C27_31 
REMARK    7  A    between atoms: C27_31  and  O3_32 
ROOT
HETATM    1  C3  UNL     1      -5.459   4.267  12.132  1.00  0.00    -0.021 A 
HETATM    2  C4  UNL     1      -6.732   4.710  11.707  1.00  0.00     0.045 A 
HETATM    3  C5  UNL     1      -7.501   5.540  12.507  1.00  0.00     0.066 A 
HETATM    4  C6  UNL     1      -7.059   5.890  13.770  1.00  0.00     0.045 A 
HETATM    5  C7  UNL     1      -5.817   5.437  14.261  1.00  0.00    -0.037 A 
HETATM    6  C8  UNL     1      -4.960   4.673  13.416  1.00  0.00    -0.042 A 
HETATM    7  C9  UNL     1      -3.578   4.209  13.874  1.00  0.00     0.044 C 
HETATM    8  C10 UNL     1      -2.308   5.063  13.560  1.00  0.00    -0.010 C 
HETATM    9  C11 UNL     1      -2.111   5.480  12.098  1.00  0.00     0.005 C 
HETATM   10  C12 UNL     1      -0.916   6.422  11.953  1.00  0.00     0.001 C 
HETATM   11  C13 UNL     1      -1.073   7.718  12.749  1.00  0.00     0.007 C 
HETATM   12  C14 UNL     1      -2.139   7.635  13.865  1.00  0.00     0.022 C 
HETATM   13  C15 UNL     1      -2.052   6.238  14.530  1.00  0.00     0.012 C 
HETATM   14  C16 UNL     1      -2.067   8.853  14.873  1.00  0.00     0.082 C 
HETATM   15  C17 UNL     1      -1.103   8.576  16.057  1.00  0.00     0.045 C 
HETATM   16  C18 UNL     1      -0.986   9.793  16.999  1.00  0.00    -0.002 C 
HETATM   17  C19 UNL     1       0.466  10.239  17.234  1.00  0.00     0.005 C 
HETATM   18  C20 UNL     1       0.881  11.411  16.357  1.00  0.00     0.003 C 
HETATM   19  C21 UNL     1       0.281  11.298  14.965  1.00  0.00     0.038 C 
HETATM   20  C22 UNL     1      -1.273  11.158  14.968  1.00  0.00     0.065 C 
HETATM   21  C23 UNL     1      -1.853  12.368  14.229  1.00  0.00     0.046 C 
HETATM   22  O2  UNL     1      -1.556  10.005  14.138  1.00  0.00    -0.367 OA
HETATM   23  C24 UNL     1      -1.863  10.933  16.404  1.00  0.00     0.064 C 
HETATM   24  C25 UNL     1      -3.365  10.455  16.418  1.00  0.00     0.180 C 
HETATM   25  C28 UNL     1      -3.489   9.321  15.339  1.00  0.00     0.139 C 
HETATM   26  C29 UNL     1      -4.369   8.197  15.704  1.00  0.00    -0.096 C 
HETATM   27  C30 UNL     1      -4.972   7.167  15.800  1.00  0.00    -0.101 C 
HETATM   28  C31 UNL     1      -5.523   5.811  15.708  1.00  0.00     0.133 C 
ENDROOT
BRANCH  24  29
HETATM   29  N2  UNL     1      -3.675   9.961  17.788  1.00  0.00     0.090 N 
HETATM   30  H35 UNL     1      -4.622   9.573  17.817  1.00  0.00     0.313 HD
HETATM   31  H36 UNL     1      -3.653  10.716  18.472  1.00  0.00     0.313 HD
ENDBRANCH  24  29
BRANCH  24  32
HETATM   32  C26 UNL     1      -4.427  11.562  16.134  1.00  0.00     0.069 C 
BRANCH  32  33
HETATM   33  C27 UNL     1      -4.354  12.806  17.018  1.00  0.00     0.166 C 
BRANCH  33  34
HETATM   34  O3  UNL     1      -5.621  13.455  17.037  1.00  0.00    -0.401 OA
HETATM   35  H41 UNL     1      -5.839  13.714  16.125  1.00  0.00     0.209 HD
ENDBRANCH  33  34
ENDBRANCH  32  33
ENDBRANCH  24  32
BRANCH   3  36
HETATM   36  O1  UNL     1      -8.712   6.008  12.103  1.00  0.00    -0.361 OA
HETATM   37  H8  UNL     1      -8.856   5.727  11.185  1.00  0.00     0.217 HD
ENDBRANCH   3  36
BRANCH   1  38
HETATM   38  C2  UNL     1      -4.721   3.241  11.274  1.00  0.00     0.308 C 
BRANCH  38  39
HETATM   39  N1  UNL     1      -5.591   2.359  10.480  1.00  0.00     0.083 N 
HETATM   40  C1  UNL     1      -5.974   1.183  11.254  1.00  0.00     0.307 C 
HETATM   41  H4  UNL     1      -5.072   2.053   9.655  1.00  0.00     0.315 HD
ENDBRANCH  38  39
ENDBRANCH   1  38
TORSDOF 7
ENDMDL
MODEL 8
REMARK minimizedAffinity -7.45228434
REMARK  7 active torsions:
REMARK  status: ('A' for Active; 'I' for Inactive)
REMARK    1  A    between atoms: N1_2  and  C2_3 
REMARK    2  A    between atoms: C2_3  and  C3_4 
REMARK    3  A    between atoms: C5_6  and  O1_7 
REMARK    4  A    between atoms: C25_28  and  N2_29 
REMARK    5  A    between atoms: C25_28  and  C26_30 
REMARK    6  A    between atoms: C26_30  and  C27_31 
REMARK    7  A    between atoms: C27_31  and  O3_32 
ROOT
HETATM    1  C3  UNL     1      -2.999  12.597  16.919  1.00  0.00    -0.021 A 
HETATM    2  C4  UNL     1      -2.308  13.797  16.638  1.00  0.00     0.045 A 
HETATM    3  C5  UNL     1      -0.929  13.809  16.501  1.00  0.00     0.066 A 
HETATM    4  C6  UNL     1      -0.201  12.652  16.710  1.00  0.00     0.045 A 
HETATM    5  C7  UNL     1      -0.838  11.437  17.038  1.00  0.00    -0.037 A 
HETATM    6  C8  UNL     1      -2.262  11.375  17.077  1.00  0.00    -0.042 A 
HETATM    7  C9  UNL     1      -3.006  10.071  17.367  1.00  0.00     0.044 C 
HETATM    8  C10 UNL     1      -3.490   9.155  16.198  1.00  0.00    -0.010 C 
HETATM    9  C11 UNL     1      -4.312   9.834  15.095  1.00  0.00     0.005 C 
HETATM   10  C12 UNL     1      -4.601   8.863  13.951  1.00  0.00     0.001 C 
HETATM   11  C13 UNL     1      -3.333   8.338  13.276  1.00  0.00     0.007 C 
HETATM   12  C14 UNL     1      -2.057   8.508  14.132  1.00  0.00     0.022 C 
HETATM   13  C15 UNL     1      -2.412   8.216  15.612  1.00  0.00     0.012 C 
HETATM   14  C16 UNL     1      -0.828   7.685  13.572  1.00  0.00     0.082 C 
HETATM   15  C17 UNL     1      -0.775   6.246  14.150  1.00  0.00     0.045 C 
HETATM   16  C18 UNL     1       0.386   5.427  13.548  1.00  0.00    -0.002 C 
HETATM   17  C19 UNL     1      -0.067   4.088  12.945  1.00  0.00     0.005 C 
HETATM   18  C20 UNL     1      -0.251   4.143  11.436  1.00  0.00     0.003 C 
HETATM   19  C21 UNL     1      -0.847   5.472  11.002  1.00  0.00     0.038 C 
HETATM   20  C22 UNL     1      -0.027   6.708  11.485  1.00  0.00     0.065 C 
HETATM   21  C23 UNL     1       0.466   7.456  10.242  1.00  0.00     0.046 C 
HETATM   22  O2  UNL     1      -0.988   7.581  12.125  1.00  0.00    -0.367 OA
HETATM   23  C24 UNL     1       1.105   6.330  12.503  1.00  0.00     0.064 C 
HETATM   24  C25 UNL     1       1.727   7.562  13.265  1.00  0.00     0.180 C 
HETATM   25  C28 UNL     1       0.526   8.459  13.732  1.00  0.00     0.139 C 
HETATM   26  C29 UNL     1       0.678   9.072  15.063  1.00  0.00    -0.096 C 
HETATM   27  C30 UNL     1       0.550   9.620  16.121  1.00  0.00    -0.101 C 
HETATM   28  C31 UNL     1       0.103  10.282  17.350  1.00  0.00     0.133 C 
ENDROOT
BRANCH  24  29
HETATM   29  N2  UNL     1       2.516   7.038  14.414  1.00  0.00     0.090 N 
HETATM   30  H35 UNL     1       2.876   7.814  14.977  1.00  0.00     0.313 HD
HETATM   31  H36 UNL     1       3.328   6.509  14.100  1.00  0.00     0.313 HD
ENDBRANCH  24  29
BRANCH  24  32
HETATM   32  C26 UNL     1       2.732   8.426  12.441  1.00  0.00     0.069 C 
BRANCH  32  33
HETATM   33  C27 UNL     1       4.212   8.221  12.759  1.00  0.00     0.166 C 
BRANCH  33  34
HETATM   34  O3  UNL     1       4.603   6.903  12.388  1.00  0.00    -0.401 OA
HETATM   35  H41 UNL     1       4.067   6.275  12.903  1.00  0.00     0.209 HD
ENDBRANCH  33  34
ENDBRANCH  32  33
ENDBRANCH  24  32
BRANCH   3  36
HETATM   36  O1  UNL     1      -0.247  14.945  16.194  1.00  0.00    -0.361 OA
HETATM   37  H8  UNL     1      -0.892  15.651  16.023  1.00  0.00     0.217 HD
ENDBRANCH   3  36
BRANCH   1  38
HETATM   38  C2  UNL     1      -4.499  12.669  17.200  1.00  0.00     0.308 C 
BRANCH  38  39
HETATM   39  N1  UNL     1      -5.330  13.020  16.038  1.00  0.00     0.083 N 
HETATM   40  C1  UNL     1      -6.227  14.124  16.363  1.00  0.00     0.307 C 
HETATM   41  H4  UNL     1      -5.892  12.204  15.786  1.00  0.00     0.315 HD
ENDBRANCH  38  39
ENDBRANCH   1  38
TORSDOF 7
ENDMDL
MODEL 9
REMARK minimizedAffinity -7.45168734
REMARK  7 active torsions:
REMARK  status: ('A' for Active; 'I' for Inactive)
REMARK    1  A    between atoms: N1_2  and  C2_3 
REMARK    2  A    between atoms: C2_3  and  C3_4 
REMARK    3  A    between atoms: C5_6  and  O1_7 
REMARK    4  A    between atoms: C25_28  and  N2_29 
REMARK    5  A    between atoms: C25_28  and  C26_30 
REMARK    6  A    between atoms: C26_30  and  C27_31 
REMARK    7  A    between atoms: C27_31  and  O3_32 
ROOT
HETATM    1  C3  UNL     1       1.075   6.268  11.330  1.00  0.00    -0.021 A 
HETATM    2  C4  UNL     1       1.535   5.004  10.897  1.00  0.00     0.045 A 
HETATM    3  C5  UNL     1       2.802   4.854  10.357  1.00  0.00     0.066 A 
HETATM    4  C6  UNL     1       3.611   5.960  10.168  1.00  0.00     0.045 A 
HETATM    5  C7  UNL     1       3.182   7.251  10.540  1.00  0.00    -0.037 A 
HETATM    6  C8  UNL     1       1.928   7.416  11.198  1.00  0.00    -0.042 A 
HETATM    7  C9  UNL     1       1.441   8.783  11.677  1.00  0.00     0.044 C 
HETATM    8  C10 UNL     1       1.711   9.254  13.142  1.00  0.00    -0.010 C 
HETATM    9  C11 UNL     1       1.302   8.284  14.257  1.00  0.00     0.005 C 
HETATM   10  C12 UNL     1       1.746   8.801  15.625  1.00  0.00     0.001 C 
HETATM   11  C13 UNL     1       3.262   8.969  15.740  1.00  0.00     0.007 C 
HETATM   12  C14 UNL     1       3.985   9.030  14.375  1.00  0.00     0.022 C 
HETATM   13  C15 UNL     1       3.115   9.851  13.390  1.00  0.00     0.012 C 
HETATM   14  C16 UNL     1       5.484   9.519  14.497  1.00  0.00     0.082 C 
HETATM   15  C17 UNL     1       5.607  11.063  14.399  1.00  0.00     0.045 C 
HETATM   16  C18 UNL     1       7.063  11.537  14.586  1.00  0.00    -0.002 C 
HETATM   17  C19 UNL     1       7.216  12.601  15.684  1.00  0.00     0.005 C 
HETATM   18  C20 UNL     1       7.678  12.026  17.015  1.00  0.00     0.003 C 
HETATM   19  C21 UNL     1       7.042  10.672  17.280  1.00  0.00     0.038 C 
HETATM   20  C22 UNL     1       7.285   9.637  16.139  1.00  0.00     0.065 C 
HETATM   21  C23 UNL     1       8.077   8.466  16.730  1.00  0.00     0.046 C 
HETATM   22  O2  UNL     1       5.976   9.113  15.809  1.00  0.00    -0.367 OA
HETATM   23  C24 UNL     1       7.935  10.277  14.862  1.00  0.00     0.064 C 
HETATM   24  C25 UNL     1       7.888   9.358  13.583  1.00  0.00     0.180 C 
HETATM   25  C28 UNL     1       6.435   8.765  13.504  1.00  0.00     0.139 C 
HETATM   26  C29 UNL     1       5.873   8.656  12.147  1.00  0.00    -0.096 C 
HETATM   27  C30 UNL     1       5.193   8.529  11.169  1.00  0.00    -0.101 C 
HETATM   28  C31 UNL     1       4.135   8.377  10.165  1.00  0.00     0.133 C 
ENDROOT
BRANCH  24  29
HETATM   29  N2  UNL     1       8.214  10.202  12.400  1.00  0.00     0.090 N 
HETATM   30  H35 UNL     1       8.121   9.655  11.540  1.00  0.00     0.313 HD
HETATM   31  H36 UNL     1       9.178  10.531  12.430  1.00  0.00     0.313 HD
ENDBRANCH  24  29
BRANCH  24  32
HETATM   32  C26 UNL     1       8.927   8.194  13.551  1.00  0.00     0.069 C 
BRANCH  32  33
HETATM   33  C27 UNL     1      10.356   8.559  13.947  1.00  0.00     0.166 C 
BRANCH  33  34
HETATM   34  O3  UNL     1      10.881   9.508  13.024  1.00  0.00    -0.401 OA
HETATM   35  H41 UNL     1      10.880   9.099  12.141  1.00  0.00     0.209 HD
ENDBRANCH  33  34
ENDBRANCH  32  33
ENDBRANCH  24  32
BRANCH   3  36
HETATM   36  O1  UNL     1       3.279   3.641   9.968  1.00  0.00    -0.361 OA
HETATM   37  H8  UNL     1       2.628   2.965  10.214  1.00  0.00     0.217 HD
ENDBRANCH   3  36
BRANCH   1  38
HETATM   38  C2  UNL     1      -0.379   6.399  11.781  1.00  0.00     0.308 C 
BRANCH  38  39
HETATM   39  N1  UNL     1      -0.765   5.506  12.886  1.00  0.00     0.083 N 
HETATM   40  C1  UNL     1      -1.929   4.707  12.516  1.00  0.00     0.307 C 
HETATM   41  H4  UNL     1      -1.007   6.082  13.695  1.00  0.00     0.315 HD
ENDBRANCH  38  39
ENDBRANCH   1  38
TORSDOF 7
ENDMDL
