MODEL 1
REMARK minimizedAffinity -9.67442513
REMARK  7 active torsions:
REMARK  status: ('A' for Active; 'I' for Inactive)
REMARK    1  A    between atoms: C4_4  and  C5_5 
REMARK    2  A    between atoms: C5_5  and  C6_6 
REMARK    3  A    between atoms: C6_6  and  C7_7 
REMARK    4  A    between atoms: C7_7  and  C9_9 
REMARK    5  A    between atoms: C23_23  and  O1_24 
REMARK    6  A    between atoms: C24_25  and  C26_27 
REMARK    7  A    between atoms: C26_27  and  O2_28 
ROOT
HETATM    1  C9  UNL     1      -0.217  50.618 -19.243  1.00  0.00    -0.002 C 
HETATM    2  C10 UNL     1      -0.466  49.490 -20.259  1.00  0.00     0.006 C 
HETATM    3  C11 UNL     1      -1.672  49.945 -21.056  1.00  0.00     0.010 C 
HETATM    4  C12 UNL     1      -1.562  51.477 -21.139  1.00  0.00     0.023 C 
HETATM    5  C13 UNL     1      -1.409  51.925 -22.579  1.00  0.00    -0.072 C 
HETATM    6  C14 UNL     1      -0.199  52.052 -23.163  1.00  0.00    -0.068 C 
HETATM    7  C15 UNL     1       1.042  51.797 -22.341  1.00  0.00     0.036 C 
HETATM    8  C16 UNL     1       0.907  52.258 -20.893  1.00  0.00     0.014 C 
HETATM    9  C17 UNL     1      -0.420  51.895 -20.157  1.00  0.00    -0.032 C 
HETATM   10  C18 UNL     1      -0.850  53.178 -19.418  1.00  0.00     0.016 C 
HETATM   11  C19 UNL     1      -0.034  52.435 -24.653  1.00  0.00    -0.016 C 
HETATM   12  C20 UNL     1       0.232  53.958 -24.649  1.00  0.00     0.020 C 
HETATM   13  C21 UNL     1       1.171  51.706 -25.303  1.00  0.00     0.016 C 
HETATM   14  C22 UNL     1       1.261  51.904 -26.810  1.00  0.00     0.034 C 
HETATM   15  C23 UNL     1      -0.005  51.439 -27.523  1.00  0.00     0.128 C 
HETATM   16  C24 UNL     1      -1.307  52.114 -26.999  1.00  0.00     0.008 C 
HETATM   17  C25 UNL     1      -1.423  53.563 -27.522  1.00  0.00     0.020 C 
HETATM   18  C27 UNL     1      -1.335  51.999 -25.428  1.00  0.00     0.011 C 
HETATM   19  C28 UNL     1      -2.577  52.614 -24.760  1.00  0.00     0.011 C 
HETATM   20  C29 UNL     1      -2.711  52.139 -23.313  1.00  0.00     0.035 C 
ENDROOT
BRANCH   1  21
HETATM   21  C7  UNL     1      -1.116  50.522 -17.959  1.00  0.00    -0.014 C 
HETATM   22  C8  UNL     1      -2.527  51.092 -18.208  1.00  0.00     0.010 C 
BRANCH  21  23
HETATM   23  C6  UNL     1      -0.534  51.175 -16.676  1.00  0.00     0.008 C 
BRANCH  23  24
HETATM   24  C5  UNL     1       0.887  50.784 -16.241  1.00  0.00     0.028 C 
BRANCH  24  25
HETATM   25  C4  UNL     1       1.954  51.814 -16.467  1.00  0.00    -0.025 C 
HETATM   26  C2  UNL     1       3.064  52.015 -15.727  1.00  0.00    -0.091 C 
HETATM   27  C1  UNL     1       4.071  53.058 -16.130  1.00  0.00     0.042 C 
HETATM   28  C3  UNL     1       3.412  51.250 -14.480  1.00  0.00     0.042 C 
ENDBRANCH  24  25
ENDBRANCH  23  24
ENDBRANCH  21  23
ENDBRANCH   1  21
BRANCH  16  29
HETATM   29  C26 UNL     1      -2.525  51.326 -27.583  1.00  0.00     0.176 C 
BRANCH  29  30
HETATM   30  O2  UNL     1      -2.505  49.955 -27.181  1.00  0.00    -0.400 OA
HETATM   31  H43 UNL     1      -3.242  49.515 -27.643  1.00  0.00     0.209 HD
ENDBRANCH  29  30
ENDBRANCH  16  29
BRANCH  15  32
HETATM   32  O1  UNL     1       0.191  51.670 -28.915  1.00  0.00    -0.395 OA
HETATM   33  H37 UNL     1      -0.651  51.424 -29.356  1.00  0.00     0.210 HD
ENDBRANCH  15  32
TORSDOF 7
ENDMDL
MODEL 2
REMARK minimizedAffinity -9.11120987
REMARK  7 active torsions:
REMARK  status: ('A' for Active; 'I' for Inactive)
REMARK    1  A    between atoms: C4_4  and  C5_5 
REMARK    2  A    between atoms: C5_5  and  C6_6 
REMARK    3  A    between atoms: C6_6  and  C7_7 
REMARK    4  A    between atoms: C7_7  and  C9_9 
REMARK    5  A    between atoms: C23_23  and  O1_24 
REMARK    6  A    between atoms: C24_25  and  C26_27 
REMARK    7  A    between atoms: C26_27  and  O2_28 
ROOT
HETATM    1  C9  UNL     1      -3.289  49.221 -20.164  1.00  0.00    -0.002 C 
HETATM    2  C10 UNL     1      -3.675  50.685 -20.437  1.00  0.00     0.006 C 
HETATM    3  C11 UNL     1      -2.359  51.396 -20.675  1.00  0.00     0.010 C 
HETATM    4  C12 UNL     1      -1.449  50.367 -21.366  1.00  0.00     0.023 C 
HETATM    5  C13 UNL     1      -1.068  50.836 -22.756  1.00  0.00    -0.072 C 
HETATM    6  C14 UNL     1      -1.815  50.538 -23.840  1.00  0.00    -0.068 C 
HETATM    7  C15 UNL     1      -3.033  49.662 -23.673  1.00  0.00     0.036 C 
HETATM    8  C16 UNL     1      -2.847  48.570 -22.625  1.00  0.00     0.014 C 
HETATM    9  C17 UNL     1      -2.185  48.991 -21.276  1.00  0.00    -0.032 C 
HETATM   10  C18 UNL     1      -1.147  47.896 -20.962  1.00  0.00     0.016 C 
HETATM   11  C19 UNL     1      -1.478  51.075 -25.252  1.00  0.00    -0.016 C 
HETATM   12  C20 UNL     1      -0.703  49.929 -25.943  1.00  0.00     0.020 C 
HETATM   13  C21 UNL     1      -2.758  51.392 -26.066  1.00  0.00     0.016 C 
HETATM   14  C22 UNL     1      -2.480  52.098 -27.387  1.00  0.00     0.034 C 
HETATM   15  C23 UNL     1      -1.720  53.404 -27.186  1.00  0.00     0.128 C 
HETATM   16  C24 UNL     1      -0.382  53.242 -26.407  1.00  0.00     0.008 C 
HETATM   17  C25 UNL     1       0.710  52.627 -27.311  1.00  0.00     0.020 C 
HETATM   18  C27 UNL     1      -0.662  52.415 -25.094  1.00  0.00     0.011 C 
HETATM   19  C28 UNL     1       0.571  52.180 -24.206  1.00  0.00     0.011 C 
HETATM   20  C29 UNL     1       0.158  51.717 -22.809  1.00  0.00     0.035 C 
ENDROOT
BRANCH   1  21
HETATM   21  C7  UNL     1      -2.859  48.948 -18.678  1.00  0.00    -0.014 C 
HETATM   22  C8  UNL     1      -4.082  48.755 -17.758  1.00  0.00     0.010 C 
BRANCH  21  23
HETATM   23  C6  UNL     1      -1.919  50.008 -18.042  1.00  0.00     0.008 C 
BRANCH  23  24
HETATM   24  C5  UNL     1      -0.428  49.665 -17.901  1.00  0.00     0.028 C 
BRANCH  24  25
HETATM   25  C4  UNL     1       0.387  50.595 -17.050  1.00  0.00    -0.025 C 
HETATM   26  C2  UNL     1       0.813  51.833 -17.372  1.00  0.00    -0.091 C 
HETATM   27  C1  UNL     1       1.572  52.663 -16.372  1.00  0.00     0.042 C 
HETATM   28  C3  UNL     1       0.580  52.501 -18.700  1.00  0.00     0.042 C 
ENDBRANCH  24  25
ENDBRANCH  23  24
ENDBRANCH  21  23
ENDBRANCH   1  21
BRANCH  16  29
HETATM   29  C26 UNL     1       0.117  54.669 -26.005  1.00  0.00     0.176 C 
BRANCH  29  30
HETATM   30  O2  UNL     1      -0.166  55.630 -27.022  1.00  0.00    -0.400 OA
HETATM   31  H43 UNL     1       0.240  56.469 -26.739  1.00  0.00     0.209 HD
ENDBRANCH  29  30
ENDBRANCH  16  29
BRANCH  15  32
HETATM   32  O1  UNL     1      -1.517  53.973 -28.477  1.00  0.00    -0.395 OA
HETATM   33  H37 UNL     1      -0.975  54.780 -28.341  1.00  0.00     0.210 HD
ENDBRANCH  15  32
TORSDOF 7
ENDMDL
MODEL 3
REMARK minimizedAffinity -8.99402237
REMARK  7 active torsions:
REMARK  status: ('A' for Active; 'I' for Inactive)
REMARK    1  A    between atoms: C4_4  and  C5_5 
REMARK    2  A    between atoms: C5_5  and  C6_6 
REMARK    3  A    between atoms: C6_6  and  C7_7 
REMARK    4  A    between atoms: C7_7  and  C9_9 
REMARK    5  A    between atoms: C23_23  and  O1_24 
REMARK    6  A    between atoms: C24_25  and  C26_27 
REMARK    7  A    between atoms: C26_27  and  O2_28 
ROOT
HETATM    1  C9  UNL     1      -2.958  50.751 -22.579  1.00  0.00    -0.002 C 
HETATM    2  C10 UNL     1      -3.707  51.643 -23.585  1.00  0.00     0.006 C 
HETATM    3  C11 UNL     1      -3.591  50.917 -24.909  1.00  0.00     0.010 C 
HETATM    4  C12 UNL     1      -3.608  49.418 -24.565  1.00  0.00     0.023 C 
HETATM    5  C13 UNL     1      -4.816  48.741 -25.181  1.00  0.00    -0.072 C 
HETATM    6  C14 UNL     1      -5.995  48.653 -24.529  1.00  0.00    -0.068 C 
HETATM    7  C15 UNL     1      -6.097  49.192 -23.123  1.00  0.00     0.036 C 
HETATM    8  C16 UNL     1      -4.824  48.984 -22.307  1.00  0.00     0.014 C 
HETATM    9  C17 UNL     1      -3.472  49.317 -23.012  1.00  0.00    -0.032 C 
HETATM   10  C18 UNL     1      -2.529  48.145 -22.675  1.00  0.00     0.016 C 
HETATM   11  C19 UNL     1      -7.256  48.033 -25.177  1.00  0.00    -0.016 C 
HETATM   12  C20 UNL     1      -7.297  46.576 -24.661  1.00  0.00     0.020 C 
HETATM   13  C21 UNL     1      -8.548  48.768 -24.737  1.00  0.00     0.016 C 
HETATM   14  C22 UNL     1      -9.792  48.317 -25.492  1.00  0.00     0.034 C 
HETATM   15  C23 UNL     1      -9.642  48.497 -26.998  1.00  0.00     0.128 C 
HETATM   16  C24 UNL     1      -8.397  47.781 -27.598  1.00  0.00     0.008 C 
HETATM   17  C25 UNL     1      -8.636  46.258 -27.703  1.00  0.00     0.020 C 
HETATM   18  C27 UNL     1      -7.132  48.170 -26.742  1.00  0.00     0.011 C 
HETATM   19  C28 UNL     1      -5.812  47.544 -27.223  1.00  0.00     0.011 C 
HETATM   20  C29 UNL     1      -4.611  48.251 -26.595  1.00  0.00     0.035 C 
ENDROOT
BRANCH   1  21
HETATM   21  C7  UNL     1      -1.404  50.970 -22.577  1.00  0.00    -0.014 C 
HETATM   22  C8  UNL     1      -0.777  50.590 -21.219  1.00  0.00     0.010 C 
BRANCH  21  23
HETATM   23  C6  UNL     1      -0.921  52.394 -22.968  1.00  0.00     0.008 C 
BRANCH  23  24
HETATM   24  C5  UNL     1      -0.563  52.663 -24.437  1.00  0.00     0.028 C 
BRANCH  24  25
HETATM   25  C4  UNL     1       0.779  52.168 -24.892  1.00  0.00    -0.025 C 
HETATM   26  C2  UNL     1       1.089  51.644 -26.096  1.00  0.00    -0.091 C 
HETATM   27  C1  UNL     1       2.507  51.253 -26.414  1.00  0.00     0.042 C 
HETATM   28  C3  UNL     1       0.105  51.414 -27.210  1.00  0.00     0.042 C 
ENDBRANCH  24  25
ENDBRANCH  23  24
ENDBRANCH  21  23
ENDBRANCH   1  21
BRANCH  16  29
HETATM   29  C26 UNL     1      -8.197  48.306 -29.058  1.00  0.00     0.176 C 
BRANCH  29  30
HETATM   30  O2  UNL     1      -8.750  49.612 -29.227  1.00  0.00    -0.400 OA
HETATM   31  H43 UNL     1      -8.659  49.837 -30.171  1.00  0.00     0.209 HD
ENDBRANCH  29  30
ENDBRANCH  16  29
BRANCH  15  32
HETATM   32  O1  UNL     1     -10.854  48.047 -27.596  1.00  0.00    -0.395 OA
HETATM   33  H37 UNL     1     -10.723  48.111 -28.567  1.00  0.00     0.210 HD
ENDBRANCH  15  32
TORSDOF 7
ENDMDL
MODEL 4
REMARK minimizedAffinity -8.85635471
REMARK  7 active torsions:
REMARK  status: ('A' for Active; 'I' for Inactive)
REMARK    1  A    between atoms: C4_4  and  C5_5 
REMARK    2  A    between atoms: C5_5  and  C6_6 
REMARK    3  A    between atoms: C6_6  and  C7_7 
REMARK    4  A    between atoms: C7_7  and  C9_9 
REMARK    5  A    between atoms: C23_23  and  O1_24 
REMARK    6  A    between atoms: C24_25  and  C26_27 
REMARK    7  A    between atoms: C26_27  and  O2_28 
ROOT
HETATM    1  C9  UNL     1       0.204  50.941 -19.242  1.00  0.00    -0.002 C 
HETATM    2  C10 UNL     1      -0.170  49.781 -20.181  1.00  0.00     0.006 C 
HETATM    3  C11 UNL     1      -1.431  50.240 -20.883  1.00  0.00     0.010 C 
HETATM    4  C12 UNL     1      -1.287  51.763 -21.042  1.00  0.00     0.023 C 
HETATM    5  C13 UNL     1      -1.258  52.148 -22.508  1.00  0.00    -0.072 C 
HETATM    6  C14 UNL     1      -0.103  52.213 -23.206  1.00  0.00    -0.068 C 
HETATM    7  C15 UNL     1       1.200  51.953 -22.491  1.00  0.00     0.036 C 
HETATM    8  C16 UNL     1       1.214  52.477 -21.059  1.00  0.00     0.014 C 
HETATM    9  C17 UNL     1      -0.048  52.185 -20.189  1.00  0.00    -0.032 C 
HETATM   10  C18 UNL     1      -0.373  53.510 -19.470  1.00  0.00     0.016 C 
HETATM   11  C19 UNL     1      -0.068  52.529 -24.721  1.00  0.00    -0.016 C 
HETATM   12  C20 UNL     1       0.239  54.042 -24.807  1.00  0.00     0.020 C 
HETATM   13  C21 UNL     1       1.051  51.737 -25.446  1.00  0.00     0.016 C 
HETATM   14  C22 UNL     1       1.005  51.870 -26.962  1.00  0.00     0.034 C 
HETATM   15  C23 UNL     1      -0.333  51.417 -27.534  1.00  0.00     0.128 C 
HETATM   16  C24 UNL     1      -1.562  52.153 -26.923  1.00  0.00     0.008 C 
HETATM   17  C25 UNL     1      -1.687  53.582 -27.495  1.00  0.00     0.020 C 
HETATM   18  C27 UNL     1      -1.447  52.103 -25.352  1.00  0.00     0.011 C 
HETATM   19  C28 UNL     1      -2.604  52.784 -24.600  1.00  0.00     0.011 C 
HETATM   20  C29 UNL     1      -2.616  52.372 -23.128  1.00  0.00     0.035 C 
ENDROOT
BRANCH   1  21
HETATM   21  C7  UNL     1      -0.574  50.925 -17.878  1.00  0.00    -0.014 C 
HETATM   22  C8  UNL     1       0.363  51.205 -16.685  1.00  0.00     0.010 C 
BRANCH  21  23
HETATM   23  C6  UNL     1      -1.389  49.637 -17.580  1.00  0.00     0.008 C 
BRANCH  23  24
HETATM   24  C5  UNL     1      -2.850  49.789 -17.129  1.00  0.00     0.028 C 
BRANCH  24  25
HETATM   25  C4  UNL     1      -3.113  50.830 -16.081  1.00  0.00    -0.025 C 
HETATM   26  C2  UNL     1      -2.923  50.714 -14.751  1.00  0.00    -0.091 C 
HETATM   27  C1  UNL     1      -3.180  51.884 -13.840  1.00  0.00     0.042 C 
HETATM   28  C3  UNL     1      -2.445  49.468 -14.058  1.00  0.00     0.042 C 
ENDBRANCH  24  25
ENDBRANCH  23  24
ENDBRANCH  21  23
ENDBRANCH   1  21
BRANCH  16  29
HETATM   29  C26 UNL     1      -2.851  51.380 -27.358  1.00  0.00     0.176 C 
BRANCH  29  30
HETATM   30  O2  UNL     1      -2.556  50.369 -28.323  1.00  0.00    -0.400 OA
HETATM   31  H43 UNL     1      -3.408  49.988 -28.602  1.00  0.00     0.209 HD
ENDBRANCH  29  30
ENDBRANCH  16  29
BRANCH  15  32
HETATM   32  O1  UNL     1      -0.262  51.584 -28.947  1.00  0.00    -0.395 OA
HETATM   33  H37 UNL     1      -1.148  51.347 -29.298  1.00  0.00     0.210 HD
ENDBRANCH  15  32
TORSDOF 7
ENDMDL
MODEL 5
REMARK minimizedAffinity -8.74964714
REMARK  7 active torsions:
REMARK  status: ('A' for Active; 'I' for Inactive)
REMARK    1  A    between atoms: C4_4  and  C5_5 
REMARK    2  A    between atoms: C5_5  and  C6_6 
REMARK    3  A    between atoms: C6_6  and  C7_7 
REMARK    4  A    between atoms: C7_7  and  C9_9 
REMARK    5  A    between atoms: C23_23  and  O1_24 
REMARK    6  A    between atoms: C24_25  and  C26_27 
REMARK    7  A    between atoms: C26_27  and  O2_28 
ROOT
HETATM    1  C9  UNL     1      -3.367  50.624 -22.680  1.00  0.00    -0.002 C 
HETATM    2  C10 UNL     1      -4.104  51.527 -23.684  1.00  0.00     0.006 C 
HETATM    3  C11 UNL     1      -3.924  50.845 -25.024  1.00  0.00     0.010 C 
HETATM    4  C12 UNL     1      -3.914  49.336 -24.726  1.00  0.00     0.023 C 
HETATM    5  C13 UNL     1      -5.082  48.648 -25.403  1.00  0.00    -0.072 C 
HETATM    6  C14 UNL     1      -6.280  48.511 -24.794  1.00  0.00    -0.068 C 
HETATM    7  C15 UNL     1      -6.443  49.004 -23.377  1.00  0.00     0.036 C 
HETATM    8  C16 UNL     1      -5.194  48.803 -22.525  1.00  0.00     0.014 C 
HETATM    9  C17 UNL     1      -3.828  49.191 -23.172  1.00  0.00    -0.032 C 
HETATM   10  C18 UNL     1      -2.867  48.033 -22.837  1.00  0.00     0.016 C 
HETATM   11  C19 UNL     1      -7.502  47.879 -25.504  1.00  0.00    -0.016 C 
HETATM   12  C20 UNL     1      -7.522  46.407 -25.033  1.00  0.00     0.020 C 
HETATM   13  C21 UNL     1      -8.827  48.569 -25.088  1.00  0.00     0.016 C 
HETATM   14  C22 UNL     1     -10.032  48.110 -25.898  1.00  0.00     0.034 C 
HETATM   15  C23 UNL     1      -9.836  48.340 -27.392  1.00  0.00     0.128 C 
HETATM   16  C24 UNL     1      -8.553  47.673 -27.970  1.00  0.00     0.008 C 
HETATM   17  C25 UNL     1      -8.749  46.149 -28.127  1.00  0.00     0.020 C 
HETATM   18  C27 UNL     1      -7.328  48.068 -27.059  1.00  0.00     0.011 C 
HETATM   19  C28 UNL     1      -5.977  47.489 -27.513  1.00  0.00     0.011 C 
HETATM   20  C29 UNL     1      -4.816  48.207 -26.822  1.00  0.00     0.035 C 
ENDROOT
BRANCH   1  21
HETATM   21  C7  UNL     1      -1.819  50.881 -22.616  1.00  0.00    -0.014 C 
HETATM   22  C8  UNL     1      -1.163  50.757 -24.007  1.00  0.00     0.010 C 
BRANCH  21  23
HETATM   23  C6  UNL     1      -1.028  50.000 -21.612  1.00  0.00     0.008 C 
BRANCH  23  24
HETATM   24  C5  UNL     1       0.012  50.680 -20.709  1.00  0.00     0.028 C 
BRANCH  24  25
HETATM   25  C4  UNL     1       0.687  51.895 -21.277  1.00  0.00    -0.025 C 
HETATM   26  C2  UNL     1       0.767  53.119 -20.716  1.00  0.00    -0.091 C 
HETATM   27  C1  UNL     1       1.540  54.218 -21.395  1.00  0.00     0.042 C 
HETATM   28  C3  UNL     1       0.137  53.506 -19.407  1.00  0.00     0.042 C 
ENDBRANCH  24  25
ENDBRANCH  23  24
ENDBRANCH  21  23
ENDBRANCH   1  21
BRANCH  16  29
HETATM   29  C26 UNL     1      -8.317  48.247 -29.406  1.00  0.00     0.176 C 
BRANCH  29  30
HETATM   30  O2  UNL     1      -8.804  49.585 -29.523  1.00  0.00    -0.400 OA
HETATM   31  H43 UNL     1      -8.696  49.844 -30.456  1.00  0.00     0.209 HD
ENDBRANCH  29  30
ENDBRANCH  16  29
BRANCH  15  32
HETATM   32  O1  UNL     1     -11.015  47.877 -28.045  1.00  0.00    -0.395 OA
HETATM   33  H37 UNL     1     -10.853  47.974 -29.008  1.00  0.00     0.210 HD
ENDBRANCH  15  32
TORSDOF 7
ENDMDL
MODEL 6
REMARK minimizedAffinity -8.72296333
REMARK  7 active torsions:
REMARK  status: ('A' for Active; 'I' for Inactive)
REMARK    1  A    between atoms: C4_4  and  C5_5 
REMARK    2  A    between atoms: C5_5  and  C6_6 
REMARK    3  A    between atoms: C6_6  and  C7_7 
REMARK    4  A    between atoms: C7_7  and  C9_9 
REMARK    5  A    between atoms: C23_23  and  O1_24 
REMARK    6  A    between atoms: C24_25  and  C26_27 
REMARK    7  A    between atoms: C26_27  and  O2_28 
ROOT
HETATM    1  C9  UNL     1      -2.906  50.678 -24.795  1.00  0.00    -0.002 C 
HETATM    2  C10 UNL     1      -3.407  51.589 -23.662  1.00  0.00     0.006 C 
HETATM    3  C11 UNL     1      -4.906  51.377 -23.626  1.00  0.00     0.010 C 
HETATM    4  C12 UNL     1      -5.127  49.905 -24.013  1.00  0.00     0.023 C 
HETATM    5  C13 UNL     1      -5.770  49.142 -22.872  1.00  0.00    -0.072 C 
HETATM    6  C14 UNL     1      -5.035  48.526 -21.922  1.00  0.00    -0.068 C 
HETATM    7  C15 UNL     1      -3.530  48.548 -22.030  1.00  0.00     0.036 C 
HETATM    8  C16 UNL     1      -3.031  48.463 -23.469  1.00  0.00     0.014 C 
HETATM    9  C17 UNL     1      -3.750  49.366 -24.519  1.00  0.00    -0.032 C 
HETATM   10  C18 UNL     1      -3.994  48.464 -25.746  1.00  0.00     0.016 C 
HETATM   11  C19 UNL     1      -5.680  47.809 -20.710  1.00  0.00    -0.016 C 
HETATM   12  C20 UNL     1      -5.724  46.315 -21.106  1.00  0.00     0.020 C 
HETATM   13  C21 UNL     1      -4.828  47.975 -19.425  1.00  0.00     0.016 C 
HETATM   14  C22 UNL     1      -5.512  47.450 -18.170  1.00  0.00     0.034 C 
HETATM   15  C23 UNL     1      -6.858  48.126 -17.929  1.00  0.00     0.128 C 
HETATM   16  C24 UNL     1      -7.844  48.014 -19.129  1.00  0.00     0.008 C 
HETATM   17  C25 UNL     1      -8.456  46.598 -19.207  1.00  0.00     0.020 C 
HETATM   18  C27 UNL     1      -7.091  48.458 -20.440  1.00  0.00     0.011 C 
HETATM   19  C28 UNL     1      -7.946  48.412 -21.719  1.00  0.00     0.011 C 
HETATM   20  C29 UNL     1      -7.279  49.196 -22.850  1.00  0.00     0.035 C 
ENDROOT
BRANCH   1  21
HETATM   21  C7  UNL     1      -3.042  51.314 -26.224  1.00  0.00    -0.014 C 
HETATM   22  C8  UNL     1      -3.140  50.234 -27.322  1.00  0.00     0.010 C 
BRANCH  21  23
HETATM   23  C6  UNL     1      -1.934  52.329 -26.621  1.00  0.00     0.008 C 
BRANCH  23  24
HETATM   24  C5  UNL     1      -0.951  52.793 -25.535  1.00  0.00     0.028 C 
BRANCH  24  25
HETATM   25  C4  UNL     1       0.440  52.237 -25.623  1.00  0.00    -0.025 C 
HETATM   26  C2  UNL     1       1.104  51.874 -26.739  1.00  0.00    -0.091 C 
HETATM   27  C1  UNL     1       2.527  51.390 -26.656  1.00  0.00     0.042 C 
HETATM   28  C3  UNL     1       0.533  51.920 -28.130  1.00  0.00     0.042 C 
ENDBRANCH  24  25
ENDBRANCH  23  24
ENDBRANCH  21  23
ENDBRANCH   1  21
BRANCH  16  29
HETATM   29  C26 UNL     1      -9.029  49.003 -18.871  1.00  0.00     0.176 C 
BRANCH  29  30
HETATM   30  O2  UNL     1      -8.907  49.649 -17.603  1.00  0.00    -0.400 OA
HETATM   31  H43 UNL     1      -9.713  50.183 -17.479  1.00  0.00     0.209 HD
ENDBRANCH  29  30
ENDBRANCH  16  29
BRANCH  15  32
HETATM   32  O1  UNL     1      -7.401  47.562 -16.739  1.00  0.00    -0.395 OA
HETATM   33  H37 UNL     1      -8.292  47.960 -16.628  1.00  0.00     0.210 HD
ENDBRANCH  15  32
TORSDOF 7
ENDMDL
MODEL 7
REMARK minimizedAffinity -8.61453438
REMARK  7 active torsions:
REMARK  status: ('A' for Active; 'I' for Inactive)
REMARK    1  A    between atoms: C4_4  and  C5_5 
REMARK    2  A    between atoms: C5_5  and  C6_6 
REMARK    3  A    between atoms: C6_6  and  C7_7 
REMARK    4  A    between atoms: C7_7  and  C9_9 
REMARK    5  A    between atoms: C23_23  and  O1_24 
REMARK    6  A    between atoms: C24_25  and  C26_27 
REMARK    7  A    between atoms: C26_27  and  O2_28 
ROOT
HETATM    1  C9  UNL     1      -0.243  50.452 -21.189  1.00  0.00    -0.002 C 
HETATM    2  C10 UNL     1      -0.723  50.600 -19.735  1.00  0.00     0.006 C 
HETATM    3  C11 UNL     1      -2.085  51.253 -19.841  1.00  0.00     0.010 C 
HETATM    4  C12 UNL     1      -2.707  50.712 -21.139  1.00  0.00     0.023 C 
HETATM    5  C13 UNL     1      -3.965  49.922 -20.842  1.00  0.00    -0.072 C 
HETATM    6  C14 UNL     1      -3.933  48.595 -20.595  1.00  0.00    -0.068 C 
HETATM    7  C15 UNL     1      -2.613  47.866 -20.674  1.00  0.00     0.036 C 
HETATM    8  C16 UNL     1      -1.699  48.399 -21.773  1.00  0.00     0.014 C 
HETATM    9  C17 UNL     1      -1.570  49.950 -21.893  1.00  0.00    -0.032 C 
HETATM   10  C18 UNL     1      -1.681  50.261 -23.399  1.00  0.00     0.016 C 
HETATM   11  C19 UNL     1      -5.201  47.792 -20.215  1.00  0.00    -0.016 C 
HETATM   12  C20 UNL     1      -5.678  47.148 -21.537  1.00  0.00     0.020 C 
HETATM   13  C21 UNL     1      -4.886  46.676 -19.185  1.00  0.00     0.016 C 
HETATM   14  C22 UNL     1      -6.128  45.983 -18.640  1.00  0.00     0.034 C 
HETATM   15  C23 UNL     1      -7.088  46.969 -17.982  1.00  0.00     0.128 C 
HETATM   16  C24 UNL     1      -7.526  48.139 -18.911  1.00  0.00     0.008 C 
HETATM   17  C25 UNL     1      -8.568  47.658 -19.945  1.00  0.00     0.020 C 
HETATM   18  C27 UNL     1      -6.237  48.779 -19.555  1.00  0.00     0.011 C 
HETATM   19  C28 UNL     1      -6.510  49.964 -20.496  1.00  0.00     0.011 C 
HETATM   20  C29 UNL     1      -5.227  50.749 -20.772  1.00  0.00     0.035 C 
ENDROOT
BRANCH   1  21
HETATM   21  C7  UNL     1       0.414  51.754 -21.773  1.00  0.00    -0.014 C 
HETATM   22  C8  UNL     1       0.484  52.878 -20.720  1.00  0.00     0.010 C 
BRANCH  21  23
HETATM   23  C6  UNL     1      -0.241  52.320 -23.063  1.00  0.00     0.008 C 
BRANCH  23  24
HETATM   24  C5  UNL     1       0.678  52.888 -24.156  1.00  0.00     0.028 C 
BRANCH  24  25
HETATM   25  C4  UNL     1       0.279  52.596 -25.573  1.00  0.00    -0.025 C 
HETATM   26  C2  UNL     1       0.987  51.914 -26.496  1.00  0.00    -0.091 C 
HETATM   27  C1  UNL     1       0.410  51.656 -27.862  1.00  0.00     0.042 C 
HETATM   28  C3  UNL     1       2.363  51.348 -26.274  1.00  0.00     0.042 C 
ENDBRANCH  24  25
ENDBRANCH  23  24
ENDBRANCH  21  23
ENDBRANCH   1  21
BRANCH  16  29
HETATM   29  C26 UNL     1      -8.234  49.216 -18.026  1.00  0.00     0.176 C 
BRANCH  29  30
HETATM   30  O2  UNL     1      -9.318  48.657 -17.283  1.00  0.00    -0.400 OA
HETATM   31  H43 UNL     1      -9.755  49.395 -16.822  1.00  0.00     0.209 HD
ENDBRANCH  29  30
ENDBRANCH  16  29
BRANCH  15  32
HETATM   32  O1  UNL     1      -8.202  46.216 -17.512  1.00  0.00    -0.395 OA
HETATM   33  H37 UNL     1      -8.840  46.867 -17.146  1.00  0.00     0.210 HD
ENDBRANCH  15  32
TORSDOF 7
ENDMDL
MODEL 8
REMARK minimizedAffinity -8.5572834
REMARK  7 active torsions:
REMARK  status: ('A' for Active; 'I' for Inactive)
REMARK    1  A    between atoms: C4_4  and  C5_5 
REMARK    2  A    between atoms: C5_5  and  C6_6 
REMARK    3  A    between atoms: C6_6  and  C7_7 
REMARK    4  A    between atoms: C7_7  and  C9_9 
REMARK    5  A    between atoms: C23_23  and  O1_24 
REMARK    6  A    between atoms: C24_25  and  C26_27 
REMARK    7  A    between atoms: C26_27  and  O2_28 
ROOT
HETATM    1  C9  UNL     1      -0.054  50.706 -19.401  1.00  0.00    -0.002 C 
HETATM    2  C10 UNL     1      -0.316  49.571 -20.407  1.00  0.00     0.006 C 
HETATM    3  C11 UNL     1      -1.547  50.008 -21.174  1.00  0.00     0.010 C 
HETATM    4  C12 UNL     1      -1.459  51.540 -21.265  1.00  0.00     0.023 C 
HETATM    5  C13 UNL     1      -1.350  51.986 -22.710  1.00  0.00    -0.072 C 
HETATM    6  C14 UNL     1      -0.157  52.126 -23.325  1.00  0.00    -0.068 C 
HETATM    7  C15 UNL     1       1.108  51.890 -22.535  1.00  0.00     0.036 C 
HETATM    8  C16 UNL     1       1.005  52.354 -21.086  1.00  0.00     0.014 C 
HETATM    9  C17 UNL     1      -0.298  51.977 -20.315  1.00  0.00    -0.032 C 
HETATM   10  C18 UNL     1      -0.725  53.257 -19.569  1.00  0.00     0.016 C 
HETATM   11  C19 UNL     1      -0.035  52.505 -24.821  1.00  0.00    -0.016 C 
HETATM   12  C20 UNL     1       0.211  54.031 -24.829  1.00  0.00     0.020 C 
HETATM   13  C21 UNL     1       1.161  51.789 -25.499  1.00  0.00     0.016 C 
HETATM   14  C22 UNL     1       1.209  51.982 -27.010  1.00  0.00     0.034 C 
HETATM   15  C23 UNL     1      -0.069  51.499 -27.687  1.00  0.00     0.128 C 
HETATM   16  C24 UNL     1      -1.365  52.159 -27.132  1.00  0.00     0.008 C 
HETATM   17  C25 UNL     1      -1.514  53.605 -27.656  1.00  0.00     0.020 C 
HETATM   18  C27 UNL     1      -1.351  52.049 -25.560  1.00  0.00     0.011 C 
HETATM   19  C28 UNL     1      -2.583  52.652 -24.862  1.00  0.00     0.011 C 
HETATM   20  C29 UNL     1      -2.673  52.180 -23.410  1.00  0.00     0.035 C 
ENDROOT
BRANCH   1  21
HETATM   21  C7  UNL     1      -0.918  50.603 -18.095  1.00  0.00    -0.014 C 
HETATM   22  C8  UNL     1      -0.128  51.060 -16.851  1.00  0.00     0.010 C 
BRANCH  21  23
HETATM   23  C6  UNL     1      -1.542  49.210 -17.805  1.00  0.00     0.008 C 
BRANCH  23  24
HETATM   24  C5  UNL     1      -3.069  49.109 -17.679  1.00  0.00     0.028 C 
BRANCH  24  25
HETATM   25  C4  UNL     1      -3.869  49.869 -18.696  1.00  0.00    -0.025 C 
HETATM   26  C2  UNL     1      -4.800  49.374 -19.537  1.00  0.00    -0.091 C 
HETATM   27  C1  UNL     1      -5.559  50.290 -20.458  1.00  0.00     0.042 C 
HETATM   28  C3  UNL     1      -5.179  47.922 -19.638  1.00  0.00     0.042 C 
ENDBRANCH  24  25
ENDBRANCH  23  24
ENDBRANCH  21  23
ENDBRANCH   1  21
BRANCH  16  29
HETATM   29  C26 UNL     1      -2.588  51.353 -27.681  1.00  0.00     0.176 C 
BRANCH  29  30
HETATM   30  O2  UNL     1      -2.593  50.009 -27.196  1.00  0.00    -0.400 OA
HETATM   31  H43 UNL     1      -3.330  49.552 -27.639  1.00  0.00     0.209 HD
ENDBRANCH  29  30
ENDBRANCH  16  29
BRANCH  15  32
HETATM   32  O1  UNL     1       0.088  51.727 -29.084  1.00  0.00    -0.395 OA
HETATM   33  H37 UNL     1      -0.762  51.469 -29.503  1.00  0.00     0.210 HD
ENDBRANCH  15  32
TORSDOF 7
ENDMDL
MODEL 9
REMARK minimizedAffinity -8.4668026
REMARK  7 active torsions:
REMARK  status: ('A' for Active; 'I' for Inactive)
REMARK    1  A    between atoms: C4_4  and  C5_5 
REMARK    2  A    between atoms: C5_5  and  C6_6 
REMARK    3  A    between atoms: C6_6  and  C7_7 
REMARK    4  A    between atoms: C7_7  and  C9_9 
REMARK    5  A    between atoms: C23_23  and  O1_24 
REMARK    6  A    between atoms: C24_25  and  C26_27 
REMARK    7  A    between atoms: C26_27  and  O2_28 
ROOT
HETATM    1  C9  UNL     1      -2.042  49.520 -21.140  1.00  0.00    -0.002 C 
HETATM    2  C10 UNL     1      -0.583  49.051 -21.004  1.00  0.00     0.006 C 
HETATM    3  C11 UNL     1       0.166  50.258 -20.478  1.00  0.00     0.010 C 
HETATM    4  C12 UNL     1      -0.825  50.997 -19.564  1.00  0.00     0.023 C 
HETATM    5  C13 UNL     1      -0.318  51.027 -18.136  1.00  0.00    -0.072 C 
HETATM    6  C14 UNL     1      -0.612  50.048 -17.253  1.00  0.00    -0.068 C 
HETATM    7  C15 UNL     1      -1.522  48.923 -17.683  1.00  0.00     0.036 C 
HETATM    8  C16 UNL     1      -2.631  49.375 -18.627  1.00  0.00     0.014 C 
HETATM    9  C17 UNL     1      -2.221  50.331 -19.791  1.00  0.00    -0.032 C 
HETATM   10  C18 UNL     1      -3.296  51.436 -19.819  1.00  0.00     0.016 C 
HETATM   11  C19 UNL     1      -0.037  50.028 -15.816  1.00  0.00    -0.016 C 
HETATM   12  C20 UNL     1      -1.149  50.638 -14.931  1.00  0.00     0.020 C 
HETATM   13  C21 UNL     1       0.264  48.584 -15.339  1.00  0.00     0.016 C 
HETATM   14  C22 UNL     1       1.004  48.525 -14.009  1.00  0.00     0.034 C 
HETATM   15  C23 UNL     1       2.325  49.285 -14.057  1.00  0.00     0.128 C 
HETATM   16  C24 UNL     1       2.180  50.774 -14.491  1.00  0.00     0.008 C 
HETATM   17  C25 UNL     1       1.612  51.630 -13.337  1.00  0.00     0.020 C 
HETATM   18  C27 UNL     1       1.320  50.831 -15.811  1.00  0.00     0.011 C 
HETATM   19  C28 UNL     1       1.097  52.245 -16.373  1.00  0.00     0.011 C 
HETATM   20  C29 UNL     1       0.595  52.186 -17.816  1.00  0.00     0.035 C 
ENDROOT
BRANCH   1  21
HETATM   21  C7  UNL     1      -2.335  50.298 -22.472  1.00  0.00    -0.014 C 
HETATM   22  C8  UNL     1      -2.204  51.823 -22.282  1.00  0.00     0.010 C 
BRANCH  21  23
HETATM   23  C6  UNL     1      -3.702  49.994 -23.145  1.00  0.00     0.008 C 
BRANCH  23  24
HETATM   24  C5  UNL     1      -3.985  48.555 -23.600  1.00  0.00     0.028 C 
BRANCH  24  25
HETATM   25  C4  UNL     1      -4.678  48.404 -24.922  1.00  0.00    -0.025 C 
HETATM   26  C2  UNL     1      -4.112  48.426 -26.146  1.00  0.00    -0.091 C 
HETATM   27  C1  UNL     1      -4.948  48.195 -27.376  1.00  0.00     0.042 C 
HETATM   28  C3  UNL     1      -2.650  48.660 -26.411  1.00  0.00     0.042 C 
ENDBRANCH  24  25
ENDBRANCH  23  24
ENDBRANCH  21  23
ENDBRANCH   1  21
BRANCH  16  29
HETATM   29  C26 UNL     1       3.610  51.326 -14.800  1.00  0.00     0.176 C 
BRANCH  29  30
HETATM   30  O2  UNL     1       4.628  50.427 -14.356  1.00  0.00    -0.400 OA
HETATM   31  H43 UNL     1       5.482  50.870 -14.508  1.00  0.00     0.209 HD
ENDBRANCH  29  30
ENDBRANCH  16  29
BRANCH  15  32
HETATM   32  O1  UNL     1       2.925  49.163 -12.771  1.00  0.00    -0.395 OA
HETATM   33  H37 UNL     1       3.743  49.705 -12.795  1.00  0.00     0.210 HD
ENDBRANCH  15  32
TORSDOF 7
ENDMDL
