MODEL 1
REMARK minimizedAffinity -8.35013294
REMARK CNNscore 0.634304941
REMARK CNNaffinity 6.51830101
REMARK  12 active torsions:
REMARK  status: ('A' for Active; 'I' for Inactive)
REMARK    1  A    between atoms: C19_21  and  O3_22 
REMARK    2  A    between atoms: C19_21  and  C20_23 
REMARK    3  A    between atoms: C20_23  and  C21_25 
REMARK    4  A    between atoms: C21_25  and  O5_26 
REMARK    5  A    between atoms: O5_26  and  C22_27 
REMARK    6  A    between atoms: C22_27  and  C23_29 
REMARK    7  A    between atoms: C23_29  and  C24_30 
REMARK    8  A    between atoms: C24_30  and  C25_31 
REMARK       I    between atoms: C25_31  and  N1_33 
REMARK    9  A    between atoms: N1_33  and  C26_34 
REMARK   10  A    between atoms: C26_34  and  C27_35 
REMARK   11  A    between atoms: C30_38  and  C31_39 
REMARK   12  A    between atoms: C31_39  and  O9_41 
ROOT
HETATM    1  C1  UNL     1      -0.107  52.395 -24.088  1.00  0.00     0.021 C 
HETATM    2  C2  UNL     1      -1.287  51.398 -24.084  1.00  0.00    -0.009 C 
HETATM    3  C3  UNL     1      -1.053  50.363 -25.229  1.00  0.00     0.022 C 
HETATM    4  C4  UNL     1      -1.121  50.961 -26.633  1.00  0.00     0.084 C 
HETATM    5  C5  UNL     1      -2.341  51.828 -26.828  1.00  0.00     0.149 C 
HETATM    6  O1  UNL     1      -2.748  52.132 -27.948  1.00  0.00    -0.293 OA
HETATM    7  C6  UNL     1      -3.054  52.339 -25.636  1.00  0.00     0.053 C 
HETATM    8  C7  UNL     1      -2.584  52.141 -24.392  1.00  0.00    -0.067 C 
HETATM    9  C8  UNL     1      -3.378  52.568 -23.192  1.00  0.00     0.035 C 
HETATM   10  C9  UNL     1      -3.846  51.336 -22.414  1.00  0.00     0.010 C 
HETATM   11  C10 UNL     1      -2.855  50.144 -22.437  1.00  0.00     0.003 C 
HETATM   12  C11 UNL     1      -1.400  50.591 -22.735  1.00  0.00     0.072 C 
HETATM   13  C12 UNL     1      -0.872  51.207 -21.438  1.00  0.00     0.133 C 
HETATM   14  O2  UNL     1      -0.557  52.384 -21.298  1.00  0.00    -0.297 OA
HETATM   15  C13 UNL     1      -0.787  50.240 -20.275  1.00  0.00     0.091 C 
HETATM   16  C14 UNL     1      -2.198  49.725 -19.902  1.00  0.00     0.005 C 
HETATM   17  C15 UNL     1      -2.912  50.847 -19.124  1.00  0.00     0.019 C 
HETATM   18  C16 UNL     1      -2.981  49.263 -21.166  1.00  0.00     0.002 C 
HETATM   19  C17 UNL     1      -2.475  47.826 -21.422  1.00  0.00     0.009 C 
HETATM   20  C18 UNL     1      -1.845  47.326 -20.123  1.00  0.00     0.047 C 
HETATM   21  C19 UNL     1      -2.116  48.407 -19.063  1.00  0.00     0.128 C 
ENDROOT
BRANCH  21  22
HETATM   22  O3  UNL     1      -1.018  48.462 -18.162  1.00  0.00    -0.381 OA
HETATM   23  H25 UNL     1      -0.759  47.550 -17.930  1.00  0.00     0.211 HD
ENDBRANCH  21  22
BRANCH  21  24
HETATM   24  C20 UNL     1      -3.433  48.060 -18.309  1.00  0.00     0.185 C 
HETATM   25  O4  UNL     1      -4.316  47.381 -18.842  1.00  0.00    -0.292 OA
BRANCH  24  26
HETATM   26  C21 UNL     1      -3.587  48.617 -16.895  1.00  0.00     0.260 C 
BRANCH  26  27
HETATM   27  O5  UNL     1      -3.022  47.714 -15.944  1.00  0.00    -0.314 OA
BRANCH  27  28
HETATM   28  C22 UNL     1      -2.170  48.304 -15.065  1.00  0.00     0.259 C 
HETATM   29  O6  UNL     1      -1.190  47.764 -14.567  1.00  0.00    -0.265 OA
BRANCH  28  30
HETATM   30  C23 UNL     1      -2.586  49.732 -14.817  1.00  0.00     0.120 C 
BRANCH  30  31
HETATM   31  C24 UNL     1      -2.642  50.035 -13.325  1.00  0.00     0.112 C 
BRANCH  31  32
HETATM   32  C25 UNL     1      -3.129  51.446 -13.054  1.00  0.00     0.218 C 
HETATM   33  O7  UNL     1      -3.320  52.273 -13.939  1.00  0.00    -0.274 OA
HETATM   34  N1  UNL     1      -3.324  51.701 -11.717  1.00  0.00    -0.357 N 
HETATM   35  H32 UNL     1      -3.017  51.020 -11.035  1.00  0.00     0.162 HD
BRANCH  34  36
HETATM   36  C26 UNL     1      -3.721  53.004 -11.235  1.00  0.00     0.161 C 
BRANCH  36  37
HETATM   37  C27 UNL     1      -2.697  53.563 -10.281  1.00  0.00    -0.040 A 
HETATM   38  C28 UNL     1      -2.291  52.835  -9.154  1.00  0.00     0.010 A 
HETATM   39  C29 UNL     1      -1.334  53.358  -8.278  1.00  0.00     0.019 A 
HETATM   40  C30 UNL     1      -0.768  54.615  -8.524  1.00  0.00     0.037 A 
HETATM   41  C32 UNL     1      -1.160  55.341  -9.655  1.00  0.00     0.019 A 
HETATM   42  C33 UNL     1      -2.116  54.816 -10.527  1.00  0.00     0.010 A 
BRANCH  40  43
HETATM   43  C31 UNL     1       0.243  55.213  -7.620  1.00  0.00     0.176 C 
HETATM   44  O8  UNL     1       1.431  54.950  -7.603  1.00  0.00    -0.646 OA
BRANCH  43  45
HETATM   45  O9  UNL     1      -0.280  56.124  -6.780  1.00  0.00    -0.773 OA
HETATM   46  H37 UNL     1       0.494  56.431  -6.263  1.00  0.00     0.167 HD
ENDBRANCH  43  45
ENDBRANCH  40  43
ENDBRANCH  36  37
ENDBRANCH  34  36
ENDBRANCH  31  32
ENDBRANCH  30  31
ENDBRANCH  28  30
ENDBRANCH  27  28
ENDBRANCH  26  27
ENDBRANCH  24  26
ENDBRANCH  21  24
TORSDOF 12
ENDMDL
MODEL 2
REMARK minimizedAffinity -7.53517246
REMARK CNNscore 0.43065846
REMARK CNNaffinity 6.04048967
REMARK  12 active torsions:
REMARK  status: ('A' for Active; 'I' for Inactive)
REMARK    1  A    between atoms: C19_21  and  O3_22 
REMARK    2  A    between atoms: C19_21  and  C20_23 
REMARK    3  A    between atoms: C20_23  and  C21_25 
REMARK    4  A    between atoms: C21_25  and  O5_26 
REMARK    5  A    between atoms: O5_26  and  C22_27 
REMARK    6  A    between atoms: C22_27  and  C23_29 
REMARK    7  A    between atoms: C23_29  and  C24_30 
REMARK    8  A    between atoms: C24_30  and  C25_31 
REMARK       I    between atoms: C25_31  and  N1_33 
REMARK    9  A    between atoms: N1_33  and  C26_34 
REMARK   10  A    between atoms: C26_34  and  C27_35 
REMARK   11  A    between atoms: C30_38  and  C31_39 
REMARK   12  A    between atoms: C31_39  and  O9_41 
ROOT
HETATM    1  C1  UNL     1      -1.393  50.344 -24.942  1.00  0.00     0.021 C 
HETATM    2  C2  UNL     1      -2.079  50.758 -23.621  1.00  0.00    -0.009 C 
HETATM    3  C3  UNL     1      -2.237  52.310 -23.619  1.00  0.00     0.022 C 
HETATM    4  C4  UNL     1      -0.914  53.071 -23.565  1.00  0.00     0.084 C 
HETATM    5  C5  UNL     1       0.006  52.546 -22.489  1.00  0.00     0.149 C 
HETATM    6  O1  UNL     1       0.956  53.205 -22.070  1.00  0.00    -0.293 OA
HETATM    7  C6  UNL     1      -0.237  51.194 -21.937  1.00  0.00     0.053 C 
HETATM    8  C7  UNL     1      -1.183  50.384 -22.442  1.00  0.00    -0.067 C 
HETATM    9  C8  UNL     1      -1.490  49.064 -21.798  1.00  0.00     0.035 C 
HETATM   10  C9  UNL     1      -2.893  49.097 -21.187  1.00  0.00     0.010 C 
HETATM   11  C10 UNL     1      -3.918  49.954 -21.973  1.00  0.00     0.003 C 
HETATM   12  C11 UNL     1      -3.519  50.137 -23.460  1.00  0.00     0.072 C 
HETATM   13  C12 UNL     1      -3.856  48.817 -24.154  1.00  0.00     0.133 C 
HETATM   14  O2  UNL     1      -3.034  48.060 -24.661  1.00  0.00    -0.297 OA
HETATM   15  C13 UNL     1      -5.330  48.466 -24.153  1.00  0.00     0.091 C 
HETATM   16  C14 UNL     1      -5.832  48.269 -22.702  1.00  0.00     0.005 C 
HETATM   17  C15 UNL     1      -5.341  46.890 -22.224  1.00  0.00     0.019 C 
HETATM   18  C16 UNL     1      -5.369  49.438 -21.783  1.00  0.00     0.002 C 
HETATM   19  C17 UNL     1      -6.405  50.555 -22.038  1.00  0.00     0.009 C 
HETATM   20  C18 UNL     1      -7.640  49.901 -22.656  1.00  0.00     0.047 C 
HETATM   21  C19 UNL     1      -7.391  48.384 -22.623  1.00  0.00     0.128 C 
ENDROOT
BRANCH  21  22
HETATM   22  O3  UNL     1      -7.989  47.788 -23.767  1.00  0.00    -0.381 OA
HETATM   23  H25 UNL     1      -8.876  48.174 -23.891  1.00  0.00     0.211 HD
ENDBRANCH  21  22
BRANCH  21  24
HETATM   24  C20 UNL     1      -7.997  47.797 -21.315  1.00  0.00     0.185 C 
HETATM   25  O4  UNL     1      -7.411  47.907 -20.233  1.00  0.00    -0.292 OA
BRANCH  24  26
HETATM   26  C21 UNL     1      -9.331  47.064 -21.438  1.00  0.00     0.260 C 
BRANCH  26  27
HETATM   27  O5  UNL     1      -9.501  46.161 -20.345  1.00  0.00    -0.314 OA
BRANCH  27  28
HETATM   28  C22 UNL     1     -10.757  46.158 -19.825  1.00  0.00     0.259 C 
HETATM   29  O6  UNL     1     -11.129  45.459 -18.891  1.00  0.00    -0.265 OA
BRANCH  28  30
HETATM   30  C23 UNL     1     -11.619  47.166 -20.544  1.00  0.00     0.120 C 
BRANCH  30  31
HETATM   31  C24 UNL     1     -12.298  48.108 -19.556  1.00  0.00     0.112 C 
BRANCH  31  32
HETATM   32  C25 UNL     1     -13.796  47.877 -19.497  1.00  0.00     0.218 C 
HETATM   33  O7  UNL     1     -14.608  48.775 -19.306  1.00  0.00    -0.274 OA
HETATM   34  N1  UNL     1     -14.143  46.557 -19.668  1.00  0.00    -0.357 N 
HETATM   35  H32 UNL     1     -13.418  45.853 -19.683  1.00  0.00     0.162 HD
BRANCH  34  36
HETATM   36  C26 UNL     1     -15.513  46.108 -19.579  1.00  0.00     0.161 C 
BRANCH  36  37
HETATM   37  C27 UNL     1     -16.217  46.252 -20.903  1.00  0.00    -0.040 A 
HETATM   38  C28 UNL     1     -15.503  46.186 -22.108  1.00  0.00     0.010 A 
HETATM   39  C29 UNL     1     -16.165  46.312 -23.334  1.00  0.00     0.019 A 
HETATM   40  C30 UNL     1     -17.552  46.501 -23.367  1.00  0.00     0.037 A 
HETATM   41  C32 UNL     1     -18.273  46.556 -22.168  1.00  0.00     0.019 A 
HETATM   42  C33 UNL     1     -17.608  46.429 -20.946  1.00  0.00     0.010 A 
BRANCH  40  43
HETATM   43  C31 UNL     1     -18.296  46.649 -24.641  1.00  0.00     0.176 C 
HETATM   44  O8  UNL     1     -19.202  47.433 -24.853  1.00  0.00    -0.646 OA
BRANCH  43  45
HETATM   45  O9  UNL     1     -17.865  45.809 -25.599  1.00  0.00    -0.773 OA
HETATM   46  H37 UNL     1     -18.433  46.026 -26.368  1.00  0.00     0.167 HD
ENDBRANCH  43  45
ENDBRANCH  40  43
ENDBRANCH  36  37
ENDBRANCH  34  36
ENDBRANCH  31  32
ENDBRANCH  30  31
ENDBRANCH  28  30
ENDBRANCH  27  28
ENDBRANCH  26  27
ENDBRANCH  24  26
ENDBRANCH  21  24
TORSDOF 12
ENDMDL
MODEL 3
REMARK minimizedAffinity -8.19718933
REMARK CNNscore 0.428691953
REMARK CNNaffinity 6.18873358
REMARK  12 active torsions:
REMARK  status: ('A' for Active; 'I' for Inactive)
REMARK    1  A    between atoms: C19_21  and  O3_22 
REMARK    2  A    between atoms: C19_21  and  C20_23 
REMARK    3  A    between atoms: C20_23  and  C21_25 
REMARK    4  A    between atoms: C21_25  and  O5_26 
REMARK    5  A    between atoms: O5_26  and  C22_27 
REMARK    6  A    between atoms: C22_27  and  C23_29 
REMARK    7  A    between atoms: C23_29  and  C24_30 
REMARK    8  A    between atoms: C24_30  and  C25_31 
REMARK       I    between atoms: C25_31  and  N1_33 
REMARK    9  A    between atoms: N1_33  and  C26_34 
REMARK   10  A    between atoms: C26_34  and  C27_35 
REMARK   11  A    between atoms: C30_38  and  C31_39 
REMARK   12  A    between atoms: C31_39  and  O9_41 
ROOT
HETATM    1  C1  UNL     1      -1.684  51.763 -21.322  1.00  0.00     0.021 C 
HETATM    2  C2  UNL     1      -2.488  50.597 -20.706  1.00  0.00    -0.009 C 
HETATM    3  C3  UNL     1      -2.918  51.010 -19.264  1.00  0.00     0.022 C 
HETATM    4  C4  UNL     1      -1.754  51.170 -18.288  1.00  0.00     0.084 C 
HETATM    5  C5  UNL     1      -0.803  49.998 -18.333  1.00  0.00     0.149 C 
HETATM    6  O1  UNL     1      -0.003  49.777 -17.426  1.00  0.00    -0.293 OA
HETATM    7  C6  UNL     1      -0.826  49.103 -19.512  1.00  0.00     0.053 C 
HETATM    8  C7  UNL     1      -1.592  49.367 -20.585  1.00  0.00    -0.067 C 
HETATM    9  C8  UNL     1      -1.687  48.391 -21.721  1.00  0.00     0.035 C 
HETATM   10  C9  UNL     1      -3.099  47.802 -21.783  1.00  0.00     0.010 C 
HETATM   11  C10 UNL     1      -4.225  48.782 -21.366  1.00  0.00     0.003 C 
HETATM   12  C11 UNL     1      -3.801  50.266 -21.513  1.00  0.00     0.072 C 
HETATM   13  C12 UNL     1      -3.869  50.580 -23.008  1.00  0.00     0.133 C 
HETATM   14  O2  UNL     1      -2.905  50.870 -23.709  1.00  0.00    -0.297 OA
HETATM   15  C13 UNL     1      -5.256  50.476 -23.608  1.00  0.00     0.091 C 
HETATM   16  C14 UNL     1      -5.778  49.022 -23.502  1.00  0.00     0.005 C 
HETATM   17  C15 UNL     1      -5.071  48.194 -24.592  1.00  0.00     0.019 C 
HETATM   18  C16 UNL     1      -5.568  48.452 -22.068  1.00  0.00     0.002 C 
HETATM   19  C17 UNL     1      -6.774  48.991 -21.266  1.00  0.00     0.009 C 
HETATM   20  C18 UNL     1      -7.845  49.403 -22.274  1.00  0.00     0.047 C 
HETATM   21  C19 UNL     1      -7.334  48.967 -23.656  1.00  0.00     0.128 C 
ENDROOT
BRANCH  21  22
HETATM   22  O3  UNL     1      -7.767  49.906 -24.632  1.00  0.00    -0.381 OA
HETATM   23  H25 UNL     1      -8.703  50.122 -24.461  1.00  0.00     0.211 HD
ENDBRANCH  21  22
BRANCH  21  24
HETATM   24  C20 UNL     1      -7.882  47.545 -23.976  1.00  0.00     0.185 C 
HETATM   25  O4  UNL     1      -8.364  46.831 -23.091  1.00  0.00    -0.292 OA
BRANCH  24  26
HETATM   26  C21 UNL     1      -7.773  47.071 -25.424  1.00  0.00     0.260 C 
BRANCH  26  27
HETATM   27  O5  UNL     1      -8.459  47.974 -26.292  1.00  0.00    -0.314 OA
BRANCH  27  28
HETATM   28  C22 UNL     1      -9.793  48.065 -26.048  1.00  0.00     0.259 C 
HETATM   29  O6  UNL     1     -10.401  49.109 -25.848  1.00  0.00    -0.265 OA
BRANCH  28  30
HETATM   30  C23 UNL     1     -10.424  46.695 -26.092  1.00  0.00     0.120 C 
BRANCH  30  31
HETATM   31  C24 UNL     1     -11.536  46.571 -25.058  1.00  0.00     0.112 C 
BRANCH  31  32
HETATM   32  C25 UNL     1     -12.898  46.864 -25.659  1.00  0.00     0.218 C 
HETATM   33  O7  UNL     1     -13.054  47.279 -26.801  1.00  0.00    -0.274 OA
HETATM   34  N1  UNL     1     -13.934  46.626 -24.785  1.00  0.00    -0.357 N 
HETATM   35  H32 UNL     1     -13.726  46.417 -23.818  1.00  0.00     0.162 HD
BRANCH  34  36
HETATM   36  C26 UNL     1     -15.308  46.904 -25.132  1.00  0.00     0.161 C 
BRANCH  36  37
HETATM   37  C27 UNL     1     -16.216  46.710 -23.945  1.00  0.00    -0.040 A 
HETATM   38  C28 UNL     1     -15.706  46.729 -22.639  1.00  0.00     0.010 A 
HETATM   39  C29 UNL     1     -16.556  46.556 -21.542  1.00  0.00     0.019 A 
HETATM   40  C30 UNL     1     -17.930  46.367 -21.741  1.00  0.00     0.037 A 
HETATM   41  C32 UNL     1     -18.447  46.359 -23.041  1.00  0.00     0.019 A 
HETATM   42  C33 UNL     1     -17.594  46.532 -24.135  1.00  0.00     0.010 A 
BRANCH  40  43
HETATM   43  C31 UNL     1     -18.869  46.171 -20.610  1.00  0.00     0.176 C 
HETATM   44  O8  UNL     1     -18.946  46.870 -19.617  1.00  0.00    -0.646 OA
BRANCH  43  45
HETATM   45  O9  UNL     1     -19.676  45.109 -20.779  1.00  0.00    -0.773 OA
HETATM   46  H37 UNL     1     -20.234  45.114 -19.972  1.00  0.00     0.167 HD
ENDBRANCH  43  45
ENDBRANCH  40  43
ENDBRANCH  36  37
ENDBRANCH  34  36
ENDBRANCH  31  32
ENDBRANCH  30  31
ENDBRANCH  28  30
ENDBRANCH  27  28
ENDBRANCH  26  27
ENDBRANCH  24  26
ENDBRANCH  21  24
TORSDOF 12
ENDMDL
MODEL 4
REMARK minimizedAffinity -8.05503559
REMARK CNNscore 0.400394976
REMARK CNNaffinity 6.2569108
REMARK  12 active torsions:
REMARK  status: ('A' for Active; 'I' for Inactive)
REMARK    1  A    between atoms: C19_21  and  O3_22 
REMARK    2  A    between atoms: C19_21  and  C20_23 
REMARK    3  A    between atoms: C20_23  and  C21_25 
REMARK    4  A    between atoms: C21_25  and  O5_26 
REMARK    5  A    between atoms: O5_26  and  C22_27 
REMARK    6  A    between atoms: C22_27  and  C23_29 
REMARK    7  A    between atoms: C23_29  and  C24_30 
REMARK    8  A    between atoms: C24_30  and  C25_31 
REMARK       I    between atoms: C25_31  and  N1_33 
REMARK    9  A    between atoms: N1_33  and  C26_34 
REMARK   10  A    between atoms: C26_34  and  C27_35 
REMARK   11  A    between atoms: C30_38  and  C31_39 
REMARK   12  A    between atoms: C31_39  and  O9_41 
ROOT
HETATM    1  C1  UNL     1      -1.453  50.359 -23.476  1.00  0.00     0.021 C 
HETATM    2  C2  UNL     1      -2.877  50.223 -24.059  1.00  0.00    -0.009 C 
HETATM    3  C3  UNL     1      -2.761  49.619 -25.493  1.00  0.00     0.022 C 
HETATM    4  C4  UNL     1      -2.069  50.534 -26.501  1.00  0.00     0.084 C 
HETATM    5  C5  UNL     1      -2.618  51.940 -26.470  1.00  0.00     0.149 C 
HETATM    6  O1  UNL     1      -2.435  52.728 -27.396  1.00  0.00    -0.293 OA
HETATM    7  C6  UNL     1      -3.382  52.383 -25.282  1.00  0.00     0.053 C 
HETATM    8  C7  UNL     1      -3.507  51.608 -24.192  1.00  0.00    -0.067 C 
HETATM    9  C8  UNL     1      -4.379  52.028 -23.044  1.00  0.00     0.035 C 
HETATM   10  C9  UNL     1      -5.585  51.092 -22.939  1.00  0.00     0.010 C 
HETATM   11  C10 UNL     1      -5.297  49.621 -23.335  1.00  0.00     0.003 C 
HETATM   12  C11 UNL     1      -3.794  49.260 -23.213  1.00  0.00     0.072 C 
HETATM   13  C12 UNL     1      -3.523  49.074 -21.720  1.00  0.00     0.133 C 
HETATM   14  O2  UNL     1      -2.780  49.782 -21.048  1.00  0.00    -0.297 OA
HETATM   15  C13 UNL     1      -4.285  47.930 -21.082  1.00  0.00     0.091 C 
HETATM   16  C14 UNL     1      -5.808  48.193 -21.160  1.00  0.00     0.005 C 
HETATM   17  C15 UNL     1      -6.156  49.236 -20.081  1.00  0.00     0.019 C 
HETATM   18  C16 UNL     1      -6.232  48.629 -22.593  1.00  0.00     0.002 C 
HETATM   19  C17 UNL     1      -6.375  47.300 -23.368  1.00  0.00     0.009 C 
HETATM   20  C18 UNL     1      -6.523  46.184 -22.336  1.00  0.00     0.047 C 
HETATM   21  C19 UNL     1      -6.620  46.870 -20.963  1.00  0.00     0.128 C 
ENDROOT
BRANCH  21  22
HETATM   22  O3  UNL     1      -5.996  46.047 -19.986  1.00  0.00    -0.381 OA
HETATM   23  H25 UNL     1      -6.273  45.124 -20.133  1.00  0.00     0.211 HD
ENDBRANCH  21  22
BRANCH  21  24
HETATM   24  C20 UNL     1      -8.120  47.100 -20.615  1.00  0.00     0.185 C 
HETATM   25  O4  UNL     1      -8.896  47.608 -21.431  1.00  0.00    -0.292 OA
BRANCH  24  26
HETATM   26  C21 UNL     1      -8.576  46.693 -19.216  1.00  0.00     0.260 C 
BRANCH  26  27
HETATM   27  O5  UNL     1      -9.941  47.062 -19.014  1.00  0.00    -0.314 OA
BRANCH  27  28
HETATM   28  C22 UNL     1     -10.172  47.688 -17.830  1.00  0.00     0.259 C 
HETATM   29  O6  UNL     1      -9.389  48.447 -17.272  1.00  0.00    -0.265 OA
BRANCH  28  30
HETATM   30  C23 UNL     1     -11.547  47.338 -17.317  1.00  0.00     0.120 C 
BRANCH  30  31
HETATM   31  C24 UNL     1     -12.386  46.683 -18.407  1.00  0.00     0.112 C 
BRANCH  31  32
HETATM   32  C25 UNL     1     -13.489  47.602 -18.898  1.00  0.00     0.218 C 
HETATM   33  O7  UNL     1     -13.288  48.557 -19.639  1.00  0.00    -0.274 OA
HETATM   34  N1  UNL     1     -14.731  47.258 -18.415  1.00  0.00    -0.357 N 
HETATM   35  H32 UNL     1     -14.803  46.545 -17.702  1.00  0.00     0.162 HD
BRANCH  34  36
HETATM   36  C26 UNL     1     -15.909  48.042 -18.704  1.00  0.00     0.161 C 
BRANCH  36  37
HETATM   37  C27 UNL     1     -16.872  47.271 -19.570  1.00  0.00    -0.040 A 
HETATM   38  C28 UNL     1     -18.186  47.030 -19.146  1.00  0.00     0.010 A 
HETATM   39  C29 UNL     1     -19.076  46.321 -19.959  1.00  0.00     0.019 A 
HETATM   40  C30 UNL     1     -18.661  45.849 -21.211  1.00  0.00     0.037 A 
HETATM   41  C32 UNL     1     -17.354  46.098 -21.646  1.00  0.00     0.019 A 
HETATM   42  C33 UNL     1     -16.468  46.806 -20.831  1.00  0.00     0.010 A 
BRANCH  40  43
HETATM   43  C31 UNL     1     -19.566  45.086 -22.104  1.00  0.00     0.176 C 
HETATM   44  O8  UNL     1     -19.649  45.211 -23.312  1.00  0.00    -0.646 OA
BRANCH  43  45
HETATM   45  O9  UNL     1     -20.323  44.193 -21.442  1.00  0.00    -0.773 OA
HETATM   46  H37 UNL     1     -20.850  43.769 -22.151  1.00  0.00     0.167 HD
ENDBRANCH  43  45
ENDBRANCH  40  43
ENDBRANCH  36  37
ENDBRANCH  34  36
ENDBRANCH  31  32
ENDBRANCH  30  31
ENDBRANCH  28  30
ENDBRANCH  27  28
ENDBRANCH  26  27
ENDBRANCH  24  26
ENDBRANCH  21  24
TORSDOF 12
ENDMDL
MODEL 5
REMARK minimizedAffinity -8.44804287
REMARK CNNscore 0.351495832
REMARK CNNaffinity 6.33082581
REMARK  12 active torsions:
REMARK  status: ('A' for Active; 'I' for Inactive)
REMARK    1  A    between atoms: C19_21  and  O3_22 
REMARK    2  A    between atoms: C19_21  and  C20_23 
REMARK    3  A    between atoms: C20_23  and  C21_25 
REMARK    4  A    between atoms: C21_25  and  O5_26 
REMARK    5  A    between atoms: O5_26  and  C22_27 
REMARK    6  A    between atoms: C22_27  and  C23_29 
REMARK    7  A    between atoms: C23_29  and  C24_30 
REMARK    8  A    between atoms: C24_30  and  C25_31 
REMARK       I    between atoms: C25_31  and  N1_33 
REMARK    9  A    between atoms: N1_33  and  C26_34 
REMARK   10  A    between atoms: C26_34  and  C27_35 
REMARK   11  A    between atoms: C30_38  and  C31_39 
REMARK   12  A    between atoms: C31_39  and  O9_41 
ROOT
HETATM    1  C1  UNL     1       0.307  49.908 -21.010  1.00  0.00     0.021 C 
HETATM    2  C2  UNL     1      -0.754  50.971 -21.371  1.00  0.00    -0.009 C 
HETATM    3  C3  UNL     1      -0.142  51.925 -22.444  1.00  0.00     0.022 C 
HETATM    4  C4  UNL     1       1.023  52.770 -21.934  1.00  0.00     0.084 C 
HETATM    5  C5  UNL     1       0.711  53.444 -20.620  1.00  0.00     0.149 C 
HETATM    6  O1  UNL     1       1.367  54.400 -20.210  1.00  0.00    -0.293 OA
HETATM    7  C6  UNL     1      -0.405  52.925 -19.797  1.00  0.00     0.053 C 
HETATM    8  C7  UNL     1      -1.075  51.811 -20.137  1.00  0.00    -0.067 C 
HETATM    9  C8  UNL     1      -2.274  51.364 -19.352  1.00  0.00     0.035 C 
HETATM   10  C9  UNL     1      -3.534  51.492 -20.212  1.00  0.00     0.010 C 
HETATM   11  C10 UNL     1      -3.315  51.217 -21.722  1.00  0.00     0.003 C 
HETATM   12  C11 UNL     1      -2.062  50.344 -21.988  1.00  0.00     0.072 C 
HETATM   13  C12 UNL     1      -2.458  48.912 -21.625  1.00  0.00     0.133 C 
HETATM   14  O2  UNL     1      -1.968  48.258 -20.710  1.00  0.00    -0.297 OA
HETATM   15  C13 UNL     1      -3.566  48.332 -22.481  1.00  0.00     0.091 C 
HETATM   16  C14 UNL     1      -4.870  49.146 -22.292  1.00  0.00     0.005 C 
HETATM   17  C15 UNL     1      -5.483  48.734 -20.940  1.00  0.00     0.019 C 
HETATM   18  C16 UNL     1      -4.600  50.675 -22.402  1.00  0.00     0.002 C 
HETATM   19  C17 UNL     1      -4.594  50.952 -23.922  1.00  0.00     0.009 C 
HETATM   20  C18 UNL     1      -5.308  49.783 -24.601  1.00  0.00     0.047 C 
HETATM   21  C19 UNL     1      -5.866  48.899 -23.474  1.00  0.00     0.128 C 
ENDROOT
BRANCH  21  22
HETATM   22  O3  UNL     1      -5.821  47.538 -23.882  1.00  0.00    -0.381 OA
HETATM   23  H25 UNL     1      -6.137  47.480 -24.803  1.00  0.00     0.211 HD
ENDBRANCH  21  22
BRANCH  21  24
HETATM   24  C20 UNL     1      -7.328  49.335 -23.162  1.00  0.00     0.185 C 
HETATM   25  O4  UNL     1      -7.638  49.791 -22.058  1.00  0.00    -0.292 OA
BRANCH  24  26
HETATM   26  C21 UNL     1      -8.356  49.148 -24.275  1.00  0.00     0.260 C 
BRANCH  26  27
HETATM   27  O5  UNL     1      -8.442  47.771 -24.644  1.00  0.00    -0.314 OA
BRANCH  27  28
HETATM   28  C22 UNL     1      -9.548  47.464 -25.372  1.00  0.00     0.259 C 
HETATM   29  O6  UNL     1     -10.699  47.712 -25.038  1.00  0.00    -0.265 OA
BRANCH  28  30
HETATM   30  C23 UNL     1      -9.149  46.803 -26.668  1.00  0.00     0.120 C 
BRANCH  30  31
HETATM   31  C24 UNL     1     -10.373  46.316 -27.433  1.00  0.00     0.112 C 
BRANCH  31  32
HETATM   32  C25 UNL     1     -10.378  46.817 -28.865  1.00  0.00     0.218 C 
HETATM   33  O7  UNL     1     -10.783  46.148 -29.810  1.00  0.00    -0.274 OA
HETATM   34  N1  UNL     1      -9.873  48.090 -28.992  1.00  0.00    -0.357 N 
HETATM   35  H32 UNL     1      -9.433  48.528 -28.194  1.00  0.00     0.162 HD
BRANCH  34  36
HETATM   36  C26 UNL     1      -9.724  48.730 -30.278  1.00  0.00     0.161 C 
BRANCH  36  37
HETATM   37  C27 UNL     1      -8.417  48.349 -30.923  1.00  0.00    -0.040 A 
HETATM   38  C28 UNL     1      -7.249  48.216 -30.159  1.00  0.00     0.010 A 
HETATM   39  C29 UNL     1      -6.041  47.855 -30.765  1.00  0.00     0.019 A 
HETATM   40  C30 UNL     1      -5.991  47.617 -32.145  1.00  0.00     0.037 A 
HETATM   41  C32 UNL     1      -7.155  47.736 -32.911  1.00  0.00     0.019 A 
HETATM   42  C33 UNL     1      -8.360  48.097 -32.303  1.00  0.00     0.010 A 
BRANCH  40  43
HETATM   43  C31 UNL     1      -4.733  47.239 -32.832  1.00  0.00     0.176 C 
HETATM   44  O8  UNL     1      -3.718  46.836 -32.294  1.00  0.00    -0.646 OA
BRANCH  43  45
HETATM   45  O9  UNL     1      -4.804  47.377 -34.168  1.00  0.00    -0.773 OA
HETATM   46  H37 UNL     1      -3.920  47.087 -34.477  1.00  0.00     0.167 HD
ENDBRANCH  43  45
ENDBRANCH  40  43
ENDBRANCH  36  37
ENDBRANCH  34  36
ENDBRANCH  31  32
ENDBRANCH  30  31
ENDBRANCH  28  30
ENDBRANCH  27  28
ENDBRANCH  26  27
ENDBRANCH  24  26
ENDBRANCH  21  24
TORSDOF 12
ENDMDL
MODEL 6
REMARK minimizedAffinity -8.1223259
REMARK CNNscore 0.339298725
REMARK CNNaffinity 5.87344694
REMARK  12 active torsions:
REMARK  status: ('A' for Active; 'I' for Inactive)
REMARK    1  A    between atoms: C19_21  and  O3_22 
REMARK    2  A    between atoms: C19_21  and  C20_23 
REMARK    3  A    between atoms: C20_23  and  C21_25 
REMARK    4  A    between atoms: C21_25  and  O5_26 
REMARK    5  A    between atoms: O5_26  and  C22_27 
REMARK    6  A    between atoms: C22_27  and  C23_29 
REMARK    7  A    between atoms: C23_29  and  C24_30 
REMARK    8  A    between atoms: C24_30  and  C25_31 
REMARK       I    between atoms: C25_31  and  N1_33 
REMARK    9  A    between atoms: N1_33  and  C26_34 
REMARK   10  A    between atoms: C26_34  and  C27_35 
REMARK   11  A    between atoms: C30_38  and  C31_39 
REMARK   12  A    between atoms: C31_39  and  O9_41 
ROOT
HETATM    1  C1  UNL     1      -1.843  53.042 -25.272  1.00  0.00     0.021 C 
HETATM    2  C2  UNL     1      -1.421  51.660 -24.724  1.00  0.00    -0.009 C 
HETATM    3  C3  UNL     1      -0.153  51.855 -23.836  1.00  0.00     0.022 C 
HETATM    4  C4  UNL     1       1.086  52.305 -24.608  1.00  0.00     0.084 C 
HETATM    5  C5  UNL     1       1.324  51.473 -25.845  1.00  0.00     0.149 C 
HETATM    6  O1  UNL     1       2.414  51.455 -26.414  1.00  0.00    -0.293 OA
HETATM    7  C6  UNL     1       0.208  50.671 -26.394  1.00  0.00     0.053 C 
HETATM    8  C7  UNL     1      -1.034  50.748 -25.886  1.00  0.00    -0.067 C 
HETATM    9  C8  UNL     1      -2.126  49.845 -26.382  1.00  0.00     0.035 C 
HETATM   10  C9  UNL     1      -2.533  48.867 -25.277  1.00  0.00     0.010 C 
HETATM   11  C10 UNL     1      -2.452  49.447 -23.842  1.00  0.00     0.003 C 
HETATM   12  C11 UNL     1      -2.530  50.995 -23.824  1.00  0.00     0.072 C 
HETATM   13  C12 UNL     1      -4.001  51.348 -24.051  1.00  0.00     0.133 C 
HETATM   14  O2  UNL     1      -4.437  51.946 -25.029  1.00  0.00    -0.297 OA
HETATM   15  C13 UNL     1      -4.937  50.866 -22.961  1.00  0.00     0.091 C 
HETATM   16  C14 UNL     1      -4.925  49.319 -22.891  1.00  0.00     0.005 C 
HETATM   17  C15 UNL     1      -5.769  48.794 -24.067  1.00  0.00     0.019 C 
HETATM   18  C16 UNL     1      -3.469  48.767 -22.886  1.00  0.00     0.002 C 
HETATM   19  C17 UNL     1      -3.023  48.883 -21.412  1.00  0.00     0.009 C 
HETATM   20  C18 UNL     1      -4.287  49.007 -20.561  1.00  0.00     0.047 C 
HETATM   21  C19 UNL     1      -5.475  48.812 -21.517  1.00  0.00     0.128 C 
ENDROOT
BRANCH  21  22
HETATM   22  O3  UNL     1      -6.558  49.626 -21.087  1.00  0.00    -0.381 OA
HETATM   23  H25 UNL     1      -6.642  49.546 -20.118  1.00  0.00     0.211 HD
ENDBRANCH  21  22
BRANCH  21  24
HETATM   24  C20 UNL     1      -5.882  47.309 -21.521  1.00  0.00     0.185 C 
HETATM   25  O4  UNL     1      -5.098  46.435 -21.904  1.00  0.00    -0.292 OA
BRANCH  24  26
HETATM   26  C21 UNL     1      -7.297  46.975 -21.054  1.00  0.00     0.260 C 
BRANCH  26  27
HETATM   27  O5  UNL     1      -8.254  47.438 -22.008  1.00  0.00    -0.314 OA
BRANCH  27  28
HETATM   28  C22 UNL     1      -8.848  46.444 -22.720  1.00  0.00     0.259 C 
HETATM   29  O6  UNL     1      -8.515  46.089 -23.844  1.00  0.00    -0.265 OA
BRANCH  28  30
HETATM   30  C23 UNL     1      -9.955  45.815 -21.910  1.00  0.00     0.120 C 
BRANCH  30  31
HETATM   31  C24 UNL     1     -11.101  45.365 -22.807  1.00  0.00     0.112 C 
BRANCH  31  32
HETATM   32  C25 UNL     1     -12.130  46.463 -23.000  1.00  0.00     0.218 C 
HETATM   33  O7  UNL     1     -12.122  47.232 -23.954  1.00  0.00    -0.274 OA
HETATM   34  N1  UNL     1     -13.062  46.510 -21.990  1.00  0.00    -0.357 N 
HETATM   35  H32 UNL     1     -12.928  45.937 -21.167  1.00  0.00     0.162 HD
BRANCH  34  36
HETATM   36  C26 UNL     1     -14.090  47.524 -21.943  1.00  0.00     0.161 C 
BRANCH  36  37
HETATM   37  C27 UNL     1     -15.347  47.051 -22.626  1.00  0.00    -0.040 A 
HETATM   38  C28 UNL     1     -16.270  46.239 -21.952  1.00  0.00     0.010 A 
HETATM   39  C29 UNL     1     -17.438  45.810 -22.590  1.00  0.00     0.019 A 
HETATM   40  C30 UNL     1     -17.699  46.196 -23.912  1.00  0.00     0.037 A 
HETATM   41  C32 UNL     1     -16.788  47.017 -24.586  1.00  0.00     0.019 A 
HETATM   42  C33 UNL     1     -15.621  47.442 -23.945  1.00  0.00     0.010 A 
BRANCH  40  43
HETATM   43  C31 UNL     1     -18.919  45.760 -24.632  1.00  0.00     0.176 C 
HETATM   44  O8  UNL     1     -19.196  46.018 -25.789  1.00  0.00    -0.646 OA
BRANCH  43  45
HETATM   45  O9  UNL     1     -19.737  45.012 -23.870  1.00  0.00    -0.773 OA
HETATM   46  H37 UNL     1     -20.479  44.796 -24.474  1.00  0.00     0.167 HD
ENDBRANCH  43  45
ENDBRANCH  40  43
ENDBRANCH  36  37
ENDBRANCH  34  36
ENDBRANCH  31  32
ENDBRANCH  30  31
ENDBRANCH  28  30
ENDBRANCH  27  28
ENDBRANCH  26  27
ENDBRANCH  24  26
ENDBRANCH  21  24
TORSDOF 12
ENDMDL
MODEL 7
REMARK minimizedAffinity -8.90796375
REMARK CNNscore 0.333949924
REMARK CNNaffinity 6.02942228
REMARK  12 active torsions:
REMARK  status: ('A' for Active; 'I' for Inactive)
REMARK    1  A    between atoms: C19_21  and  O3_22 
REMARK    2  A    between atoms: C19_21  and  C20_23 
REMARK    3  A    between atoms: C20_23  and  C21_25 
REMARK    4  A    between atoms: C21_25  and  O5_26 
REMARK    5  A    between atoms: O5_26  and  C22_27 
REMARK    6  A    between atoms: C22_27  and  C23_29 
REMARK    7  A    between atoms: C23_29  and  C24_30 
REMARK    8  A    between atoms: C24_30  and  C25_31 
REMARK       I    between atoms: C25_31  and  N1_33 
REMARK    9  A    between atoms: N1_33  and  C26_34 
REMARK   10  A    between atoms: C26_34  and  C27_35 
REMARK   11  A    between atoms: C30_38  and  C31_39 
REMARK   12  A    between atoms: C31_39  and  O9_41 
ROOT
HETATM    1  C1  UNL     1      -1.430  53.194 -25.703  1.00  0.00     0.021 C 
HETATM    2  C2  UNL     1      -1.126  51.840 -25.023  1.00  0.00    -0.009 C 
HETATM    3  C3  UNL     1       0.164  52.006 -24.161  1.00  0.00     0.022 C 
HETATM    4  C4  UNL     1       1.429  52.267 -24.976  1.00  0.00     0.084 C 
HETATM    5  C5  UNL     1       1.579  51.300 -26.126  1.00  0.00     0.149 C 
HETATM    6  O1  UNL     1       2.657  51.130 -26.692  1.00  0.00    -0.293 OA
HETATM    7  C6  UNL     1       0.390  50.552 -26.591  1.00  0.00     0.053 C 
HETATM    8  C7  UNL     1      -0.834  50.788 -26.091  1.00  0.00    -0.067 C 
HETATM    9  C8  UNL     1      -2.007  49.942 -26.494  1.00  0.00     0.035 C 
HETATM   10  C9  UNL     1      -2.488  49.117 -25.298  1.00  0.00     0.010 C 
HETATM   11  C10 UNL     1      -2.340  49.823 -23.926  1.00  0.00     0.003 C 
HETATM   12  C11 UNL     1      -2.280  51.367 -24.060  1.00  0.00     0.072 C 
HETATM   13  C12 UNL     1      -3.716  51.826 -24.317  1.00  0.00     0.133 C 
HETATM   14  O2  UNL     1      -4.108  52.363 -25.348  1.00  0.00    -0.297 OA
HETATM   15  C13 UNL     1      -4.679  51.538 -23.183  1.00  0.00     0.091 C 
HETATM   16  C14 UNL     1      -4.804  50.010 -22.962  1.00  0.00     0.005 C 
HETATM   17  C15 UNL     1      -5.703  49.451 -24.080  1.00  0.00     0.019 C 
HETATM   18  C16 UNL     1      -3.402  49.334 -22.907  1.00  0.00     0.002 C 
HETATM   19  C17 UNL     1      -2.932  49.552 -21.451  1.00  0.00     0.009 C 
HETATM   20  C18 UNL     1      -4.171  49.871 -20.615  1.00  0.00     0.047 C 
HETATM   21  C19 UNL     1      -5.382  49.690 -21.544  1.00  0.00     0.128 C 
ENDROOT
BRANCH  21  22
HETATM   22  O3  UNL     1      -6.384  50.636 -21.193  1.00  0.00    -0.381 OA
HETATM   23  H25 UNL     1      -6.464  50.658 -20.221  1.00  0.00     0.211 HD
ENDBRANCH  21  22
BRANCH  21  24
HETATM   24  C20 UNL     1      -5.921  48.236 -21.400  1.00  0.00     0.185 C 
HETATM   25  O4  UNL     1      -5.528  47.332 -22.144  1.00  0.00    -0.292 OA
BRANCH  24  26
HETATM   26  C21 UNL     1      -6.970  47.992 -20.318  1.00  0.00     0.260 C 
BRANCH  26  27
HETATM   27  O5  UNL     1      -8.209  48.600 -20.684  1.00  0.00    -0.314 OA
BRANCH  27  28
HETATM   28  C22 UNL     1      -9.274  47.758 -20.622  1.00  0.00     0.259 C 
HETATM   29  O6  UNL     1      -9.456  46.798 -21.362  1.00  0.00    -0.265 OA
BRANCH  28  30
HETATM   30  C23 UNL     1     -10.185  48.155 -19.487  1.00  0.00     0.120 C 
BRANCH  30  31
HETATM   31  C24 UNL     1     -11.379  47.213 -19.388  1.00  0.00     0.112 C 
BRANCH  31  32
HETATM   32  C25 UNL     1     -12.686  47.973 -19.255  1.00  0.00     0.218 C 
HETATM   33  O7  UNL     1     -12.992  48.914 -19.976  1.00  0.00    -0.274 OA
HETATM   34  N1  UNL     1     -13.481  47.500 -18.237  1.00  0.00    -0.357 N 
HETATM   35  H32 UNL     1     -13.107  46.813 -17.597  1.00  0.00     0.162 HD
BRANCH  34  36
HETATM   36  C26 UNL     1     -14.738  48.124 -17.895  1.00  0.00     0.161 C 
BRANCH  36  37
HETATM   37  C27 UNL     1     -15.889  47.432 -18.578  1.00  0.00    -0.040 A 
HETATM   38  C28 UNL     1     -17.090  48.110 -18.827  1.00  0.00     0.010 A 
HETATM   39  C29 UNL     1     -18.151  47.463 -19.469  1.00  0.00     0.019 A 
HETATM   40  C30 UNL     1     -18.018  46.129 -19.875  1.00  0.00     0.037 A 
HETATM   41  C32 UNL     1     -16.817  45.450 -19.641  1.00  0.00     0.019 A 
HETATM   42  C33 UNL     1     -15.759  46.100 -18.999  1.00  0.00     0.010 A 
BRANCH  40  43
HETATM   43  C31 UNL     1     -19.117  45.399 -20.551  1.00  0.00     0.176 C 
HETATM   44  O8  UNL     1     -19.958  44.709 -20.006  1.00  0.00    -0.646 OA
BRANCH  43  45
HETATM   45  O9  UNL     1     -19.118  45.573 -21.885  1.00  0.00    -0.773 OA
HETATM   46  H37 UNL     1     -19.890  45.049 -22.185  1.00  0.00     0.167 HD
ENDBRANCH  43  45
ENDBRANCH  40  43
ENDBRANCH  36  37
ENDBRANCH  34  36
ENDBRANCH  31  32
ENDBRANCH  30  31
ENDBRANCH  28  30
ENDBRANCH  27  28
ENDBRANCH  26  27
ENDBRANCH  24  26
ENDBRANCH  21  24
TORSDOF 12
ENDMDL
MODEL 8
REMARK minimizedAffinity -8.09778881
REMARK CNNscore 0.3259058
REMARK CNNaffinity 5.76795197
REMARK  12 active torsions:
REMARK  status: ('A' for Active; 'I' for Inactive)
REMARK    1  A    between atoms: C19_21  and  O3_22 
REMARK    2  A    between atoms: C19_21  and  C20_23 
REMARK    3  A    between atoms: C20_23  and  C21_25 
REMARK    4  A    between atoms: C21_25  and  O5_26 
REMARK    5  A    between atoms: O5_26  and  C22_27 
REMARK    6  A    between atoms: C22_27  and  C23_29 
REMARK    7  A    between atoms: C23_29  and  C24_30 
REMARK    8  A    between atoms: C24_30  and  C25_31 
REMARK       I    between atoms: C25_31  and  N1_33 
REMARK    9  A    between atoms: N1_33  and  C26_34 
REMARK   10  A    between atoms: C26_34  and  C27_35 
REMARK   11  A    between atoms: C30_38  and  C31_39 
REMARK   12  A    between atoms: C31_39  and  O9_41 
ROOT
HETATM    1  C1  UNL     1      -2.530  48.631 -23.368  1.00  0.00     0.021 C 
HETATM    2  C2  UNL     1      -3.777  49.523 -23.183  1.00  0.00    -0.009 C 
HETATM    3  C3  UNL     1      -4.461  49.697 -24.575  1.00  0.00     0.022 C 
HETATM    4  C4  UNL     1      -3.630  50.484 -25.585  1.00  0.00     0.084 C 
HETATM    5  C5  UNL     1      -3.085  51.767 -25.005  1.00  0.00     0.149 C 
HETATM    6  O1  UNL     1      -2.676  52.680 -25.720  1.00  0.00    -0.293 OA
HETATM    7  C6  UNL     1      -3.028  51.918 -23.533  1.00  0.00     0.053 C 
HETATM    8  C7  UNL     1      -3.346  50.908 -22.706  1.00  0.00    -0.067 C 
HETATM    9  C8  UNL     1      -3.391  51.115 -21.220  1.00  0.00     0.035 C 
HETATM   10  C9  UNL     1      -4.833  50.996 -20.722  1.00  0.00     0.010 C 
HETATM   11  C10 UNL     1      -5.699  49.968 -21.495  1.00  0.00     0.003 C 
HETATM   12  C11 UNL     1      -4.842  48.891 -22.209  1.00  0.00     0.072 C 
HETATM   13  C12 UNL     1      -4.387  47.921 -21.118  1.00  0.00     0.133 C 
HETATM   14  O2  UNL     1      -3.222  47.745 -20.776  1.00  0.00    -0.297 OA
HETATM   15  C13 UNL     1      -5.514  47.176 -20.432  1.00  0.00     0.091 C 
HETATM   16  C14 UNL     1      -6.440  48.172 -19.691  1.00  0.00     0.005 C 
HETATM   17  C15 UNL     1      -5.722  48.599 -18.397  1.00  0.00     0.019 C 
HETATM   18  C16 UNL     1      -6.822  49.373 -20.606  1.00  0.00     0.002 C 
HETATM   19  C17 UNL     1      -7.997  48.843 -21.457  1.00  0.00     0.009 C 
HETATM   20  C18 UNL     1      -8.571  47.624 -20.735  1.00  0.00     0.047 C 
HETATM   21  C19 UNL     1      -7.834  47.529 -19.389  1.00  0.00     0.128 C 
ENDROOT
BRANCH  21  22
HETATM   22  O3  UNL     1      -7.682  46.160 -19.037  1.00  0.00    -0.381 OA
HETATM   23  H25 UNL     1      -8.524  45.699 -19.210  1.00  0.00     0.211 HD
ENDBRANCH  21  22
BRANCH  21  24
HETATM   24  C20 UNL     1      -8.654  48.290 -18.306  1.00  0.00     0.185 C 
HETATM   25  O4  UNL     1      -8.717  49.524 -18.301  1.00  0.00    -0.292 OA
BRANCH  24  26
HETATM   26  C21 UNL     1      -9.352  47.443 -17.245  1.00  0.00     0.260 C 
BRANCH  26  27
HETATM   27  O5  UNL     1     -10.363  46.633 -17.845  1.00  0.00    -0.314 OA
BRANCH  27  28
HETATM   28  C22 UNL     1     -11.486  46.504 -17.090  1.00  0.00     0.259 C 
HETATM   29  O6  UNL     1     -11.515  46.527 -15.866  1.00  0.00    -0.265 OA
BRANCH  28  30
HETATM   30  C23 UNL     1     -12.696  46.364 -17.979  1.00  0.00     0.120 C 
BRANCH  30  31
HETATM   31  C24 UNL     1     -13.100  47.709 -18.570  1.00  0.00     0.112 C 
BRANCH  31  32
HETATM   32  C25 UNL     1     -14.607  47.849 -18.674  1.00  0.00     0.218 C 
HETATM   33  O7  UNL     1     -15.215  48.853 -18.323  1.00  0.00    -0.274 OA
HETATM   34  N1  UNL     1     -15.217  46.729 -19.190  1.00  0.00    -0.357 N 
HETATM   35  H32 UNL     1     -14.671  45.889 -19.329  1.00  0.00     0.162 HD
BRANCH  34  36
HETATM   36  C26 UNL     1     -16.652  46.625 -19.311  1.00  0.00     0.161 C 
BRANCH  36  37
HETATM   37  C27 UNL     1     -17.071  46.566 -20.757  1.00  0.00    -0.040 A 
HETATM   38  C28 UNL     1     -16.115  46.544 -21.782  1.00  0.00     0.010 A 
HETATM   39  C29 UNL     1     -16.511  46.481 -23.122  1.00  0.00     0.019 A 
HETATM   40  C30 UNL     1     -17.872  46.433 -23.451  1.00  0.00     0.037 A 
HETATM   41  C32 UNL     1     -18.831  46.441 -22.432  1.00  0.00     0.019 A 
HETATM   42  C33 UNL     1     -18.432  46.505 -21.094  1.00  0.00     0.010 A 
BRANCH  40  43
HETATM   43  C31 UNL     1     -18.340  46.373 -24.856  1.00  0.00     0.176 C 
HETATM   44  O8  UNL     1     -17.751  45.851 -25.784  1.00  0.00    -0.646 OA
BRANCH  43  45
HETATM   45  O9  UNL     1     -19.534  46.966 -25.036  1.00  0.00    -0.773 OA
HETATM   46  H37 UNL     1     -19.712  46.841 -25.991  1.00  0.00     0.167 HD
ENDBRANCH  43  45
ENDBRANCH  40  43
ENDBRANCH  36  37
ENDBRANCH  34  36
ENDBRANCH  31  32
ENDBRANCH  30  31
ENDBRANCH  28  30
ENDBRANCH  27  28
ENDBRANCH  26  27
ENDBRANCH  24  26
ENDBRANCH  21  24
TORSDOF 12
ENDMDL
MODEL 9
REMARK minimizedAffinity -8.15688133
REMARK CNNscore 0.319626451
REMARK CNNaffinity 5.57755327
REMARK  12 active torsions:
REMARK  status: ('A' for Active; 'I' for Inactive)
REMARK    1  A    between atoms: C19_21  and  O3_22 
REMARK    2  A    between atoms: C19_21  and  C20_23 
REMARK    3  A    between atoms: C20_23  and  C21_25 
REMARK    4  A    between atoms: C21_25  and  O5_26 
REMARK    5  A    between atoms: O5_26  and  C22_27 
REMARK    6  A    between atoms: C22_27  and  C23_29 
REMARK    7  A    between atoms: C23_29  and  C24_30 
REMARK    8  A    between atoms: C24_30  and  C25_31 
REMARK       I    between atoms: C25_31  and  N1_33 
REMARK    9  A    between atoms: N1_33  and  C26_34 
REMARK   10  A    between atoms: C26_34  and  C27_35 
REMARK   11  A    between atoms: C30_38  and  C31_39 
REMARK   12  A    between atoms: C31_39  and  O9_41 
ROOT
HETATM    1  C1  UNL     1      -2.503  49.027 -22.946  1.00  0.00     0.021 C 
HETATM    2  C2  UNL     1      -3.616  49.405 -23.948  1.00  0.00    -0.009 C 
HETATM    3  C3  UNL     1      -3.031  49.293 -25.390  1.00  0.00     0.022 C 
HETATM    4  C4  UNL     1      -1.937  50.312 -25.701  1.00  0.00     0.084 C 
HETATM    5  C5  UNL     1      -2.331  51.715 -25.305  1.00  0.00     0.149 C 
HETATM    6  O1  UNL     1      -1.750  52.702 -25.752  1.00  0.00    -0.293 OA
HETATM    7  C6  UNL     1      -3.439  51.902 -24.340  1.00  0.00     0.053 C 
HETATM    8  C7  UNL     1      -4.027  50.860 -23.729  1.00  0.00    -0.067 C 
HETATM    9  C8  UNL     1      -5.220  51.061 -22.841  1.00  0.00     0.035 C 
HETATM   10  C9  UNL     1      -6.458  50.431 -23.484  1.00  0.00     0.010 C 
HETATM   11  C10 UNL     1      -6.176  49.145 -24.303  1.00  0.00     0.003 C 
HETATM   12  C11 UNL     1      -4.863  48.444 -23.868  1.00  0.00     0.072 C 
HETATM   13  C12 UNL     1      -5.181  47.726 -22.556  1.00  0.00     0.133 C 
HETATM   14  O2  UNL     1      -4.679  47.994 -21.469  1.00  0.00    -0.297 OA
HETATM   15  C13 UNL     1      -6.223  46.632 -22.677  1.00  0.00     0.091 C 
HETATM   16  C14 UNL     1      -7.580  47.233 -23.118  1.00  0.00     0.005 C 
HETATM   17  C15 UNL     1      -8.208  47.915 -21.888  1.00  0.00     0.019 C 
HETATM   18  C16 UNL     1      -7.402  48.196 -24.329  1.00  0.00     0.002 C 
HETATM   19  C17 UNL     1      -7.366  47.259 -25.557  1.00  0.00     0.009 C 
HETATM   20  C18 UNL     1      -7.984  45.927 -25.133  1.00  0.00     0.047 C 
HETATM   21  C19 UNL     1      -8.521  46.131 -23.707  1.00  0.00     0.128 C 
ENDROOT
BRANCH  21  22
HETATM   22  O3  UNL     1      -8.379  44.918 -22.978  1.00  0.00    -0.381 OA
HETATM   23  H25 UNL     1      -8.663  44.178 -23.547  1.00  0.00     0.211 HD
ENDBRANCH  21  22
BRANCH  21  24
HETATM   24  C20 UNL     1     -10.016  46.558 -23.783  1.00  0.00     0.185 C 
HETATM   25  O4  UNL     1     -10.687  46.723 -22.759  1.00  0.00    -0.292 OA
BRANCH  24  26
HETATM   26  C21 UNL     1     -10.615  46.737 -25.176  1.00  0.00     0.260 C 
BRANCH  26  27
HETATM   27  O5  UNL     1     -11.765  47.582 -25.115  1.00  0.00    -0.314 OA
BRANCH  27  28
HETATM   28  C22 UNL     1     -12.609  47.438 -26.171  1.00  0.00     0.259 C 
HETATM   29  O6  UNL     1     -12.806  48.286 -27.033  1.00  0.00    -0.265 OA
BRANCH  28  30
HETATM   30  C23 UNL     1     -13.243  46.070 -26.146  1.00  0.00     0.120 C 
BRANCH  30  31
HETATM   31  C24 UNL     1     -14.759  46.166 -26.268  1.00  0.00     0.112 C 
BRANCH  31  32
HETATM   32  C25 UNL     1     -15.403  46.592 -24.961  1.00  0.00     0.218 C 
HETATM   33  O7  UNL     1     -15.261  47.707 -24.474  1.00  0.00    -0.274 OA
HETATM   34  N1  UNL     1     -16.150  45.593 -24.380  1.00  0.00    -0.357 N 
HETATM   35  H32 UNL     1     -16.111  44.660 -24.766  1.00  0.00     0.162 HD
BRANCH  34  36
HETATM   36  C26 UNL     1     -16.792  45.765 -23.098  1.00  0.00     0.161 C 
BRANCH  36  37
HETATM   37  C27 UNL     1     -18.058  44.952 -23.014  1.00  0.00    -0.040 A 
HETATM   38  C28 UNL     1     -18.088  43.738 -22.313  1.00  0.00     0.010 A 
HETATM   39  C29 UNL     1     -19.269  42.993 -22.233  1.00  0.00     0.019 A 
HETATM   40  C30 UNL     1     -20.437  43.459 -22.850  1.00  0.00     0.037 A 
HETATM   41  C32 UNL     1     -20.417  44.676 -23.540  1.00  0.00     0.019 A 
HETATM   42  C33 UNL     1     -19.235  45.418 -23.618  1.00  0.00     0.010 A 
BRANCH  40  43
HETATM   43  C31 UNL     1     -21.709  42.700 -22.800  1.00  0.00     0.176 C 
HETATM   44  O8  UNL     1     -22.036  41.801 -23.552  1.00  0.00    -0.646 OA
BRANCH  43  45
HETATM   45  O9  UNL     1     -22.516  43.098 -21.800  1.00  0.00    -0.773 OA
HETATM   46  H37 UNL     1     -23.297  42.511 -21.887  1.00  0.00     0.167 HD
ENDBRANCH  43  45
ENDBRANCH  40  43
ENDBRANCH  36  37
ENDBRANCH  34  36
ENDBRANCH  31  32
ENDBRANCH  30  31
ENDBRANCH  28  30
ENDBRANCH  27  28
ENDBRANCH  26  27
ENDBRANCH  24  26
ENDBRANCH  21  24
TORSDOF 12
ENDMDL
