MODEL 1
REMARK minimizedAffinity -8.05408859
REMARK CNNscore 0.803478301
REMARK CNNaffinity 7.03561068
REMARK  9 active torsions:
REMARK  status: ('A' for Active; 'I' for Inactive)
REMARK    1  A    between atoms: C4_4  and  C5_5 
REMARK    2  A    between atoms: C7_7  and  O1_9 
REMARK    3  A    between atoms: C20_21  and  O2_22 
REMARK    4  A    between atoms: O2_22  and  C21_23 
REMARK    5  A    between atoms: C22_25  and  C23_26 
REMARK    6  A    between atoms: C23_26  and  O4_27 
REMARK    7  A    between atoms: C24_28  and  O5_29 
REMARK    8  A    between atoms: C25_30  and  O6_31 
REMARK    9  A    between atoms: C26_32  and  O7_33 
ROOT
HETATM    1  C5  UNL     1       3.935  58.202  -4.468  1.00  0.00     0.147 C 
HETATM    2  C6  UNL     1       5.076  57.797  -5.432  1.00  0.00     0.074 C 
HETATM    3  C7  UNL     1       4.897  56.382  -6.017  1.00  0.00     0.064 C 
HETATM    4  C8  UNL     1       5.281  55.331  -4.955  1.00  0.00     0.046 C 
HETATM    5  C9  UNL     1       3.432  56.184  -6.459  1.00  0.00     0.058 C 
HETATM    6  C10 UNL     1       2.603  57.469  -6.293  1.00  0.00     0.131 C 
HETATM    7  C11 UNL     1       1.213  57.113  -6.874  1.00  0.00     0.042 C 
HETATM    8  C12 UNL     1       1.412  55.772  -7.666  1.00  0.00    -0.029 C 
HETATM    9  C13 UNL     1       0.843  54.626  -6.748  1.00  0.00     0.016 C 
HETATM   10  C14 UNL     1       0.713  55.665  -9.056  1.00  0.00     0.014 C 
HETATM   11  C15 UNL     1      -0.792  55.974  -8.980  1.00  0.00     0.034 C 
HETATM   12  C16 UNL     1      -1.710  55.099  -9.751  1.00  0.00    -0.022 C 
HETATM   13  C17 UNL     1      -1.420  53.880 -10.235  1.00  0.00    -0.059 C 
HETATM   14  C18 UNL     1      -0.020  53.291 -10.056  1.00  0.00     0.057 C 
HETATM   15  C19 UNL     1       0.301  52.300 -11.179  1.00  0.00     0.024 C 
HETATM   16  C20 UNL     1      -0.510  51.904 -12.167  1.00  0.00     0.116 C 
HETATM   17  C27 UNL     1      -1.915  52.392 -12.192  1.00  0.00     0.194 C 
HETATM   18  O8  UNL     1      -2.583  52.219 -13.215  1.00  0.00    -0.289 OA
HETATM   19  C28 UNL     1      -2.487  52.982 -10.895  1.00  0.00     0.044 C 
HETATM   20  C29 UNL     1      -3.807  53.702 -11.260  1.00  0.00     0.028 C 
HETATM   21  C30 UNL     1      -2.846  51.803  -9.963  1.00  0.00     0.028 C 
HETATM   22  C31 UNL     1       1.153  54.368  -9.865  1.00  0.00     0.032 C 
HETATM   23  C32 UNL     1       1.636  54.818 -11.273  1.00  0.00     0.025 C 
HETATM   24  C33 UNL     1       2.351  53.625  -9.155  1.00  0.00     0.137 C 
HETATM   25  O9  UNL     1       2.469  52.398  -9.223  1.00  0.00    -0.297 OA
HETATM   26  C34 UNL     1       3.412  54.367  -8.344  1.00  0.00     0.089 C 
HETATM   27  C35 UNL     1       2.984  55.747  -7.879  1.00  0.00    -0.021 C 
HETATM   28  C36 UNL     1       3.499  56.795  -8.929  1.00  0.00     0.017 C 
HETATM   29  O10 UNL     1       2.610  57.846  -4.926  1.00  0.00    -0.376 OA
ENDROOT
BRANCH  16  30
HETATM   30  O2  UNL     1      -0.034  51.118 -13.199  1.00  0.00    -0.314 OA
BRANCH  30  31
HETATM   31  C21 UNL     1       0.172  49.736 -12.849  1.00  0.00     0.298 C 
HETATM   32  O3  UNL     1       1.333  49.255 -13.548  1.00  0.00    -0.348 OA
HETATM   33  C22 UNL     1       1.110  48.803 -14.895  1.00  0.00     0.179 C 
HETATM   34  C24 UNL     1       0.135  47.609 -14.944  1.00  0.00     0.180 C 
HETATM   35  C25 UNL     1      -0.723  47.522 -13.673  1.00  0.00     0.183 C 
HETATM   36  C26 UNL     1      -1.103  48.911 -13.162  1.00  0.00     0.205 C 
BRANCH  33  37
HETATM   37  C23 UNL     1       0.681  49.946 -15.831  1.00  0.00     0.198 C 
BRANCH  37  38
HETATM   38  O4  UNL     1      -0.354  49.520 -16.714  1.00  0.00    -0.398 OA
HETATM   39  H32 UNL     1      -0.577  50.286 -17.272  1.00  0.00     0.209 HD
ENDBRANCH  37  38
ENDBRANCH  33  37
BRANCH  34  40
HETATM   40  O5  UNL     1       0.890  46.384 -15.038  1.00  0.00    -0.390 OA
HETATM   41  H34 UNL     1       0.655  45.982 -15.893  1.00  0.00     0.210 HD
ENDBRANCH  34  40
BRANCH  35  42
HETATM   42  O6  UNL     1      -1.932  46.795 -13.962  1.00  0.00    -0.390 OA
HETATM   43  H36 UNL     1      -2.431  46.823 -13.118  1.00  0.00     0.210 HD
ENDBRANCH  35  42
BRANCH  36  44
HETATM   44  O7  UNL     1      -1.936  48.740 -11.999  1.00  0.00    -0.388 OA
HETATM   45  H38 UNL     1      -2.263  49.639 -11.773  1.00  0.00     0.210 HD
ENDBRANCH  36  44
ENDBRANCH  30  31
ENDBRANCH  16  30
BRANCH   3  46
HETATM   46  O1  UNL     1       5.819  56.224  -7.096  1.00  0.00    -0.390 OA
HETATM   47  H14 UNL     1       5.961  55.270  -7.242  1.00  0.00     0.210 HD
ENDBRANCH   3  46
BRANCH   1  48
HETATM   48  C4  UNL     1       3.953  59.692  -4.238  1.00  0.00     0.007 C 
HETATM   49  C2  UNL     1       4.928  60.430  -3.660  1.00  0.00    -0.089 C 
HETATM   50  C1  UNL     1       6.216  59.884  -3.107  1.00  0.00     0.042 C 
HETATM   51  C3  UNL     1       4.789  61.931  -3.536  1.00  0.00     0.042 C 
ENDBRANCH   1  48
TORSDOF 9
ENDMDL
MODEL 2
REMARK minimizedAffinity -8.63223934
REMARK CNNscore 0.792387903
REMARK CNNaffinity 6.91841698
REMARK  9 active torsions:
REMARK  status: ('A' for Active; 'I' for Inactive)
REMARK    1  A    between atoms: C4_4  and  C5_5 
REMARK    2  A    between atoms: C7_7  and  O1_9 
REMARK    3  A    between atoms: C20_21  and  O2_22 
REMARK    4  A    between atoms: O2_22  and  C21_23 
REMARK    5  A    between atoms: C22_25  and  C23_26 
REMARK    6  A    between atoms: C23_26  and  O4_27 
REMARK    7  A    between atoms: C24_28  and  O5_29 
REMARK    8  A    between atoms: C25_30  and  O6_31 
REMARK    9  A    between atoms: C26_32  and  O7_33 
ROOT
HETATM    1  C5  UNL     1       0.467  51.646 -13.049  1.00  0.00     0.147 C 
HETATM    2  C6  UNL     1      -0.985  52.050 -12.700  1.00  0.00     0.074 C 
HETATM    3  C7  UNL     1      -1.238  52.141 -11.183  1.00  0.00     0.064 C 
HETATM    4  C8  UNL     1      -1.383  50.722 -10.596  1.00  0.00     0.046 C 
HETATM    5  C9  UNL     1      -0.066  52.881 -10.504  1.00  0.00     0.058 C 
HETATM    6  C10 UNL     1       0.954  53.406 -11.530  1.00  0.00     0.131 C 
HETATM    7  C11 UNL     1       1.984  54.195 -10.686  1.00  0.00     0.042 C 
HETATM    8  C12 UNL     1       1.321  54.391  -9.276  1.00  0.00    -0.029 C 
HETATM    9  C13 UNL     1       1.992  53.335  -8.320  1.00  0.00     0.016 C 
HETATM   10  C14 UNL     1       1.467  55.797  -8.619  1.00  0.00     0.014 C 
HETATM   11  C15 UNL     1       2.933  56.258  -8.542  1.00  0.00     0.034 C 
HETATM   12  C16 UNL     1       3.382  56.907  -7.286  1.00  0.00    -0.022 C 
HETATM   13  C17 UNL     1       2.760  56.843  -6.096  1.00  0.00    -0.059 C 
HETATM   14  C18 UNL     1       1.438  56.088  -5.956  1.00  0.00     0.057 C 
HETATM   15  C19 UNL     1       0.600  56.666  -4.811  1.00  0.00     0.024 C 
HETATM   16  C20 UNL     1       0.946  57.644  -3.967  1.00  0.00     0.116 C 
HETATM   17  C27 UNL     1       2.312  58.228  -4.054  1.00  0.00     0.194 C 
HETATM   18  O8  UNL     1       2.548  59.274  -3.444  1.00  0.00    -0.289 OA
HETATM   19  C28 UNL     1       3.382  57.427  -4.811  1.00  0.00     0.044 C 
HETATM   20  C29 UNL     1       4.585  58.372  -5.042  1.00  0.00     0.028 C 
HETATM   21  C30 UNL     1       3.859  56.289  -3.881  1.00  0.00     0.028 C 
HETATM   22  C31 UNL     1       0.583  55.955  -7.306  1.00  0.00     0.032 C 
HETATM   23  C32 UNL     1      -0.286  57.236  -7.461  1.00  0.00     0.025 C 
HETATM   24  C33 UNL     1      -0.392  54.728  -7.117  1.00  0.00     0.137 C 
HETATM   25  O9  UNL     1      -0.710  54.335  -5.991  1.00  0.00    -0.297 OA
HETATM   26  C34 UNL     1      -0.979  53.956  -8.297  1.00  0.00     0.089 C 
HETATM   27  C35 UNL     1      -0.212  54.132  -9.596  1.00  0.00    -0.021 C 
HETATM   28  C36 UNL     1      -0.895  55.286 -10.411  1.00  0.00     0.017 C 
HETATM   29  O10 UNL     1       1.480  52.306 -12.255  1.00  0.00    -0.376 OA
ENDROOT
BRANCH  16  30
HETATM   30  O2  UNL     1       0.028  58.167  -3.077  1.00  0.00    -0.314 OA
BRANCH  30  31
HETATM   31  C21 UNL     1      -0.628  57.185  -2.252  1.00  0.00     0.298 C 
HETATM   32  O3  UNL     1      -1.990  57.053  -2.694  1.00  0.00    -0.348 OA
HETATM   33  C22 UNL     1      -2.918  58.012  -2.158  1.00  0.00     0.179 C 
HETATM   34  C24 UNL     1      -3.022  57.912  -0.623  1.00  0.00     0.180 C 
HETATM   35  C25 UNL     1      -1.798  57.211  -0.014  1.00  0.00     0.183 C 
HETATM   36  C26 UNL     1      -0.516  57.583  -0.758  1.00  0.00     0.205 C 
BRANCH  33  37
HETATM   37  C23 UNL     1      -2.615  59.444  -2.631  1.00  0.00     0.198 C 
BRANCH  37  38
HETATM   38  O4  UNL     1      -3.160  60.404  -1.730  1.00  0.00    -0.398 OA
HETATM   39  H32 UNL     1      -2.931  61.282  -2.085  1.00  0.00     0.209 HD
ENDBRANCH  37  38
ENDBRANCH  33  37
BRANCH  34  40
HETATM   40  O5  UNL     1      -4.182  57.130  -0.276  1.00  0.00    -0.390 OA
HETATM   41  H34 UNL     1      -4.778  57.726   0.212  1.00  0.00     0.210 HD
ENDBRANCH  34  40
BRANCH  35  42
HETATM   42  O6  UNL     1      -1.657  57.607   1.364  1.00  0.00    -0.390 OA
HETATM   43  H36 UNL     1      -0.840  57.151   1.657  1.00  0.00     0.210 HD
ENDBRANCH  35  42
BRANCH  36  44
HETATM   44  O7  UNL     1       0.583  56.920  -0.102  1.00  0.00    -0.388 OA
HETATM   45  H38 UNL     1       1.396  57.277  -0.522  1.00  0.00     0.210 HD
ENDBRANCH  36  44
ENDBRANCH  30  31
ENDBRANCH  16  30
BRANCH   3  46
HETATM   46  O1  UNL     1      -2.490  52.796 -10.976  1.00  0.00    -0.390 OA
HETATM   47  H14 UNL     1      -2.816  52.561 -10.087  1.00  0.00     0.210 HD
ENDBRANCH   3  46
BRANCH   1  48
HETATM   48  C4  UNL     1       0.757  51.943 -14.498  1.00  0.00     0.007 C 
HETATM   49  C2  UNL     1       0.704  51.090 -15.546  1.00  0.00    -0.089 C 
HETATM   50  C1  UNL     1       0.349  49.631 -15.459  1.00  0.00     0.042 C 
HETATM   51  C3  UNL     1       1.001  51.571 -16.949  1.00  0.00     0.042 C 
ENDBRANCH   1  48
TORSDOF 9
ENDMDL
MODEL 3
REMARK minimizedAffinity -8.08757973
REMARK CNNscore 0.722997367
REMARK CNNaffinity 6.67791128
REMARK  9 active torsions:
REMARK  status: ('A' for Active; 'I' for Inactive)
REMARK    1  A    between atoms: C4_4  and  C5_5 
REMARK    2  A    between atoms: C7_7  and  O1_9 
REMARK    3  A    between atoms: C20_21  and  O2_22 
REMARK    4  A    between atoms: O2_22  and  C21_23 
REMARK    5  A    between atoms: C22_25  and  C23_26 
REMARK    6  A    between atoms: C23_26  and  O4_27 
REMARK    7  A    between atoms: C24_28  and  O5_29 
REMARK    8  A    between atoms: C25_30  and  O6_31 
REMARK    9  A    between atoms: C26_32  and  O7_33 
ROOT
HETATM    1  C5  UNL     1       1.119  51.756 -12.371  1.00  0.00     0.147 C 
HETATM    2  C6  UNL     1       0.216  53.003 -12.219  1.00  0.00     0.074 C 
HETATM    3  C7  UNL     1       0.188  53.556 -10.780  1.00  0.00     0.064 C 
HETATM    4  C8  UNL     1      -0.715  52.667  -9.901  1.00  0.00     0.046 C 
HETATM    5  C9  UNL     1       1.622  53.589 -10.208  1.00  0.00     0.058 C 
HETATM    6  C10 UNL     1       2.668  53.171 -11.256  1.00  0.00     0.131 C 
HETATM    7  C11 UNL     1       4.029  53.362 -10.545  1.00  0.00     0.042 C 
HETATM    8  C12 UNL     1       3.724  54.215  -9.262  1.00  0.00    -0.029 C 
HETATM    9  C13 UNL     1       3.722  53.208  -8.051  1.00  0.00     0.016 C 
HETATM   10  C14 UNL     1       4.722  55.366  -8.929  1.00  0.00     0.014 C 
HETATM   11  C15 UNL     1       6.179  54.877  -8.860  1.00  0.00     0.034 C 
HETATM   12  C16 UNL     1       7.024  55.393  -7.755  1.00  0.00    -0.022 C 
HETATM   13  C17 UNL     1       6.581  55.971  -6.626  1.00  0.00    -0.059 C 
HETATM   14  C18 UNL     1       5.084  56.194  -6.407  1.00  0.00     0.057 C 
HETATM   15  C19 UNL     1       4.842  57.389  -5.479  1.00  0.00     0.024 C 
HETATM   16  C20 UNL     1       5.764  58.130  -4.855  1.00  0.00     0.116 C 
HETATM   17  C27 UNL     1       7.200  57.761  -4.981  1.00  0.00     0.194 C 
HETATM   18  O8  UNL     1       8.053  58.568  -4.607  1.00  0.00    -0.289 OA
HETATM   19  C28 UNL     1       7.529  56.341  -5.466  1.00  0.00     0.044 C 
HETATM   20  C29 UNL     1       9.035  56.316  -5.823  1.00  0.00     0.028 C 
HETATM   21  C30 UNL     1       7.319  55.379  -4.275  1.00  0.00     0.028 C 
HETATM   22  C31 UNL     1       4.209  56.299  -7.747  1.00  0.00     0.032 C 
HETATM   23  C32 UNL     1       4.249  57.772  -8.242  1.00  0.00     0.025 C 
HETATM   24  C33 UNL     1       2.718  55.961  -7.352  1.00  0.00     0.137 C 
HETATM   25  O9  UNL     1       2.322  56.091  -6.190  1.00  0.00    -0.297 OA
HETATM   26  C34 UNL     1       1.696  55.447  -8.365  1.00  0.00     0.089 C 
HETATM   27  C35 UNL     1       2.312  54.847  -9.616  1.00  0.00    -0.021 C 
HETATM   28  C36 UNL     1       2.375  55.968 -10.713  1.00  0.00     0.017 C 
HETATM   29  O10 UNL     1       2.387  51.847 -11.680  1.00  0.00    -0.376 OA
ENDROOT
BRANCH  16  30
HETATM   30  O2  UNL     1       5.404  59.273  -4.168  1.00  0.00    -0.314 OA
BRANCH  30  31
HETATM   31  C21 UNL     1       3.983  59.461  -4.029  1.00  0.00     0.298 C 
HETATM   32  O3  UNL     1       3.662  60.814  -4.397  1.00  0.00    -0.348 OA
HETATM   33  C22 UNL     1       3.817  61.799  -3.360  1.00  0.00     0.179 C 
HETATM   34  C24 UNL     1       2.890  61.518  -2.160  1.00  0.00     0.180 C 
HETATM   35  C25 UNL     1       2.427  60.054  -2.129  1.00  0.00     0.183 C 
HETATM   36  C26 UNL     1       3.537  59.108  -2.586  1.00  0.00     0.205 C 
BRANCH  33  37
HETATM   37  C23 UNL     1       5.286  61.972  -2.935  1.00  0.00     0.198 C 
BRANCH  37  38
HETATM   38  O4  UNL     1       6.120  62.199  -4.068  1.00  0.00    -0.398 OA
HETATM   39  H32 UNL     1       7.028  62.301  -3.729  1.00  0.00     0.209 HD
ENDBRANCH  37  38
ENDBRANCH  33  37
BRANCH  34  40
HETATM   40  O5  UNL     1       1.711  62.340  -2.270  1.00  0.00    -0.390 OA
HETATM   41  H34 UNL     1       1.719  62.935  -1.498  1.00  0.00     0.210 HD
ENDBRANCH  34  40
BRANCH  35  42
HETATM   42  O6  UNL     1       2.050  59.700  -0.784  1.00  0.00    -0.390 OA
HETATM   43  H36 UNL     1       1.811  58.752  -0.849  1.00  0.00     0.210 HD
ENDBRANCH  35  42
BRANCH  36  44
HETATM   44  O7  UNL     1       3.036  57.761  -2.489  1.00  0.00    -0.388 OA
HETATM   45  H38 UNL     1       3.807  57.179  -2.667  1.00  0.00     0.210 HD
ENDBRANCH  36  44
ENDBRANCH  30  31
ENDBRANCH  16  30
BRANCH   3  46
HETATM   46  O1  UNL     1      -0.419  54.848 -10.809  1.00  0.00    -0.390 OA
HETATM   47  H14 UNL     1      -0.747  55.053  -9.914  1.00  0.00     0.210 HD
ENDBRANCH   3  46
BRANCH   1  48
HETATM   48  C4  UNL     1       1.410  51.498 -13.827  1.00  0.00     0.007 C 
HETATM   49  C2  UNL     1       0.617  50.885 -14.735  1.00  0.00    -0.089 C 
HETATM   50  C1  UNL     1      -0.745  50.313 -14.451  1.00  0.00     0.042 C 
HETATM   51  C3  UNL     1       1.061  50.737 -16.174  1.00  0.00     0.042 C 
ENDBRANCH   1  48
TORSDOF 9
ENDMDL
MODEL 4
REMARK minimizedAffinity -7.59550762
REMARK CNNscore 0.671322644
REMARK CNNaffinity 7.17430735
REMARK  9 active torsions:
REMARK  status: ('A' for Active; 'I' for Inactive)
REMARK    1  A    between atoms: C4_4  and  C5_5 
REMARK    2  A    between atoms: C7_7  and  O1_9 
REMARK    3  A    between atoms: C20_21  and  O2_22 
REMARK    4  A    between atoms: O2_22  and  C21_23 
REMARK    5  A    between atoms: C22_25  and  C23_26 
REMARK    6  A    between atoms: C23_26  and  O4_27 
REMARK    7  A    between atoms: C24_28  and  O5_29 
REMARK    8  A    between atoms: C25_30  and  O6_31 
REMARK    9  A    between atoms: C26_32  and  O7_33 
ROOT
HETATM    1  C5  UNL     1      -1.780  50.792 -25.781  1.00  0.00     0.147 C 
HETATM    2  C6  UNL     1      -3.315  50.725 -25.957  1.00  0.00     0.074 C 
HETATM    3  C7  UNL     1      -3.928  49.420 -25.411  1.00  0.00     0.064 C 
HETATM    4  C8  UNL     1      -3.660  48.267 -26.400  1.00  0.00     0.046 C 
HETATM    5  C9  UNL     1      -3.313  49.094 -24.033  1.00  0.00     0.058 C 
HETATM    6  C10 UNL     1      -2.358  50.201 -23.554  1.00  0.00     0.131 C 
HETATM    7  C11 UNL     1      -1.927  49.757 -22.136  1.00  0.00     0.042 C 
HETATM    8  C12 UNL     1      -2.922  48.613 -21.726  1.00  0.00    -0.029 C 
HETATM    9  C13 UNL     1      -2.144  47.258 -21.918  1.00  0.00     0.016 C 
HETATM   10  C14 UNL     1      -3.473  48.649 -20.267  1.00  0.00     0.014 C 
HETATM   11  C15 UNL     1      -2.349  48.723 -19.219  1.00  0.00     0.034 C 
HETATM   12  C16 UNL     1      -2.482  47.872 -18.010  1.00  0.00    -0.022 C 
HETATM   13  C17 UNL     1      -3.292  46.808 -17.878  1.00  0.00    -0.059 C 
HETATM   14  C18 UNL     1      -4.226  46.401 -19.019  1.00  0.00     0.057 C 
HETATM   15  C19 UNL     1      -5.460  45.673 -18.478  1.00  0.00     0.024 C 
HETATM   16  C20 UNL     1      -5.713  45.341 -17.207  1.00  0.00     0.116 C 
HETATM   17  C27 UNL     1      -4.689  45.622 -16.166  1.00  0.00     0.194 C 
HETATM   18  O8  UNL     1      -5.012  45.535 -14.979  1.00  0.00    -0.289 OA
HETATM   19  C28 UNL     1      -3.252  45.894 -16.636  1.00  0.00     0.044 C 
HETATM   20  C29 UNL     1      -2.475  46.471 -15.429  1.00  0.00     0.028 C 
HETATM   21  C30 UNL     1      -2.611  44.534 -16.992  1.00  0.00     0.028 C 
HETATM   22  C31 UNL     1      -4.630  47.585 -20.023  1.00  0.00     0.032 C 
HETATM   23  C32 UNL     1      -5.855  48.333 -19.426  1.00  0.00     0.025 C 
HETATM   24  C33 UNL     1      -5.086  46.909 -21.375  1.00  0.00     0.137 C 
HETATM   25  O9  UNL     1      -5.485  45.741 -21.399  1.00  0.00    -0.297 OA
HETATM   26  C34 UNL     1      -5.048  47.643 -22.714  1.00  0.00     0.089 C 
HETATM   27  C35 UNL     1      -4.125  48.849 -22.733  1.00  0.00    -0.021 C 
HETATM   28  C36 UNL     1      -4.984  50.123 -22.411  1.00  0.00     0.017 C 
HETATM   29  O10 UNL     1      -1.304  50.335 -24.493  1.00  0.00    -0.376 OA
ENDROOT
BRANCH  16  30
HETATM   30  O2  UNL     1      -6.940  44.820 -16.844  1.00  0.00    -0.314 OA
BRANCH  30  31
HETATM   31  C21 UNL     1      -7.298  43.607 -17.532  1.00  0.00     0.298 C 
HETATM   32  O3  UNL     1      -8.722  43.427 -17.432  1.00  0.00    -0.348 OA
HETATM   33  C22 UNL     1      -9.189  42.792 -16.228  1.00  0.00     0.179 C 
HETATM   34  C24 UNL     1      -8.629  41.363 -16.080  1.00  0.00     0.180 C 
HETATM   35  C25 UNL     1      -7.368  41.154 -16.932  1.00  0.00     0.183 C 
HETATM   36  C26 UNL     1      -6.498  42.410 -16.956  1.00  0.00     0.205 C 
BRANCH  33  37
HETATM   37  C23 UNL     1      -8.932  43.652 -14.978  1.00  0.00     0.198 C 
BRANCH  37  38
HETATM   38  O4  UNL     1     -10.109  43.756 -14.181  1.00  0.00    -0.398 OA
HETATM   39  H32 UNL     1      -9.878  44.306 -13.412  1.00  0.00     0.209 HD
ENDBRANCH  37  38
ENDBRANCH  33  37
BRANCH  34  40
HETATM   40  O5  UNL     1      -9.618  40.417 -16.536  1.00  0.00    -0.390 OA
HETATM   41  H34 UNL     1      -9.858  39.878 -15.761  1.00  0.00     0.210 HD
ENDBRANCH  34  40
BRANCH  35  42
HETATM   42  O6  UNL     1      -6.593  40.072 -16.380  1.00  0.00    -0.390 OA
HETATM   43  H36 UNL     1      -5.798  40.036 -16.953  1.00  0.00     0.210 HD
ENDBRANCH  35  42
BRANCH  36  44
HETATM   44  O7  UNL     1      -5.323  42.118 -17.738  1.00  0.00    -0.388 OA
HETATM   45  H38 UNL     1      -4.733  42.895 -17.628  1.00  0.00     0.210 HD
ENDBRANCH  36  44
ENDBRANCH  30  31
ENDBRANCH  16  30
BRANCH   3  46
HETATM   46  O1  UNL     1      -5.346  49.582 -25.351  1.00  0.00    -0.390 OA
HETATM   47  H14 UNL     1      -5.756  48.697 -25.343  1.00  0.00     0.210 HD
ENDBRANCH   3  46
BRANCH   1  48
HETATM   48  C4  UNL     1      -1.296  52.208 -25.970  1.00  0.00     0.007 C 
HETATM   49  C2  UNL     1      -0.038  52.625 -26.237  1.00  0.00    -0.089 C 
HETATM   50  C1  UNL     1       1.160  51.727 -26.387  1.00  0.00     0.042 C 
HETATM   51  C3  UNL     1       0.265  54.095 -26.426  1.00  0.00     0.042 C 
ENDBRANCH   1  48
TORSDOF 9
ENDMDL
MODEL 5
REMARK minimizedAffinity -8.85795498
REMARK CNNscore 0.632818878
REMARK CNNaffinity 7.21735191
REMARK  9 active torsions:
REMARK  status: ('A' for Active; 'I' for Inactive)
REMARK    1  A    between atoms: C4_4  and  C5_5 
REMARK    2  A    between atoms: C7_7  and  O1_9 
REMARK    3  A    between atoms: C20_21  and  O2_22 
REMARK    4  A    between atoms: O2_22  and  C21_23 
REMARK    5  A    between atoms: C22_25  and  C23_26 
REMARK    6  A    between atoms: C23_26  and  O4_27 
REMARK    7  A    between atoms: C24_28  and  O5_29 
REMARK    8  A    between atoms: C25_30  and  O6_31 
REMARK    9  A    between atoms: C26_32  and  O7_33 
ROOT
HETATM    1  C5  UNL     1       4.166  58.774  -3.916  1.00  0.00     0.147 C 
HETATM    2  C6  UNL     1       5.346  58.219  -4.749  1.00  0.00     0.074 C 
HETATM    3  C7  UNL     1       5.129  56.763  -5.208  1.00  0.00     0.064 C 
HETATM    4  C8  UNL     1       5.378  55.805  -4.025  1.00  0.00     0.046 C 
HETATM    5  C9  UNL     1       3.688  56.594  -5.735  1.00  0.00     0.058 C 
HETATM    6  C10 UNL     1       2.923  57.929  -5.756  1.00  0.00     0.131 C 
HETATM    7  C11 UNL     1       1.559  57.587  -6.400  1.00  0.00     0.042 C 
HETATM    8  C12 UNL     1       1.736  56.165  -7.044  1.00  0.00    -0.029 C 
HETATM    9  C13 UNL     1       1.042  55.146  -6.065  1.00  0.00     0.016 C 
HETATM   10  C14 UNL     1       1.129  55.955  -8.465  1.00  0.00     0.014 C 
HETATM   11  C15 UNL     1      -0.358  56.344  -8.531  1.00  0.00     0.034 C 
HETATM   12  C16 UNL     1      -1.269  55.443  -9.280  1.00  0.00    -0.022 C 
HETATM   13  C17 UNL     1      -1.015  54.169  -9.623  1.00  0.00    -0.059 C 
HETATM   14  C18 UNL     1       0.334  53.532  -9.285  1.00  0.00     0.057 C 
HETATM   15  C19 UNL     1       0.675  52.420 -10.281  1.00  0.00     0.024 C 
HETATM   16  C20 UNL     1      -0.087  51.968 -11.284  1.00  0.00     0.116 C 
HETATM   17  C27 UNL     1      -1.458  52.520 -11.460  1.00  0.00     0.194 C 
HETATM   18  O8  UNL     1      -2.062  52.280 -12.507  1.00  0.00    -0.289 OA
HETATM   19  C28 UNL     1      -2.083  53.263 -10.270  1.00  0.00     0.044 C 
HETATM   20  C29 UNL     1      -3.332  54.008 -10.799  1.00  0.00     0.028 C 
HETATM   21  C30 UNL     1      -2.571  52.202  -9.259  1.00  0.00     0.028 C 
HETATM   22  C31 UNL     1       1.550  54.564  -9.112  1.00  0.00     0.032 C 
HETATM   23  C32 UNL     1       2.153  54.847 -10.516  1.00  0.00     0.025 C 
HETATM   24  C33 UNL     1       2.653  53.836  -8.247  1.00  0.00     0.137 C 
HETATM   25  O9  UNL     1       2.706  52.605  -8.188  1.00  0.00    -0.297 OA
HETATM   26  C34 UNL     1       3.696  54.602  -7.434  1.00  0.00     0.089 C 
HETATM   27  C35 UNL     1       3.315  56.041  -7.137  1.00  0.00    -0.021 C 
HETATM   28  C36 UNL     1       3.959  56.953  -8.241  1.00  0.00     0.017 C 
HETATM   29  O10 UNL     1       2.857  58.439  -4.434  1.00  0.00    -0.376 OA
ENDROOT
BRANCH  16  30
HETATM   30  O2  UNL     1       0.414  51.061 -12.198  1.00  0.00    -0.314 OA
BRANCH  30  31
HETATM   31  C21 UNL     1       1.692  50.501 -11.842  1.00  0.00     0.298 C 
HETATM   32  O3  UNL     1       2.726  51.308 -12.431  1.00  0.00    -0.348 OA
HETATM   33  C22 UNL     1       3.057  51.001 -13.797  1.00  0.00     0.179 C 
HETATM   34  C24 UNL     1       3.588  49.561 -13.948  1.00  0.00     0.180 C 
HETATM   35  C25 UNL     1       3.172  48.674 -12.764  1.00  0.00     0.183 C 
HETATM   36  C26 UNL     1       1.764  49.015 -12.280  1.00  0.00     0.205 C 
BRANCH  33  37
HETATM   37  C23 UNL     1       1.895  51.299 -14.760  1.00  0.00     0.198 C 
BRANCH  37  38
HETATM   38  O4  UNL     1       1.379  52.610 -14.546  1.00  0.00    -0.398 OA
HETATM   39  H32 UNL     1       0.654  52.732 -15.185  1.00  0.00     0.209 HD
ENDBRANCH  37  38
ENDBRANCH  33  37
BRANCH  34  40
HETATM   40  O5  UNL     1       5.030  49.588 -13.979  1.00  0.00    -0.390 OA
HETATM   41  H34 UNL     1       5.290  49.255 -14.856  1.00  0.00     0.210 HD
ENDBRANCH  34  40
BRANCH  35  42
HETATM   42  O6  UNL     1       3.193  47.293 -13.173  1.00  0.00    -0.390 OA
HETATM   43  H36 UNL     1       2.880  46.809 -12.380  1.00  0.00     0.210 HD
ENDBRANCH  35  42
BRANCH  36  44
HETATM   44  O7  UNL     1       1.438  48.116 -11.203  1.00  0.00    -0.388 OA
HETATM   45  H38 UNL     1       0.490  48.276 -11.003  1.00  0.00     0.210 HD
ENDBRANCH  36  44
ENDBRANCH  30  31
ENDBRANCH  16  30
BRANCH   3  46
HETATM   46  O1  UNL     1       6.112  56.454  -6.195  1.00  0.00    -0.390 OA
HETATM   47  H14 UNL     1       6.209  55.484  -6.239  1.00  0.00     0.210 HD
ENDBRANCH   3  46
BRANCH   1  48
HETATM   48  C4  UNL     1       4.252  60.276  -3.828  1.00  0.00     0.007 C 
HETATM   49  C2  UNL     1       3.588  61.096  -2.982  1.00  0.00    -0.089 C 
HETATM   50  C1  UNL     1       2.596  60.651  -1.943  1.00  0.00     0.042 C 
HETATM   51  C3  UNL     1       3.820  62.591  -3.014  1.00  0.00     0.042 C 
ENDBRANCH   1  48
TORSDOF 9
ENDMDL
MODEL 6
REMARK minimizedAffinity -10.1956244
REMARK CNNscore 0.577901959
REMARK CNNaffinity 7.1899972
REMARK  9 active torsions:
REMARK  status: ('A' for Active; 'I' for Inactive)
REMARK    1  A    between atoms: C4_4  and  C5_5 
REMARK    2  A    between atoms: C7_7  and  O1_9 
REMARK    3  A    between atoms: C20_21  and  O2_22 
REMARK    4  A    between atoms: O2_22  and  C21_23 
REMARK    5  A    between atoms: C22_25  and  C23_26 
REMARK    6  A    between atoms: C23_26  and  O4_27 
REMARK    7  A    between atoms: C24_28  and  O5_29 
REMARK    8  A    between atoms: C25_30  and  O6_31 
REMARK    9  A    between atoms: C26_32  and  O7_33 
ROOT
HETATM    1  C5  UNL     1      -0.029  51.218 -15.022  1.00  0.00     0.147 C 
HETATM    2  C6  UNL     1      -1.057  50.137 -14.612  1.00  0.00     0.074 C 
HETATM    3  C7  UNL     1      -2.366  50.210 -15.424  1.00  0.00     0.064 C 
HETATM    4  C8  UNL     1      -3.232  51.378 -14.907  1.00  0.00     0.046 C 
HETATM    5  C9  UNL     1      -2.039  50.411 -16.919  1.00  0.00     0.058 C 
HETATM    6  C10 UNL     1      -0.524  50.372 -17.186  1.00  0.00     0.131 C 
HETATM    7  C11 UNL     1      -0.397  50.484 -18.724  1.00  0.00     0.042 C 
HETATM    8  C12 UNL     1      -1.837  50.220 -19.292  1.00  0.00    -0.029 C 
HETATM    9  C13 UNL     1      -2.430  51.629 -19.670  1.00  0.00     0.016 C 
HETATM   10  C14 UNL     1      -1.942  49.301 -20.548  1.00  0.00     0.014 C 
HETATM   11  C15 UNL     1      -1.039  49.778 -21.698  1.00  0.00     0.034 C 
HETATM   12  C16 UNL     1      -1.605  49.751 -23.069  1.00  0.00    -0.022 C 
HETATM   13  C17 UNL     1      -2.909  49.676 -23.385  1.00  0.00    -0.059 C 
HETATM   14  C18 UNL     1      -3.965  49.559 -22.285  1.00  0.00     0.057 C 
HETATM   15  C19 UNL     1      -5.214  48.839 -22.803  1.00  0.00     0.024 C 
HETATM   16  C20 UNL     1      -5.444  48.413 -24.050  1.00  0.00     0.116 C 
HETATM   17  C27 UNL     1      -4.444  48.701 -25.113  1.00  0.00     0.194 C 
HETATM   18  O8  UNL     1      -4.541  48.113 -26.192  1.00  0.00    -0.289 OA
HETATM   19  C28 UNL     1      -3.412  49.805 -24.838  1.00  0.00     0.044 C 
HETATM   20  C29 UNL     1      -2.312  49.686 -25.920  1.00  0.00     0.028 C 
HETATM   21  C30 UNL     1      -4.116  51.165 -25.042  1.00  0.00     0.028 C 
HETATM   22  C31 UNL     1      -3.444  48.923 -20.907  1.00  0.00     0.032 C 
HETATM   23  C32 UNL     1      -3.539  47.376 -21.018  1.00  0.00     0.025 C 
HETATM   24  C33 UNL     1      -4.443  49.391 -19.777  1.00  0.00     0.137 C 
HETATM   25  O9  UNL     1      -5.595  49.740 -20.050  1.00  0.00    -0.297 OA
HETATM   26  C34 UNL     1      -4.044  49.452 -18.303  1.00  0.00     0.089 C 
HETATM   27  C35 UNL     1      -2.545  49.499 -18.068  1.00  0.00    -0.021 C 
HETATM   28  C36 UNL     1      -2.046  48.031 -17.822  1.00  0.00     0.017 C 
HETATM   29  O10 UNL     1       0.097  51.414 -16.450  1.00  0.00    -0.376 OA
ENDROOT
BRANCH  16  30
HETATM   30  O2  UNL     1      -6.554  47.642 -24.339  1.00  0.00    -0.314 OA
BRANCH  30  31
HETATM   31  C21 UNL     1      -7.640  48.367 -24.947  1.00  0.00     0.298 C 
HETATM   32  O3  UNL     1      -8.726  48.437 -24.007  1.00  0.00    -0.348 OA
HETATM   33  C22 UNL     1      -9.603  47.297 -23.979  1.00  0.00     0.179 C 
HETATM   34  C24 UNL     1     -10.307  47.083 -25.335  1.00  0.00     0.180 C 
HETATM   35  C25 UNL     1      -9.557  47.778 -26.481  1.00  0.00     0.183 C 
HETATM   36  C26 UNL     1      -8.044  47.699 -26.286  1.00  0.00     0.205 C 
BRANCH  33  37
HETATM   37  C23 UNL     1      -8.893  46.027 -23.482  1.00  0.00     0.198 C 
BRANCH  37  38
HETATM   38  O4  UNL     1      -8.657  45.121 -24.557  1.00  0.00    -0.398 OA
HETATM   39  H32 UNL     1      -8.207  44.346 -24.176  1.00  0.00     0.209 HD
ENDBRANCH  37  38
ENDBRANCH  33  37
BRANCH  34  40
HETATM   40  O5  UNL     1     -11.630  47.653 -25.278  1.00  0.00    -0.390 OA
HETATM   41  H34 UNL     1     -12.252  46.912 -25.392  1.00  0.00     0.210 HD
ENDBRANCH  34  40
BRANCH  35  42
HETATM   42  O6  UNL     1      -9.891  47.137 -27.728  1.00  0.00    -0.390 OA
HETATM   43  H36 UNL     1      -9.345  47.611 -28.390  1.00  0.00     0.210 HD
ENDBRANCH  35  42
BRANCH  36  44
HETATM   44  O7  UNL     1      -7.419  48.334 -27.419  1.00  0.00    -0.388 OA
HETATM   45  H38 UNL     1      -6.458  48.156 -27.325  1.00  0.00     0.210 HD
ENDBRANCH  36  44
ENDBRANCH  30  31
ENDBRANCH  16  30
BRANCH   3  46
HETATM   46  O1  UNL     1      -3.110  49.015 -15.182  1.00  0.00    -0.390 OA
HETATM   47  H14 UNL     1      -4.046  49.188 -15.395  1.00  0.00     0.210 HD
ENDBRANCH   3  46
BRANCH   1  48
HETATM   48  C4  UNL     1       1.336  50.868 -14.487  1.00  0.00     0.007 C 
HETATM   49  C2  UNL     1       2.535  51.333 -14.905  1.00  0.00    -0.089 C 
HETATM   50  C1  UNL     1       2.741  52.309 -16.031  1.00  0.00     0.042 C 
HETATM   51  C3  UNL     1       3.814  50.891 -14.229  1.00  0.00     0.042 C 
ENDBRANCH   1  48
TORSDOF 9
ENDMDL
MODEL 7
REMARK minimizedAffinity -9.01295471
REMARK CNNscore 0.511905074
REMARK CNNaffinity 6.58779955
REMARK  9 active torsions:
REMARK  status: ('A' for Active; 'I' for Inactive)
REMARK    1  A    between atoms: C4_4  and  C5_5 
REMARK    2  A    between atoms: C7_7  and  O1_9 
REMARK    3  A    between atoms: C20_21  and  O2_22 
REMARK    4  A    between atoms: O2_22  and  C21_23 
REMARK    5  A    between atoms: C22_25  and  C23_26 
REMARK    6  A    between atoms: C23_26  and  O4_27 
REMARK    7  A    between atoms: C24_28  and  O5_29 
REMARK    8  A    between atoms: C25_30  and  O6_31 
REMARK    9  A    between atoms: C26_32  and  O7_33 
ROOT
HETATM    1  C5  UNL     1     -15.164  46.735 -25.437  1.00  0.00     0.147 C 
HETATM    2  C6  UNL     1     -14.960  45.202 -25.476  1.00  0.00     0.074 C 
HETATM    3  C7  UNL     1     -14.405  44.702 -26.824  1.00  0.00     0.064 C 
HETATM    4  C8  UNL     1     -15.535  44.683 -27.875  1.00  0.00     0.046 C 
HETATM    5  C9  UNL     1     -13.260  45.627 -27.290  1.00  0.00     0.058 C 
HETATM    6  C10 UNL     1     -12.929  46.704 -26.243  1.00  0.00     0.131 C 
HETATM    7  C11 UNL     1     -11.711  47.457 -26.830  1.00  0.00     0.042 C 
HETATM    8  C12 UNL     1     -11.178  46.558 -28.002  1.00  0.00    -0.029 C 
HETATM    9  C13 UNL     1     -11.685  47.222 -29.336  1.00  0.00     0.016 C 
HETATM   10  C14 UNL     1      -9.632  46.384 -28.109  1.00  0.00     0.014 C 
HETATM   11  C15 UNL     1      -8.893  47.733 -28.147  1.00  0.00     0.034 C 
HETATM   12  C16 UNL     1      -7.776  47.875 -29.113  1.00  0.00    -0.022 C 
HETATM   13  C17 UNL     1      -7.549  47.090 -30.180  1.00  0.00    -0.059 C 
HETATM   14  C18 UNL     1      -8.455  45.892 -30.464  1.00  0.00     0.057 C 
HETATM   15  C19 UNL     1      -7.697  44.806 -31.235  1.00  0.00     0.024 C 
HETATM   16  C20 UNL     1      -6.441  44.863 -31.690  1.00  0.00     0.116 C 
HETATM   17  C27 UNL     1      -5.664  46.121 -31.521  1.00  0.00     0.194 C 
HETATM   18  O8  UNL     1      -4.448  46.097 -31.725  1.00  0.00    -0.289 OA
HETATM   19  C28 UNL     1      -6.448  47.405 -31.214  1.00  0.00     0.044 C 
HETATM   20  C29 UNL     1      -5.421  48.473 -30.765  1.00  0.00     0.028 C 
HETATM   21  C30 UNL     1      -7.079  47.897 -32.536  1.00  0.00     0.028 C 
HETATM   22  C31 UNL     1      -9.211  45.290 -29.183  1.00  0.00     0.032 C 
HETATM   23  C32 UNL     1      -8.261  44.273 -28.490  1.00  0.00     0.025 C 
HETATM   24  C33 UNL     1     -10.465  44.495 -29.719  1.00  0.00     0.137 C 
HETATM   25  O9  UNL     1     -10.501  44.066 -30.875  1.00  0.00    -0.297 OA
HETATM   26  C34 UNL     1     -11.696  44.225 -28.854  1.00  0.00     0.089 C 
HETATM   27  C35 UNL     1     -11.829  45.152 -27.659  1.00  0.00    -0.021 C 
HETATM   28  C36 UNL     1     -11.184  44.439 -26.417  1.00  0.00     0.017 C 
HETATM   29  O10 UNL     1     -14.084  47.498 -26.023  1.00  0.00    -0.376 OA
ENDROOT
BRANCH  16  30
HETATM   30  O2  UNL     1      -5.837  43.748 -32.236  1.00  0.00    -0.314 OA
BRANCH  30  31
HETATM   31  C21 UNL     1      -6.756  42.756 -32.733  1.00  0.00     0.298 C 
HETATM   32  O3  UNL     1      -6.311  41.460 -32.295  1.00  0.00    -0.348 OA
HETATM   33  C22 UNL     1      -5.309  40.832 -33.114  1.00  0.00     0.179 C 
HETATM   34  C24 UNL     1      -5.819  40.577 -34.547  1.00  0.00     0.180 C 
HETATM   35  C25 UNL     1      -7.020  41.471 -34.891  1.00  0.00     0.183 C 
HETATM   36  C26 UNL     1      -6.874  42.862 -34.275  1.00  0.00     0.205 C 
BRANCH  33  37
HETATM   37  C23 UNL     1      -3.976  41.600 -33.097  1.00  0.00     0.198 C 
BRANCH  37  38
HETATM   38  O4  UNL     1      -2.986  40.884 -32.363  1.00  0.00    -0.398 OA
HETATM   39  H32 UNL     1      -2.173  41.421 -32.394  1.00  0.00     0.209 HD
ENDBRANCH  37  38
ENDBRANCH  33  37
BRANCH  34  40
HETATM   40  O5  UNL     1      -6.256  39.208 -34.658  1.00  0.00    -0.390 OA
HETATM   41  H34 UNL     1      -5.673  38.787 -35.315  1.00  0.00     0.210 HD
ENDBRANCH  34  40
BRANCH  35  42
HETATM   42  O6  UNL     1      -7.115  41.613 -36.322  1.00  0.00    -0.390 OA
HETATM   43  H36 UNL     1      -7.872  42.223 -36.448  1.00  0.00     0.210 HD
ENDBRANCH  35  42
BRANCH  36  44
HETATM   44  O7  UNL     1      -8.015  43.645 -34.678  1.00  0.00    -0.388 OA
HETATM   45  H38 UNL     1      -7.828  44.560 -34.373  1.00  0.00     0.210 HD
ENDBRANCH  36  44
ENDBRANCH  30  31
ENDBRANCH  16  30
BRANCH   3  46
HETATM   46  O1  UNL     1     -13.981  43.348 -26.660  1.00  0.00    -0.390 OA
HETATM   47  H14 UNL     1     -13.955  42.926 -27.538  1.00  0.00     0.210 HD
ENDBRANCH   3  46
BRANCH   1  48
HETATM   48  C4  UNL     1     -15.331  47.202 -24.013  1.00  0.00     0.007 C 
HETATM   49  C2  UNL     1     -14.509  46.974 -22.964  1.00  0.00    -0.089 C 
HETATM   50  C1  UNL     1     -13.236  46.174 -23.017  1.00  0.00     0.042 C 
HETATM   51  C3  UNL     1     -14.821  47.547 -21.599  1.00  0.00     0.042 C 
ENDBRANCH   1  48
TORSDOF 9
ENDMDL
MODEL 8
REMARK minimizedAffinity -7.87787151
REMARK CNNscore 0.507483006
REMARK CNNaffinity 6.12769651
REMARK  9 active torsions:
REMARK  status: ('A' for Active; 'I' for Inactive)
REMARK    1  A    between atoms: C4_4  and  C5_5 
REMARK    2  A    between atoms: C7_7  and  O1_9 
REMARK    3  A    between atoms: C20_21  and  O2_22 
REMARK    4  A    between atoms: O2_22  and  C21_23 
REMARK    5  A    between atoms: C22_25  and  C23_26 
REMARK    6  A    between atoms: C23_26  and  O4_27 
REMARK    7  A    between atoms: C24_28  and  O5_29 
REMARK    8  A    between atoms: C25_30  and  O6_31 
REMARK    9  A    between atoms: C26_32  and  O7_33 
ROOT
HETATM    1  C5  UNL     1       2.154  51.670 -12.456  1.00  0.00     0.147 C 
HETATM    2  C6  UNL     1       0.671  51.833 -12.045  1.00  0.00     0.074 C 
HETATM    3  C7  UNL     1       0.471  51.890 -10.518  1.00  0.00     0.064 C 
HETATM    4  C8  UNL     1       0.586  50.469  -9.927  1.00  0.00     0.046 C 
HETATM    5  C9  UNL     1       1.534  52.816  -9.889  1.00  0.00     0.058 C 
HETATM    6  C10 UNL     1       2.409  53.495 -10.957  1.00  0.00     0.131 C 
HETATM    7  C11 UNL     1       3.331  54.447 -10.158  1.00  0.00     0.042 C 
HETATM    8  C12 UNL     1       2.705  54.540  -8.721  1.00  0.00    -0.029 C 
HETATM    9  C13 UNL     1       3.580  53.614  -7.795  1.00  0.00     0.016 C 
HETATM   10  C14 UNL     1       2.646  55.955  -8.068  1.00  0.00     0.014 C 
HETATM   11  C15 UNL     1       4.019  56.650  -8.053  1.00  0.00     0.034 C 
HETATM   12  C16 UNL     1       4.408  57.372  -6.817  1.00  0.00    -0.022 C 
HETATM   13  C17 UNL     1       3.855  57.214  -5.602  1.00  0.00    -0.059 C 
HETATM   14  C18 UNL     1       2.682  56.253  -5.406  1.00  0.00     0.057 C 
HETATM   15  C19 UNL     1       1.810  56.692  -4.225  1.00  0.00     0.024 C 
HETATM   16  C20 UNL     1       2.027  57.718  -3.396  1.00  0.00     0.116 C 
HETATM   17  C27 UNL     1       3.273  58.518  -3.541  1.00  0.00     0.194 C 
HETATM   18  O8  UNL     1       3.360  59.592  -2.940  1.00  0.00    -0.289 OA
HETATM   19  C28 UNL     1       4.427  57.899  -4.344  1.00  0.00     0.044 C 
HETATM   20  C29 UNL     1       5.448  59.028  -4.625  1.00  0.00     0.028 C 
HETATM   21  C30 UNL     1       5.124  56.860  -3.437  1.00  0.00     0.028 C 
HETATM   22  C31 UNL     1       1.804  55.974  -6.719  1.00  0.00     0.032 C 
HETATM   23  C32 UNL     1       0.732  57.093  -6.835  1.00  0.00     0.025 C 
HETATM   24  C33 UNL     1       1.053  54.604  -6.489  1.00  0.00     0.137 C 
HETATM   25  O9  UNL     1       0.851  54.171  -5.351  1.00  0.00    -0.297 OA
HETATM   26  C34 UNL     1       0.551  53.739  -7.644  1.00  0.00     0.089 C 
HETATM   27  C35 UNL     1       1.223  54.031  -8.974  1.00  0.00    -0.021 C 
HETATM   28  C36 UNL     1       0.326  55.053  -9.758  1.00  0.00     0.017 C 
HETATM   29  O10 UNL     1       3.077  52.492 -11.706  1.00  0.00    -0.376 OA
ENDROOT
BRANCH  16  30
HETATM   30  O2  UNL     1       1.074  58.089  -2.467  1.00  0.00    -0.314 OA
BRANCH  30  31
HETATM   31  C21 UNL     1      -0.063  58.776  -3.023  1.00  0.00     0.298 C 
HETATM   32  O3  UNL     1      -0.144  60.083  -2.427  1.00  0.00    -0.348 OA
HETATM   33  C22 UNL     1      -0.818  60.151  -1.159  1.00  0.00     0.179 C 
HETATM   34  C24 UNL     1      -2.292  59.709  -1.269  1.00  0.00     0.180 C 
HETATM   35  C25 UNL     1      -2.537  58.854  -2.521  1.00  0.00     0.183 C 
HETATM   36  C26 UNL     1      -1.349  57.937  -2.811  1.00  0.00     0.205 C 
BRANCH  33  37
HETATM   37  C23 UNL     1      -0.062  59.394  -0.054  1.00  0.00     0.198 C 
BRANCH  37  38
HETATM   38  O4  UNL     1       1.306  59.790  -0.009  1.00  0.00    -0.398 OA
HETATM   39  H32 UNL     1       1.721  59.278   0.708  1.00  0.00     0.209 HD
ENDBRANCH  37  38
ENDBRANCH  33  37
BRANCH  34  40
HETATM   40  O5  UNL     1      -3.131  60.877  -1.374  1.00  0.00    -0.390 OA
HETATM   41  H34 UNL     1      -3.700  60.877  -0.584  1.00  0.00     0.210 HD
ENDBRANCH  34  40
BRANCH  35  42
HETATM   42  O6  UNL     1      -3.707  58.037  -2.320  1.00  0.00    -0.390 OA
HETATM   43  H36 UNL     1      -3.764  57.502  -3.139  1.00  0.00     0.210 HD
ENDBRANCH  35  42
BRANCH  36  44
HETATM   44  O7  UNL     1      -1.676  57.145  -3.970  1.00  0.00    -0.388 OA
HETATM   45  H38 UNL     1      -0.953  56.486  -4.052  1.00  0.00     0.210 HD
ENDBRANCH  36  44
ENDBRANCH  30  31
ENDBRANCH  16  30
BRANCH   3  46
HETATM   46  O1  UNL     1      -0.861  52.331 -10.257  1.00  0.00    -0.390 OA
HETATM   47  H14 UNL     1      -1.106  52.051  -9.355  1.00  0.00     0.210 HD
ENDBRANCH   3  46
BRANCH   1  48
HETATM   48  C4  UNL     1       2.329  52.002 -13.916  1.00  0.00     0.007 C 
HETATM   49  C2  UNL     1       1.864  51.316 -14.984  1.00  0.00    -0.089 C 
HETATM   50  C1  UNL     1       1.070  50.040 -14.916  1.00  0.00     0.042 C 
HETATM   51  C3  UNL     1       2.112  51.815 -16.391  1.00  0.00     0.042 C 
ENDBRANCH   1  48
TORSDOF 9
ENDMDL
MODEL 9
REMARK minimizedAffinity -9.39457798
REMARK CNNscore 0.464267343
REMARK CNNaffinity 7.10923243
REMARK  9 active torsions:
REMARK  status: ('A' for Active; 'I' for Inactive)
REMARK    1  A    between atoms: C4_4  and  C5_5 
REMARK    2  A    between atoms: C7_7  and  O1_9 
REMARK    3  A    between atoms: C20_21  and  O2_22 
REMARK    4  A    between atoms: O2_22  and  C21_23 
REMARK    5  A    between atoms: C22_25  and  C23_26 
REMARK    6  A    between atoms: C23_26  and  O4_27 
REMARK    7  A    between atoms: C24_28  and  O5_29 
REMARK    8  A    between atoms: C25_30  and  O6_31 
REMARK    9  A    between atoms: C26_32  and  O7_33 
ROOT
HETATM    1  C5  UNL     1      -1.647  51.025 -25.483  1.00  0.00     0.147 C 
HETATM    2  C6  UNL     1      -3.145  50.909 -25.113  1.00  0.00     0.074 C 
HETATM    3  C7  UNL     1      -3.416  49.863 -24.014  1.00  0.00     0.064 C 
HETATM    4  C8  UNL     1      -3.349  48.446 -24.621  1.00  0.00     0.046 C 
HETATM    5  C9  UNL     1      -2.370  50.010 -22.888  1.00  0.00     0.058 C 
HETATM    6  C10 UNL     1      -1.437  51.209 -23.124  1.00  0.00     0.131 C 
HETATM    7  C11 UNL     1      -0.540  51.259 -21.864  1.00  0.00     0.042 C 
HETATM    8  C12 UNL     1      -1.231  50.320 -20.811  1.00  0.00    -0.029 C 
HETATM    9  C13 UNL     1      -0.414  48.975 -20.813  1.00  0.00     0.016 C 
HETATM   10  C14 UNL     1      -1.300  50.840 -19.342  1.00  0.00     0.014 C 
HETATM   11  C15 UNL     1       0.081  51.253 -18.803  1.00  0.00     0.034 C 
HETATM   12  C16 UNL     1       0.422  50.852 -17.415  1.00  0.00    -0.022 C 
HETATM   13  C17 UNL     1      -0.189  49.895 -16.696  1.00  0.00    -0.059 C 
HETATM   14  C18 UNL     1      -1.384  49.137 -17.276  1.00  0.00     0.057 C 
HETATM   15  C19 UNL     1      -2.304  48.634 -16.159  1.00  0.00     0.024 C 
HETATM   16  C20 UNL     1      -2.112  48.744 -14.840  1.00  0.00     0.116 C 
HETATM   17  C27 UNL     1      -0.849  49.350 -14.338  1.00  0.00     0.194 C 
HETATM   18  O8  UNL     1      -0.775  49.663 -13.148  1.00  0.00    -0.289 OA
HETATM   19  C28 UNL     1       0.332  49.445 -15.316  1.00  0.00     0.044 C 
HETATM   20  C29 UNL     1       1.382  50.386 -14.678  1.00  0.00     0.028 C 
HETATM   21  C30 UNL     1       0.970  48.041 -15.416  1.00  0.00     0.028 C 
HETATM   22  C31 UNL     1      -2.204  49.922 -18.409  1.00  0.00     0.032 C 
HETATM   23  C32 UNL     1      -3.253  50.831 -17.710  1.00  0.00     0.025 C 
HETATM   24  C33 UNL     1      -2.985  48.837 -19.250  1.00  0.00     0.137 C 
HETATM   25  O9  UNL     1      -3.246  47.729 -18.773  1.00  0.00    -0.297 OA
HETATM   26  C34 UNL     1      -3.444  49.086 -20.686  1.00  0.00     0.089 C 
HETATM   27  C35 UNL     1      -2.706  50.213 -21.386  1.00  0.00    -0.021 C 
HETATM   28  C36 UNL     1      -3.551  51.526 -21.217  1.00  0.00     0.017 C 
HETATM   29  O10 UNL     1      -0.748  51.019 -24.350  1.00  0.00    -0.376 OA
ENDROOT
BRANCH  16  30
HETATM   30  O2  UNL     1      -3.102  48.378 -13.949  1.00  0.00    -0.314 OA
BRANCH  30  31
HETATM   31  C21 UNL     1      -3.291  46.956 -13.820  1.00  0.00     0.298 C 
HETATM   32  O3  UNL     1      -4.697  46.693 -13.674  1.00  0.00    -0.348 OA
HETATM   33  C22 UNL     1      -5.219  46.807 -12.339  1.00  0.00     0.179 C 
HETATM   34  C24 UNL     1      -4.558  45.798 -11.377  1.00  0.00     0.180 C 
HETATM   35  C25 UNL     1      -3.210  45.298 -11.917  1.00  0.00     0.183 C 
HETATM   36  C26 UNL     1      -2.450  46.411 -12.637  1.00  0.00     0.205 C 
BRANCH  33  37
HETATM   37  C23 UNL     1      -5.155  48.249 -11.808  1.00  0.00     0.198 C 
BRANCH  37  38
HETATM   38  O4  UNL     1      -6.399  48.636 -11.231  1.00  0.00    -0.398 OA
HETATM   39  H32 UNL     1      -6.288  49.551 -10.915  1.00  0.00     0.209 HD
ENDBRANCH  37  38
ENDBRANCH  33  37
BRANCH  34  40
HETATM   40  O5  UNL     1      -5.417  44.649 -11.231  1.00  0.00    -0.390 OA
HETATM   41  H34 UNL     1      -5.682  44.623 -10.295  1.00  0.00     0.210 HD
ENDBRANCH  34  40
BRANCH  35  42
HETATM   42  O6  UNL     1      -2.401  44.828 -10.821  1.00  0.00    -0.390 OA
HETATM   43  H36 UNL     1      -1.556  44.570 -11.245  1.00  0.00     0.210 HD
ENDBRANCH  35  42
BRANCH  36  44
HETATM   44  O7  UNL     1      -1.187  45.872 -13.074  1.00  0.00    -0.388 OA
HETATM   45  H38 UNL     1      -0.677  46.638 -13.416  1.00  0.00     0.210 HD
ENDBRANCH  36  44
ENDBRANCH  30  31
ENDBRANCH  16  30
BRANCH   3  46
HETATM   46  O1  UNL     1      -4.753  50.041 -23.546  1.00  0.00    -0.390 OA
HETATM   47  H14 UNL     1      -5.044  49.211 -23.125  1.00  0.00     0.210 HD
ENDBRANCH   3  46
BRANCH   1  48
HETATM   48  C4  UNL     1      -1.399  52.296 -26.256  1.00  0.00     0.007 C 
HETATM   49  C2  UNL     1      -0.474  52.513 -27.218  1.00  0.00    -0.089 C 
HETATM   50  C1  UNL     1       0.525  51.500 -27.706  1.00  0.00     0.042 C 
HETATM   51  C3  UNL     1      -0.384  53.853 -27.914  1.00  0.00     0.042 C 
ENDBRANCH   1  48
TORSDOF 9
ENDMDL
