MODEL 1
REMARK minimizedAffinity -9.11061764
REMARK  5 active torsions:
REMARK  status: ('A' for Active; 'I' for Inactive)
REMARK    1  A    between atoms: O1_2  and  C2_3 
REMARK    2  A    between atoms: C6_11  and  N3_12 
REMARK    3  A    between atoms: C9_15  and  O2_16 
REMARK    4  A    between atoms: O2_16  and  C10_17 
REMARK    5  A    between atoms: C21_32  and  O3_33 
ROOT
HETATM    1  N3  UNL     1      -1.162  51.080 -21.353  1.00  0.00    -0.266 NA
HETATM    2  C7  UNL     1      -2.576  51.055 -20.888  1.00  0.00     0.099 C 
HETATM    3  C8  UNL     1      -3.391  51.688 -22.017  1.00  0.00     0.048 C 
HETATM    4  C9  UNL     1      -2.586  51.283 -23.257  1.00  0.00     0.145 C 
HETATM    5  C18 UNL     1      -1.155  51.539 -22.770  1.00  0.00     0.129 C 
ENDROOT
BRANCH   1   6
HETATM    6  C6  UNL     1      -0.376  51.913 -20.523  1.00  0.00     0.096 A 
HETATM    7  N2  UNL     1       0.028  53.106 -20.998  1.00  0.00    -0.342 N 
HETATM    8  C5  UNL     1       0.756  53.860 -20.162  1.00  0.00     0.182 A 
ATOM      9  H2  UNL     1      -0.206  53.417 -21.940  1.00  0.00     0.167 HD
HETATM   10  N1  UNL     1       1.107  53.550 -18.907  1.00  0.00    -0.351 N 
HETATM   11  C4  UNL     1       0.688  52.365 -18.447  1.00  0.00     0.049 A 
ATOM     12  H1  UNL     1       1.663  54.183 -18.333  1.00  0.00     0.166 HD
HETATM   13  C3  UNL     1       1.018  52.003 -17.147  1.00  0.00     0.070 A 
HETATM   14  C19 UNL     1      -0.070  51.479 -19.220  1.00  0.00     0.032 A 
HETATM   15  C2  UNL     1       0.620  50.780 -16.592  1.00  0.00     0.103 A 
HETATM   16  C21 UNL     1      -0.128  49.881 -17.370  1.00  0.00     0.102 A 
HETATM   17  C20 UNL     1      -0.477  50.237 -18.672  1.00  0.00     0.056 A 
BRANCH  15  18
HETATM   18  O1  UNL     1       0.923  50.370 -15.318  1.00  0.00    -0.353 OA
HETATM   19  C1  UNL     1       0.680  51.282 -14.257  1.00  0.00     0.210 C 
ENDBRANCH  15  18
BRANCH  16  20
HETATM   20  O3  UNL     1      -0.505  48.707 -16.767  1.00  0.00    -0.353 OA
HETATM   21  C22 UNL     1      -1.899  48.555 -16.497  1.00  0.00     0.210 C 
ENDBRANCH  16  20
ENDBRANCH   1   6
BRANCH   4  22
HETATM   22  O2  UNL     1      -2.903  52.098 -24.386  1.00  0.00    -0.328 OA
BRANCH  22  23
HETATM   23  C10 UNL     1      -1.962  51.967 -25.388  1.00  0.00     0.159 A 
HETATM   24  C11 UNL     1      -2.403  51.877 -26.697  1.00  0.00     0.144 A 
HETATM   25  N4  UNL     1      -1.558  51.796 -27.750  1.00  0.00    -0.360 N 
HETATM   26  C12 UNL     1      -0.250  51.772 -27.447  1.00  0.00     0.059 A 
ATOM     27  H4  UNL     1      -1.892  51.755 -28.713  1.00  0.00     0.165 HD
HETATM   28  C13 UNL     1       0.687  51.716 -28.474  1.00  0.00     0.032 A 
HETATM   29  C17 UNL     1       0.201  51.799 -26.097  1.00  0.00     0.061 A 
HETATM   30  C14 UNL     1       2.057  51.661 -28.202  1.00  0.00     0.002 A 
HETATM   31  C15 UNL     1       2.505  51.650 -26.877  1.00  0.00     0.002 A 
HETATM   32  C16 UNL     1       1.576  51.726 -25.837  1.00  0.00     0.032 A 
HETATM   33  N5  UNL     1      -0.661  51.896 -25.064  1.00  0.00    -0.334 N 
ATOM     34  H5  UNL     1      -0.343  51.915 -24.095  1.00  0.00     0.168 HD
ENDBRANCH  22  23
ENDBRANCH   4  22
TORSDOF 5
ENDMDL
MODEL 2
REMARK minimizedAffinity -8.88349915
REMARK  5 active torsions:
REMARK  status: ('A' for Active; 'I' for Inactive)
REMARK    1  A    between atoms: O1_2  and  C2_3 
REMARK    2  A    between atoms: C6_11  and  N3_12 
REMARK    3  A    between atoms: C9_15  and  O2_16 
REMARK    4  A    between atoms: O2_16  and  C10_17 
REMARK    5  A    between atoms: C21_32  and  O3_33 
ROOT
HETATM    1  N3  UNL     1       0.939  52.708 -22.633  1.00  0.00    -0.266 NA
HETATM    2  C7  UNL     1       1.421  54.044 -22.188  1.00  0.00     0.099 C 
HETATM    3  C8  UNL     1       0.796  54.266 -20.810  1.00  0.00     0.048 C 
HETATM    4  C9  UNL     1       0.717  52.837 -20.262  1.00  0.00     0.145 C 
HETATM    5  C18 UNL     1       0.211  52.082 -21.496  1.00  0.00     0.129 C 
ENDROOT
BRANCH   1   6
HETATM    6  C6  UNL     1       0.124  52.826 -23.784  1.00  0.00     0.096 A 
HETATM    7  N2  UNL     1       0.674  53.288 -24.922  1.00  0.00    -0.342 N 
HETATM    8  C5  UNL     1      -0.139  53.363 -25.985  1.00  0.00     0.182 A 
ATOM      9  H2  UNL     1       1.654  53.566 -24.973  1.00  0.00     0.167 HD
HETATM   10  N1  UNL     1      -1.432  53.015 -26.026  1.00  0.00    -0.351 N 
HETATM   11  C4  UNL     1      -1.960  52.548 -24.889  1.00  0.00     0.049 A 
ATOM     12  H1  UNL     1      -1.985  53.101 -26.880  1.00  0.00     0.166 HD
HETATM   13  C3  UNL     1      -3.295  52.163 -24.885  1.00  0.00     0.070 A 
HETATM   14  C19 UNL     1      -1.223  52.428 -23.706  1.00  0.00     0.032 A 
HETATM   15  C2  UNL     1      -3.922  51.667 -23.736  1.00  0.00     0.103 A 
HETATM   16  C21 UNL     1      -3.189  51.559 -22.542  1.00  0.00     0.102 A 
HETATM   17  C20 UNL     1      -1.845  51.929 -22.535  1.00  0.00     0.056 A 
BRANCH  15  18
HETATM   18  O1  UNL     1      -5.237  51.278 -23.674  1.00  0.00    -0.353 OA
HETATM   19  C1  UNL     1      -5.547  49.939 -24.031  1.00  0.00     0.210 C 
ENDBRANCH  15  18
BRANCH  16  20
HETATM   20  O3  UNL     1      -3.851  51.048 -21.454  1.00  0.00    -0.353 OA
HETATM   21  C22 UNL     1      -3.236  51.258 -20.183  1.00  0.00     0.210 C 
ENDBRANCH  16  20
ENDBRANCH   1   6
BRANCH   4  22
HETATM   22  O2  UNL     1      -0.207  52.735 -19.176  1.00  0.00    -0.328 OA
BRANCH  22  23
HETATM   23  C10 UNL     1       0.403  52.260 -18.033  1.00  0.00     0.159 A 
HETATM   24  C11 UNL     1      -0.269  51.320 -17.271  1.00  0.00     0.144 A 
HETATM   25  N4  UNL     1       0.264  50.760 -16.161  1.00  0.00    -0.360 N 
HETATM   26  C12 UNL     1       1.486  51.199 -15.818  1.00  0.00     0.059 A 
ATOM     27  H4  UNL     1      -0.229  50.050 -15.619  1.00  0.00     0.165 HD
HETATM   28  C13 UNL     1       2.117  50.654 -14.704  1.00  0.00     0.032 A 
HETATM   29  C17 UNL     1       2.150  52.212 -16.565  1.00  0.00     0.061 A 
HETATM   30  C14 UNL     1       3.377  51.101 -14.294  1.00  0.00     0.002 A 
HETATM   31  C15 UNL     1       4.018  52.122 -15.003  1.00  0.00     0.002 A 
HETATM   32  C16 UNL     1       3.404  52.663 -16.134  1.00  0.00     0.032 A 
HETATM   33  N5  UNL     1       1.604  52.745 -17.677  1.00  0.00    -0.334 N 
ATOM     34  H5  UNL     1       2.075  53.472 -18.216  1.00  0.00     0.168 HD
ENDBRANCH  22  23
ENDBRANCH   4  22
TORSDOF 5
ENDMDL
MODEL 3
REMARK minimizedAffinity -8.72606468
REMARK  5 active torsions:
REMARK  status: ('A' for Active; 'I' for Inactive)
REMARK    1  A    between atoms: O1_2  and  C2_3 
REMARK    2  A    between atoms: C6_11  and  N3_12 
REMARK    3  A    between atoms: C9_15  and  O2_16 
REMARK    4  A    between atoms: O2_16  and  C10_17 
REMARK    5  A    between atoms: C21_32  and  O3_33 
ROOT
HETATM    1  N3  UNL     1      -3.211  49.655 -22.545  1.00  0.00    -0.266 NA
HETATM    2  C7  UNL     1      -2.012  48.840 -22.207  1.00  0.00     0.099 C 
HETATM    3  C8  UNL     1      -0.954  49.841 -21.740  1.00  0.00     0.048 C 
HETATM    4  C9  UNL     1      -1.813  50.935 -21.097  1.00  0.00     0.145 C 
HETATM    5  C18 UNL     1      -2.943  51.059 -22.125  1.00  0.00     0.129 C 
ENDROOT
BRANCH   1   6
HETATM    6  C6  UNL     1      -3.508  49.562 -23.926  1.00  0.00     0.096 A 
HETATM    7  N2  UNL     1      -4.295  48.558 -24.353  1.00  0.00    -0.342 N 
HETATM    8  C5  UNL     1      -4.557  48.529 -25.667  1.00  0.00     0.182 A 
ATOM      9  H2  UNL     1      -4.672  47.859 -23.712  1.00  0.00     0.167 HD
HETATM   10  N1  UNL     1      -4.124  49.401 -26.587  1.00  0.00    -0.351 N 
HETATM   11  C4  UNL     1      -3.350  50.399 -26.143  1.00  0.00     0.049 A 
ATOM     12  H1  UNL     1      -4.371  49.310 -27.572  1.00  0.00     0.166 HD
HETATM   13  C3  UNL     1      -2.886  51.336 -27.059  1.00  0.00     0.070 A 
HETATM   14  C19 UNL     1      -2.995  50.540 -24.798  1.00  0.00     0.032 A 
HETATM   15  C2  UNL     1      -2.070  52.407 -26.675  1.00  0.00     0.103 A 
HETATM   16  C21 UNL     1      -1.697  52.544 -25.327  1.00  0.00     0.102 A 
HETATM   17  C20 UNL     1      -2.168  51.618 -24.396  1.00  0.00     0.056 A 
BRANCH  15  18
HETATM   18  O1  UNL     1      -1.579  53.357 -27.536  1.00  0.00    -0.353 OA
HETATM   19  C1  UNL     1      -0.288  53.142 -28.088  1.00  0.00     0.210 C 
ENDBRANCH  15  18
BRANCH  16  20
HETATM   20  O3  UNL     1      -0.914  53.624 -25.009  1.00  0.00    -0.353 OA
HETATM   21  C22 UNL     1       0.321  53.337 -24.351  1.00  0.00     0.210 C 
ENDBRANCH  16  20
ENDBRANCH   1   6
BRANCH   4  22
HETATM   22  O2  UNL     1      -1.096  52.165 -20.965  1.00  0.00    -0.328 OA
BRANCH  22  23
HETATM   23  C10 UNL     1      -0.332  52.187 -19.816  1.00  0.00     0.159 A 
HETATM   24  C11 UNL     1       0.645  53.160 -19.696  1.00  0.00     0.144 A 
HETATM   25  N4  UNL     1       1.412  53.295 -18.589  1.00  0.00    -0.360 N 
HETATM   26  C12 UNL     1       1.192  52.396 -17.617  1.00  0.00     0.059 A 
ATOM     27  H4  UNL     1       2.113  54.030 -18.500  1.00  0.00     0.165 HD
HETATM   28  C13 UNL     1       1.921  52.480 -16.434  1.00  0.00     0.032 A 
HETATM   29  C17 UNL     1       0.233  51.355 -17.768  1.00  0.00     0.061 A 
HETATM   30  C14 UNL     1       1.744  51.548 -15.407  1.00  0.00     0.002 A 
HETATM   31  C15 UNL     1       0.829  50.502 -15.564  1.00  0.00     0.002 A 
HETATM   32  C16 UNL     1       0.077  50.418 -16.738  1.00  0.00     0.032 A 
HETATM   33  N5  UNL     1      -0.531  51.251 -18.875  1.00  0.00    -0.334 N 
ATOM     34  H5  UNL     1      -1.219  50.507 -18.989  1.00  0.00     0.168 HD
ENDBRANCH  22  23
ENDBRANCH   4  22
TORSDOF 5
ENDMDL
MODEL 4
REMARK minimizedAffinity -8.53141308
REMARK  5 active torsions:
REMARK  status: ('A' for Active; 'I' for Inactive)
REMARK    1  A    between atoms: O1_2  and  C2_3 
REMARK    2  A    between atoms: C6_11  and  N3_12 
REMARK    3  A    between atoms: C9_15  and  O2_16 
REMARK    4  A    between atoms: O2_16  and  C10_17 
REMARK    5  A    between atoms: C21_32  and  O3_33 
ROOT
HETATM    1  N3  UNL     1       0.193  51.867 -21.435  1.00  0.00    -0.266 NA
HETATM    2  C7  UNL     1       0.914  53.168 -21.483  1.00  0.00     0.099 C 
HETATM    3  C8  UNL     1       0.804  53.751 -20.074  1.00  0.00     0.048 C 
HETATM    4  C9  UNL     1       0.781  52.487 -19.208  1.00  0.00     0.145 C 
HETATM    5  C18 UNL     1      -0.172  51.599 -20.016  1.00  0.00     0.129 C 
ENDROOT
BRANCH   1   6
HETATM    6  C6  UNL     1      -0.943  51.891 -22.279  1.00  0.00     0.096 A 
HETATM    7  N2  UNL     1      -2.164  51.763 -21.726  1.00  0.00    -0.342 N 
HETATM    8  C5  UNL     1      -3.204  51.811 -22.570  1.00  0.00     0.182 A 
ATOM      9  H2  UNL     1      -2.289  51.638 -20.721  1.00  0.00     0.167 HD
HETATM   10  N1  UNL     1      -3.147  51.983 -23.897  1.00  0.00    -0.351 N 
HETATM   11  C4  UNL     1      -1.927  52.118 -24.429  1.00  0.00     0.049 A 
ATOM     12  H1  UNL     1      -3.990  52.009 -24.472  1.00  0.00     0.166 HD
HETATM   13  C3  UNL     1      -1.818  52.310 -25.801  1.00  0.00     0.070 A 
HETATM   14  C19 UNL     1      -0.759  52.078 -23.661  1.00  0.00     0.032 A 
HETATM   15  C2  UNL     1      -0.577  52.457 -26.434  1.00  0.00     0.103 A 
HETATM   16  C21 UNL     1       0.599  52.402 -25.668  1.00  0.00     0.102 A 
HETATM   17  C20 UNL     1       0.503  52.224 -24.289  1.00  0.00     0.056 A 
BRANCH  15  18
HETATM   18  O1  UNL     1      -0.412  52.643 -27.784  1.00  0.00    -0.353 OA
HETATM   19  C1  UNL     1      -0.595  53.954 -28.297  1.00  0.00     0.210 C 
ENDBRANCH  15  18
BRANCH  16  20
HETATM   20  O3  UNL     1       1.783  52.573 -26.341  1.00  0.00    -0.353 OA
HETATM   21  C22 UNL     1       2.554  51.394 -26.571  1.00  0.00     0.210 C 
ENDBRANCH  16  20
ENDBRANCH   1   6
BRANCH   4  22
HETATM   22  O2  UNL     1       0.263  52.747 -17.901  1.00  0.00    -0.328 OA
BRANCH  22  23
HETATM   23  C10 UNL     1       1.075  52.219 -16.918  1.00  0.00     0.159 A 
HETATM   24  C11 UNL     1       2.275  52.852 -16.645  1.00  0.00     0.144 A 
HETATM   25  N4  UNL     1       3.116  52.439 -15.668  1.00  0.00    -0.360 N 
HETATM   26  C12 UNL     1       2.729  51.345 -14.993  1.00  0.00     0.059 A 
ATOM     27  H4  UNL     1       3.986  52.927 -15.459  1.00  0.00     0.165 HD
HETATM   28  C13 UNL     1       3.524  50.870 -13.954  1.00  0.00     0.032 A 
HETATM   29  C17 UNL     1       1.526  50.656 -15.317  1.00  0.00     0.061 A 
HETATM   30  C14 UNL     1       3.174  49.719 -13.243  1.00  0.00     0.002 A 
HETATM   31  C15 UNL     1       2.012  49.017 -13.581  1.00  0.00     0.002 A 
HETATM   32  C16 UNL     1       1.196  49.494 -14.608  1.00  0.00     0.032 A 
HETATM   33  N5  UNL     1       0.697  51.096 -16.285  1.00  0.00    -0.334 N 
ATOM     34  H5  UNL     1      -0.166  50.606 -16.522  1.00  0.00     0.168 HD
ENDBRANCH  22  23
ENDBRANCH   4  22
TORSDOF 5
ENDMDL
MODEL 5
REMARK minimizedAffinity -8.49404144
REMARK  5 active torsions:
REMARK  status: ('A' for Active; 'I' for Inactive)
REMARK    1  A    between atoms: O1_2  and  C2_3 
REMARK    2  A    between atoms: C6_11  and  N3_12 
REMARK    3  A    between atoms: C9_15  and  O2_16 
REMARK    4  A    between atoms: O2_16  and  C10_17 
REMARK    5  A    between atoms: C21_32  and  O3_33 
ROOT
HETATM    1  N3  UNL     1      -1.197  51.259 -20.349  1.00  0.00    -0.266 NA
HETATM    2  C7  UNL     1      -0.461  49.996 -20.070  1.00  0.00     0.099 C 
HETATM    3  C8  UNL     1      -0.474  49.840 -18.549  1.00  0.00     0.048 C 
HETATM    4  C9  UNL     1      -1.809  50.494 -18.174  1.00  0.00     0.145 C 
HETATM    5  C18 UNL     1      -1.783  51.740 -19.067  1.00  0.00     0.129 C 
ENDROOT
BRANCH   1   6
HETATM    6  C6  UNL     1      -0.340  52.221 -20.934  1.00  0.00     0.096 A 
HETATM    7  N2  UNL     1       0.330  53.066 -20.129  1.00  0.00    -0.342 N 
HETATM    8  C5  UNL     1       1.141  53.945 -20.735  1.00  0.00     0.182 A 
ATOM      9  H2  UNL     1       0.227  53.039 -19.114  1.00  0.00     0.167 HD
HETATM   10  N1  UNL     1       1.355  54.054 -22.053  1.00  0.00    -0.351 N 
HETATM   11  C4  UNL     1       0.689  53.200 -22.838  1.00  0.00     0.049 A 
ATOM     12  H1  UNL     1       1.993  54.752 -22.437  1.00  0.00     0.166 HD
HETATM   13  C3  UNL     1       0.887  53.268 -24.212  1.00  0.00     0.070 A 
HETATM   14  C19 UNL     1      -0.195  52.241 -22.333  1.00  0.00     0.032 A 
HETATM   15  C2  UNL     1       0.226  52.412 -25.101  1.00  0.00     0.103 A 
HETATM   16  C21 UNL     1      -0.674  51.457 -24.599  1.00  0.00     0.102 A 
HETATM   17  C20 UNL     1      -0.872  51.369 -23.221  1.00  0.00     0.056 A 
BRANCH  15  18
HETATM   18  O1  UNL     1       0.379  52.439 -26.465  1.00  0.00    -0.353 OA
HETATM   19  C1  UNL     1      -0.059  53.599 -27.155  1.00  0.00     0.210 C 
ENDBRANCH  15  18
BRANCH  16  20
HETATM   20  O3  UNL     1      -1.277  50.633 -25.516  1.00  0.00    -0.353 OA
HETATM   21  C22 UNL     1      -2.477  49.987 -25.092  1.00  0.00     0.210 C 
ENDBRANCH  16  20
ENDBRANCH   1   6
BRANCH   4  22
HETATM   22  O2  UNL     1      -1.857  50.849 -16.790  1.00  0.00    -0.328 OA
BRANCH  22  23
HETATM   23  C10 UNL     1      -0.592  50.936 -16.243  1.00  0.00     0.159 A 
HETATM   24  C11 UNL     1      -0.294  50.142 -15.149  1.00  0.00     0.144 A 
HETATM   25  N4  UNL     1       0.930  50.120 -14.573  1.00  0.00    -0.360 N 
HETATM   26  C12 UNL     1       1.841  50.949 -15.109  1.00  0.00     0.059 A 
ATOM     27  H4  UNL     1       1.148  49.514 -13.782  1.00  0.00     0.165 HD
HETATM   28  C13 UNL     1       3.132  50.968 -14.592  1.00  0.00     0.032 A 
HETATM   29  C17 UNL     1       1.514  51.812 -16.193  1.00  0.00     0.061 A 
HETATM   30  C14 UNL     1       4.104  51.835 -15.102  1.00  0.00     0.002 A 
HETATM   31  C15 UNL     1       3.778  52.712 -16.142  1.00  0.00     0.002 A 
HETATM   32  C16 UNL     1       2.491  52.688 -16.683  1.00  0.00     0.032 A 
HETATM   33  N5  UNL     1       0.291  51.805 -16.761  1.00  0.00    -0.334 N 
ATOM     34  H5  UNL     1       0.051  52.422 -17.536  1.00  0.00     0.168 HD
ENDBRANCH  22  23
ENDBRANCH   4  22
TORSDOF 5
ENDMDL
MODEL 6
REMARK minimizedAffinity -8.48383045
REMARK  5 active torsions:
REMARK  status: ('A' for Active; 'I' for Inactive)
REMARK    1  A    between atoms: O1_2  and  C2_3 
REMARK    2  A    between atoms: C6_11  and  N3_12 
REMARK    3  A    between atoms: C9_15  and  O2_16 
REMARK    4  A    between atoms: O2_16  and  C10_17 
REMARK    5  A    between atoms: C21_32  and  O3_33 
ROOT
HETATM    1  N3  UNL     1      -5.186  48.838 -23.049  1.00  0.00    -0.266 NA
HETATM    2  C7  UNL     1      -4.247  47.830 -22.486  1.00  0.00     0.099 C 
HETATM    3  C8  UNL     1      -2.872  48.191 -23.049  1.00  0.00     0.048 C 
HETATM    4  C9  UNL     1      -2.971  49.714 -23.180  1.00  0.00     0.145 C 
HETATM    5  C18 UNL     1      -4.380  49.863 -23.767  1.00  0.00     0.129 C 
ENDROOT
BRANCH   1   6
HETATM    6  C6  UNL     1      -6.136  48.221 -23.897  1.00  0.00     0.096 A 
HETATM    7  N2  UNL     1      -7.284  47.767 -23.362  1.00  0.00    -0.342 N 
HETATM    8  C5  UNL     1      -8.154  47.207 -24.213  1.00  0.00     0.182 A 
ATOM      9  H2  UNL     1      -7.481  47.845 -22.364  1.00  0.00     0.167 HD
HETATM   10  N1  UNL     1      -7.997  47.067 -25.537  1.00  0.00    -0.351 N 
HETATM   11  C4  UNL     1      -6.854  47.532 -26.054  1.00  0.00     0.049 A 
ATOM     12  H1  UNL     1      -8.712  46.629 -26.119  1.00  0.00     0.166 HD
HETATM   13  C3  UNL     1      -6.651  47.419 -27.424  1.00  0.00     0.070 A 
HETATM   14  C19 UNL     1      -5.860  48.130 -25.274  1.00  0.00     0.032 A 
HETATM   15  C2  UNL     1      -5.481  47.879 -28.041  1.00  0.00     0.103 A 
HETATM   16  C21 UNL     1      -4.473  48.466 -27.259  1.00  0.00     0.102 A 
HETATM   17  C20 UNL     1      -4.670  48.598 -25.885  1.00  0.00     0.056 A 
BRANCH  15  18
HETATM   18  O1  UNL     1      -5.226  47.788 -29.387  1.00  0.00    -0.353 OA
HETATM   19  C1  UNL     1      -6.182  47.119 -30.196  1.00  0.00     0.210 C 
ENDBRANCH  15  18
BRANCH  16  20
HETATM   20  O3  UNL     1      -3.359  48.915 -27.922  1.00  0.00    -0.353 OA
HETATM   21  C22 UNL     1      -3.052  50.302 -27.775  1.00  0.00     0.210 C 
ENDBRANCH  16  20
ENDBRANCH   1   6
BRANCH   4  22
HETATM   22  O2  UNL     1      -1.982  50.237 -24.069  1.00  0.00    -0.328 OA
BRANCH  22  23
HETATM   23  C10 UNL     1      -1.133  51.115 -23.425  1.00  0.00     0.159 A 
HETATM   24  C11 UNL     1      -0.240  51.846 -24.190  1.00  0.00     0.144 A 
HETATM   25  N4  UNL     1       0.598  52.765 -23.658  1.00  0.00    -0.360 N 
HETATM   26  C12 UNL     1       0.536  52.905 -22.324  1.00  0.00     0.059 A 
ATOM     27  H4  UNL     1       1.235  53.317 -24.233  1.00  0.00     0.165 HD
HETATM   28  C13 UNL     1       1.346  53.849 -21.700  1.00  0.00     0.032 A 
HETATM   29  C17 UNL     1      -0.336  52.107 -21.531  1.00  0.00     0.061 A 
HETATM   30  C14 UNL     1       1.335  54.009 -20.311  1.00  0.00     0.002 A 
HETATM   31  C15 UNL     1       0.507  53.202 -19.524  1.00  0.00     0.002 A 
HETATM   32  C16 UNL     1      -0.326  52.265 -20.139  1.00  0.00     0.032 A 
HETATM   33  N5  UNL     1      -1.174  51.208 -22.087  1.00  0.00    -0.334 N 
ATOM     34  H5  UNL     1      -1.800  50.633 -21.523  1.00  0.00     0.168 HD
ENDBRANCH  22  23
ENDBRANCH   4  22
TORSDOF 5
ENDMDL
MODEL 7
REMARK minimizedAffinity -8.45229816
REMARK  5 active torsions:
REMARK  status: ('A' for Active; 'I' for Inactive)
REMARK    1  A    between atoms: O1_2  and  C2_3 
REMARK    2  A    between atoms: C6_11  and  N3_12 
REMARK    3  A    between atoms: C9_15  and  O2_16 
REMARK    4  A    between atoms: O2_16  and  C10_17 
REMARK    5  A    between atoms: C21_32  and  O3_33 
ROOT
HETATM    1  N3  UNL     1      -2.917  51.675 -26.927  1.00  0.00    -0.266 NA
HETATM    2  C7  UNL     1      -2.486  50.395 -27.553  1.00  0.00     0.099 C 
HETATM    3  C8  UNL     1      -2.712  49.321 -26.488  1.00  0.00     0.048 C 
HETATM    4  C9  UNL     1      -3.925  49.873 -25.731  1.00  0.00     0.145 C 
HETATM    5  C18 UNL     1      -3.545  51.353 -25.615  1.00  0.00     0.129 C 
ENDROOT
BRANCH   1   6
HETATM    6  C6  UNL     1      -1.822  52.560 -26.788  1.00  0.00     0.096 A 
HETATM    7  N2  UNL     1      -1.505  53.366 -27.818  1.00  0.00    -0.342 N 
HETATM    8  C5  UNL     1      -0.471  54.195 -27.625  1.00  0.00     0.182 A 
ATOM      9  H2  UNL     1      -2.025  53.347 -28.696  1.00  0.00     0.167 HD
HETATM   10  N1  UNL     1       0.266  54.306 -26.511  1.00  0.00    -0.351 N 
HETATM   11  C4  UNL     1      -0.068  53.505 -25.493  1.00  0.00     0.049 A 
ATOM     12  H1  UNL     1       1.040  54.967 -26.443  1.00  0.00     0.166 HD
HETATM   13  C3  UNL     1       0.660  53.592 -24.313  1.00  0.00     0.070 A 
HETATM   14  C19 UNL     1      -1.122  52.588 -25.568  1.00  0.00     0.032 A 
HETATM   15  C2  UNL     1       0.375  52.786 -23.204  1.00  0.00     0.103 A 
HETATM   16  C21 UNL     1      -0.672  51.853 -23.279  1.00  0.00     0.102 A 
HETATM   17  C20 UNL     1      -1.420  51.765 -24.453  1.00  0.00     0.056 A 
BRANCH  15  18
HETATM   18  O1  UNL     1       1.064  52.826 -22.017  1.00  0.00    -0.353 OA
HETATM   19  C1  UNL     1       1.429  54.101 -21.509  1.00  0.00     0.210 C 
ENDBRANCH  15  18
BRANCH  16  20
HETATM   20  O3  UNL     1      -0.917  51.106 -22.154  1.00  0.00    -0.353 OA
HETATM   21  C22 UNL     1      -2.289  50.920 -21.806  1.00  0.00     0.210 C 
ENDBRANCH  16  20
ENDBRANCH   1   6
BRANCH   4  22
HETATM   22  O2  UNL     1      -4.067  49.272 -24.443  1.00  0.00    -0.328 OA
BRANCH  22  23
HETATM   23  C10 UNL     1      -5.189  48.470 -24.377  1.00  0.00     0.159 A 
HETATM   24  C11 UNL     1      -5.497  47.869 -23.168  1.00  0.00     0.144 A 
HETATM   25  N4  UNL     1      -6.600  47.105 -22.990  1.00  0.00    -0.360 N 
HETATM   26  C12 UNL     1      -7.369  46.933 -24.077  1.00  0.00     0.059 A 
ATOM     27  H4  UNL     1      -6.831  46.687 -22.090  1.00  0.00     0.165 HD
HETATM   28  C13 UNL     1      -8.536  46.183 -23.973  1.00  0.00     0.032 A 
HETATM   29  C17 UNL     1      -7.017  47.497 -25.336  1.00  0.00     0.061 A 
HETATM   30  C14 UNL     1      -9.353  45.955 -25.085  1.00  0.00     0.002 A 
HETATM   31  C15 UNL     1      -8.992  46.476 -26.332  1.00  0.00     0.002 A 
HETATM   32  C16 UNL     1      -7.834  47.247 -26.446  1.00  0.00     0.032 A 
HETATM   33  N5  UNL     1      -5.920  48.268 -25.484  1.00  0.00    -0.334 N 
ATOM     34  H5  UNL     1      -5.663  48.674 -26.384  1.00  0.00     0.168 HD
ENDBRANCH  22  23
ENDBRANCH   4  22
TORSDOF 5
ENDMDL
MODEL 8
REMARK minimizedAffinity -8.45135689
REMARK  5 active torsions:
REMARK  status: ('A' for Active; 'I' for Inactive)
REMARK    1  A    between atoms: O1_2  and  C2_3 
REMARK    2  A    between atoms: C6_11  and  N3_12 
REMARK    3  A    between atoms: C9_15  and  O2_16 
REMARK    4  A    between atoms: O2_16  and  C10_17 
REMARK    5  A    between atoms: C21_32  and  O3_33 
ROOT
HETATM    1  N3  UNL     1      -2.604  49.900 -21.560  1.00  0.00    -0.266 NA
HETATM    2  C7  UNL     1      -1.339  49.150 -21.333  1.00  0.00     0.099 C 
HETATM    3  C8  UNL     1      -0.431  50.103 -20.554  1.00  0.00     0.048 C 
HETATM    4  C9  UNL     1      -1.445  50.912 -19.738  1.00  0.00     0.145 C 
HETATM    5  C18 UNL     1      -2.524  51.174 -20.794  1.00  0.00     0.129 C 
ENDROOT
BRANCH   1   6
HETATM    6  C6  UNL     1      -2.812  50.125 -22.942  1.00  0.00     0.096 A 
HETATM    7  N2  UNL     1      -3.802  49.458 -23.565  1.00  0.00    -0.342 N 
HETATM    8  C5  UNL     1      -3.965  49.722 -24.868  1.00  0.00     0.182 A 
ATOM      9  H2  UNL     1      -4.394  48.789 -23.072  1.00  0.00     0.167 HD
HETATM   10  N1  UNL     1      -3.252  50.587 -25.602  1.00  0.00    -0.351 N 
HETATM   11  C4  UNL     1      -2.279  51.249 -24.966  1.00  0.00     0.049 A 
ATOM     12  H1  UNL     1      -3.442  50.733 -26.594  1.00  0.00     0.166 HD
HETATM   13  C3  UNL     1      -1.520  52.166 -25.683  1.00  0.00     0.070 A 
HETATM   14  C19 UNL     1      -1.999  51.059 -23.608  1.00  0.00     0.032 A 
HETATM   15  C2  UNL     1      -0.483  52.896 -25.090  1.00  0.00     0.103 A 
HETATM   16  C21 UNL     1      -0.188  52.697 -23.731  1.00  0.00     0.102 A 
HETATM   17  C20 UNL     1      -0.951  51.790 -22.996  1.00  0.00     0.056 A 
BRANCH  15  18
HETATM   18  O1  UNL     1       0.301  53.808 -25.751  1.00  0.00    -0.353 OA
HETATM   19  C1  UNL     1       0.039  54.027 -27.130  1.00  0.00     0.210 C 
ENDBRANCH  15  18
BRANCH  16  20
HETATM   20  O3  UNL     1       0.826  53.456 -23.201  1.00  0.00    -0.353 OA
HETATM   21  C22 UNL     1       1.080  53.285 -21.807  1.00  0.00     0.210 C 
ENDBRANCH  16  20
ENDBRANCH   1   6
BRANCH   4  22
HETATM   22  O2  UNL     1      -0.884  52.134 -19.255  1.00  0.00    -0.328 OA
BRANCH  22  23
HETATM   23  C10 UNL     1      -0.089  51.927 -18.146  1.00  0.00     0.159 A 
HETATM   24  C11 UNL     1      -0.555  51.086 -17.150  1.00  0.00     0.144 A 
HETATM   25  N4  UNL     1       0.170  50.782 -16.049  1.00  0.00    -0.360 N 
HETATM   26  C12 UNL     1       1.370  51.378 -15.960  1.00  0.00     0.059 A 
ATOM     27  H4  UNL     1      -0.173  50.142 -15.333  1.00  0.00     0.165 HD
HETATM   28  C13 UNL     1       2.190  51.099 -14.872  1.00  0.00     0.032 A 
HETATM   29  C17 UNL     1       1.822  52.294 -16.953  1.00  0.00     0.061 A 
HETATM   30  C14 UNL     1       3.435  51.718 -14.725  1.00  0.00     0.002 A 
HETATM   31  C15 UNL     1       3.868  52.646 -15.677  1.00  0.00     0.002 A 
HETATM   32  C16 UNL     1       3.064  52.920 -16.785  1.00  0.00     0.032 A 
HETATM   33  N5  UNL     1       1.087  52.568 -18.050  1.00  0.00    -0.334 N 
ATOM     34  H5  UNL     1       1.406  53.224 -18.763  1.00  0.00     0.168 HD
ENDBRANCH  22  23
ENDBRANCH   4  22
TORSDOF 5
ENDMDL
MODEL 9
REMARK minimizedAffinity -8.40309525
REMARK  5 active torsions:
REMARK  status: ('A' for Active; 'I' for Inactive)
REMARK    1  A    between atoms: O1_2  and  C2_3 
REMARK    2  A    between atoms: C6_11  and  N3_12 
REMARK    3  A    between atoms: C9_15  and  O2_16 
REMARK    4  A    between atoms: O2_16  and  C10_17 
REMARK    5  A    between atoms: C21_32  and  O3_33 
ROOT
HETATM    1  N3  UNL     1      -3.100  51.596 -26.727  1.00  0.00    -0.266 NA
HETATM    2  C7  UNL     1      -2.960  50.533 -27.759  1.00  0.00     0.099 C 
HETATM    3  C8  UNL     1      -2.979  49.210 -26.991  1.00  0.00     0.048 C 
HETATM    4  C9  UNL     1      -3.894  49.543 -25.808  1.00  0.00     0.145 C 
HETATM    5  C18 UNL     1      -3.376  50.933 -25.422  1.00  0.00     0.129 C 
ENDROOT
BRANCH   1   6
HETATM    6  C6  UNL     1      -1.939  52.403 -26.677  1.00  0.00     0.096 A 
HETATM    7  N2  UNL     1      -1.596  53.114 -27.767  1.00  0.00    -0.342 N 
HETATM    8  C5  UNL     1      -0.498  53.873 -27.658  1.00  0.00     0.182 A 
ATOM      9  H2  UNL     1      -2.142  53.076 -28.628  1.00  0.00     0.167 HD
HETATM   10  N1  UNL     1       0.279  54.001 -26.574  1.00  0.00    -0.351 N 
HETATM   11  C4  UNL     1      -0.081  53.296 -25.496  1.00  0.00     0.049 A 
ATOM     12  H1  UNL     1       1.102  54.605 -26.571  1.00  0.00     0.166 HD
HETATM   13  C3  UNL     1       0.688  53.405 -24.343  1.00  0.00     0.070 A 
HETATM   14  C19 UNL     1      -1.201  52.458 -25.480  1.00  0.00     0.032 A 
HETATM   15  C2  UNL     1       0.378  52.698 -23.174  1.00  0.00     0.103 A 
HETATM   16  C21 UNL     1      -0.736  51.843 -23.159  1.00  0.00     0.102 A 
HETATM   17  C20 UNL     1      -1.524  51.735 -24.305  1.00  0.00     0.056 A 
BRANCH  15  18
HETATM   18  O1  UNL     1       1.105  52.763 -22.012  1.00  0.00    -0.353 OA
HETATM   19  C1  UNL     1       1.405  54.051 -21.493  1.00  0.00     0.210 C 
ENDBRANCH  15  18
BRANCH  16  20
HETATM   20  O3  UNL     1      -1.001  51.192 -21.981  1.00  0.00    -0.353 OA
HETATM   21  C22 UNL     1      -1.362  49.815 -22.086  1.00  0.00     0.210 C 
ENDBRANCH  16  20
ENDBRANCH   1   6
BRANCH   4  22
HETATM   22  O2  UNL     1      -3.733  48.614 -24.734  1.00  0.00    -0.328 OA
BRANCH  22  23
HETATM   23  C10 UNL     1      -4.871  48.531 -23.957  1.00  0.00     0.159 A 
HETATM   24  C11 UNL     1      -6.039  48.082 -24.548  1.00  0.00     0.144 A 
HETATM   25  N4  UNL     1      -7.193  47.920 -23.860  1.00  0.00    -0.360 N 
HETATM   26  C12 UNL     1      -7.148  48.259 -22.562  1.00  0.00     0.059 A 
ATOM     27  H4  UNL     1      -8.042  47.565 -24.299  1.00  0.00     0.165 HD
HETATM   28  C13 UNL     1      -8.285  48.098 -21.776  1.00  0.00     0.032 A 
HETATM   29  C17 UNL     1      -5.964  48.783 -21.970  1.00  0.00     0.061 A 
HETATM   30  C14 UNL     1      -8.290  48.464 -20.427  1.00  0.00     0.002 A 
HETATM   31  C15 UNL     1      -7.141  49.014 -19.849  1.00  0.00     0.002 A 
HETATM   32  C16 UNL     1      -5.988  49.162 -20.621  1.00  0.00     0.032 A 
HETATM   33  N5  UNL     1      -4.821  48.920 -22.673  1.00  0.00    -0.334 N 
ATOM     34  H5  UNL     1      -3.970  49.296 -22.254  1.00  0.00     0.168 HD
ENDBRANCH  22  23
ENDBRANCH   4  22
TORSDOF 5
ENDMDL
