MODEL 1
REMARK minimizedAffinity -7.61515093
REMARK CNNscore 0.888564706
REMARK CNNaffinity 7.26209879
REMARK  7 active torsions:
REMARK  status: ('A' for Active; 'I' for Inactive)
REMARK    1  A    between atoms: C4_4  and  C5_5 
REMARK    2  A    between atoms: C5_5  and  C6_6 
REMARK    3  A    between atoms: C6_6  and  C7_7 
REMARK    4  A    between atoms: C7_7  and  C9_9 
REMARK    5  A    between atoms: C27_27  and  O1_28 
REMARK    6  A    between atoms: C28_29  and  O2_30 
REMARK    7  A    between atoms: C29_31  and  O3_32 
ROOT
HETATM    1  C9  UNL     1      -1.573  52.675 -10.254  1.00  0.00    -0.002 C 
HETATM    2  C10 UNL     1      -1.022  52.825 -11.704  1.00  0.00     0.007 C 
HETATM    3  C11 UNL     1       0.302  53.602 -11.624  1.00  0.00     0.015 C 
HETATM    4  C12 UNL     1       0.704  53.535 -10.143  1.00  0.00    -0.013 C 
HETATM    5  C13 UNL     1       1.393  52.151  -9.922  1.00  0.00     0.021 C 
HETATM    6  C14 UNL     1       1.696  54.559  -9.596  1.00  0.00    -0.068 C 
HETATM    7  C15 UNL     1       1.671  54.894  -8.279  1.00  0.00    -0.065 C 
HETATM    8  C16 UNL     1       0.573  54.352  -7.351  1.00  0.00     0.036 C 
HETATM    9  C17 UNL     1      -0.503  53.427  -7.963  1.00  0.00     0.015 C 
HETATM   10  C18 UNL     1      -0.706  53.702  -9.457  1.00  0.00    -0.029 C 
HETATM   11  C19 UNL     1      -1.308  55.131  -9.632  1.00  0.00     0.016 C 
HETATM   12  C20 UNL     1       2.712  55.856  -7.637  1.00  0.00     0.012 C 
HETATM   13  C21 UNL     1       1.975  57.187  -7.330  1.00  0.00     0.023 C 
HETATM   14  C22 UNL     1       3.919  56.197  -8.618  1.00  0.00     0.007 C 
HETATM   15  C23 UNL     1       3.416  56.344 -10.059  1.00  0.00     0.010 C 
HETATM   16  C24 UNL     1       2.712  55.098 -10.566  1.00  0.00     0.036 C 
HETATM   17  C25 UNL     1       5.179  55.279  -8.433  1.00  0.00     0.018 C 
HETATM   18  C26 UNL     1       6.116  55.220  -9.645  1.00  0.00     0.013 C 
HETATM   19  C27 UNL     1       4.804  53.886  -7.911  1.00  0.00     0.153 C 
HETATM   20  C28 UNL     1       4.128  53.969  -6.526  1.00  0.00     0.177 C 
HETATM   21  C29 UNL     1       3.361  55.300  -6.323  1.00  0.00     0.162 C 
ENDROOT
BRANCH   1  22
HETATM   22  C7  UNL     1      -3.133  52.758 -10.219  1.00  0.00    -0.014 C 
HETATM   23  C8  UNL     1      -3.604  54.050 -10.913  1.00  0.00     0.010 C 
BRANCH  22  24
HETATM   24  C6  UNL     1      -3.803  51.526 -10.868  1.00  0.00     0.008 C 
BRANCH  24  25
HETATM   25  C5  UNL     1      -4.682  50.701  -9.918  1.00  0.00     0.028 C 
BRANCH  25  26
HETATM   26  C4  UNL     1      -5.442  49.642 -10.672  1.00  0.00    -0.025 C 
HETATM   27  C2  UNL     1      -6.718  49.248 -10.489  1.00  0.00    -0.091 C 
HETATM   28  C1  UNL     1      -7.673  49.829  -9.483  1.00  0.00     0.042 C 
HETATM   29  C3  UNL     1      -7.310  48.153 -11.338  1.00  0.00     0.042 C 
ENDBRANCH  25  26
ENDBRANCH  24  25
ENDBRANCH  22  24
ENDBRANCH   1  22
BRANCH  21  30
HETATM   30  O3  UNL     1       2.488  55.217  -5.195  1.00  0.00    -0.392 OA
HETATM   31  H48 UNL     1       2.133  56.100  -5.008  1.00  0.00     0.210 HD
ENDBRANCH  21  30
BRANCH  20  32
HETATM   32  O2  UNL     1       3.313  52.805  -6.347  1.00  0.00    -0.390 OA
HETATM   33  H46 UNL     1       3.854  52.043  -6.622  1.00  0.00     0.210 HD
ENDBRANCH  20  32
BRANCH  19  34
HETATM   34  O1  UNL     1       5.950  53.032  -7.802  1.00  0.00    -0.393 OA
HETATM   35  H44 UNL     1       6.612  53.481  -7.247  1.00  0.00     0.210 HD
ENDBRANCH  19  34
TORSDOF 7
ENDMDL
MODEL 2
REMARK minimizedAffinity -6.76992512
REMARK CNNscore 0.877202928
REMARK CNNaffinity 7.46678305
REMARK  7 active torsions:
REMARK  status: ('A' for Active; 'I' for Inactive)
REMARK    1  A    between atoms: C4_4  and  C5_5 
REMARK    2  A    between atoms: C5_5  and  C6_6 
REMARK    3  A    between atoms: C6_6  and  C7_7 
REMARK    4  A    between atoms: C7_7  and  C9_9 
REMARK    5  A    between atoms: C27_27  and  O1_28 
REMARK    6  A    between atoms: C28_29  and  O2_30 
REMARK    7  A    between atoms: C29_31  and  O3_32 
ROOT
HETATM    1  C9  UNL     1       2.156  55.277  -8.407  1.00  0.00    -0.002 C 
HETATM    2  C10 UNL     1       0.959  56.177  -7.976  1.00  0.00     0.007 C 
HETATM    3  C11 UNL     1      -0.316  55.592  -8.603  1.00  0.00     0.015 C 
HETATM    4  C12 UNL     1       0.078  54.170  -9.033  1.00  0.00    -0.013 C 
HETATM    5  C13 UNL     1      -0.018  53.268  -7.762  1.00  0.00     0.021 C 
HETATM    6  C14 UNL     1      -0.762  53.453 -10.087  1.00  0.00    -0.068 C 
HETATM    7  C15 UNL     1      -0.200  52.498 -10.872  1.00  0.00    -0.065 C 
HETATM    8  C16 UNL     1       1.309  52.213 -10.802  1.00  0.00     0.036 C 
HETATM    9  C17 UNL     1       2.162  53.053  -9.825  1.00  0.00     0.015 C 
HETATM   10  C18 UNL     1       1.539  54.429  -9.565  1.00  0.00    -0.029 C 
HETATM   11  C19 UNL     1       1.573  55.257 -10.887  1.00  0.00     0.016 C 
HETATM   12  C20 UNL     1      -1.018  51.663 -11.898  1.00  0.00     0.012 C 
HETATM   13  C21 UNL     1      -0.614  52.154 -13.314  1.00  0.00     0.023 C 
HETATM   14  C22 UNL     1      -2.589  51.879 -11.751  1.00  0.00     0.007 C 
HETATM   15  C23 UNL     1      -2.902  53.344 -11.419  1.00  0.00     0.010 C 
HETATM   16  C24 UNL     1      -2.222  53.816 -10.146  1.00  0.00     0.036 C 
HETATM   17  C25 UNL     1      -3.305  50.815 -10.845  1.00  0.00     0.018 C 
HETATM   18  C26 UNL     1      -4.653  51.262 -10.270  1.00  0.00     0.013 C 
HETATM   19  C27 UNL     1      -2.366  50.247  -9.774  1.00  0.00     0.153 C 
HETATM   20  C28 UNL     1      -1.159  49.526 -10.409  1.00  0.00     0.177 C 
HETATM   21  C29 UNL     1      -0.779  50.116 -11.790  1.00  0.00     0.162 C 
ENDROOT
BRANCH   1  22
HETATM   22  C7  UNL     1       3.452  56.117  -8.643  1.00  0.00    -0.014 C 
HETATM   23  C8  UNL     1       3.663  56.343 -10.151  1.00  0.00     0.010 C 
BRANCH  22  24
HETATM   24  C6  UNL     1       3.422  57.470  -7.896  1.00  0.00     0.008 C 
BRANCH  24  25
HETATM   25  C5  UNL     1       4.195  57.487  -6.570  1.00  0.00     0.028 C 
BRANCH  25  26
HETATM   26  C4  UNL     1       5.448  56.659  -6.668  1.00  0.00    -0.025 C 
HETATM   27  C2  UNL     1       6.657  56.915  -6.128  1.00  0.00    -0.091 C 
HETATM   28  C1  UNL     1       6.993  58.104  -5.271  1.00  0.00     0.042 C 
HETATM   29  C3  UNL     1       7.808  55.968  -6.346  1.00  0.00     0.042 C 
ENDBRANCH  25  26
ENDBRANCH  24  25
ENDBRANCH  22  24
ENDBRANCH   1  22
BRANCH  21  30
HETATM   30  O3  UNL     1       0.514  49.666 -12.199  1.00  0.00    -0.392 OA
HETATM   31  H48 UNL     1       0.662  49.933 -13.119  1.00  0.00     0.210 HD
ENDBRANCH  21  30
BRANCH  20  32
HETATM   32  O2  UNL     1      -0.079  49.530  -9.467  1.00  0.00    -0.390 OA
HETATM   33  H46 UNL     1      -0.458  49.263  -8.611  1.00  0.00     0.210 HD
ENDBRANCH  20  32
BRANCH  19  34
HETATM   34  O1  UNL     1      -3.040  49.321  -8.911  1.00  0.00    -0.393 OA
HETATM   35  H44 UNL     1      -3.447  48.632  -9.465  1.00  0.00     0.210 HD
ENDBRANCH  19  34
TORSDOF 7
ENDMDL
MODEL 3
REMARK minimizedAffinity -6.79048443
REMARK CNNscore 0.816839576
REMARK CNNaffinity 7.3005085
REMARK  7 active torsions:
REMARK  status: ('A' for Active; 'I' for Inactive)
REMARK    1  A    between atoms: C4_4  and  C5_5 
REMARK    2  A    between atoms: C5_5  and  C6_6 
REMARK    3  A    between atoms: C6_6  and  C7_7 
REMARK    4  A    between atoms: C7_7  and  C9_9 
REMARK    5  A    between atoms: C27_27  and  O1_28 
REMARK    6  A    between atoms: C28_29  and  O2_30 
REMARK    7  A    between atoms: C29_31  and  O3_32 
ROOT
HETATM    1  C9  UNL     1       2.788  55.484  -8.191  1.00  0.00    -0.002 C 
HETATM    2  C10 UNL     1       1.590  56.348  -7.693  1.00  0.00     0.007 C 
HETATM    3  C11 UNL     1       0.310  55.784  -8.327  1.00  0.00     0.015 C 
HETATM    4  C12 UNL     1       0.708  54.391  -8.837  1.00  0.00    -0.013 C 
HETATM    5  C13 UNL     1       0.643  53.422  -7.614  1.00  0.00     0.021 C 
HETATM    6  C14 UNL     1      -0.144  53.721  -9.913  1.00  0.00    -0.068 C 
HETATM    7  C15 UNL     1       0.414  52.814 -10.757  1.00  0.00    -0.065 C 
HETATM    8  C16 UNL     1       1.926  52.541 -10.729  1.00  0.00     0.036 C 
HETATM    9  C17 UNL     1       2.789  53.337  -9.723  1.00  0.00     0.015 C 
HETATM   10  C18 UNL     1       2.158  54.691  -9.381  1.00  0.00    -0.029 C 
HETATM   11  C19 UNL     1       2.161  55.589 -10.658  1.00  0.00     0.016 C 
HETATM   12  C20 UNL     1      -0.415  52.026 -11.811  1.00  0.00     0.012 C 
HETATM   13  C21 UNL     1      -0.041  52.595 -13.206  1.00  0.00     0.023 C 
HETATM   14  C22 UNL     1      -1.985  52.219 -11.626  1.00  0.00     0.007 C 
HETATM   15  C23 UNL     1      -2.305  53.660 -11.212  1.00  0.00     0.010 C 
HETATM   16  C24 UNL     1      -1.608  54.072  -9.928  1.00  0.00     0.036 C 
HETATM   17  C25 UNL     1      -2.675  51.101 -10.765  1.00  0.00     0.018 C 
HETATM   18  C26 UNL     1      -4.017  51.504 -10.144  1.00  0.00     0.013 C 
HETATM   19  C27 UNL     1      -1.712  50.487  -9.741  1.00  0.00     0.153 C 
HETATM   20  C28 UNL     1      -0.510  49.813 -10.434  1.00  0.00     0.177 C 
HETATM   21  C29 UNL     1      -0.161  50.479 -11.789  1.00  0.00     0.162 C 
ENDROOT
BRANCH   1  22
HETATM   22  C7  UNL     1       4.072  56.348  -8.404  1.00  0.00    -0.014 C 
HETATM   23  C8  UNL     1       3.835  57.777  -7.883  1.00  0.00     0.010 C 
BRANCH  22  24
HETATM   24  C6  UNL     1       5.317  55.730  -7.728  1.00  0.00     0.008 C 
BRANCH  24  25
HETATM   25  C5  UNL     1       6.502  55.483  -8.672  1.00  0.00     0.028 C 
BRANCH  25  26
HETATM   26  C4  UNL     1       6.348  54.171  -9.395  1.00  0.00    -0.025 C 
HETATM   27  C2  UNL     1       6.437  52.926  -8.883  1.00  0.00    -0.091 C 
HETATM   28  C1  UNL     1       6.687  52.595  -7.438  1.00  0.00     0.042 C 
HETATM   29  C3  UNL     1       6.266  51.721  -9.770  1.00  0.00     0.042 C 
ENDBRANCH  25  26
ENDBRANCH  24  25
ENDBRANCH  22  24
ENDBRANCH   1  22
BRANCH  21  30
HETATM   30  O3  UNL     1       1.129  50.063 -12.243  1.00  0.00    -0.392 OA
HETATM   31  H48 UNL     1       1.258  50.380 -13.150  1.00  0.00     0.210 HD
ENDBRANCH  21  30
BRANCH  20  32
HETATM   32  O2  UNL     1       0.586  49.778  -9.513  1.00  0.00    -0.390 OA
HETATM   33  H46 UNL     1       0.225  49.463  -8.665  1.00  0.00     0.210 HD
ENDBRANCH  20  32
BRANCH  19  34
HETATM   34  O1  UNL     1      -2.363  49.511  -8.917  1.00  0.00    -0.393 OA
HETATM   35  H44 UNL     1      -2.773  48.847  -9.500  1.00  0.00     0.210 HD
ENDBRANCH  19  34
TORSDOF 7
ENDMDL
MODEL 4
REMARK minimizedAffinity -7.36555338
REMARK CNNscore 0.725344002
REMARK CNNaffinity 7.04328585
REMARK  7 active torsions:
REMARK  status: ('A' for Active; 'I' for Inactive)
REMARK    1  A    between atoms: C4_4  and  C5_5 
REMARK    2  A    between atoms: C5_5  and  C6_6 
REMARK    3  A    between atoms: C6_6  and  C7_7 
REMARK    4  A    between atoms: C7_7  and  C9_9 
REMARK    5  A    between atoms: C27_27  and  O1_28 
REMARK    6  A    between atoms: C28_29  and  O2_30 
REMARK    7  A    between atoms: C29_31  and  O3_32 
ROOT
HETATM    1  C9  UNL     1       0.497  54.474  -8.634  1.00  0.00    -0.002 C 
HETATM    2  C10 UNL     1      -0.428  54.153  -7.421  1.00  0.00     0.007 C 
HETATM    3  C11 UNL     1      -1.536  53.210  -7.915  1.00  0.00     0.015 C 
HETATM    4  C12 UNL     1      -1.024  52.677  -9.261  1.00  0.00    -0.013 C 
HETATM    5  C13 UNL     1      -0.039  51.508  -8.942  1.00  0.00     0.021 C 
HETATM    6  C14 UNL     1      -2.022  52.088 -10.255  1.00  0.00    -0.068 C 
HETATM    7  C15 UNL     1      -1.753  52.115 -11.587  1.00  0.00    -0.065 C 
HETATM    8  C16 UNL     1      -0.511  52.844 -12.123  1.00  0.00     0.036 C 
HETATM    9  C17 UNL     1       0.410  53.553 -11.104  1.00  0.00     0.015 C 
HETATM   10  C18 UNL     1      -0.355  53.979  -9.847  1.00  0.00    -0.029 C 
HETATM   11  C19 UNL     1      -1.391  55.080 -10.233  1.00  0.00     0.016 C 
HETATM   12  C20 UNL     1      -2.679  51.450 -12.645  1.00  0.00     0.012 C 
HETATM   13  C21 UNL     1      -3.386  52.595 -13.419  1.00  0.00     0.023 C 
HETATM   14  C22 UNL     1      -3.815  50.550 -11.987  1.00  0.00     0.007 C 
HETATM   15  C23 UNL     1      -4.341  51.201 -10.701  1.00  0.00     0.010 C 
HETATM   16  C24 UNL     1      -3.248  51.437  -9.674  1.00  0.00     0.036 C 
HETATM   17  C25 UNL     1      -3.446  49.028 -11.870  1.00  0.00     0.018 C 
HETATM   18  C26 UNL     1      -4.243  48.251 -10.816  1.00  0.00     0.013 C 
HETATM   19  C27 UNL     1      -1.933  48.812 -11.741  1.00  0.00     0.153 C 
HETATM   20  C28 UNL     1      -1.182  49.340 -12.980  1.00  0.00     0.177 C 
HETATM   21  C29 UNL     1      -1.920  50.522 -13.658  1.00  0.00     0.162 C 
ENDROOT
BRANCH   1  22
HETATM   22  C7  UNL     1       1.025  55.944  -8.582  1.00  0.00    -0.014 C 
HETATM   23  C8  UNL     1       0.329  56.710  -7.442  1.00  0.00     0.010 C 
BRANCH  22  24
HETATM   24  C6  UNL     1       2.560  56.014  -8.417  1.00  0.00     0.008 C 
BRANCH  24  25
HETATM   25  C5  UNL     1       3.328  56.341  -9.705  1.00  0.00     0.028 C 
BRANCH  25  26
HETATM   26  C4  UNL     1       4.511  55.425  -9.873  1.00  0.00    -0.025 C 
HETATM   27  C2  UNL     1       5.570  55.278  -9.051  1.00  0.00    -0.091 C 
HETATM   28  C1  UNL     1       5.768  56.003  -7.749  1.00  0.00     0.042 C 
HETATM   29  C3  UNL     1       6.675  54.314  -9.394  1.00  0.00     0.042 C 
ENDBRANCH  25  26
ENDBRANCH  24  25
ENDBRANCH  22  24
ENDBRANCH   1  22
BRANCH  21  30
HETATM   30  O3  UNL     1      -1.063  51.196 -14.582  1.00  0.00    -0.392 OA
HETATM   31  H48 UNL     1      -1.589  51.834 -15.089  1.00  0.00     0.210 HD
ENDBRANCH  21  30
BRANCH  20  32
HETATM   32  O2  UNL     1       0.165  49.647 -12.601  1.00  0.00    -0.390 OA
HETATM   33  H46 UNL     1       0.484  48.890 -12.078  1.00  0.00     0.210 HD
ENDBRANCH  20  32
BRANCH  19  34
HETATM   34  O1  UNL     1      -1.605  47.426 -11.573  1.00  0.00    -0.393 OA
HETATM   35  H44 UNL     1      -1.999  46.929 -12.312  1.00  0.00     0.210 HD
ENDBRANCH  19  34
TORSDOF 7
ENDMDL
MODEL 5
REMARK minimizedAffinity -7.24038887
REMARK CNNscore 0.411729783
REMARK CNNaffinity 6.00965881
REMARK  7 active torsions:
REMARK  status: ('A' for Active; 'I' for Inactive)
REMARK    1  A    between atoms: C4_4  and  C5_5 
REMARK    2  A    between atoms: C5_5  and  C6_6 
REMARK    3  A    between atoms: C6_6  and  C7_7 
REMARK    4  A    between atoms: C7_7  and  C9_9 
REMARK    5  A    between atoms: C27_27  and  O1_28 
REMARK    6  A    between atoms: C28_29  and  O2_30 
REMARK    7  A    between atoms: C29_31  and  O3_32 
ROOT
HETATM    1  C9  UNL     1      -6.608  47.460 -31.001  1.00  0.00    -0.002 C 
HETATM    2  C10 UNL     1      -5.296  46.650 -31.226  1.00  0.00     0.007 C 
HETATM    3  C11 UNL     1      -5.670  45.346 -31.949  1.00  0.00     0.015 C 
HETATM    4  C12 UNL     1      -7.086  45.592 -32.490  1.00  0.00    -0.013 C 
HETATM    5  C13 UNL     1      -6.931  46.397 -33.819  1.00  0.00     0.021 C 
HETATM    6  C14 UNL     1      -7.960  44.395 -32.856  1.00  0.00    -0.068 C 
HETATM    7  C15 UNL     1      -9.314  44.500 -32.807  1.00  0.00    -0.065 C 
HETATM    8  C16 UNL     1      -9.984  45.773 -32.265  1.00  0.00     0.036 C 
HETATM    9  C17 UNL     1      -9.072  46.918 -31.769  1.00  0.00     0.015 C 
HETATM   10  C18 UNL     1      -7.714  46.395 -31.287  1.00  0.00    -0.029 C 
HETATM   11  C19 UNL     1      -7.931  45.521 -30.013  1.00  0.00     0.016 C 
HETATM   12  C20 UNL     1     -10.263  43.353 -33.257  1.00  0.00     0.012 C 
HETATM   13  C21 UNL     1     -10.905  42.761 -31.973  1.00  0.00     0.023 C 
HETATM   14  C22 UNL     1      -9.490  42.169 -33.990  1.00  0.00     0.007 C 
HETATM   15  C23 UNL     1      -8.129  41.923 -33.327  1.00  0.00     0.010 C 
HETATM   16  C24 UNL     1      -7.245  43.157 -33.325  1.00  0.00     0.036 C 
HETATM   17  C25 UNL     1      -9.466  42.288 -35.555  1.00  0.00     0.018 C 
HETATM   18  C26 UNL     1      -8.342  41.505 -36.243  1.00  0.00     0.013 C 
HETATM   19  C27 UNL     1      -9.540  43.746 -36.023  1.00  0.00     0.153 C 
HETATM   20  C28 UNL     1     -10.850  44.418 -35.564  1.00  0.00     0.177 C 
HETATM   21  C29 UNL     1     -11.392  43.814 -34.243  1.00  0.00     0.162 C 
ENDROOT
BRANCH   1  22
HETATM   22  C7  UNL     1      -6.581  48.231 -29.642  1.00  0.00    -0.014 C 
HETATM   23  C8  UNL     1      -8.019  48.457 -29.140  1.00  0.00     0.010 C 
BRANCH  22  24
HETATM   24  C6  UNL     1      -5.745  47.502 -28.566  1.00  0.00     0.008 C 
BRANCH  24  25
HETATM   25  C5  UNL     1      -4.518  48.279 -28.073  1.00  0.00     0.028 C 
BRANCH  25  26
HETATM   26  C4  UNL     1      -4.478  48.323 -26.568  1.00  0.00    -0.025 C 
HETATM   27  C2  UNL     1      -3.467  48.736 -25.777  1.00  0.00    -0.091 C 
HETATM   28  C1  UNL     1      -2.149  49.277 -26.258  1.00  0.00     0.042 C 
HETATM   29  C3  UNL     1      -3.605  48.695 -24.277  1.00  0.00     0.042 C 
ENDBRANCH  25  26
ENDBRANCH  24  25
ENDBRANCH  22  24
ENDBRANCH   1  22
BRANCH  21  30
HETATM   30  O3  UNL     1     -12.398  44.653 -33.674  1.00  0.00    -0.392 OA
HETATM   31  H48 UNL     1     -12.814  44.185 -32.934  1.00  0.00     0.210 HD
ENDBRANCH  21  30
BRANCH  20  32
HETATM   32  O2  UNL     1     -10.638  45.834 -35.502  1.00  0.00    -0.390 OA
HETATM   33  H46 UNL     1     -10.184  46.082 -36.326  1.00  0.00     0.210 HD
ENDBRANCH  20  32
BRANCH  19  34
HETATM   34  O1  UNL     1      -9.456  43.853 -37.451  1.00  0.00    -0.393 OA
HETATM   35  H44 UNL     1     -10.153  43.293 -37.838  1.00  0.00     0.210 HD
ENDBRANCH  19  34
TORSDOF 7
ENDMDL
MODEL 6
REMARK minimizedAffinity -7.32481766
REMARK CNNscore 0.367586344
REMARK CNNaffinity 6.61737776
REMARK  7 active torsions:
REMARK  status: ('A' for Active; 'I' for Inactive)
REMARK    1  A    between atoms: C4_4  and  C5_5 
REMARK    2  A    between atoms: C5_5  and  C6_6 
REMARK    3  A    between atoms: C6_6  and  C7_7 
REMARK    4  A    between atoms: C7_7  and  C9_9 
REMARK    5  A    between atoms: C27_27  and  O1_28 
REMARK    6  A    between atoms: C28_29  and  O2_30 
REMARK    7  A    between atoms: C29_31  and  O3_32 
ROOT
HETATM    1  C9  UNL     1      -2.086  49.880 -20.679  1.00  0.00    -0.002 C 
HETATM    2  C10 UNL     1      -1.146  48.664 -20.938  1.00  0.00     0.007 C 
HETATM    3  C11 UNL     1      -2.019  47.400 -20.987  1.00  0.00     0.015 C 
HETATM    4  C12 UNL     1      -3.452  47.922 -21.167  1.00  0.00    -0.013 C 
HETATM    5  C13 UNL     1      -3.638  48.225 -22.688  1.00  0.00     0.021 C 
HETATM    6  C14 UNL     1      -4.624  47.015 -20.802  1.00  0.00    -0.068 C 
HETATM    7  C15 UNL     1      -5.812  47.556 -20.424  1.00  0.00    -0.065 C 
HETATM    8  C16 UNL     1      -5.959  49.074 -20.235  1.00  0.00     0.036 C 
HETATM    9  C17 UNL     1      -4.715  49.959 -20.476  1.00  0.00     0.015 C 
HETATM   10  C18 UNL     1      -3.413  49.188 -20.229  1.00  0.00    -0.029 C 
HETATM   11  C19 UNL     1      -3.318  48.827 -18.714  1.00  0.00     0.016 C 
HETATM   12  C20 UNL     1      -7.073  46.694 -20.131  1.00  0.00     0.012 C 
HETATM   13  C21 UNL     1      -7.303  46.725 -18.596  1.00  0.00     0.023 C 
HETATM   14  C22 UNL     1      -6.885  45.169 -20.551  1.00  0.00     0.007 C 
HETATM   15  C23 UNL     1      -5.458  44.699 -20.248  1.00  0.00     0.010 C 
HETATM   16  C24 UNL     1      -4.402  45.533 -20.952  1.00  0.00     0.036 C 
HETATM   17  C25 UNL     1      -7.418  44.827 -21.988  1.00  0.00     0.018 C 
HETATM   18  C26 UNL     1      -6.812  43.565 -22.615  1.00  0.00     0.013 C 
HETATM   19  C27 UNL     1      -7.359  46.038 -22.928  1.00  0.00     0.153 C 
HETATM   20  C28 UNL     1      -8.239  47.193 -22.410  1.00  0.00     0.177 C 
HETATM   21  C29 UNL     1      -8.366  47.192 -20.865  1.00  0.00     0.162 C 
ENDROOT
BRANCH   1  22
HETATM   22  C7  UNL     1      -1.403  50.953 -19.772  1.00  0.00    -0.014 C 
HETATM   23  C8  UNL     1      -0.260  50.307 -18.967  1.00  0.00     0.010 C 
BRANCH  22  24
HETATM   24  C6  UNL     1      -0.875  52.159 -20.581  1.00  0.00     0.008 C 
BRANCH  24  25
HETATM   25  C5  UNL     1       0.398  51.879 -21.391  1.00  0.00     0.028 C 
BRANCH  25  26
HETATM   26  C4  UNL     1       0.366  52.603 -22.711  1.00  0.00    -0.025 C 
HETATM   27  C2  UNL     1      -0.240  52.220 -23.853  1.00  0.00    -0.091 C 
HETATM   28  C1  UNL     1      -1.053  50.968 -24.029  1.00  0.00     0.042 C 
HETATM   29  C3  UNL     1      -0.152  53.077 -25.089  1.00  0.00     0.042 C 
ENDBRANCH  25  26
ENDBRANCH  24  25
ENDBRANCH  22  24
ENDBRANCH   1  22
BRANCH  21  30
HETATM   30  O3  UNL     1      -8.897  48.434 -20.397  1.00  0.00    -0.392 OA
HETATM   31  H48 UNL     1      -9.096  48.352 -19.452  1.00  0.00     0.210 HD
ENDBRANCH  21  30
BRANCH  20  32
HETATM   32  O2  UNL     1      -7.735  48.424 -22.943  1.00  0.00    -0.390 OA
HETATM   33  H46 UNL     1      -7.576  48.270 -23.891  1.00  0.00     0.210 HD
ENDBRANCH  20  32
BRANCH  19  34
HETATM   34  O1  UNL     1      -7.788  45.704 -24.254  1.00  0.00    -0.393 OA
HETATM   35  H44 UNL     1      -8.677  45.311 -24.196  1.00  0.00     0.210 HD
ENDBRANCH  19  34
TORSDOF 7
ENDMDL
MODEL 7
REMARK minimizedAffinity -8.35303783
REMARK CNNscore 0.353257626
REMARK CNNaffinity 6.54593897
REMARK  7 active torsions:
REMARK  status: ('A' for Active; 'I' for Inactive)
REMARK    1  A    between atoms: C4_4  and  C5_5 
REMARK    2  A    between atoms: C5_5  and  C6_6 
REMARK    3  A    between atoms: C6_6  and  C7_7 
REMARK    4  A    between atoms: C7_7  and  C9_9 
REMARK    5  A    between atoms: C27_27  and  O1_28 
REMARK    6  A    between atoms: C28_29  and  O2_30 
REMARK    7  A    between atoms: C29_31  and  O3_32 
ROOT
HETATM    1  C9  UNL     1      -3.159  51.214 -23.077  1.00  0.00    -0.002 C 
HETATM    2  C10 UNL     1      -4.418  51.965 -23.606  1.00  0.00     0.007 C 
HETATM    3  C11 UNL     1      -5.657  51.173 -23.159  1.00  0.00     0.015 C 
HETATM    4  C12 UNL     1      -5.143  50.232 -22.059  1.00  0.00    -0.013 C 
HETATM    5  C13 UNL     1      -5.081  51.065 -20.740  1.00  0.00     0.021 C 
HETATM    6  C14 UNL     1      -5.958  48.992 -21.702  1.00  0.00    -0.068 C 
HETATM    7  C15 UNL     1      -5.341  47.898 -21.184  1.00  0.00    -0.065 C 
HETATM    8  C16 UNL     1      -3.810  47.841 -21.067  1.00  0.00     0.036 C 
HETATM    9  C17 UNL     1      -2.998  49.057 -21.568  1.00  0.00     0.015 C 
HETATM   10  C18 UNL     1      -3.744  49.826 -22.664  1.00  0.00    -0.029 C 
HETATM   11  C19 UNL     1      -3.862  48.919 -23.928  1.00  0.00     0.016 C 
HETATM   12  C20 UNL     1      -6.121  46.638 -20.710  1.00  0.00     0.012 C 
HETATM   13  C21 UNL     1      -5.842  45.512 -21.741  1.00  0.00     0.023 C 
HETATM   14  C22 UNL     1      -7.696  46.869 -20.675  1.00  0.00     0.007 C 
HETATM   15  C23 UNL     1      -8.140  47.736 -21.861  1.00  0.00     0.010 C 
HETATM   16  C24 UNL     1      -7.448  49.087 -21.892  1.00  0.00     0.036 C 
HETATM   17  C25 UNL     1      -8.253  47.308 -19.274  1.00  0.00     0.018 C 
HETATM   18  C26 UNL     1      -9.609  48.021 -19.315  1.00  0.00     0.013 C 
HETATM   19  C27 UNL     1      -7.208  48.075 -18.455  1.00  0.00     0.153 C 
HETATM   20  C28 UNL     1      -5.968  47.204 -18.168  1.00  0.00     0.177 C 
HETATM   21  C29 UNL     1      -5.721  46.147 -19.275  1.00  0.00     0.162 C 
ENDROOT
BRANCH   1  22
HETATM   22  C7  UNL     1      -1.969  51.305 -24.085  1.00  0.00    -0.014 C 
HETATM   23  C8  UNL     1      -2.499  51.625 -25.495  1.00  0.00     0.010 C 
BRANCH  22  24
HETATM   24  C6  UNL     1      -0.914  52.352 -23.660  1.00  0.00     0.008 C 
BRANCH  24  25
HETATM   25  C5  UNL     1       0.464  52.175 -24.314  1.00  0.00     0.028 C 
BRANCH  25  26
HETATM   26  C4  UNL     1       0.366  52.294 -25.811  1.00  0.00    -0.025 C 
HETATM   27  C2  UNL     1       1.260  51.888 -26.736  1.00  0.00    -0.091 C 
HETATM   28  C1  UNL     1       2.558  51.188 -26.443  1.00  0.00     0.042 C 
HETATM   29  C3  UNL     1       0.995  52.106 -28.203  1.00  0.00     0.042 C 
ENDBRANCH  25  26
ENDBRANCH  24  25
ENDBRANCH  22  24
ENDBRANCH   1  22
BRANCH  21  30
HETATM   30  O3  UNL     1      -4.411  45.588 -19.163  1.00  0.00    -0.392 OA
HETATM   31  H48 UNL     1      -4.338  44.837 -19.772  1.00  0.00     0.210 HD
ENDBRANCH  21  30
BRANCH  20  32
HETATM   32  O2  UNL     1      -4.847  48.067 -17.940  1.00  0.00    -0.390 OA
HETATM   33  H46 UNL     1      -5.153  48.760 -17.329  1.00  0.00     0.210 HD
ENDBRANCH  20  32
BRANCH  19  34
HETATM   34  O1  UNL     1      -7.740  48.526 -17.202  1.00  0.00    -0.393 OA
HETATM   35  H44 UNL     1      -8.102  47.755 -16.731  1.00  0.00     0.210 HD
ENDBRANCH  19  34
TORSDOF 7
ENDMDL
MODEL 8
REMARK minimizedAffinity -6.81146955
REMARK CNNscore 0.344990522
REMARK CNNaffinity 6.33807707
REMARK  7 active torsions:
REMARK  status: ('A' for Active; 'I' for Inactive)
REMARK    1  A    between atoms: C4_4  and  C5_5 
REMARK    2  A    between atoms: C5_5  and  C6_6 
REMARK    3  A    between atoms: C6_6  and  C7_7 
REMARK    4  A    between atoms: C7_7  and  C9_9 
REMARK    5  A    between atoms: C27_27  and  O1_28 
REMARK    6  A    between atoms: C28_29  and  O2_30 
REMARK    7  A    between atoms: C29_31  and  O3_32 
ROOT
HETATM    1  C9  UNL     1      -1.872  53.342 -10.436  1.00  0.00    -0.002 C 
HETATM    2  C10 UNL     1      -2.138  54.876 -10.501  1.00  0.00     0.007 C 
HETATM    3  C11 UNL     1      -1.030  55.577  -9.698  1.00  0.00     0.015 C 
HETATM    4  C12 UNL     1       0.064  54.512  -9.531  1.00  0.00    -0.013 C 
HETATM    5  C13 UNL     1       0.895  54.502 -10.853  1.00  0.00     0.021 C 
HETATM    6  C14 UNL     1       1.097  54.676  -8.419  1.00  0.00    -0.068 C 
HETATM    7  C15 UNL     1       1.704  53.583  -7.886  1.00  0.00    -0.065 C 
HETATM    8  C16 UNL     1       1.273  52.167  -8.298  1.00  0.00     0.036 C 
HETATM    9  C17 UNL     1       0.125  52.027  -9.324  1.00  0.00     0.015 C 
HETATM   10  C18 UNL     1      -0.822  53.231  -9.284  1.00  0.00    -0.029 C 
HETATM   11  C19 UNL     1      -1.560  53.250  -7.909  1.00  0.00     0.016 C 
HETATM   12  C20 UNL     1       2.832  53.684  -6.820  1.00  0.00     0.012 C 
HETATM   13  C21 UNL     1       2.229  53.212  -5.469  1.00  0.00     0.023 C 
HETATM   14  C22 UNL     1       3.348  55.176  -6.612  1.00  0.00     0.007 C 
HETATM   15  C23 UNL     1       2.181  56.167  -6.697  1.00  0.00     0.010 C 
HETATM   16  C24 UNL     1       1.436  56.087  -8.017  1.00  0.00     0.036 C 
HETATM   17  C25 UNL     1       4.610  55.546  -7.471  1.00  0.00     0.018 C 
HETATM   18  C26 UNL     1       4.816  57.048  -7.699  1.00  0.00     0.013 C 
HETATM   19  C27 UNL     1       4.678  54.738  -8.773  1.00  0.00     0.153 C 
HETATM   20  C28 UNL     1       4.781  53.225  -8.490  1.00  0.00     0.177 C 
HETATM   21  C29 UNL     1       4.100  52.826  -7.157  1.00  0.00     0.162 C 
ENDROOT
BRANCH   1  22
HETATM   22  C7  UNL     1      -3.205  52.529 -10.375  1.00  0.00    -0.014 C 
HETATM   23  C8  UNL     1      -4.179  53.038 -11.454  1.00  0.00     0.010 C 
BRANCH  22  24
HETATM   24  C6  UNL     1      -2.977  51.009 -10.533  1.00  0.00     0.008 C 
BRANCH  24  25
HETATM   25  C5  UNL     1      -4.139  50.252 -11.190  1.00  0.00     0.028 C 
BRANCH  25  26
HETATM   26  C4  UNL     1      -5.360  50.271 -10.308  1.00  0.00    -0.025 C 
HETATM   27  C2  UNL     1      -6.439  49.465 -10.369  1.00  0.00    -0.091 C 
HETATM   28  C1  UNL     1      -6.629  48.335 -11.343  1.00  0.00     0.042 C 
HETATM   29  C3  UNL     1      -7.581  49.643  -9.402  1.00  0.00     0.042 C 
ENDBRANCH  25  26
ENDBRANCH  24  25
ENDBRANCH  22  24
ENDBRANCH   1  22
BRANCH  21  30
HETATM   30  O3  UNL     1       3.921  51.410  -7.080  1.00  0.00    -0.392 OA
HETATM   31  H48 UNL     1       3.627  51.180  -6.185  1.00  0.00     0.210 HD
ENDBRANCH  21  30
BRANCH  20  32
HETATM   32  O2  UNL     1       4.277  52.514  -9.627  1.00  0.00    -0.390 OA
HETATM   33  H46 UNL     1       4.675  52.929 -10.412  1.00  0.00     0.210 HD
ENDBRANCH  20  32
BRANCH  19  34
HETATM   34  O1  UNL     1       5.798  55.123  -9.581  1.00  0.00    -0.393 OA
HETATM   35  H44 UNL     1       6.604  55.042  -9.041  1.00  0.00     0.210 HD
ENDBRANCH  19  34
TORSDOF 7
ENDMDL
MODEL 9
REMARK minimizedAffinity -7.5885272
REMARK CNNscore 0.341195673
REMARK CNNaffinity 5.623281
REMARK  7 active torsions:
REMARK  status: ('A' for Active; 'I' for Inactive)
REMARK    1  A    between atoms: C4_4  and  C5_5 
REMARK    2  A    between atoms: C5_5  and  C6_6 
REMARK    3  A    between atoms: C6_6  and  C7_7 
REMARK    4  A    between atoms: C7_7  and  C9_9 
REMARK    5  A    between atoms: C27_27  and  O1_28 
REMARK    6  A    between atoms: C28_29  and  O2_30 
REMARK    7  A    between atoms: C29_31  and  O3_32 
ROOT
HETATM    1  C9  UNL     1       5.145  68.516 -35.660  1.00  0.00    -0.002 C 
HETATM    2  C10 UNL     1       5.001  70.019 -35.276  1.00  0.00     0.007 C 
HETATM    3  C11 UNL     1       4.132  70.694 -36.350  1.00  0.00     0.015 C 
HETATM    4  C12 UNL     1       3.458  69.532 -37.094  1.00  0.00    -0.013 C 
HETATM    5  C13 UNL     1       2.228  69.096 -36.236  1.00  0.00     0.021 C 
HETATM    6  C14 UNL     1       2.895  69.772 -38.493  1.00  0.00    -0.068 C 
HETATM    7  C15 UNL     1       2.801  68.742 -39.374  1.00  0.00    -0.065 C 
HETATM    8  C16 UNL     1       3.370  67.357 -39.028  1.00  0.00     0.036 C 
HETATM    9  C17 UNL     1       4.061  67.178 -37.658  1.00  0.00     0.015 C 
HETATM   10  C18 UNL     1       4.646  68.497 -37.140  1.00  0.00    -0.029 C 
HETATM   11  C19 UNL     1       5.809  68.939 -38.082  1.00  0.00     0.016 C 
HETATM   12  C20 UNL     1       2.151  68.896 -40.779  1.00  0.00     0.012 C 
HETATM   13  C21 UNL     1       3.299  68.839 -41.823  1.00  0.00     0.023 C 
HETATM   14  C22 UNL     1       1.411  70.294 -40.964  1.00  0.00     0.007 C 
HETATM   15  C23 UNL     1       2.199  71.415 -40.275  1.00  0.00     0.010 C 
HETATM   16  C24 UNL     1       2.406  71.163 -38.793  1.00  0.00     0.036 C 
HETATM   17  C25 UNL     1      -0.126  70.257 -40.645  1.00  0.00     0.018 C 
HETATM   18  C26 UNL     1      -0.747  71.617 -40.309  1.00  0.00     0.013 C 
HETATM   19  C27 UNL     1      -0.473  69.179 -39.610  1.00  0.00     0.153 C 
HETATM   20  C28 UNL     1      -0.109  67.770 -40.122  1.00  0.00     0.177 C 
HETATM   21  C29 UNL     1       1.086  67.792 -41.109  1.00  0.00     0.162 C 
ENDROOT
BRANCH   1  22
HETATM   22  C7  UNL     1       6.559  67.961 -35.291  1.00  0.00    -0.014 C 
HETATM   23  C8  UNL     1       7.240  68.897 -34.275  1.00  0.00     0.010 C 
BRANCH  22  24
HETATM   24  C6  UNL     1       6.501  66.519 -34.738  1.00  0.00     0.008 C 
BRANCH  24  25
HETATM   25  C5  UNL     1       5.196  66.164 -34.012  1.00  0.00     0.028 C 
BRANCH  25  26
HETATM   26  C4  UNL     1       4.911  64.689 -34.109  1.00  0.00    -0.025 C 
HETATM   27  C2  UNL     1       4.398  63.879 -33.162  1.00  0.00    -0.091 C 
HETATM   28  C1  UNL     1       3.968  64.310 -31.787  1.00  0.00     0.042 C 
HETATM   29  C3  UNL     1       4.194  62.412 -33.439  1.00  0.00     0.042 C 
ENDBRANCH  25  26
ENDBRANCH  24  25
ENDBRANCH  22  24
ENDBRANCH   1  22
BRANCH  21  30
HETATM   30  O3  UNL     1       1.608  66.477 -41.306  1.00  0.00    -0.392 OA
HETATM   31  H48 UNL     1       2.254  66.502 -42.029  1.00  0.00     0.210 HD
ENDBRANCH  21  30
BRANCH  20  32
HETATM   32  O2  UNL     1       0.097  66.915 -38.992  1.00  0.00    -0.390 OA
HETATM   33  H46 UNL     1      -0.647  67.075 -38.385  1.00  0.00     0.210 HD
ENDBRANCH  20  32
BRANCH  19  34
HETATM   34  O1  UNL     1      -1.868  69.190 -39.278  1.00  0.00    -0.393 OA
HETATM   35  H44 UNL     1      -2.377  69.104 -40.103  1.00  0.00     0.210 HD
ENDBRANCH  19  34
TORSDOF 7
ENDMDL
