MODEL 1
REMARK minimizedAffinity -6.36146784
REMARK CNNscore 0.221379071
REMARK CNNaffinity 5.80510092
REMARK  11 active torsions:
REMARK  status: ('A' for Active; 'I' for Inactive)
REMARK    1  A    between atoms: C2_2  and  C4_4 
REMARK    2  A    between atoms: C12_13  and  C13_14 
REMARK    3  A    between atoms: C13_14  and  C15_16 
REMARK    4  A    between atoms: C15_16  and  C16_17 
REMARK    5  A    between atoms: C16_17  and  C17_18 
REMARK    6  A    between atoms: C18_19  and  C20_21 
REMARK    7  A    between atoms: C20_21  and  O3_23 
REMARK    8  A    between atoms: C27_30  and  C28_31 
REMARK    9  A    between atoms: C28_31  and  C29_32 
REMARK   10  A    between atoms: C29_32  and  C30_33 
REMARK   11  A    between atoms: C30_33  and  O5_35 
ROOT
HETATM    1  C4  UNL     1       5.286  12.049  20.777  1.00  0.00     0.054 C 
HETATM    2  C5  UNL     1       5.345  13.089  19.689  1.00  0.00     0.160 A 
HETATM    3  O1  UNL     1       4.415  14.177  19.787  1.00  0.00    -0.374 OA
HETATM    4  C6  UNL     1       4.239  13.266  18.694  1.00  0.00     0.157 A 
HETATM    5  C7  UNL     1       3.024  12.379  18.715  1.00  0.00     0.035 C 
HETATM    6  C8  UNL     1       1.723  13.086  18.169  1.00  0.00    -0.029 C 
HETATM    7  C9  UNL     1       1.537  14.496  18.778  1.00  0.00     0.016 C 
HETATM    8  C10 UNL     1       1.852  13.271  16.617  1.00  0.00     0.011 C 
HETATM    9  C11 UNL     1       0.753  12.444  15.964  1.00  0.00     0.006 C 
HETATM   10  C12 UNL     1      -0.353  12.410  17.013  1.00  0.00    -0.002 C 
HETATM   11  C21 UNL     1       0.422  12.178  18.353  1.00  0.00    -0.032 C 
HETATM   12  C22 UNL     1      -0.490  12.593  19.533  1.00  0.00     0.016 C 
HETATM   13  C23 UNL     1       0.840  10.706  18.569  1.00  0.00     0.011 C 
HETATM   14  C24 UNL     1       1.721  10.495  19.805  1.00  0.00     0.011 C 
HETATM   15  C25 UNL     1       2.754  11.602  20.008  1.00  0.00    -0.024 A 
HETATM   16  C26 UNL     1       2.708  12.323  21.336  1.00  0.00     0.022 A 
HETATM   17  C27 UNL     1       3.894  11.415  21.057  1.00  0.00    -0.021 A 
ENDROOT
BRANCH  10  18
HETATM   18  C13 UNL     1      -1.561  11.482  16.682  1.00  0.00    -0.014 C 
HETATM   19  C14 UNL     1      -2.724  11.573  17.674  1.00  0.00     0.010 C 
BRANCH  18  20
HETATM   20  C15 UNL     1      -1.045  10.021  16.558  1.00  0.00     0.008 C 
BRANCH  20  21
HETATM   21  C16 UNL     1      -2.121   8.922  16.617  1.00  0.00     0.028 C 
BRANCH  21  22
HETATM   22  C17 UNL     1      -1.806   7.721  15.767  1.00  0.00    -0.013 C 
HETATM   23  C18 UNL     1      -2.673   6.875  15.172  1.00  0.00     0.008 C 
HETATM   24  C19 UNL     1      -2.210   5.667  14.412  1.00  0.00     0.055 C 
BRANCH  23  25
HETATM   25  C20 UNL     1      -4.144   7.025  15.215  1.00  0.00     0.171 C 
HETATM   26  O2  UNL     1      -4.799   7.777  14.514  1.00  0.00    -0.646 OA
BRANCH  25  27
HETATM   27  O3  UNL     1      -4.717   6.310  16.197  1.00  0.00    -0.773 OA
HETATM   28  H30 UNL     1      -5.664   6.545  16.132  1.00  0.00     0.167 HD
ENDBRANCH  25  27
ENDBRANCH  23  25
ENDBRANCH  21  22
ENDBRANCH  20  21
ENDBRANCH  18  20
ENDBRANCH  10  18
BRANCH  17  29
HETATM   29  C28 UNL     1       4.020  10.052  21.771  1.00  0.00     0.021 C 
BRANCH  29  30
HETATM   30  C29 UNL     1       3.318   9.906  23.115  1.00  0.00     0.111 C 
BRANCH  30  31
HETATM   31  C30 UNL     1       2.400   8.719  23.170  1.00  0.00     0.139 C 
HETATM   32  O4  UNL     1       2.096   8.002  22.231  1.00  0.00    -0.650 OA
BRANCH  31  33
HETATM   33  O5  UNL     1       1.950   8.454  24.411  1.00  0.00    -0.776 OA
HETATM   34  H44 UNL     1       1.340   7.700  24.278  1.00  0.00     0.167 HD
ENDBRANCH  31  33
ENDBRANCH  30  31
ENDBRANCH  29  30
ENDBRANCH  17  29
BRANCH   1  35
HETATM   35  C2  UNL     1       6.053  12.494  22.029  1.00  0.00    -0.086 C 
HETATM   36  C1  UNL     1       6.259  11.696  23.090  1.00  0.00     0.014 C 
HETATM   37  C3  UNL     1       6.551  13.915  22.026  1.00  0.00     0.043 C 
ENDBRANCH   1  35
TORSDOF 11
ENDMDL
MODEL 2
REMARK minimizedAffinity -6.48749685
REMARK CNNscore 0.212865904
REMARK CNNaffinity 5.78254557
REMARK  11 active torsions:
REMARK  status: ('A' for Active; 'I' for Inactive)
REMARK    1  A    between atoms: C2_2  and  C4_4 
REMARK    2  A    between atoms: C12_13  and  C13_14 
REMARK    3  A    between atoms: C13_14  and  C15_16 
REMARK    4  A    between atoms: C15_16  and  C16_17 
REMARK    5  A    between atoms: C16_17  and  C17_18 
REMARK    6  A    between atoms: C18_19  and  C20_21 
REMARK    7  A    between atoms: C20_21  and  O3_23 
REMARK    8  A    between atoms: C27_30  and  C28_31 
REMARK    9  A    between atoms: C28_31  and  C29_32 
REMARK   10  A    between atoms: C29_32  and  C30_33 
REMARK   11  A    between atoms: C30_33  and  O5_35 
ROOT
HETATM    1  C4  UNL     1      -2.644  13.830  17.878  1.00  0.00     0.054 C 
HETATM    2  C5  UNL     1      -1.879  15.015  18.405  1.00  0.00     0.160 A 
HETATM    3  O1  UNL     1      -0.575  15.237  17.851  1.00  0.00    -0.374 OA
HETATM    4  C6  UNL     1      -0.640  14.860  19.233  1.00  0.00     0.157 A 
HETATM    5  C7  UNL     1      -0.121  13.499  19.609  1.00  0.00     0.035 C 
HETATM    6  C8  UNL     1       1.445  13.459  19.803  1.00  0.00    -0.029 C 
HETATM    7  C9  UNL     1       2.186  14.166  18.644  1.00  0.00     0.016 C 
HETATM    8  C10 UNL     1       1.819  14.225  21.119  1.00  0.00     0.011 C 
HETATM    9  C11 UNL     1       2.442  13.217  22.075  1.00  0.00     0.006 C 
HETATM   10  C12 UNL     1       3.068  12.176  21.153  1.00  0.00    -0.002 C 
HETATM   11  C21 UNL     1       1.985  11.975  20.041  1.00  0.00    -0.032 C 
HETATM   12  C22 UNL     1       2.656  11.328  18.805  1.00  0.00     0.016 C 
HETATM   13  C23 UNL     1       0.820  11.062  20.483  1.00  0.00     0.011 C 
HETATM   14  C24 UNL     1      -0.314  10.974  19.455  1.00  0.00     0.011 C 
HETATM   15  C25 UNL     1      -0.625  12.311  18.784  1.00  0.00    -0.024 A 
HETATM   16  C26 UNL     1      -0.536  12.337  17.274  1.00  0.00     0.022 A 
HETATM   17  C27 UNL     1      -1.911  12.458  17.911  1.00  0.00    -0.021 A 
ENDROOT
BRANCH  10  18
HETATM   18  C13 UNL     1       3.648  10.915  21.864  1.00  0.00    -0.014 C 
HETATM   19  C14 UNL     1       3.184  10.731  23.312  1.00  0.00     0.010 C 
BRANCH  18  20
HETATM   20  C15 UNL     1       5.199  10.965  21.776  1.00  0.00     0.008 C 
BRANCH  20  21
HETATM   21  C16 UNL     1       5.933  11.327  23.079  1.00  0.00     0.028 C 
BRANCH  21  22
HETATM   22  C17 UNL     1       6.314  12.781  23.174  1.00  0.00    -0.013 C 
HETATM   23  C18 UNL     1       7.550  13.318  23.134  1.00  0.00     0.008 C 
HETATM   24  C19 UNL     1       7.784  14.789  23.319  1.00  0.00     0.055 C 
BRANCH  23  25
HETATM   25  C20 UNL     1       8.791  12.538  22.928  1.00  0.00     0.171 C 
HETATM   26  O2  UNL     1       9.778  12.926  22.329  1.00  0.00    -0.646 OA
BRANCH  25  27
HETATM   27  O3  UNL     1       8.703  11.281  23.391  1.00  0.00    -0.773 OA
HETATM   28  H30 UNL     1       9.563  10.883  23.143  1.00  0.00     0.167 HD
ENDBRANCH  25  27
ENDBRANCH  23  25
ENDBRANCH  21  22
ENDBRANCH  20  21
ENDBRANCH  18  20
ENDBRANCH  10  18
BRANCH  17  29
HETATM   29  C28 UNL     1      -2.904  11.278  17.859  1.00  0.00     0.021 C 
BRANCH  29  30
HETATM   30  C29 UNL     1      -2.659  10.212  16.798  1.00  0.00     0.111 C 
BRANCH  30  31
HETATM   31  C30 UNL     1      -3.194  10.597  15.449  1.00  0.00     0.139 C 
HETATM   32  O4  UNL     1      -2.557  10.645  14.410  1.00  0.00    -0.650 OA
BRANCH  31  33
HETATM   33  O5  UNL     1      -4.516  10.853  15.457  1.00  0.00    -0.776 OA
HETATM   34  H44 UNL     1      -4.702  11.130  14.536  1.00  0.00     0.167 HD
ENDBRANCH  31  33
ENDBRANCH  30  31
ENDBRANCH  29  30
ENDBRANCH  17  29
BRANCH   1  35
HETATM   35  C2  UNL     1      -3.345  14.151  16.551  1.00  0.00    -0.086 C 
HETATM   36  C1  UNL     1      -2.682  14.438  15.417  1.00  0.00     0.014 C 
HETATM   37  C3  UNL     1      -4.849  14.162  16.587  1.00  0.00     0.043 C 
ENDBRANCH   1  35
TORSDOF 11
ENDMDL
MODEL 3
REMARK minimizedAffinity -7.02669477
REMARK CNNscore 0.209380031
REMARK CNNaffinity 6.09559393
REMARK  11 active torsions:
REMARK  status: ('A' for Active; 'I' for Inactive)
REMARK    1  A    between atoms: C2_2  and  C4_4 
REMARK    2  A    between atoms: C12_13  and  C13_14 
REMARK    3  A    between atoms: C13_14  and  C15_16 
REMARK    4  A    between atoms: C15_16  and  C16_17 
REMARK    5  A    between atoms: C16_17  and  C17_18 
REMARK    6  A    between atoms: C18_19  and  C20_21 
REMARK    7  A    between atoms: C20_21  and  O3_23 
REMARK    8  A    between atoms: C27_30  and  C28_31 
REMARK    9  A    between atoms: C28_31  and  C29_32 
REMARK   10  A    between atoms: C29_32  and  C30_33 
REMARK   11  A    between atoms: C30_33  and  O5_35 
ROOT
HETATM    1  C4  UNL     1       2.831   5.942   9.985  1.00  0.00     0.054 C 
HETATM    2  C5  UNL     1       1.960   4.944  10.699  1.00  0.00     0.160 A 
HETATM    3  O1  UNL     1       0.545   5.180  10.659  1.00  0.00    -0.374 OA
HETATM    4  C6  UNL     1       1.189   5.297  11.935  1.00  0.00     0.157 A 
HETATM    5  C7  UNL     1       1.283   6.669  12.544  1.00  0.00     0.035 C 
HETATM    6  C8  UNL     1      -0.027   7.106  13.308  1.00  0.00    -0.029 C 
HETATM    7  C9  UNL     1      -1.299   6.825  12.473  1.00  0.00     0.016 C 
HETATM    8  C10 UNL     1      -0.154   6.270  14.629  1.00  0.00     0.011 C 
HETATM    9  C11 UNL     1      -0.066   7.243  15.797  1.00  0.00     0.006 C 
HETATM   10  C12 UNL     1      -0.606   8.549  15.227  1.00  0.00    -0.002 C 
HETATM   11  C21 UNL     1       0.041   8.622  13.803  1.00  0.00    -0.032 C 
HETATM   12  C22 UNL     1      -0.769   9.618  12.939  1.00  0.00     0.016 C 
HETATM   13  C23 UNL     1       1.511   9.097  13.826  1.00  0.00     0.011 C 
HETATM   14  C24 UNL     1       2.196   9.034  12.456  1.00  0.00     0.011 C 
HETATM   15  C25 UNL     1       1.825   7.790  11.651  1.00  0.00    -0.024 A 
HETATM   16  C26 UNL     1       1.227   8.033  10.284  1.00  0.00     0.022 A 
HETATM   17  C27 UNL     1       2.623   7.438  10.357  1.00  0.00    -0.021 A 
ENDROOT
BRANCH  10  18
HETATM   18  C13 UNL     1      -0.484   9.789  16.164  1.00  0.00    -0.014 C 
HETATM   19  C14 UNL     1      -1.573  10.848  15.965  1.00  0.00     0.010 C 
BRANCH  18  20
HETATM   20  C15 UNL     1       0.933  10.406  15.989  1.00  0.00     0.008 C 
BRANCH  20  21
HETATM   21  C16 UNL     1       1.921  10.154  17.141  1.00  0.00     0.028 C 
BRANCH  21  22
HETATM   22  C17 UNL     1       1.406  10.590  18.487  1.00  0.00    -0.013 C 
HETATM   23  C18 UNL     1       2.104  11.127  19.508  1.00  0.00     0.008 C 
HETATM   24  C19 UNL     1       1.466  11.444  20.828  1.00  0.00     0.055 C 
BRANCH  23  25
HETATM   25  C20 UNL     1       3.550  11.440  19.454  1.00  0.00     0.171 C 
HETATM   26  O2  UNL     1       4.441  10.741  19.902  1.00  0.00    -0.646 OA
BRANCH  25  27
HETATM   27  O3  UNL     1       3.807  12.652  18.936  1.00  0.00    -0.773 OA
HETATM   28  H30 UNL     1       4.779  12.734  19.011  1.00  0.00     0.167 HD
ENDBRANCH  25  27
ENDBRANCH  23  25
ENDBRANCH  21  22
ENDBRANCH  20  21
ENDBRANCH  18  20
ENDBRANCH  10  18
BRANCH  17  29
HETATM   29  C28 UNL     1       3.857   8.293   9.999  1.00  0.00     0.021 C 
BRANCH  29  30
HETATM   30  C29 UNL     1       5.017   8.284  10.987  1.00  0.00     0.111 C 
BRANCH  30  31
HETATM   31  C30 UNL     1       5.635   6.925  11.150  1.00  0.00     0.139 C 
HETATM   32  O4  UNL     1       6.320   6.343  10.326  1.00  0.00    -0.650 OA
BRANCH  31  33
HETATM   33  O5  UNL     1       5.409   6.382  12.362  1.00  0.00    -0.776 OA
HETATM   34  H44 UNL     1       5.824   5.498  12.299  1.00  0.00     0.167 HD
ENDBRANCH  31  33
ENDBRANCH  30  31
ENDBRANCH  29  30
ENDBRANCH  17  29
BRANCH   1  35
HETATM   35  C2  UNL     1       2.902   5.659   8.478  1.00  0.00    -0.086 C 
HETATM   36  C1  UNL     1       2.342   6.453   7.551  1.00  0.00     0.014 C 
HETATM   37  C3  UNL     1       3.622   4.399   8.079  1.00  0.00     0.043 C 
ENDBRANCH   1  35
TORSDOF 11
ENDMDL
MODEL 4
REMARK minimizedAffinity -9.07437325
REMARK CNNscore 0.188511983
REMARK CNNaffinity 6.77150965
REMARK  11 active torsions:
REMARK  status: ('A' for Active; 'I' for Inactive)
REMARK    1  A    between atoms: C2_2  and  C4_4 
REMARK    2  A    between atoms: C12_13  and  C13_14 
REMARK    3  A    between atoms: C13_14  and  C15_16 
REMARK    4  A    between atoms: C15_16  and  C16_17 
REMARK    5  A    between atoms: C16_17  and  C17_18 
REMARK    6  A    between atoms: C18_19  and  C20_21 
REMARK    7  A    between atoms: C20_21  and  O3_23 
REMARK    8  A    between atoms: C27_30  and  C28_31 
REMARK    9  A    between atoms: C28_31  and  C29_32 
REMARK   10  A    between atoms: C29_32  and  C30_33 
REMARK   11  A    between atoms: C30_33  and  O5_35 
ROOT
HETATM    1  C4  UNL     1      -4.316   3.701  12.798  1.00  0.00     0.054 C 
HETATM    2  C5  UNL     1      -4.601   4.921  13.634  1.00  0.00     0.160 A 
HETATM    3  O1  UNL     1      -4.483   6.192  12.978  1.00  0.00    -0.374 OA
HETATM    4  C6  UNL     1      -3.529   5.899  14.008  1.00  0.00     0.157 A 
HETATM    5  C7  UNL     1      -2.100   5.683  13.593  1.00  0.00     0.035 C 
HETATM    6  C8  UNL     1      -1.294   7.027  13.404  1.00  0.00    -0.029 C 
HETATM    7  C9  UNL     1      -2.088   8.062  12.573  1.00  0.00     0.016 C 
HETATM    8  C10 UNL     1      -1.035   7.672  14.810  1.00  0.00     0.011 C 
HETATM    9  C11 UNL     1       0.471   7.694  15.035  1.00  0.00     0.006 C 
HETATM   10  C12 UNL     1       1.050   7.777  13.627  1.00  0.00    -0.002 C 
HETATM   11  C21 UNL     1       0.167   6.775  12.809  1.00  0.00    -0.032 C 
HETATM   12  C22 UNL     1       0.312   7.099  11.303  1.00  0.00     0.016 C 
HETATM   13  C23 UNL     1       0.567   5.298  13.020  1.00  0.00     0.011 C 
HETATM   14  C24 UNL     1      -0.380   4.304  12.339  1.00  0.00     0.011 C 
HETATM   15  C25 UNL     1      -1.851   4.701  12.443  1.00  0.00    -0.024 A 
HETATM   16  C26 UNL     1      -2.597   4.851  11.137  1.00  0.00     0.022 A 
HETATM   17  C27 UNL     1      -2.960   3.681  12.037  1.00  0.00    -0.021 A 
ENDROOT
BRANCH  10  18
HETATM   18  C13 UNL     1       2.600   7.649  13.533  1.00  0.00    -0.014 C 
HETATM   19  C14 UNL     1       3.349   8.020  14.817  1.00  0.00     0.010 C 
BRANCH  18  20
HETATM   20  C15 UNL     1       3.097   8.501  12.330  1.00  0.00     0.008 C 
BRANCH  20  21
HETATM   21  C16 UNL     1       4.000   7.772  11.320  1.00  0.00     0.028 C 
BRANCH  21  22
HETATM   22  C17 UNL     1       3.400   7.659   9.944  1.00  0.00    -0.013 C 
HETATM   23  C18 UNL     1       3.125   6.537   9.248  1.00  0.00     0.008 C 
HETATM   24  C19 UNL     1       2.595   6.582   7.845  1.00  0.00     0.055 C 
BRANCH  23  25
HETATM   25  C20 UNL     1       3.331   5.166   9.765  1.00  0.00     0.171 C 
HETATM   26  O2  UNL     1       2.467   4.459  10.252  1.00  0.00    -0.646 OA
BRANCH  25  27
HETATM   27  O3  UNL     1       4.617   4.783   9.744  1.00  0.00    -0.773 OA
HETATM   28  H30 UNL     1       4.601   3.895  10.154  1.00  0.00     0.167 HD
ENDBRANCH  25  27
ENDBRANCH  23  25
ENDBRANCH  21  22
ENDBRANCH  20  21
ENDBRANCH  18  20
ENDBRANCH  10  18
BRANCH  17  29
HETATM   29  C28 UNL     1      -2.536   2.245  11.662  1.00  0.00     0.021 C 
BRANCH  29  30
HETATM   30  C29 UNL     1      -1.892   2.047  10.295  1.00  0.00     0.111 C 
BRANCH  30  31
HETATM   31  C30 UNL     1      -0.845   0.971  10.293  1.00  0.00     0.139 C 
HETATM   32  O4  UNL     1      -0.298   0.498  11.276  1.00  0.00    -0.650 OA
BRANCH  31  33
HETATM   33  O5  UNL     1      -0.571   0.500   9.061  1.00  0.00    -0.776 OA
HETATM   34  H44 UNL     1       0.148  -0.145   9.216  1.00  0.00     0.167 HD
ENDBRANCH  31  33
ENDBRANCH  30  31
ENDBRANCH  29  30
ENDBRANCH  17  29
BRANCH   1  35
HETATM   35  C2  UNL     1      -5.532   3.295  11.954  1.00  0.00    -0.086 C 
HETATM   36  C1  UNL     1      -5.474   3.091  10.627  1.00  0.00     0.014 C 
HETATM   37  C3  UNL     1      -6.834   3.162  12.698  1.00  0.00     0.043 C 
ENDBRANCH   1  35
TORSDOF 11
ENDMDL
MODEL 5
REMARK minimizedAffinity -6.50747919
REMARK CNNscore 0.166546822
REMARK CNNaffinity 5.49603033
REMARK  11 active torsions:
REMARK  status: ('A' for Active; 'I' for Inactive)
REMARK    1  A    between atoms: C2_2  and  C4_4 
REMARK    2  A    between atoms: C12_13  and  C13_14 
REMARK    3  A    between atoms: C13_14  and  C15_16 
REMARK    4  A    between atoms: C15_16  and  C16_17 
REMARK    5  A    between atoms: C16_17  and  C17_18 
REMARK    6  A    between atoms: C18_19  and  C20_21 
REMARK    7  A    between atoms: C20_21  and  O3_23 
REMARK    8  A    between atoms: C27_30  and  C28_31 
REMARK    9  A    between atoms: C28_31  and  C29_32 
REMARK   10  A    between atoms: C29_32  and  C30_33 
REMARK   11  A    between atoms: C30_33  and  O5_35 
ROOT
HETATM    1  C4  UNL     1      -5.900 -10.380  -0.263  1.00  0.00     0.054 C 
HETATM    2  C5  UNL     1      -4.433 -10.529   0.043  1.00  0.00     0.160 A 
HETATM    3  O1  UNL     1      -4.032 -11.738   0.703  1.00  0.00    -0.374 OA
HETATM    4  C6  UNL     1      -3.904 -10.517   1.445  1.00  0.00     0.157 A 
HETATM    5  C7  UNL     1      -4.823 -10.318   2.620  1.00  0.00     0.035 C 
HETATM    6  C8  UNL     1      -4.315 -11.023   3.937  1.00  0.00    -0.029 C 
HETATM    7  C9  UNL     1      -3.866 -12.480   3.673  1.00  0.00     0.016 C 
HETATM    8  C10 UNL     1      -3.063 -10.252   4.483  1.00  0.00     0.011 C 
HETATM    9  C11 UNL     1      -3.435  -9.679   5.844  1.00  0.00     0.006 C 
HETATM   10  C12 UNL     1      -4.488 -10.646   6.373  1.00  0.00    -0.002 C 
HETATM   11  C21 UNL     1      -5.384 -10.931   5.121  1.00  0.00    -0.032 C 
HETATM   12  C22 UNL     1      -6.184 -12.233   5.367  1.00  0.00     0.016 C 
HETATM   13  C23 UNL     1      -6.394  -9.800   4.823  1.00  0.00     0.011 C 
HETATM   14  C24 UNL     1      -7.174 -10.002   3.519  1.00  0.00     0.011 C 
HETATM   15  C25 UNL     1      -6.317 -10.557   2.383  1.00  0.00    -0.024 A 
HETATM   16  C26 UNL     1      -6.793 -11.849   1.757  1.00  0.00     0.022 A 
HETATM   17  C27 UNL     1      -6.881 -10.579   0.927  1.00  0.00    -0.021 A 
ENDROOT
BRANCH  10  18
HETATM   18  C13 UNL     1      -5.183 -10.218   7.701  1.00  0.00    -0.014 C 
HETATM   19  C14 UNL     1      -5.875  -8.853   7.647  1.00  0.00     0.010 C 
BRANCH  18  20
HETATM   20  C15 UNL     1      -4.134 -10.268   8.849  1.00  0.00     0.008 C 
BRANCH  20  21
HETATM   21  C16 UNL     1      -4.599  -9.713  10.206  1.00  0.00     0.028 C 
BRANCH  21  22
HETATM   22  C17 UNL     1      -5.455 -10.673  10.990  1.00  0.00    -0.013 C 
HETATM   23  C18 UNL     1      -6.395 -10.382  11.913  1.00  0.00     0.008 C 
HETATM   24  C19 UNL     1      -7.119 -11.453  12.675  1.00  0.00     0.055 C 
BRANCH  23  25
HETATM   25  C20 UNL     1      -6.796  -9.008  12.288  1.00  0.00     0.171 C 
HETATM   26  O2  UNL     1      -7.453  -8.251  11.597  1.00  0.00    -0.646 OA
BRANCH  25  27
HETATM   27  O3  UNL     1      -6.273  -8.609  13.459  1.00  0.00    -0.773 OA
HETATM   28  H30 UNL     1      -6.580  -7.684  13.546  1.00  0.00     0.167 HD
ENDBRANCH  25  27
ENDBRANCH  23  25
ENDBRANCH  21  22
ENDBRANCH  20  21
ENDBRANCH  18  20
ENDBRANCH  10  18
BRANCH  17  29
HETATM   29  C28 UNL     1      -8.247  -9.914   0.659  1.00  0.00     0.021 C 
BRANCH  29  30
HETATM   30  C29 UNL     1      -8.252  -8.671  -0.223  1.00  0.00     0.111 C 
BRANCH  30  31
HETATM   31  C30 UNL     1      -9.637  -8.208  -0.573  1.00  0.00     0.139 C 
HETATM   32  O4  UNL     1     -10.551  -8.911  -0.970  1.00  0.00    -0.650 OA
BRANCH  31  33
HETATM   33  O5  UNL     1      -9.826  -6.892  -0.358  1.00  0.00    -0.776 OA
HETATM   34  H44 UNL     1     -10.740  -6.736  -0.672  1.00  0.00     0.167 HD
ENDBRANCH  31  33
ENDBRANCH  30  31
ENDBRANCH  29  30
ENDBRANCH  17  29
BRANCH   1  35
HETATM   35  C2  UNL     1      -6.290 -11.123  -1.548  1.00  0.00    -0.086 C 
HETATM   36  C1  UNL     1      -7.375 -11.909  -1.645  1.00  0.00     0.014 C 
HETATM   37  C3  UNL     1      -5.358 -10.949  -2.717  1.00  0.00     0.043 C 
ENDBRANCH   1  35
TORSDOF 11
ENDMDL
MODEL 6
REMARK minimizedAffinity -8.01188087
REMARK CNNscore 0.141092286
REMARK CNNaffinity 6.31372452
REMARK  11 active torsions:
REMARK  status: ('A' for Active; 'I' for Inactive)
REMARK    1  A    between atoms: C2_2  and  C4_4 
REMARK    2  A    between atoms: C12_13  and  C13_14 
REMARK    3  A    between atoms: C13_14  and  C15_16 
REMARK    4  A    between atoms: C15_16  and  C16_17 
REMARK    5  A    between atoms: C16_17  and  C17_18 
REMARK    6  A    between atoms: C18_19  and  C20_21 
REMARK    7  A    between atoms: C20_21  and  O3_23 
REMARK    8  A    between atoms: C27_30  and  C28_31 
REMARK    9  A    between atoms: C28_31  and  C29_32 
REMARK   10  A    between atoms: C29_32  and  C30_33 
REMARK   11  A    between atoms: C30_33  and  O5_35 
ROOT
HETATM    1  C4  UNL     1      -3.209   3.572  12.155  1.00  0.00     0.054 C 
HETATM    2  C5  UNL     1      -3.898   4.424  13.188  1.00  0.00     0.160 A 
HETATM    3  O1  UNL     1      -4.078   5.809  12.864  1.00  0.00    -0.374 OA
HETATM    4  C6  UNL     1      -3.180   5.504  13.939  1.00  0.00     0.157 A 
HETATM    5  C7  UNL     1      -1.715   5.762  13.718  1.00  0.00     0.035 C 
HETATM    6  C8  UNL     1      -1.300   7.264  13.967  1.00  0.00    -0.029 C 
HETATM    7  C9  UNL     1      -2.270   8.251  13.276  1.00  0.00     0.016 C 
HETATM    8  C10 UNL     1      -1.362   7.565  15.505  1.00  0.00     0.011 C 
HETATM    9  C11 UNL     1       0.051   7.898  15.965  1.00  0.00     0.006 C 
HETATM   10  C12 UNL     1       0.711   8.484  14.722  1.00  0.00    -0.002 C 
HETATM   11  C21 UNL     1       0.222   7.543  13.570  1.00  0.00    -0.032 C 
HETATM   12  C22 UNL     1       0.410   8.273  12.219  1.00  0.00     0.016 C 
HETATM   13  C23 UNL     1       0.995   6.208  13.503  1.00  0.00     0.011 C 
HETATM   14  C24 UNL     1       0.429   5.223  12.474  1.00  0.00     0.011 C 
HETATM   15  C25 UNL     1      -1.097   5.205  12.431  1.00  0.00    -0.024 A 
HETATM   16  C26 UNL     1      -1.732   5.500  11.090  1.00  0.00     0.022 A 
HETATM   17  C27 UNL     1      -1.837   4.085  11.634  1.00  0.00    -0.021 A 
ENDROOT
BRANCH  10  18
HETATM   18  C13 UNL     1       2.238   8.771  14.849  1.00  0.00    -0.014 C 
HETATM   19  C14 UNL     1       2.711   9.089  16.271  1.00  0.00     0.010 C 
BRANCH  18  20
HETATM   20  C15 UNL     1       2.612   9.917  13.867  1.00  0.00     0.008 C 
BRANCH  20  21
HETATM   21  C16 UNL     1       3.591   9.543  12.741  1.00  0.00     0.028 C 
BRANCH  21  22
HETATM   22  C17 UNL     1       4.810   8.801  13.220  1.00  0.00    -0.013 C 
HETATM   23  C18 UNL     1       5.390   7.715  12.670  1.00  0.00     0.008 C 
HETATM   24  C19 UNL     1       6.564   7.032  13.307  1.00  0.00     0.055 C 
BRANCH  23  25
HETATM   25  C20 UNL     1       4.933   7.073  11.417  1.00  0.00     0.171 C 
HETATM   26  O2  UNL     1       5.337   7.339  10.299  1.00  0.00    -0.646 OA
BRANCH  25  27
HETATM   27  O3  UNL     1       3.926   6.206  11.608  1.00  0.00    -0.773 OA
HETATM   28  H30 UNL     1       3.704   5.906  10.703  1.00  0.00     0.167 HD
ENDBRANCH  25  27
ENDBRANCH  23  25
ENDBRANCH  21  22
ENDBRANCH  20  21
ENDBRANCH  18  20
ENDBRANCH  10  18
BRANCH  17  29
HETATM   29  C28 UNL     1      -0.998   2.946  11.017  1.00  0.00     0.021 C 
BRANCH  29  30
HETATM   30  C29 UNL     1      -1.527   1.527  11.182  1.00  0.00     0.111 C 
BRANCH  30  31
HETATM   31  C30 UNL     1      -0.628   0.492  10.569  1.00  0.00     0.139 C 
HETATM   32  O4  UNL     1       0.019  -0.346  11.174  1.00  0.00    -0.650 OA
BRANCH  31  33
HETATM   33  O5  UNL     1      -0.624   0.524   9.223  1.00  0.00    -0.776 OA
HETATM   34  H44 UNL     1       0.031  -0.162   8.979  1.00  0.00     0.167 HD
ENDBRANCH  31  33
ENDBRANCH  30  31
ENDBRANCH  29  30
ENDBRANCH  17  29
BRANCH   1  35
HETATM   35  C2  UNL     1      -4.181   3.112  11.059  1.00  0.00    -0.086 C 
HETATM   36  C1  UNL     1      -4.194   3.631   9.820  1.00  0.00     0.014 C 
HETATM   37  C3  UNL     1      -5.165   2.046  11.458  1.00  0.00     0.043 C 
ENDBRANCH   1  35
TORSDOF 11
ENDMDL
MODEL 7
REMARK minimizedAffinity -7.51111507
REMARK CNNscore 0.126651302
REMARK CNNaffinity 6.19463921
REMARK  11 active torsions:
REMARK  status: ('A' for Active; 'I' for Inactive)
REMARK    1  A    between atoms: C2_2  and  C4_4 
REMARK    2  A    between atoms: C12_13  and  C13_14 
REMARK    3  A    between atoms: C13_14  and  C15_16 
REMARK    4  A    between atoms: C15_16  and  C16_17 
REMARK    5  A    between atoms: C16_17  and  C17_18 
REMARK    6  A    between atoms: C18_19  and  C20_21 
REMARK    7  A    between atoms: C20_21  and  O3_23 
REMARK    8  A    between atoms: C27_30  and  C28_31 
REMARK    9  A    between atoms: C28_31  and  C29_32 
REMARK   10  A    between atoms: C29_32  and  C30_33 
REMARK   11  A    between atoms: C30_33  and  O5_35 
ROOT
HETATM    1  C4  UNL     1      -2.193   5.603  14.099  1.00  0.00     0.054 C 
HETATM    2  C5  UNL     1      -3.341   5.986  14.996  1.00  0.00     0.160 A 
HETATM    3  O1  UNL     1      -4.025   7.206  14.679  1.00  0.00    -0.374 OA
HETATM    4  C6  UNL     1      -3.282   7.175  15.905  1.00  0.00     0.157 A 
HETATM    5  C7  UNL     1      -2.045   8.027  15.991  1.00  0.00     0.035 C 
HETATM    6  C8  UNL     1      -2.345   9.531  16.360  1.00  0.00    -0.029 C 
HETATM    7  C9  UNL     1      -3.504  10.110  15.514  1.00  0.00     0.016 C 
HETATM    8  C10 UNL     1      -2.791   9.613  17.861  1.00  0.00     0.011 C 
HETATM    9  C11 UNL     1      -1.749  10.436  18.605  1.00  0.00     0.006 C 
HETATM   10  C12 UNL     1      -1.190  11.370  17.538  1.00  0.00    -0.002 C 
HETATM   11  C21 UNL     1      -1.036  10.443  16.285  1.00  0.00    -0.032 C 
HETATM   12  C22 UNL     1      -0.940  11.329  15.020  1.00  0.00     0.016 C 
HETATM   13  C23 UNL     1       0.224   9.551  16.339  1.00  0.00     0.011 C 
HETATM   14  C24 UNL     1       0.308   8.539  15.190  1.00  0.00     0.011 C 
HETATM   15  C25 UNL     1      -1.039   7.910  14.840  1.00  0.00    -0.024 A 
HETATM   16  C26 UNL     1      -1.498   8.067  13.408  1.00  0.00     0.022 A 
HETATM   17  C27 UNL     1      -1.093   6.680  13.880  1.00  0.00    -0.021 A 
ENDROOT
BRANCH  10  18
HETATM   18  C13 UNL     1       0.030  12.235  17.977  1.00  0.00    -0.014 C 
HETATM   19  C14 UNL     1       1.341  11.898  17.259  1.00  0.00     0.010 C 
BRANCH  18  20
HETATM   20  C15 UNL     1       0.193  12.118  19.519  1.00  0.00     0.008 C 
BRANCH  20  21
HETATM   21  C16 UNL     1       1.558  11.608  20.013  1.00  0.00     0.028 C 
BRANCH  21  22
HETATM   22  C17 UNL     1       1.465  10.396  20.902  1.00  0.00    -0.013 C 
HETATM   23  C18 UNL     1       2.462   9.775  21.565  1.00  0.00     0.008 C 
HETATM   24  C19 UNL     1       2.230   8.523  22.358  1.00  0.00     0.055 C 
BRANCH  23  25
HETATM   25  C20 UNL     1       3.869  10.233  21.570  1.00  0.00     0.171 C 
HETATM   26  O2  UNL     1       4.666  10.076  20.662  1.00  0.00    -0.646 OA
BRANCH  25  27
HETATM   27  O3  UNL     1       4.243  10.771  22.742  1.00  0.00    -0.773 OA
HETATM   28  H30 UNL     1       5.191  10.976  22.611  1.00  0.00     0.167 HD
ENDBRANCH  25  27
ENDBRANCH  23  25
ENDBRANCH  21  22
ENDBRANCH  20  21
ENDBRANCH  18  20
ENDBRANCH  10  18
BRANCH  17  29
HETATM   29  C28 UNL     1       0.237   6.053  13.414  1.00  0.00     0.021 C 
BRANCH  29  30
HETATM   30  C29 UNL     1       1.031   6.814  12.360  1.00  0.00     0.111 C 
BRANCH  30  31
HETATM   31  C30 UNL     1       1.781   5.909  11.426  1.00  0.00     0.139 C 
HETATM   32  O4  UNL     1       1.291   5.204  10.560  1.00  0.00    -0.650 OA
BRANCH  31  33
HETATM   33  O5  UNL     1       3.117   5.971  11.587  1.00  0.00    -0.776 OA
HETATM   34  H44 UNL     1       3.456   5.304  10.955  1.00  0.00     0.167 HD
ENDBRANCH  31  33
ENDBRANCH  30  31
ENDBRANCH  29  30
ENDBRANCH  17  29
BRANCH   1  35
HETATM   35  C2  UNL     1      -2.679   4.911  12.818  1.00  0.00    -0.086 C 
HETATM   36  C1  UNL     1      -3.964   4.908  12.423  1.00  0.00     0.014 C 
HETATM   37  C3  UNL     1      -1.626   4.191  12.019  1.00  0.00     0.043 C 
ENDBRANCH   1  35
TORSDOF 11
ENDMDL
MODEL 8
REMARK minimizedAffinity -7.76275539
REMARK CNNscore 0.124931633
REMARK CNNaffinity 6.69106436
REMARK  11 active torsions:
REMARK  status: ('A' for Active; 'I' for Inactive)
REMARK    1  A    between atoms: C2_2  and  C4_4 
REMARK    2  A    between atoms: C12_13  and  C13_14 
REMARK    3  A    between atoms: C13_14  and  C15_16 
REMARK    4  A    between atoms: C15_16  and  C16_17 
REMARK    5  A    between atoms: C16_17  and  C17_18 
REMARK    6  A    between atoms: C18_19  and  C20_21 
REMARK    7  A    between atoms: C20_21  and  O3_23 
REMARK    8  A    between atoms: C27_30  and  C28_31 
REMARK    9  A    between atoms: C28_31  and  C29_32 
REMARK   10  A    between atoms: C29_32  and  C30_33 
REMARK   11  A    between atoms: C30_33  and  O5_35 
ROOT
HETATM    1  C4  UNL     1      -0.111   8.075  11.675  1.00  0.00     0.054 C 
HETATM    2  C5  UNL     1      -0.876   9.287  12.139  1.00  0.00     0.160 A 
HETATM    3  O1  UNL     1      -1.027   9.449  13.556  1.00  0.00    -0.374 OA
HETATM    4  C6  UNL     1      -2.216   9.180  12.801  1.00  0.00     0.157 A 
HETATM    5  C7  UNL     1      -2.880   7.846  12.999  1.00  0.00     0.035 C 
HETATM    6  C8  UNL     1      -3.825   7.799  14.262  1.00  0.00    -0.029 C 
HETATM    7  C9  UNL     1      -3.145   8.405  15.512  1.00  0.00     0.016 C 
HETATM    8  C10 UNL     1      -5.106   8.659  13.977  1.00  0.00     0.011 C 
HETATM    9  C11 UNL     1      -6.303   7.719  13.997  1.00  0.00     0.006 C 
HETATM   10  C12 UNL     1      -5.877   6.603  14.944  1.00  0.00    -0.002 C 
HETATM   11  C21 UNL     1      -4.389   6.331  14.540  1.00  0.00    -0.032 C 
HETATM   12  C22 UNL     1      -3.688   5.582  15.699  1.00  0.00     0.016 C 
HETATM   13  C23 UNL     1      -4.250   5.470  13.265  1.00  0.00     0.011 C 
HETATM   14  C24 UNL     1      -2.803   5.319  12.781  1.00  0.00     0.011 C 
HETATM   15  C25 UNL     1      -1.987   6.604  12.908  1.00  0.00    -0.024 A 
HETATM   16  C26 UNL     1      -0.721   6.513  13.730  1.00  0.00     0.022 A 
HETATM   17  C27 UNL     1      -0.585   6.701  12.228  1.00  0.00    -0.021 A 
ENDROOT
BRANCH  10  18
HETATM   18  C13 UNL     1      -6.855   5.393  15.035  1.00  0.00    -0.014 C 
HETATM   19  C14 UNL     1      -7.300   4.830  13.681  1.00  0.00     0.010 C 
BRANCH  18  20
HETATM   20  C15 UNL     1      -8.081   5.808  15.896  1.00  0.00     0.008 C 
BRANCH  20  21
HETATM   21  C16 UNL     1      -9.157   6.639  15.176  1.00  0.00     0.028 C 
BRANCH  21  22
HETATM   22  C17 UNL     1      -9.150   6.470  13.679  1.00  0.00    -0.013 C 
HETATM   23  C18 UNL     1     -10.138   6.756  12.808  1.00  0.00     0.008 C 
HETATM   24  C19 UNL     1     -10.016   6.461  11.342  1.00  0.00     0.055 C 
BRANCH  23  25
HETATM   25  C20 UNL     1     -11.435   7.359  13.189  1.00  0.00     0.171 C 
HETATM   26  O2  UNL     1     -12.373   6.762  13.686  1.00  0.00    -0.646 OA
BRANCH  25  27
HETATM   27  O3  UNL     1     -11.536   8.652  12.840  1.00  0.00    -0.773 OA
HETATM   28  H30 UNL     1     -12.447   8.893  13.106  1.00  0.00     0.167 HD
ENDBRANCH  25  27
ENDBRANCH  23  25
ENDBRANCH  21  22
ENDBRANCH  20  21
ENDBRANCH  18  20
ENDBRANCH  10  18
BRANCH  17  29
HETATM   29  C28 UNL     1      -0.121   5.534  11.332  1.00  0.00     0.021 C 
BRANCH  29  30
HETATM   30  C29 UNL     1       1.237   4.917  11.646  1.00  0.00     0.111 C 
BRANCH  30  31
HETATM   31  C30 UNL     1       2.044   4.622  10.415  1.00  0.00     0.139 C 
HETATM   32  O4  UNL     1       2.305   5.410   9.521  1.00  0.00    -0.650 OA
BRANCH  31  33
HETATM   33  O5  UNL     1       2.531   3.367  10.389  1.00  0.00    -0.776 OA
HETATM   34  H44 UNL     1       2.983   3.314   9.522  1.00  0.00     0.167 HD
ENDBRANCH  31  33
ENDBRANCH  30  31
ENDBRANCH  29  30
ENDBRANCH  17  29
BRANCH   1  35
HETATM   35  C2  UNL     1       1.405   8.303  11.736  1.00  0.00    -0.086 C 
HETATM   36  C1  UNL     1       2.179   8.417  10.643  1.00  0.00     0.014 C 
HETATM   37  C3  UNL     1       2.007   8.364  13.115  1.00  0.00     0.043 C 
ENDBRANCH   1  35
TORSDOF 11
ENDMDL
MODEL 9
REMARK minimizedAffinity -6.98036194
REMARK CNNscore 0.107575461
REMARK CNNaffinity 5.56021643
REMARK  11 active torsions:
REMARK  status: ('A' for Active; 'I' for Inactive)
REMARK    1  A    between atoms: C2_2  and  C4_4 
REMARK    2  A    between atoms: C12_13  and  C13_14 
REMARK    3  A    between atoms: C13_14  and  C15_16 
REMARK    4  A    between atoms: C15_16  and  C16_17 
REMARK    5  A    between atoms: C16_17  and  C17_18 
REMARK    6  A    between atoms: C18_19  and  C20_21 
REMARK    7  A    between atoms: C20_21  and  O3_23 
REMARK    8  A    between atoms: C27_30  and  C28_31 
REMARK    9  A    between atoms: C28_31  and  C29_32 
REMARK   10  A    between atoms: C29_32  and  C30_33 
REMARK   11  A    between atoms: C30_33  and  O5_35 
ROOT
HETATM    1  C4  UNL     1      -6.771 -10.132  -1.864  1.00  0.00     0.054 C 
HETATM    2  C5  UNL     1      -5.392 -10.736  -1.918  1.00  0.00     0.160 A 
HETATM    3  O1  UNL     1      -5.220 -12.004  -1.270  1.00  0.00    -0.374 OA
HETATM    4  C6  UNL     1      -4.536 -10.881  -0.697  1.00  0.00     0.157 A 
HETATM    5  C7  UNL     1      -5.006 -10.389   0.644  1.00  0.00     0.035 C 
HETATM    6  C8  UNL     1      -4.409 -11.207   1.855  1.00  0.00    -0.029 C 
HETATM    7  C9  UNL     1      -4.512 -12.733   1.623  1.00  0.00     0.016 C 
HETATM    8  C10 UNL     1      -2.885 -10.869   2.001  1.00  0.00     0.011 C 
HETATM    9  C11 UNL     1      -2.692 -10.196   3.354  1.00  0.00     0.006 C 
HETATM   10  C12 UNL     1      -3.812 -10.773   4.212  1.00  0.00    -0.002 C 
HETATM   11  C21 UNL     1      -5.048 -10.770   3.252  1.00  0.00    -0.032 C 
HETATM   12  C22 UNL     1      -6.112 -11.748   3.807  1.00  0.00     0.016 C 
HETATM   13  C23 UNL     1      -5.707  -9.379   3.110  1.00  0.00     0.011 C 
HETATM   14  C24 UNL     1      -6.826  -9.335   2.064  1.00  0.00     0.011 C 
HETATM   15  C25 UNL     1      -6.510 -10.143   0.807  1.00  0.00    -0.024 A 
HETATM   16  C26 UNL     1      -7.503 -11.223   0.439  1.00  0.00     0.022 A 
HETATM   17  C27 UNL     1      -7.416  -9.998  -0.456  1.00  0.00    -0.021 A 
ENDROOT
BRANCH  10  18
HETATM   18  C13 UNL     1      -3.967 -10.135   5.626  1.00  0.00    -0.014 C 
HETATM   19  C14 UNL     1      -2.870  -9.132   5.996  1.00  0.00     0.010 C 
BRANCH  18  20
HETATM   20  C15 UNL     1      -4.059 -11.276   6.679  1.00  0.00     0.008 C 
BRANCH  20  21
HETATM   21  C16 UNL     1      -4.072 -10.830   8.151  1.00  0.00     0.028 C 
BRANCH  21  22
HETATM   22  C17 UNL     1      -5.231  -9.934   8.502  1.00  0.00    -0.013 C 
HETATM   23  C18 UNL     1      -5.664  -9.580   9.729  1.00  0.00     0.008 C 
HETATM   24  C19 UNL     1      -6.888  -8.736   9.927  1.00  0.00     0.055 C 
BRANCH  23  25
HETATM   25  C20 UNL     1      -5.012  -9.991  10.992  1.00  0.00     0.171 C 
HETATM   26  O2  UNL     1      -5.233 -11.025  11.597  1.00  0.00    -0.646 OA
BRANCH  25  27
HETATM   27  O3  UNL     1      -4.194  -9.051  11.492  1.00  0.00    -0.773 OA
HETATM   28  H30 UNL     1      -3.882  -9.440  12.334  1.00  0.00     0.167 HD
ENDBRANCH  25  27
ENDBRANCH  23  25
ENDBRANCH  21  22
ENDBRANCH  20  21
ENDBRANCH  18  20
ENDBRANCH  10  18
BRANCH  17  29
HETATM   29  C28 UNL     1      -8.535  -8.935  -0.439  1.00  0.00     0.021 C 
BRANCH  29  30
HETATM   30  C29 UNL     1      -8.274  -7.641  -1.199  1.00  0.00     0.111 C 
BRANCH  30  31
HETATM   31  C30 UNL     1      -9.527  -6.858  -1.468  1.00  0.00     0.139 C 
HETATM   32  O4  UNL     1     -10.161  -6.851  -2.509  1.00  0.00    -0.650 OA
BRANCH  31  33
HETATM   33  O5  UNL     1      -9.955  -6.161  -0.398  1.00  0.00    -0.776 OA
HETATM   34  H44 UNL     1     -10.735  -5.675  -0.737  1.00  0.00     0.167 HD
ENDBRANCH  31  33
ENDBRANCH  30  31
ENDBRANCH  29  30
ENDBRANCH  17  29
BRANCH   1  35
HETATM   35  C2  UNL     1      -7.692 -10.723  -2.939  1.00  0.00    -0.086 C 
HETATM   36  C1  UNL     1      -8.264 -11.935  -2.835  1.00  0.00     0.014 C 
HETATM   37  C3  UNL     1      -7.906  -9.873  -4.163  1.00  0.00     0.043 C 
ENDBRANCH   1  35
TORSDOF 11
ENDMDL
