MODEL 1
REMARK minimizedAffinity -9.62922478
REMARK  6 active torsions:
REMARK  status: ('A' for Active; 'I' for Inactive)
REMARK    1  A    between atoms: C2_2  and  N1_3 
REMARK    2  A    between atoms: N1_3  and  C3_4 
REMARK    3  A    between atoms: N1_3  and  C22_25 
REMARK    4  A    between atoms: C3_4  and  C4_5 
REMARK    5  A    between atoms: C5_6  and  C6_7 
REMARK    6  A    between atoms: C9_11  and  C10_12 
ROOT
HETATM    1  C6  UNL     1      -0.879  49.962 -20.917  1.00  0.00    -0.033 C 
HETATM    2  C7  UNL     1      -1.802  49.773 -21.933  1.00  0.00     0.036 C 
HETATM    3  C8  UNL     1      -1.776  50.585 -23.077  1.00  0.00     0.043 C 
HETATM    4 CL1  UNL     1      -3.128  50.343 -24.149  1.00  0.00    -0.084 Cl
HETATM    5  C9  UNL     1      -0.783  51.589 -23.293  1.00  0.00    -0.010 C 
HETATM    6  C20 UNL     1       0.069  51.821 -22.192  1.00  0.00     0.043 C 
HETATM    7 CL2  UNL     1       1.135  53.169 -22.011  1.00  0.00    -0.084 Cl
HETATM    8  C21 UNL     1       0.042  50.995 -21.051  1.00  0.00     0.036 C 
ENDROOT
BRANCH   1   9
HETATM    9  C5  UNL     1      -0.905  49.098 -19.735  1.00  0.00     0.009 C 
HETATM   10  C4  UNL     1      -0.674  49.491 -18.471  1.00  0.00    -0.007 C 
BRANCH  10  11
HETATM   11  C3  UNL     1      -0.413  50.886 -17.969  1.00  0.00     0.144 C 
BRANCH  11  12
HETATM   12  N1  UNL     1      -0.097  50.928 -16.535  1.00  0.00    -0.405 N 
BRANCH  12  13
HETATM   13  C2  UNL     1      -0.703  49.807 -15.809  1.00  0.00     0.113 C 
HETATM   14  C1  UNL     1       0.200  48.619 -15.502  1.00  0.00     0.026 C 
ENDBRANCH  12  13
BRANCH  12  15
HETATM   15  C22 UNL     1       1.286  51.324 -16.190  1.00  0.00     0.079 C 
HETATM   16  C23 UNL     1       1.582  51.609 -14.706  1.00  0.00     0.025 C 
HETATM   17  C24 UNL     1       3.084  51.771 -14.425  1.00  0.00     0.002 C 
HETATM   18  C25 UNL     1       3.926  52.047 -15.668  1.00  0.00     0.000 C 
HETATM   19  C26 UNL     1       3.215  52.988 -16.628  1.00  0.00     0.002 C 
HETATM   20  C27 UNL     1       1.837  52.477 -17.064  1.00  0.00     0.025 C 
ENDBRANCH  12  15
ENDBRANCH  11  12
ENDBRANCH  10  11
ENDBRANCH   1   9
BRANCH   5  21
HETATM   21  C10 UNL     1      -0.778  52.325 -24.649  1.00  0.00     0.030 C 
HETATM   22  C11 UNL     1       0.471  53.067 -25.224  1.00  0.00    -0.005 C 
HETATM   23  C12 UNL     1       1.501  52.112 -25.873  1.00  0.00     0.010 C 
HETATM   24  C16 UNL     1      -0.020  54.026 -26.343  1.00  0.00     0.010 C 
HETATM   25  C13 UNL     1       0.861  51.307 -27.007  1.00  0.00    -0.013 C 
HETATM   26  C14 UNL     1       0.352  52.267 -28.090  1.00  0.00     0.009 C 
HETATM   27  C19 UNL     1      -0.306  50.508 -26.415  1.00  0.00     0.010 C 
HETATM   28  C15 UNL     1      -0.678  53.232 -27.485  1.00  0.00    -0.013 C 
HETATM   29  C17 UNL     1      -1.854  52.412 -26.934  1.00  0.00     0.010 C 
HETATM   30  C18 UNL     1      -1.362  51.458 -25.825  1.00  0.00    -0.005 C 
ENDBRANCH   5  21
TORSDOF 6
ENDMDL
MODEL 2
REMARK minimizedAffinity -9.51959896
REMARK  6 active torsions:
REMARK  status: ('A' for Active; 'I' for Inactive)
REMARK    1  A    between atoms: C2_2  and  N1_3 
REMARK    2  A    between atoms: N1_3  and  C3_4 
REMARK    3  A    between atoms: N1_3  and  C22_25 
REMARK    4  A    between atoms: C3_4  and  C4_5 
REMARK    5  A    between atoms: C5_6  and  C6_7 
REMARK    6  A    between atoms: C9_11  and  C10_12 
ROOT
HETATM    1  C6  UNL     1      -1.271  49.729 -20.924  1.00  0.00    -0.033 C 
HETATM    2  C7  UNL     1      -0.406  50.805 -21.051  1.00  0.00     0.036 C 
HETATM    3  C8  UNL     1      -0.286  51.477 -22.277  1.00  0.00     0.043 C 
HETATM    4 CL1  UNL     1       0.991  52.664 -22.311  1.00  0.00    -0.084 Cl
HETATM    5  C9  UNL     1      -1.073  51.150 -23.423  1.00  0.00    -0.010 C 
HETATM    6  C20 UNL     1      -1.859  49.987 -23.284  1.00  0.00     0.043 C 
HETATM    7 CL2  UNL     1      -2.651  49.148 -24.570  1.00  0.00    -0.084 Cl
HETATM    8  C21 UNL     1      -1.982  49.322 -22.048  1.00  0.00     0.036 C 
ENDROOT
BRANCH   1   9
HETATM    9  C5  UNL     1      -1.402  49.045 -19.636  1.00  0.00     0.009 C 
HETATM   10  C4  UNL     1      -0.926  49.487 -18.461  1.00  0.00    -0.007 C 
BRANCH  10  11
HETATM   11  C3  UNL     1      -0.225  50.790 -18.178  1.00  0.00     0.144 C 
BRANCH  11  12
HETATM   12  N1  UNL     1      -0.050  51.045 -16.742  1.00  0.00    -0.405 N 
BRANCH  12  13
HETATM   13  C2  UNL     1      -0.862  50.139 -15.923  1.00  0.00     0.113 C 
HETATM   14  C1  UNL     1      -2.107  50.730 -15.273  1.00  0.00     0.026 C 
ENDBRANCH  12  13
BRANCH  12  15
HETATM   15  C22 UNL     1       1.332  51.340 -16.303  1.00  0.00     0.079 C 
HETATM   16  C23 UNL     1       1.584  51.413 -14.786  1.00  0.00     0.025 C 
HETATM   17  C24 UNL     1       3.078  51.480 -14.438  1.00  0.00     0.002 C 
HETATM   18  C25 UNL     1       3.973  51.889 -15.605  1.00  0.00     0.000 C 
HETATM   19  C26 UNL     1       3.328  52.975 -16.452  1.00  0.00     0.002 C 
HETATM   20  C27 UNL     1       1.951  52.578 -16.996  1.00  0.00     0.025 C 
ENDBRANCH  12  15
ENDBRANCH  11  12
ENDBRANCH  10  11
ENDBRANCH   1   9
BRANCH   5  21
HETATM   21  C10 UNL     1      -0.947  52.049 -24.671  1.00  0.00     0.030 C 
HETATM   22  C11 UNL     1       0.372  52.785 -25.076  1.00  0.00    -0.005 C 
HETATM   23  C12 UNL     1       1.392  51.861 -25.782  1.00  0.00     0.010 C 
HETATM   24  C16 UNL     1      -0.000  53.902 -26.088  1.00  0.00     0.010 C 
HETATM   25  C13 UNL     1       0.786  51.242 -27.044  1.00  0.00    -0.013 C 
HETATM   26  C14 UNL     1       0.395  52.357 -28.022  1.00  0.00     0.009 C 
HETATM   27  C19 UNL     1      -0.453  50.443 -26.626  1.00  0.00     0.010 C 
HETATM   28  C15 UNL     1      -0.623  53.296 -27.358  1.00  0.00    -0.013 C 
HETATM   29  C17 UNL     1      -1.870  52.480 -26.983  1.00  0.00     0.010 C 
HETATM   30  C18 UNL     1      -1.497  51.369 -25.980  1.00  0.00    -0.005 C 
ENDBRANCH   5  21
TORSDOF 6
ENDMDL
MODEL 3
REMARK minimizedAffinity -9.03188801
REMARK  6 active torsions:
REMARK  status: ('A' for Active; 'I' for Inactive)
REMARK    1  A    between atoms: C2_2  and  N1_3 
REMARK    2  A    between atoms: N1_3  and  C3_4 
REMARK    3  A    between atoms: N1_3  and  C22_25 
REMARK    4  A    between atoms: C3_4  and  C4_5 
REMARK    5  A    between atoms: C5_6  and  C6_7 
REMARK    6  A    between atoms: C9_11  and  C10_12 
ROOT
HETATM    1  C6  UNL     1      -2.626  51.258 -21.007  1.00  0.00    -0.033 C 
HETATM    2  C7  UNL     1      -3.520  51.605 -22.007  1.00  0.00     0.036 C 
HETATM    3  C8  UNL     1      -3.055  52.129 -23.223  1.00  0.00     0.043 C 
HETATM    4 CL1  UNL     1      -4.320  52.699 -24.279  1.00  0.00    -0.084 Cl
HETATM    5  C9  UNL     1      -1.667  52.273 -23.527  1.00  0.00    -0.010 C 
HETATM    6  C20 UNL     1      -0.798  52.011 -22.447  1.00  0.00     0.043 C 
HETATM    7 CL2  UNL     1       0.882  52.409 -22.387  1.00  0.00    -0.084 Cl
HETATM    8  C21 UNL     1      -1.271  51.476 -21.231  1.00  0.00     0.036 C 
ENDROOT
BRANCH   1   9
HETATM    9  C5  UNL     1      -3.120  50.697 -19.747  1.00  0.00     0.009 C 
HETATM   10  C4  UNL     1      -3.982  49.672 -19.630  1.00  0.00    -0.007 C 
BRANCH  10  11
HETATM   11  C3  UNL     1      -4.575  48.832 -20.730  1.00  0.00     0.144 C 
BRANCH  11  12
HETATM   12  N1  UNL     1      -3.579  48.400 -21.721  1.00  0.00    -0.405 N 
BRANCH  12  13
HETATM   13  C2  UNL     1      -2.729  47.321 -21.206  1.00  0.00     0.113 C 
HETATM   14  C1  UNL     1      -1.235  47.605 -21.122  1.00  0.00     0.026 C 
ENDBRANCH  12  13
BRANCH  12  15
HETATM   15  C22 UNL     1      -4.055  48.315 -23.119  1.00  0.00     0.079 C 
HETATM   16  C23 UNL     1      -3.081  48.776 -24.219  1.00  0.00     0.025 C 
HETATM   17  C24 UNL     1      -3.574  48.422 -25.629  1.00  0.00     0.002 C 
HETATM   18  C25 UNL     1      -5.064  48.095 -25.707  1.00  0.00     0.000 C 
HETATM   19  C26 UNL     1      -5.884  49.007 -24.809  1.00  0.00     0.002 C 
HETATM   20  C27 UNL     1      -5.442  48.967 -23.342  1.00  0.00     0.025 C 
ENDBRANCH  12  15
ENDBRANCH  11  12
ENDBRANCH  10  11
ENDBRANCH   1   9
BRANCH   5  21
HETATM   21  C10 UNL     1      -1.278  52.734 -24.947  1.00  0.00     0.030 C 
HETATM   22  C11 UNL     1       0.159  53.208 -25.338  1.00  0.00    -0.005 C 
HETATM   23  C12 UNL     1       1.142  52.037 -25.577  1.00  0.00     0.010 C 
HETATM   24  C16 UNL     1       0.054  53.987 -26.677  1.00  0.00     0.010 C 
HETATM   25  C13 UNL     1       0.628  51.110 -26.682  1.00  0.00    -0.013 C 
HETATM   26  C14 UNL     1       0.499  51.899 -27.991  1.00  0.00     0.009 C 
HETATM   27  C19 UNL     1      -0.740  50.575 -26.247  1.00  0.00     0.010 C 
HETATM   28  C15 UNL     1      -0.473  53.071 -27.796  1.00  0.00    -0.013 C 
HETATM   29  C17 UNL     1      -1.846  52.508 -27.399  1.00  0.00     0.010 C 
HETATM   30  C18 UNL     1      -1.738  51.732 -26.070  1.00  0.00    -0.005 C 
ENDBRANCH   5  21
TORSDOF 6
ENDMDL
MODEL 4
REMARK minimizedAffinity -8.98104095
REMARK  6 active torsions:
REMARK  status: ('A' for Active; 'I' for Inactive)
REMARK    1  A    between atoms: C2_2  and  N1_3 
REMARK    2  A    between atoms: N1_3  and  C3_4 
REMARK    3  A    between atoms: N1_3  and  C22_25 
REMARK    4  A    between atoms: C3_4  and  C4_5 
REMARK    5  A    between atoms: C5_6  and  C6_7 
REMARK    6  A    between atoms: C9_11  and  C10_12 
ROOT
HETATM    1  C6  UNL     1       0.206  52.885 -22.888  1.00  0.00    -0.033 C 
HETATM    2  C7  UNL     1       0.910  53.050 -21.706  1.00  0.00     0.036 C 
HETATM    3  C8  UNL     1       0.399  52.549 -20.499  1.00  0.00     0.043 C 
HETATM    4 CL1  UNL     1       1.311  53.025 -19.092  1.00  0.00    -0.084 Cl
HETATM    5  C9  UNL     1      -0.813  51.797 -20.422  1.00  0.00    -0.010 C 
HETATM    6  C20 UNL     1      -1.550  51.744 -21.624  1.00  0.00     0.043 C 
HETATM    7 CL2  UNL     1      -3.186  51.211 -21.778  1.00  0.00    -0.084 Cl
HETATM    8  C21 UNL     1      -1.026  52.242 -22.834  1.00  0.00     0.036 C 
ENDROOT
BRANCH   1   9
HETATM    9  C5  UNL     1       0.756  53.397 -24.145  1.00  0.00     0.009 C 
HETATM   10  C4  UNL     1       0.218  53.224 -25.364  1.00  0.00    -0.007 C 
BRANCH  10  11
HETATM   11  C3  UNL     1      -1.078  52.543 -25.716  1.00  0.00     0.144 C 
BRANCH  11  12
HETATM   12  N1  UNL     1      -0.921  51.518 -26.757  1.00  0.00    -0.405 N 
BRANCH  12  13
HETATM   13  C2  UNL     1       0.489  51.196 -26.999  1.00  0.00     0.113 C 
HETATM   14  C1  UNL     1       1.092  51.692 -28.307  1.00  0.00     0.026 C 
ENDBRANCH  12  13
BRANCH  12  15
HETATM   15  C22 UNL     1      -1.899  50.409 -26.722  1.00  0.00     0.079 C 
HETATM   16  C23 UNL     1      -3.085  50.491 -27.702  1.00  0.00     0.025 C 
HETATM   17  C24 UNL     1      -3.897  49.189 -27.755  1.00  0.00     0.002 C 
HETATM   18  C25 UNL     1      -3.664  48.258 -26.568  1.00  0.00     0.000 C 
HETATM   19  C26 UNL     1      -3.533  49.033 -25.266  1.00  0.00     0.002 C 
HETATM   20  C27 UNL     1      -2.419  50.085 -25.300  1.00  0.00     0.025 C 
ENDBRANCH  12  15
ENDBRANCH  11  12
ENDBRANCH  10  11
ENDBRANCH   1   9
BRANCH   5  21
HETATM   21  C10 UNL     1      -1.201  51.183 -19.060  1.00  0.00     0.030 C 
HETATM   22  C11 UNL     1      -2.678  51.023 -18.575  1.00  0.00    -0.005 C 
HETATM   23  C12 UNL     1      -3.394  49.801 -19.197  1.00  0.00     0.010 C 
HETATM   24  C16 UNL     1      -2.651  50.795 -17.039  1.00  0.00     0.010 C 
HETATM   25  C13 UNL     1      -2.644  48.507 -18.875  1.00  0.00    -0.013 C 
HETATM   26  C14 UNL     1      -2.597  48.309 -17.354  1.00  0.00     0.009 C 
HETATM   27  C19 UNL     1      -1.224  48.634 -19.438  1.00  0.00     0.010 C 
HETATM   28  C15 UNL     1      -1.889  49.503 -16.698  1.00  0.00    -0.013 C 
HETATM   29  C17 UNL     1      -0.457  49.586 -17.249  1.00  0.00     0.010 C 
HETATM   30  C18 UNL     1      -0.487  49.810 -18.775  1.00  0.00    -0.005 C 
ENDBRANCH   5  21
TORSDOF 6
ENDMDL
MODEL 5
REMARK minimizedAffinity -8.85384941
REMARK  6 active torsions:
REMARK  status: ('A' for Active; 'I' for Inactive)
REMARK    1  A    between atoms: C2_2  and  N1_3 
REMARK    2  A    between atoms: N1_3  and  C3_4 
REMARK    3  A    between atoms: N1_3  and  C22_25 
REMARK    4  A    between atoms: C3_4  and  C4_5 
REMARK    5  A    between atoms: C5_6  and  C6_7 
REMARK    6  A    between atoms: C9_11  and  C10_12 
ROOT
HETATM    1  C6  UNL     1      -4.354  48.307 -26.892  1.00  0.00    -0.033 C 
HETATM    2  C7  UNL     1      -5.552  47.964 -26.284  1.00  0.00     0.036 C 
HETATM    3  C8  UNL     1      -6.708  47.767 -27.055  1.00  0.00     0.043 C 
HETATM    4 CL1  UNL     1      -8.158  47.546 -26.113  1.00  0.00    -0.084 Cl
HETATM    5  C9  UNL     1      -6.712  47.839 -28.482  1.00  0.00    -0.010 C 
HETATM    6  C20 UNL     1      -5.503  48.293 -29.051  1.00  0.00     0.043 C 
HETATM    7 CL2  UNL     1      -5.291  48.802 -30.689  1.00  0.00    -0.084 Cl
HETATM    8  C21 UNL     1      -4.344  48.481 -28.271  1.00  0.00     0.036 C 
ENDROOT
BRANCH   1   9
HETATM    9  C5  UNL     1      -3.150  48.494 -26.080  1.00  0.00     0.009 C 
HETATM   10  C4  UNL     1      -2.673  49.672 -25.645  1.00  0.00    -0.007 C 
BRANCH  10  11
HETATM   11  C3  UNL     1      -3.282  51.038 -25.820  1.00  0.00     0.144 C 
BRANCH  11  12
HETATM   12  N1  UNL     1      -2.353  52.126 -25.484  1.00  0.00    -0.405 N 
BRANCH  12  13
HETATM   13  C2  UNL     1      -2.374  52.440 -24.051  1.00  0.00     0.113 C 
HETATM   14  C1  UNL     1      -3.698  52.242 -23.325  1.00  0.00     0.026 C 
ENDBRANCH  12  13
BRANCH  12  15
HETATM   15  C22 UNL     1      -1.046  52.095 -26.177  1.00  0.00     0.079 C 
HETATM   16  C23 UNL     1      -1.023  51.502 -27.599  1.00  0.00     0.025 C 
HETATM   17  C24 UNL     1       0.316  51.737 -28.314  1.00  0.00     0.002 C 
HETATM   18  C25 UNL     1       1.467  52.102 -27.381  1.00  0.00     0.000 C 
HETATM   19  C26 UNL     1       1.414  51.305 -26.087  1.00  0.00     0.002 C 
HETATM   20  C27 UNL     1       0.089  51.469 -25.332  1.00  0.00     0.025 C 
ENDBRANCH  12  15
ENDBRANCH  11  12
ENDBRANCH  10  11
ENDBRANCH   1   9
BRANCH   5  21
HETATM   21  C10 UNL     1      -8.013  47.470 -29.224  1.00  0.00     0.030 C 
HETATM   22  C11 UNL     1      -8.892  48.509 -29.994  1.00  0.00    -0.005 C 
HETATM   23  C12 UNL     1      -8.333  48.860 -31.393  1.00  0.00     0.010 C 
HETATM   24  C16 UNL     1     -10.291  47.873 -30.215  1.00  0.00     0.010 C 
HETATM   25  C13 UNL     1      -8.206  47.606 -32.261  1.00  0.00    -0.013 C 
HETATM   26  C14 UNL     1      -9.590  46.972 -32.446  1.00  0.00     0.009 C 
HETATM   27  C19 UNL     1      -7.266  46.631 -31.544  1.00  0.00     0.010 C 
HETATM   28  C15 UNL     1     -10.179  46.604 -31.077  1.00  0.00    -0.013 C 
HETATM   29  C17 UNL     1      -9.241  45.597 -30.394  1.00  0.00     0.010 C 
HETATM   30  C18 UNL     1      -7.850  46.230 -30.178  1.00  0.00    -0.005 C 
ENDBRANCH   5  21
TORSDOF 6
ENDMDL
MODEL 6
REMARK minimizedAffinity -8.76884651
REMARK  6 active torsions:
REMARK  status: ('A' for Active; 'I' for Inactive)
REMARK    1  A    between atoms: C2_2  and  N1_3 
REMARK    2  A    between atoms: N1_3  and  C3_4 
REMARK    3  A    between atoms: N1_3  and  C22_25 
REMARK    4  A    between atoms: C3_4  and  C4_5 
REMARK    5  A    between atoms: C5_6  and  C6_7 
REMARK    6  A    between atoms: C9_11  and  C10_12 
ROOT
HETATM    1  C6  UNL     1      -1.033  49.890 -21.145  1.00  0.00    -0.033 C 
HETATM    2  C7  UNL     1      -1.986  49.774 -22.143  1.00  0.00     0.036 C 
HETATM    3  C8  UNL     1      -1.931  50.598 -23.277  1.00  0.00     0.043 C 
HETATM    4 CL1  UNL     1      -3.318  50.458 -24.324  1.00  0.00    -0.084 Cl
HETATM    5  C9  UNL     1      -0.880  51.539 -23.503  1.00  0.00    -0.010 C 
HETATM    6  C20 UNL     1       0.008  51.701 -22.418  1.00  0.00     0.043 C 
HETATM    7 CL2  UNL     1       1.162  52.975 -22.243  1.00  0.00    -0.084 Cl
HETATM    8  C21 UNL     1      -0.049  50.863 -21.286  1.00  0.00     0.036 C 
ENDROOT
BRANCH   1   9
HETATM    9  C5  UNL     1      -1.090  49.013 -19.973  1.00  0.00     0.009 C 
HETATM   10  C4  UNL     1      -1.039  49.413 -18.692  1.00  0.00    -0.007 C 
BRANCH  10  11
HETATM   11  C3  UNL     1      -0.986  50.822 -18.163  1.00  0.00     0.144 C 
BRANCH  11  12
HETATM   12  N1  UNL     1       0.347  51.199 -17.672  1.00  0.00    -0.405 N 
BRANCH  12  13
HETATM   13  C2  UNL     1       0.826  52.440 -18.289  1.00  0.00     0.113 C 
HETATM   14  C1  UNL     1      -0.228  53.355 -18.900  1.00  0.00     0.026 C 
ENDBRANCH  12  13
BRANCH  12  15
HETATM   15  C22 UNL     1       0.582  50.996 -16.226  1.00  0.00     0.079 C 
HETATM   16  C23 UNL     1       1.834  51.659 -15.622  1.00  0.00     0.025 C 
HETATM   17  C24 UNL     1       1.854  51.593 -14.087  1.00  0.00     0.002 C 
HETATM   18  C25 UNL     1       0.908  50.551 -13.495  1.00  0.00     0.000 C 
HETATM   19  C26 UNL     1       0.891  49.276 -14.322  1.00  0.00     0.002 C 
HETATM   20  C27 UNL     1       0.514  49.513 -15.789  1.00  0.00     0.025 C 
ENDBRANCH  12  15
ENDBRANCH  11  12
ENDBRANCH  10  11
ENDBRANCH   1   9
BRANCH   5  21
HETATM   21  C10 UNL     1      -0.855  52.291 -24.850  1.00  0.00     0.030 C 
HETATM   22  C11 UNL     1       0.386  53.084 -25.374  1.00  0.00    -0.005 C 
HETATM   23  C12 UNL     1       1.470  52.173 -25.997  1.00  0.00     0.010 C 
HETATM   24  C16 UNL     1      -0.101  54.038 -26.498  1.00  0.00     0.010 C 
HETATM   25  C13 UNL     1       0.898  51.360 -27.161  1.00  0.00    -0.013 C 
HETATM   26  C14 UNL     1       0.393  52.315 -28.250  1.00  0.00     0.009 C 
HETATM   27  C19 UNL     1      -0.258  50.514 -26.619  1.00  0.00     0.010 C 
HETATM   28  C15 UNL     1      -0.691  53.236 -27.671  1.00  0.00    -0.013 C 
HETATM   29  C17 UNL     1      -1.855  52.368 -27.169  1.00  0.00     0.010 C 
HETATM   30  C18 UNL     1      -1.368  51.418 -26.055  1.00  0.00    -0.005 C 
ENDBRANCH   5  21
TORSDOF 6
ENDMDL
MODEL 7
REMARK minimizedAffinity -8.73128223
REMARK  6 active torsions:
REMARK  status: ('A' for Active; 'I' for Inactive)
REMARK    1  A    between atoms: C2_2  and  N1_3 
REMARK    2  A    between atoms: N1_3  and  C3_4 
REMARK    3  A    between atoms: N1_3  and  C22_25 
REMARK    4  A    between atoms: C3_4  and  C4_5 
REMARK    5  A    between atoms: C5_6  and  C6_7 
REMARK    6  A    between atoms: C9_11  and  C10_12 
ROOT
HETATM    1  C6  UNL     1      -2.501  51.203 -21.013  1.00  0.00    -0.033 C 
HETATM    2  C7  UNL     1      -3.393  51.329 -22.066  1.00  0.00     0.036 C 
HETATM    3  C8  UNL     1      -2.973  51.870 -23.291  1.00  0.00     0.043 C 
HETATM    4 CL1  UNL     1      -4.267  52.142 -24.426  1.00  0.00    -0.084 Cl
HETATM    5  C9  UNL     1      -1.621  52.253 -23.548  1.00  0.00    -0.010 C 
HETATM    6  C20 UNL     1      -0.773  52.210 -22.421  1.00  0.00     0.043 C 
HETATM    7 CL2  UNL     1       0.801  52.915 -22.318  1.00  0.00    -0.084 Cl
HETATM    8  C21 UNL     1      -1.199  51.657 -21.196  1.00  0.00     0.036 C 
ENDROOT
BRANCH   1   9
HETATM    9  C5  UNL     1      -2.945  50.622 -19.744  1.00  0.00     0.009 C 
HETATM   10  C4  UNL     1      -4.193  50.210 -19.464  1.00  0.00    -0.007 C 
BRANCH  10  11
HETATM   11  C3  UNL     1      -5.385  50.181 -20.383  1.00  0.00     0.144 C 
BRANCH  11  12
HETATM   12  N1  UNL     1      -6.119  48.909 -20.327  1.00  0.00    -0.405 N 
BRANCH  12  13
HETATM   13  C2  UNL     1      -6.781  48.716 -19.033  1.00  0.00     0.113 C 
HETATM   14  C1  UNL     1      -8.302  48.783 -19.023  1.00  0.00     0.026 C 
ENDBRANCH  12  13
BRANCH  12  15
HETATM   15  C22 UNL     1      -6.853  48.534 -21.556  1.00  0.00     0.079 C 
HETATM   16  C23 UNL     1      -6.270  47.382 -22.395  1.00  0.00     0.025 C 
HETATM   17  C24 UNL     1      -7.227  46.916 -23.502  1.00  0.00     0.002 C 
HETATM   18  C25 UNL     1      -8.331  47.916 -23.835  1.00  0.00     0.000 C 
HETATM   19  C26 UNL     1      -7.817  49.346 -23.812  1.00  0.00     0.002 C 
HETATM   20  C27 UNL     1      -7.179  49.737 -22.474  1.00  0.00     0.025 C 
ENDBRANCH  12  15
ENDBRANCH  11  12
ENDBRANCH  10  11
ENDBRANCH   1   9
BRANCH   5  21
HETATM   21  C10 UNL     1      -1.254  52.708 -24.976  1.00  0.00     0.030 C 
HETATM   22  C11 UNL     1       0.180  53.167 -25.394  1.00  0.00    -0.005 C 
HETATM   23  C12 UNL     1       1.147  51.987 -25.649  1.00  0.00     0.010 C 
HETATM   24  C16 UNL     1       0.058  53.945 -26.732  1.00  0.00     0.010 C 
HETATM   25  C13 UNL     1       0.605  51.063 -26.741  1.00  0.00    -0.013 C 
HETATM   26  C14 UNL     1       0.460  51.851 -28.049  1.00  0.00     0.009 C 
HETATM   27  C19 UNL     1      -0.760  50.541 -26.281  1.00  0.00     0.010 C 
HETATM   28  C15 UNL     1      -0.498  53.032 -27.839  1.00  0.00    -0.013 C 
HETATM   29  C17 UNL     1      -1.869  52.483 -27.416  1.00  0.00     0.010 C 
HETATM   30  C18 UNL     1      -1.744  51.708 -26.087  1.00  0.00    -0.005 C 
ENDBRANCH   5  21
TORSDOF 6
ENDMDL
MODEL 8
REMARK minimizedAffinity -8.64071941
REMARK  6 active torsions:
REMARK  status: ('A' for Active; 'I' for Inactive)
REMARK    1  A    between atoms: C2_2  and  N1_3 
REMARK    2  A    between atoms: N1_3  and  C3_4 
REMARK    3  A    between atoms: N1_3  and  C22_25 
REMARK    4  A    between atoms: C3_4  and  C4_5 
REMARK    5  A    between atoms: C5_6  and  C6_7 
REMARK    6  A    between atoms: C9_11  and  C10_12 
ROOT
HETATM    1  C6  UNL     1      -1.061  49.809 -20.874  1.00  0.00    -0.033 C 
HETATM    2  C7  UNL     1      -0.268  50.937 -21.011  1.00  0.00     0.036 C 
HETATM    3  C8  UNL     1      -0.187  51.601 -22.245  1.00  0.00     0.043 C 
HETATM    4 CL1  UNL     1       1.008  52.869 -22.290  1.00  0.00    -0.084 Cl
HETATM    5  C9  UNL     1      -0.946  51.209 -23.390  1.00  0.00    -0.010 C 
HETATM    6  C20 UNL     1      -1.655  49.998 -23.239  1.00  0.00     0.043 C 
HETATM    7 CL2  UNL     1      -2.384  49.092 -24.517  1.00  0.00    -0.084 Cl
HETATM    8  C21 UNL     1      -1.739  49.341 -21.994  1.00  0.00     0.036 C 
ENDROOT
BRANCH   1   9
HETATM    9  C5  UNL     1      -1.152  49.133 -19.578  1.00  0.00     0.009 C 
HETATM   10  C4  UNL     1      -2.147  49.276 -18.687  1.00  0.00    -0.007 C 
BRANCH  10  11
HETATM   11  C3  UNL     1      -3.409  50.086 -18.831  1.00  0.00     0.144 C 
BRANCH  11  12
HETATM   12  N1  UNL     1      -4.434  49.409 -19.637  1.00  0.00    -0.405 N 
BRANCH  12  13
HETATM   13  C2  UNL     1      -5.566  48.963 -18.817  1.00  0.00     0.113 C 
HETATM   14  C1  UNL     1      -5.438  47.599 -18.152  1.00  0.00     0.026 C 
ENDBRANCH  12  13
BRANCH  12  15
HETATM   15  C22 UNL     1      -4.717  50.010 -20.958  1.00  0.00     0.079 C 
HETATM   16  C23 UNL     1      -4.469  51.523 -21.105  1.00  0.00     0.025 C 
HETATM   17  C24 UNL     1      -4.558  51.996 -22.564  1.00  0.00     0.002 C 
HETATM   18  C25 UNL     1      -5.275  51.021 -23.494  1.00  0.00     0.000 C 
HETATM   19  C26 UNL     1      -6.475  50.381 -22.816  1.00  0.00     0.002 C 
HETATM   20  C27 UNL     1      -6.117  49.654 -21.515  1.00  0.00     0.025 C 
ENDBRANCH  12  15
ENDBRANCH  11  12
ENDBRANCH  10  11
ENDBRANCH   1   9
BRANCH   5  21
HETATM   21  C10 UNL     1      -0.874  52.098 -24.649  1.00  0.00     0.030 C 
HETATM   22  C11 UNL     1       0.413  52.868 -25.089  1.00  0.00    -0.005 C 
HETATM   23  C12 UNL     1       1.444  51.968 -25.810  1.00  0.00     0.010 C 
HETATM   24  C16 UNL     1      -0.014  53.964 -26.103  1.00  0.00     0.010 C 
HETATM   25  C13 UNL     1       0.828  51.318 -27.052  1.00  0.00    -0.013 C 
HETATM   26  C14 UNL     1       0.383  52.412 -28.031  1.00  0.00     0.009 C 
HETATM   27  C19 UNL     1      -0.377  50.488 -26.599  1.00  0.00     0.010 C 
HETATM   28  C15 UNL     1      -0.647  53.327 -27.353  1.00  0.00    -0.013 C 
HETATM   29  C17 UNL     1      -1.861  52.480 -26.943  1.00  0.00     0.010 C 
HETATM   30  C18 UNL     1      -1.433  51.390 -25.938  1.00  0.00    -0.005 C 
ENDBRANCH   5  21
TORSDOF 6
ENDMDL
MODEL 9
REMARK minimizedAffinity -8.55461121
REMARK  6 active torsions:
REMARK  status: ('A' for Active; 'I' for Inactive)
REMARK    1  A    between atoms: C2_2  and  N1_3 
REMARK    2  A    between atoms: N1_3  and  C3_4 
REMARK    3  A    between atoms: N1_3  and  C22_25 
REMARK    4  A    between atoms: C3_4  and  C4_5 
REMARK    5  A    between atoms: C5_6  and  C6_7 
REMARK    6  A    between atoms: C9_11  and  C10_12 
ROOT
HETATM    1  C6  UNL     1      -6.636  47.493 -26.574  1.00  0.00    -0.033 C 
HETATM    2  C7  UNL     1      -6.978  47.874 -25.286  1.00  0.00     0.036 C 
HETATM    3  C8  UNL     1      -6.064  48.580 -24.488  1.00  0.00     0.043 C 
HETATM    4 CL1  UNL     1      -6.583  48.795 -22.838  1.00  0.00    -0.084 Cl
HETATM    5  C9  UNL     1      -4.782  48.997 -24.961  1.00  0.00    -0.010 C 
HETATM    6  C20 UNL     1      -4.432  48.498 -26.233  1.00  0.00     0.043 C 
HETATM    7 CL2  UNL     1      -2.852  48.539 -26.931  1.00  0.00    -0.084 Cl
HETATM    8  C21 UNL     1      -5.359  47.798 -27.032  1.00  0.00     0.036 C 
ENDROOT
BRANCH   1   9
HETATM    9  C5  UNL     1      -7.603  46.771 -27.404  1.00  0.00     0.009 C 
HETATM   10  C4  UNL     1      -7.862  47.018 -28.699  1.00  0.00    -0.007 C 
BRANCH  10  11
HETATM   11  C3  UNL     1      -7.190  48.017 -29.603  1.00  0.00     0.144 C 
BRANCH  11  12
HETATM   12  N1  UNL     1      -7.430  47.751 -31.028  1.00  0.00    -0.405 N 
BRANCH  12  13
HETATM   13  C2  UNL     1      -8.582  48.503 -31.538  1.00  0.00     0.113 C 
HETATM   14  C1  UNL     1      -8.848  49.863 -30.906  1.00  0.00     0.026 C 
ENDBRANCH  12  13
BRANCH  12  15
HETATM   15  C22 UNL     1      -6.223  47.652 -31.878  1.00  0.00     0.079 C 
HETATM   16  C23 UNL     1      -6.435  47.713 -33.402  1.00  0.00     0.025 C 
HETATM   17  C24 UNL     1      -5.115  47.846 -34.176  1.00  0.00     0.002 C 
HETATM   18  C25 UNL     1      -3.876  47.467 -33.368  1.00  0.00     0.000 C 
HETATM   19  C26 UNL     1      -4.133  46.257 -32.484  1.00  0.00     0.002 C 
HETATM   20  C27 UNL     1      -5.313  46.451 -31.524  1.00  0.00     0.025 C 
ENDBRANCH  12  15
ENDBRANCH  11  12
ENDBRANCH  10  11
ENDBRANCH   1   9
BRANCH   5  21
HETATM   21  C10 UNL     1      -3.921  49.883 -24.036  1.00  0.00     0.030 C 
HETATM   22  C11 UNL     1      -2.363  49.789 -23.956  1.00  0.00    -0.005 C 
HETATM   23  C12 UNL     1      -1.649  50.515 -25.120  1.00  0.00     0.010 C 
HETATM   24  C16 UNL     1      -1.912  50.489 -22.645  1.00  0.00     0.010 C 
HETATM   25  C13 UNL     1      -2.036  51.995 -25.160  1.00  0.00    -0.013 C 
HETATM   26  C14 UNL     1      -1.613  52.668 -23.848  1.00  0.00     0.009 C 
HETATM   27  C19 UNL     1      -3.556  52.079 -25.334  1.00  0.00     0.010 C 
HETATM   28  C15 UNL     1      -2.305  51.977 -22.664  1.00  0.00    -0.013 C 
HETATM   29  C17 UNL     1      -3.826  52.108 -22.841  1.00  0.00     0.010 C 
HETATM   30  C18 UNL     1      -4.270  51.414 -24.146  1.00  0.00    -0.005 C 
ENDBRANCH   5  21
TORSDOF 6
ENDMDL
