MODEL 1
REMARK minimizedAffinity -9.44764996
REMARK  5 active torsions:
REMARK  status: ('A' for Active; 'I' for Inactive)
REMARK    1  A    between atoms: C2_2  and  C4_4 
REMARK    2  A    between atoms: C7_7  and  C8_8 
REMARK    3  A    between atoms: C8_8  and  O2_10 
REMARK    4  A    between atoms: C22_25  and  C24_27 
REMARK    5  A    between atoms: C24_27  and  O4_28 
ROOT
HETATM    1  C4  UNL     1       0.044  51.907 -23.102  1.00  0.00     0.019 C 
HETATM    2  C5  UNL     1       0.733  52.671 -24.265  1.00  0.00     0.011 C 
HETATM    3  C6  UNL     1      -0.381  53.063 -25.253  1.00  0.00     0.021 C 
HETATM    4  C7  UNL     1      -1.472  52.013 -25.007  1.00  0.00     0.050 C 
HETATM    5  C9  UNL     1      -2.877  52.418 -25.466  1.00  0.00     0.022 C 
HETATM    6  C10 UNL     1      -3.926  51.423 -24.931  1.00  0.00     0.011 C 
HETATM    7  C11 UNL     1      -3.933  51.201 -23.370  1.00  0.00    -0.032 C 
HETATM    8  C12 UNL     1      -4.442  52.550 -22.766  1.00  0.00     0.016 C 
HETATM    9  C13 UNL     1      -2.457  50.928 -22.899  1.00  0.00     0.000 C 
HETATM   10  C14 UNL     1      -2.379  50.836 -21.374  1.00  0.00     0.006 C 
HETATM   11  C15 UNL     1      -3.521  50.053 -20.736  1.00  0.00     0.006 C 
HETATM   12  C16 UNL     1      -4.227  49.082 -21.711  1.00  0.00     0.003 C 
HETATM   13  C17 UNL     1      -5.186  48.022 -20.961  1.00  0.00    -0.035 C 
HETATM   14  C18 UNL     1      -5.370  46.760 -21.850  1.00  0.00     0.016 C 
HETATM   15  C19 UNL     1      -4.560  47.562 -19.620  1.00  0.00     0.017 C 
HETATM   16  C20 UNL     1      -5.362  46.516 -18.869  1.00  0.00     0.080 C 
HETATM   17  C21 UNL     1      -6.860  46.697 -18.903  1.00  0.00     0.137 C 
HETATM   18  O3  UNL     1      -7.558  45.942 -18.217  1.00  0.00    -0.297 OA
HETATM   19  C22 UNL     1      -7.527  47.792 -19.747  1.00  0.00     0.042 C 
HETATM   20  C23 UNL     1      -8.592  47.097 -20.620  1.00  0.00     0.026 C 
HETATM   21  C25 UNL     1      -6.537  48.688 -20.581  1.00  0.00     0.012 C 
HETATM   22  C26 UNL     1      -7.197  49.360 -21.800  1.00  0.00     0.007 C 
HETATM   23  C27 UNL     1      -6.295  50.417 -22.435  1.00  0.00     0.011 C 
HETATM   24  C28 UNL     1      -4.895  49.924 -22.900  1.00  0.00    -0.032 C 
HETATM   25  C29 UNL     1      -5.112  48.987 -24.118  1.00  0.00     0.016 C 
HETATM   26  C30 UNL     1      -1.460  51.963 -23.468  1.00  0.00     0.017 C 
ENDROOT
BRANCH   4  27
HETATM   27  C8  UNL     1      -1.049  50.772 -25.803  1.00  0.00     0.149 C 
HETATM   28  O1  UNL     1       0.040  50.614 -26.333  1.00  0.00    -0.649 OA
BRANCH  27  29
HETATM   29  O2  UNL     1      -1.942  49.771 -25.853  1.00  0.00    -0.776 OA
HETATM   30  H11 UNL     1      -1.474  49.071 -26.353  1.00  0.00     0.167 HD
ENDBRANCH  27  29
ENDBRANCH   4  27
BRANCH   1  31
HETATM   31  C2  UNL     1       0.454  52.482 -21.753  1.00  0.00    -0.088 C 
HETATM   32  C1  UNL     1       0.398  51.795 -20.597  1.00  0.00     0.014 C 
HETATM   33  C3  UNL     1       0.924  53.914 -21.773  1.00  0.00     0.043 C 
ENDBRANCH   1  31
BRANCH  19  34
HETATM   34  C24 UNL     1      -8.223  48.705 -18.695  1.00  0.00     0.181 C 
BRANCH  34  35
HETATM   35  O4  UNL     1      -7.702  48.575 -17.374  1.00  0.00    -0.400 OA
HETATM   36  H37 UNL     1      -6.733  48.450 -17.432  1.00  0.00     0.209 HD
ENDBRANCH  34  35
ENDBRANCH  19  34
TORSDOF 5
ENDMDL
MODEL 2
REMARK minimizedAffinity -9.18473625
REMARK  5 active torsions:
REMARK  status: ('A' for Active; 'I' for Inactive)
REMARK    1  A    between atoms: C2_2  and  C4_4 
REMARK    2  A    between atoms: C7_7  and  C8_8 
REMARK    3  A    between atoms: C8_8  and  O2_10 
REMARK    4  A    between atoms: C22_25  and  C24_27 
REMARK    5  A    between atoms: C24_27  and  O4_28 
ROOT
HETATM    1  C4  UNL     1       0.449  52.395 -23.344  1.00  0.00     0.019 C 
HETATM    2  C5  UNL     1       0.835  53.252 -24.580  1.00  0.00     0.011 C 
HETATM    3  C6  UNL     1      -0.434  53.370 -25.444  1.00  0.00     0.021 C 
HETATM    4  C7  UNL     1      -1.245  52.122 -25.075  1.00  0.00     0.050 C 
HETATM    5  C9  UNL     1      -2.744  52.208 -25.382  1.00  0.00     0.022 C 
HETATM    6  C10 UNL     1      -3.496  51.031 -24.730  1.00  0.00     0.011 C 
HETATM    7  C11 UNL     1      -3.292  50.859 -23.175  1.00  0.00    -0.032 C 
HETATM    8  C12 UNL     1      -4.011  52.088 -22.530  1.00  0.00     0.016 C 
HETATM    9  C13 UNL     1      -1.752  50.917 -22.865  1.00  0.00     0.000 C 
HETATM   10  C14 UNL     1      -1.497  50.889 -21.357  1.00  0.00     0.006 C 
HETATM   11  C15 UNL     1      -2.374  49.903 -20.594  1.00  0.00     0.006 C 
HETATM   12  C16 UNL     1      -2.955  48.776 -21.480  1.00  0.00     0.003 C 
HETATM   13  C17 UNL     1      -3.583  47.561 -20.623  1.00  0.00    -0.035 C 
HETATM   14  C18 UNL     1      -3.586  46.262 -21.478  1.00  0.00     0.016 C 
HETATM   15  C19 UNL     1      -2.738  47.283 -19.354  1.00  0.00     0.017 C 
HETATM   16  C20 UNL     1      -3.216  46.114 -18.514  1.00  0.00     0.080 C 
HETATM   17  C21 UNL     1      -4.713  45.975 -18.387  1.00  0.00     0.137 C 
HETATM   18  O3  UNL     1      -5.160  45.111 -17.623  1.00  0.00    -0.297 OA
HETATM   19  C22 UNL     1      -5.683  46.879 -19.161  1.00  0.00     0.042 C 
HETATM   20  C23 UNL     1      -6.660  45.949 -19.910  1.00  0.00     0.026 C 
HETATM   21  C25 UNL     1      -4.998  47.938 -20.104  1.00  0.00     0.012 C 
HETATM   22  C26 UNL     1      -5.909  48.419 -21.250  1.00  0.00     0.007 C 
HETATM   23  C27 UNL     1      -5.324  49.623 -21.985  1.00  0.00     0.011 C 
HETATM   24  C28 UNL     1      -3.907  49.423 -22.595  1.00  0.00    -0.032 C 
HETATM   25  C29 UNL     1      -4.045  48.425 -23.776  1.00  0.00     0.016 C 
HETATM   26  C30 UNL     1      -1.063  52.122 -23.545  1.00  0.00     0.017 C 
ENDROOT
BRANCH   4  27
HETATM   27  C8  UNL     1      -0.652  50.975 -25.903  1.00  0.00     0.149 C 
HETATM   28  O1  UNL     1       0.536  50.708 -25.985  1.00  0.00    -0.649 OA
BRANCH  27  29
HETATM   29  O2  UNL     1      -1.537  50.181 -26.527  1.00  0.00    -0.776 OA
HETATM   30  H11 UNL     1      -0.975  49.499 -26.950  1.00  0.00     0.167 HD
ENDBRANCH  27  29
ENDBRANCH   4  27
BRANCH   1  31
HETATM   31  C2  UNL     1       0.866  53.084 -22.051  1.00  0.00    -0.088 C 
HETATM   32  C1  UNL     1       1.240  54.374 -21.977  1.00  0.00     0.014 C 
HETATM   33  C3  UNL     1       0.856  52.215 -20.819  1.00  0.00     0.043 C 
ENDBRANCH   1  31
BRANCH  19  34
HETATM   34  C24 UNL     1      -6.443  47.657 -18.047  1.00  0.00     0.181 C 
BRANCH  34  35
HETATM   35  O4  UNL     1      -5.807  47.618 -16.771  1.00  0.00    -0.400 OA
HETATM   36  H37 UNL     1      -4.838  47.664 -16.905  1.00  0.00     0.209 HD
ENDBRANCH  34  35
ENDBRANCH  19  34
TORSDOF 5
ENDMDL
MODEL 3
REMARK minimizedAffinity -9.12709522
REMARK  5 active torsions:
REMARK  status: ('A' for Active; 'I' for Inactive)
REMARK    1  A    between atoms: C2_2  and  C4_4 
REMARK    2  A    between atoms: C7_7  and  C8_8 
REMARK    3  A    between atoms: C8_8  and  O2_10 
REMARK    4  A    between atoms: C22_25  and  C24_27 
REMARK    5  A    between atoms: C24_27  and  O4_28 
ROOT
HETATM    1  C4  UNL     1      -0.171  52.973 -25.390  1.00  0.00     0.019 C 
HETATM    2  C5  UNL     1      -0.479  53.130 -26.904  1.00  0.00     0.011 C 
HETATM    3  C6  UNL     1      -1.928  52.652 -27.109  1.00  0.00     0.021 C 
HETATM    4  C7  UNL     1      -2.158  51.676 -25.949  1.00  0.00     0.050 C 
HETATM    5  C9  UNL     1      -3.627  51.422 -25.594  1.00  0.00     0.022 C 
HETATM    6  C10 UNL     1      -3.735  50.655 -24.261  1.00  0.00     0.011 C 
HETATM    7  C11 UNL     1      -3.008  51.313 -23.026  1.00  0.00    -0.032 C 
HETATM    8  C12 UNL     1      -3.825  52.609 -22.712  1.00  0.00     0.016 C 
HETATM    9  C13 UNL     1      -1.544  51.696 -23.456  1.00  0.00     0.000 C 
HETATM   10  C14 UNL     1      -0.829  52.460 -22.340  1.00  0.00     0.006 C 
HETATM   11  C15 UNL     1      -1.073  51.898 -20.943  1.00  0.00     0.006 C 
HETATM   12  C16 UNL     1      -1.530  50.420 -20.941  1.00  0.00     0.003 C 
HETATM   13  C17 UNL     1      -1.451  49.738 -19.481  1.00  0.00    -0.035 C 
HETATM   14  C18 UNL     1      -1.327  48.195 -19.627  1.00  0.00     0.016 C 
HETATM   15  C19 UNL     1      -0.205  50.235 -18.704  1.00  0.00     0.017 C 
HETATM   16  C20 UNL     1      -0.011  49.601 -17.339  1.00  0.00     0.080 C 
HETATM   17  C21 UNL     1      -1.272  49.374 -16.543  1.00  0.00     0.137 C 
HETATM   18  O3  UNL     1      -1.167  48.966 -15.380  1.00  0.00    -0.297 OA
HETATM   19  C22 UNL     1      -2.664  49.649 -17.129  1.00  0.00     0.042 C 
HETATM   20  C23 UNL     1      -3.494  48.363 -16.929  1.00  0.00     0.026 C 
HETATM   21  C25 UNL     1      -2.672  50.160 -18.618  1.00  0.00     0.012 C 
HETATM   22  C26 UNL     1      -4.000  49.892 -19.352  1.00  0.00     0.007 C 
HETATM   23  C27 UNL     1      -4.076  50.620 -20.692  1.00  0.00     0.011 C 
HETATM   24  C28 UNL     1      -2.936  50.304 -21.702  1.00  0.00    -0.032 C 
HETATM   25  C29 UNL     1      -3.129  48.840 -22.178  1.00  0.00     0.016 C 
HETATM   26  C30 UNL     1      -1.509  52.465 -24.796  1.00  0.00     0.017 C 
ENDROOT
BRANCH   4  27
HETATM   27  C8  UNL     1      -1.537  50.344 -26.391  1.00  0.00     0.149 C 
HETATM   28  O1  UNL     1      -2.164  49.361 -26.751  1.00  0.00    -0.649 OA
BRANCH  27  29
HETATM   29  O2  UNL     1      -0.195  50.304 -26.433  1.00  0.00    -0.776 OA
HETATM   30  H11 UNL     1      -0.003  49.407 -26.777  1.00  0.00     0.167 HD
ENDBRANCH  27  29
ENDBRANCH   4  27
BRANCH   1  31
HETATM   31  C2  UNL     1       0.401  54.261 -24.814  1.00  0.00    -0.088 C 
HETATM   32  C1  UNL     1       0.173  55.481 -25.334  1.00  0.00     0.014 C 
HETATM   33  C3  UNL     1       1.280  54.096 -23.601  1.00  0.00     0.043 C 
ENDBRANCH   1  31
BRANCH  19  34
HETATM   34  C24 UNL     1      -3.232  50.788 -16.232  1.00  0.00     0.181 C 
BRANCH  34  35
HETATM   35  O4  UNL     1      -3.469  50.402 -14.880  1.00  0.00    -0.400 OA
HETATM   36  H37 UNL     1      -2.757  49.790 -14.601  1.00  0.00     0.209 HD
ENDBRANCH  34  35
ENDBRANCH  19  34
TORSDOF 5
ENDMDL
MODEL 4
REMARK minimizedAffinity -8.93648815
REMARK  5 active torsions:
REMARK  status: ('A' for Active; 'I' for Inactive)
REMARK    1  A    between atoms: C2_2  and  C4_4 
REMARK    2  A    between atoms: C7_7  and  C8_8 
REMARK    3  A    between atoms: C8_8  and  O2_10 
REMARK    4  A    between atoms: C22_25  and  C24_27 
REMARK    5  A    between atoms: C24_27  and  O4_28 
ROOT
HETATM    1  C4  UNL     1      -0.613  50.696 -22.192  1.00  0.00     0.019 C 
HETATM    2  C5  UNL     1      -1.427  50.084 -23.364  1.00  0.00     0.011 C 
HETATM    3  C6  UNL     1      -2.696  49.470 -22.743  1.00  0.00     0.021 C 
HETATM    4  C7  UNL     1      -2.282  49.160 -21.299  1.00  0.00     0.050 C 
HETATM    5  C9  UNL     1      -3.443  49.010 -20.310  1.00  0.00     0.022 C 
HETATM    6  C10 UNL     1      -2.914  48.975 -18.862  1.00  0.00     0.011 C 
HETATM    7  C11 UNL     1      -2.012  50.193 -18.426  1.00  0.00    -0.032 C 
HETATM    8  C12 UNL     1      -2.978  51.421 -18.379  1.00  0.00     0.016 C 
HETATM    9  C13 UNL     1      -0.914  50.418 -19.529  1.00  0.00     0.000 C 
HETATM   10  C14 UNL     1      -0.088  51.671 -19.229  1.00  0.00     0.006 C 
HETATM   11  C15 UNL     1       0.286  51.836 -17.761  1.00  0.00     0.006 C 
HETATM   12  C16 UNL     1       0.238  50.515 -16.957  1.00  0.00     0.003 C 
HETATM   13  C17 UNL     1       0.957  50.626 -15.516  1.00  0.00    -0.035 C 
HETATM   14  C18 UNL     1       1.408  49.216 -15.043  1.00  0.00     0.016 C 
HETATM   15  C19 UNL     1       2.223  51.518 -15.597  1.00  0.00     0.017 C 
HETATM   16  C20 UNL     1       3.004  51.634 -14.302  1.00  0.00     0.080 C 
HETATM   17  C21 UNL     1       2.170  51.734 -13.048  1.00  0.00     0.137 C 
HETATM   18  O3  UNL     1       2.748  51.945 -11.975  1.00  0.00    -0.297 OA
HETATM   19  C22 UNL     1       0.642  51.599 -13.074  1.00  0.00     0.042 C 
HETATM   20  C23 UNL     1       0.271  50.516 -12.039  1.00  0.00     0.026 C 
HETATM   21  C25 UNL     1       0.021  51.329 -14.495  1.00  0.00     0.012 C 
HETATM   22  C26 UNL     1      -1.362  50.652 -14.442  1.00  0.00     0.007 C 
HETATM   23  C27 UNL     1      -2.052  50.639 -15.805  1.00  0.00     0.011 C 
HETATM   24  C28 UNL     1      -1.263  49.953 -16.958  1.00  0.00    -0.032 C 
HETATM   25  C29 UNL     1      -1.228  48.431 -16.656  1.00  0.00     0.016 C 
HETATM   26  C30 UNL     1      -1.512  50.448 -20.954  1.00  0.00     0.017 C 
ENDROOT
BRANCH   4  27
HETATM   27  C8  UNL     1      -1.528  47.825 -21.355  1.00  0.00     0.149 C 
HETATM   28  O1  UNL     1      -0.375  47.653 -20.993  1.00  0.00    -0.649 OA
BRANCH  27  29
HETATM   29  O2  UNL     1      -2.234  46.766 -21.784  1.00  0.00    -0.776 OA
HETATM   30  H11 UNL     1      -1.604  46.021 -21.702  1.00  0.00     0.167 HD
ENDBRANCH  27  29
ENDBRANCH   4  27
BRANCH   1  31
HETATM   31  C2  UNL     1      -0.225  52.137 -22.491  1.00  0.00    -0.088 C 
HETATM   32  C1  UNL     1      -0.303  52.695 -23.714  1.00  0.00     0.014 C 
HETATM   33  C3  UNL     1       0.287  52.931 -21.317  1.00  0.00     0.043 C 
ENDBRANCH   1  31
BRANCH  19  34
HETATM   34  C24 UNL     1       0.133  52.988 -12.589  1.00  0.00     0.181 C 
BRANCH  34  35
HETATM   35  O4  UNL     1      -1.150  52.955 -11.969  1.00  0.00    -0.400 OA
HETATM   36  H37 UNL     1      -1.220  52.133 -11.441  1.00  0.00     0.209 HD
ENDBRANCH  34  35
ENDBRANCH  19  34
TORSDOF 5
ENDMDL
MODEL 5
REMARK minimizedAffinity -8.81964779
REMARK  5 active torsions:
REMARK  status: ('A' for Active; 'I' for Inactive)
REMARK    1  A    between atoms: C2_2  and  C4_4 
REMARK    2  A    between atoms: C7_7  and  C8_8 
REMARK    3  A    between atoms: C8_8  and  O2_10 
REMARK    4  A    between atoms: C22_25  and  C24_27 
REMARK    5  A    between atoms: C24_27  and  O4_28 
ROOT
HETATM    1  C4  UNL     1      -0.013  51.078 -26.392  1.00  0.00     0.019 C 
HETATM    2  C5  UNL     1      -0.162  51.654 -27.826  1.00  0.00     0.011 C 
HETATM    3  C6  UNL     1      -1.548  52.323 -27.887  1.00  0.00     0.021 C 
HETATM    4  C7  UNL     1      -2.359  51.581 -26.817  1.00  0.00     0.050 C 
HETATM    5  C9  UNL     1      -3.591  52.332 -26.300  1.00  0.00     0.022 C 
HETATM    6  C10 UNL     1      -4.166  51.629 -25.055  1.00  0.00     0.011 C 
HETATM    7  C11 UNL     1      -3.158  51.402 -23.864  1.00  0.00    -0.032 C 
HETATM    8  C12 UNL     1      -2.852  52.830 -23.307  1.00  0.00     0.016 C 
HETATM    9  C13 UNL     1      -1.843  50.761 -24.440  1.00  0.00     0.000 C 
HETATM   10  C14 UNL     1      -0.773  50.638 -23.353  1.00  0.00     0.006 C 
HETATM   11  C15 UNL     1      -1.304  50.163 -22.006  1.00  0.00     0.006 C 
HETATM   12  C16 UNL     1      -2.652  49.411 -22.101  1.00  0.00     0.003 C 
HETATM   13  C17 UNL     1      -3.031  48.621 -20.745  1.00  0.00    -0.035 C 
HETATM   14  C18 UNL     1      -4.005  47.454 -21.071  1.00  0.00     0.016 C 
HETATM   15  C19 UNL     1      -1.767  48.005 -20.092  1.00  0.00     0.017 C 
HETATM   16  C20 UNL     1      -2.031  47.189 -18.841  1.00  0.00     0.080 C 
HETATM   17  C21 UNL     1      -3.084  47.743 -17.913  1.00  0.00     0.137 C 
HETATM   18  O3  UNL     1      -3.261  47.183 -16.825  1.00  0.00    -0.297 OA
HETATM   19  C22 UNL     1      -3.918  48.979 -18.277  1.00  0.00     0.042 C 
HETATM   20  C23 UNL     1      -5.400  48.583 -18.107  1.00  0.00     0.026 C 
HETATM   21  C25 UNL     1      -3.607  49.603 -19.688  1.00  0.00     0.012 C 
HETATM   22  C26 UNL     1      -4.771  50.431 -20.264  1.00  0.00     0.007 C 
HETATM   23  C27 UNL     1      -4.356  51.232 -21.497  1.00  0.00     0.011 C 
HETATM   24  C28 UNL     1      -3.769  50.405 -22.677  1.00  0.00    -0.032 C 
HETATM   25  C29 UNL     1      -4.928  49.565 -23.277  1.00  0.00     0.016 C 
HETATM   26  C30 UNL     1      -1.319  51.515 -25.683  1.00  0.00     0.017 C 
ENDROOT
BRANCH   4  27
HETATM   27  C8  UNL     1      -2.835  50.281 -27.478  1.00  0.00     0.149 C 
HETATM   28  O1  UNL     1      -2.797  49.176 -26.961  1.00  0.00    -0.649 OA
BRANCH  27  29
HETATM   29  O2  UNL     1      -3.387  50.406 -28.695  1.00  0.00    -0.776 OA
HETATM   30  H11 UNL     1      -3.662  49.492 -28.917  1.00  0.00     0.167 HD
ENDBRANCH  27  29
ENDBRANCH   4  27
BRANCH   1  31
HETATM   31  C2  UNL     1       1.302  51.518 -25.761  1.00  0.00    -0.088 C 
HETATM   32  C1  UNL     1       2.485  50.925 -26.004  1.00  0.00     0.014 C 
HETATM   33  C3  UNL     1       1.207  52.680 -24.806  1.00  0.00     0.043 C 
ENDBRANCH   1  31
BRANCH  19  34
HETATM   34  C24 UNL     1      -3.526  50.028 -17.195  1.00  0.00     0.181 C 
BRANCH  34  35
HETATM   35  O4  UNL     1      -2.891  51.193 -17.717  1.00  0.00    -0.400 OA
HETATM   36  H37 UNL     1      -3.311  51.421 -18.572  1.00  0.00     0.209 HD
ENDBRANCH  34  35
ENDBRANCH  19  34
TORSDOF 5
ENDMDL
MODEL 6
REMARK minimizedAffinity -8.72056007
REMARK  5 active torsions:
REMARK  status: ('A' for Active; 'I' for Inactive)
REMARK    1  A    between atoms: C2_2  and  C4_4 
REMARK    2  A    between atoms: C7_7  and  C8_8 
REMARK    3  A    between atoms: C8_8  and  O2_10 
REMARK    4  A    between atoms: C22_25  and  C24_27 
REMARK    5  A    between atoms: C24_27  and  O4_28 
ROOT
HETATM    1  C4  UNL     1      -3.449  48.963 -18.029  1.00  0.00     0.019 C 
HETATM    2  C5  UNL     1      -4.427  48.110 -17.175  1.00  0.00     0.011 C 
HETATM    3  C6  UNL     1      -5.111  47.127 -18.144  1.00  0.00     0.021 C 
HETATM    4  C7  UNL     1      -5.033  47.838 -19.500  1.00  0.00     0.050 C 
HETATM    5  C9  UNL     1      -5.174  46.923 -20.722  1.00  0.00     0.022 C 
HETATM    6  C10 UNL     1      -4.812  47.687 -22.011  1.00  0.00     0.011 C 
HETATM    7  C11 UNL     1      -3.390  48.369 -22.033  1.00  0.00    -0.032 C 
HETATM    8  C12 UNL     1      -2.368  47.185 -22.070  1.00  0.00     0.016 C 
HETATM    9  C13 UNL     1      -3.210  49.188 -20.703  1.00  0.00     0.000 C 
HETATM   10  C14 UNL     1      -1.797  49.766 -20.603  1.00  0.00     0.006 C 
HETATM   11  C15 UNL     1      -1.265  50.341 -21.911  1.00  0.00     0.006 C 
HETATM   12  C16 UNL     1      -2.375  50.716 -22.921  1.00  0.00     0.003 C 
HETATM   13  C17 UNL     1      -1.839  51.630 -24.138  1.00  0.00    -0.035 C 
HETATM   14  C18 UNL     1      -3.017  52.446 -24.741  1.00  0.00     0.016 C 
HETATM   15  C19 UNL     1      -0.775  52.643 -23.642  1.00  0.00     0.017 C 
HETATM   16  C20 UNL     1      -0.254  53.591 -24.706  1.00  0.00     0.080 C 
HETATM   17  C21 UNL     1      -0.042  52.982 -26.070  1.00  0.00     0.137 C 
HETATM   18  O3  UNL     1       0.487  53.676 -26.947  1.00  0.00    -0.297 OA
HETATM   19  C22 UNL     1      -0.447  51.536 -26.388  1.00  0.00     0.042 C 
HETATM   20  C23 UNL     1      -1.337  51.588 -27.648  1.00  0.00     0.026 C 
HETATM   21  C25 UNL     1      -1.115  50.754 -25.197  1.00  0.00     0.012 C 
HETATM   22  C26 UNL     1      -1.998  49.577 -25.653  1.00  0.00     0.007 C 
HETATM   23  C27 UNL     1      -2.418  48.684 -24.487  1.00  0.00     0.011 C 
HETATM   24  C28 UNL     1      -3.181  49.392 -23.331  1.00  0.00    -0.032 C 
HETATM   25  C29 UNL     1      -4.575  49.802 -23.875  1.00  0.00     0.016 C 
HETATM   26  C30 UNL     1      -3.586  48.363 -19.451  1.00  0.00     0.017 C 
ENDROOT
BRANCH   4  27
HETATM   27  C8  UNL     1      -6.196  48.839 -19.517  1.00  0.00     0.149 C 
HETATM   28  O1  UNL     1      -7.304  48.638 -19.046  1.00  0.00    -0.649 OA
BRANCH  27  29
HETATM   29  O2  UNL     1      -5.928  50.045 -20.045  1.00  0.00    -0.776 OA
HETATM   30  H11 UNL     1      -6.764  50.540 -19.920  1.00  0.00     0.167 HD
ENDBRANCH  27  29
ENDBRANCH   4  27
BRANCH   1  31
HETATM   31  C2  UNL     1      -2.057  48.977 -17.411  1.00  0.00    -0.088 C 
HETATM   32  C1  UNL     1      -1.820  49.179 -16.102  1.00  0.00     0.014 C 
HETATM   33  C3  UNL     1      -0.917  48.765 -18.374  1.00  0.00     0.043 C 
ENDBRANCH   1  31
BRANCH  19  34
HETATM   34  C24 UNL     1       0.901  50.833 -26.724  1.00  0.00     0.181 C 
BRANCH  34  35
HETATM   35  O4  UNL     1       2.040  51.435 -26.113  1.00  0.00    -0.400 OA
HETATM   36  H37 UNL     1       1.790  51.736 -25.215  1.00  0.00     0.209 HD
ENDBRANCH  34  35
ENDBRANCH  19  34
TORSDOF 5
ENDMDL
MODEL 7
REMARK minimizedAffinity -8.7115736
REMARK  5 active torsions:
REMARK  status: ('A' for Active; 'I' for Inactive)
REMARK    1  A    between atoms: C2_2  and  C4_4 
REMARK    2  A    between atoms: C7_7  and  C8_8 
REMARK    3  A    between atoms: C8_8  and  O2_10 
REMARK    4  A    between atoms: C22_25  and  C24_27 
REMARK    5  A    between atoms: C24_27  and  O4_28 
ROOT
HETATM    1  C4  UNL     1       0.374  53.427 -25.308  1.00  0.00     0.019 C 
HETATM    2  C5  UNL     1       0.482  54.024 -26.738  1.00  0.00     0.011 C 
HETATM    3  C6  UNL     1      -0.833  53.677 -27.459  1.00  0.00     0.021 C 
HETATM    4  C7  UNL     1      -1.324  52.417 -26.735  1.00  0.00     0.050 C 
HETATM    5  C9  UNL     1      -2.821  52.125 -26.884  1.00  0.00     0.022 C 
HETATM    6  C10 UNL     1      -3.252  51.012 -25.909  1.00  0.00     0.011 C 
HETATM    7  C11 UNL     1      -2.919  51.260 -24.387  1.00  0.00    -0.032 C 
HETATM    8  C12 UNL     1      -3.849  52.438 -23.951  1.00  0.00     0.016 C 
HETATM    9  C13 UNL     1      -1.413  51.697 -24.273  1.00  0.00     0.000 C 
HETATM   10  C14 UNL     1      -1.064  52.081 -22.833  1.00  0.00     0.006 C 
HETATM   11  C15 UNL     1      -1.652  51.151 -21.779  1.00  0.00     0.006 C 
HETATM   12  C16 UNL     1      -2.024  49.752 -22.324  1.00  0.00     0.003 C 
HETATM   13  C17 UNL     1      -2.314  48.676 -21.157  1.00  0.00    -0.035 C 
HETATM   14  C18 UNL     1      -2.084  47.238 -21.699  1.00  0.00     0.016 C 
HETATM   15  C19 UNL     1      -1.350  48.884 -19.961  1.00  0.00     0.017 C 
HETATM   16  C20 UNL     1      -1.505  47.878 -18.836  1.00  0.00     0.080 C 
HETATM   17  C21 UNL     1      -2.924  47.477 -18.515  1.00  0.00     0.137 C 
HETATM   18  O3  UNL     1      -3.120  46.748 -17.535  1.00  0.00    -0.297 OA
HETATM   19  C22 UNL     1      -4.115  47.958 -19.355  1.00  0.00     0.042 C 
HETATM   20  C23 UNL     1      -4.909  46.700 -19.766  1.00  0.00     0.026 C 
HETATM   21  C25 UNL     1      -3.742  48.875 -20.578  1.00  0.00     0.012 C 
HETATM   22  C26 UNL     1      -4.807  48.878 -21.691  1.00  0.00     0.007 C 
HETATM   23  C27 UNL     1      -4.549  49.963 -22.735  1.00  0.00     0.011 C 
HETATM   24  C28 UNL     1      -3.164  49.911 -23.441  1.00  0.00    -0.032 C 
HETATM   25  C29 UNL     1      -3.153  48.653 -24.350  1.00  0.00     0.016 C 
HETATM   26  C30 UNL     1      -1.050  52.817 -25.274  1.00  0.00     0.017 C 
ENDROOT
BRANCH   4  27
HETATM   27  C8  UNL     1      -0.546  51.247 -27.353  1.00  0.00     0.149 C 
HETATM   28  O1  UNL     1      -0.157  50.263 -26.745  1.00  0.00    -0.649 OA
BRANCH  27  29
HETATM   29  O2  UNL     1      -0.345  51.309 -28.679  1.00  0.00    -0.776 OA
HETATM   30  H11 UNL     1       0.115  50.467 -28.880  1.00  0.00     0.167 HD
ENDBRANCH  27  29
ENDBRANCH   4  27
BRANCH   1  31
HETATM   31  C2  UNL     1       0.708  54.474 -24.253  1.00  0.00    -0.088 C 
HETATM   32  C1  UNL     1       1.137  54.176 -23.013  1.00  0.00     0.014 C 
HETATM   33  C3  UNL     1       0.512  55.907 -24.675  1.00  0.00     0.043 C 
ENDBRANCH   1  31
BRANCH  19  34
HETATM   34  C24 UNL     1      -4.957  48.810 -18.360  1.00  0.00     0.181 C 
BRANCH  34  35
HETATM   35  O4  UNL     1      -5.736  48.040 -17.446  1.00  0.00    -0.400 OA
HETATM   36  H37 UNL     1      -5.220  47.249 -17.187  1.00  0.00     0.209 HD
ENDBRANCH  34  35
ENDBRANCH  19  34
TORSDOF 5
ENDMDL
MODEL 8
REMARK minimizedAffinity -8.70326138
REMARK  5 active torsions:
REMARK  status: ('A' for Active; 'I' for Inactive)
REMARK    1  A    between atoms: C2_2  and  C4_4 
REMARK    2  A    between atoms: C7_7  and  C8_8 
REMARK    3  A    between atoms: C8_8  and  O2_10 
REMARK    4  A    between atoms: C22_25  and  C24_27 
REMARK    5  A    between atoms: C24_27  and  O4_28 
ROOT
HETATM    1  C4  UNL     1      -0.765  51.675 -22.887  1.00  0.00     0.019 C 
HETATM    2  C5  UNL     1       0.510  52.196 -22.169  1.00  0.00     0.011 C 
HETATM    3  C6  UNL     1       0.771  51.238 -20.992  1.00  0.00     0.021 C 
HETATM    4  C7  UNL     1      -0.614  50.660 -20.676  1.00  0.00     0.050 C 
HETATM    5  C9  UNL     1      -0.605  49.336 -19.906  1.00  0.00     0.022 C 
HETATM    6  C10 UNL     1      -2.016  48.716 -19.883  1.00  0.00     0.011 C 
HETATM    7  C11 UNL     1      -2.696  48.496 -21.289  1.00  0.00    -0.032 C 
HETATM    8  C12 UNL     1      -1.865  47.361 -21.973  1.00  0.00     0.016 C 
HETATM    9  C13 UNL     1      -2.567  49.826 -22.118  1.00  0.00     0.000 C 
HETATM   10  C14 UNL     1      -3.090  49.634 -23.543  1.00  0.00     0.006 C 
HETATM   11  C15 UNL     1      -4.378  48.823 -23.631  1.00  0.00     0.006 C 
HETATM   12  C16 UNL     1      -5.184  48.794 -22.311  1.00  0.00     0.003 C 
HETATM   13  C17 UNL     1      -6.688  48.239 -22.502  1.00  0.00    -0.035 C 
HETATM   14  C18 UNL     1      -7.596  48.778 -21.362  1.00  0.00     0.016 C 
HETATM   15  C19 UNL     1      -7.290  48.723 -23.847  1.00  0.00     0.017 C 
HETATM   16  C20 UNL     1      -8.727  48.301 -24.089  1.00  0.00     0.080 C 
HETATM   17  C21 UNL     1      -9.078  46.904 -23.641  1.00  0.00     0.137 C 
HETATM   18  O3  UNL     1     -10.201  46.465 -23.915  1.00  0.00    -0.297 OA
HETATM   19  C22 UNL     1      -8.082  46.020 -22.877  1.00  0.00     0.042 C 
HETATM   20  C23 UNL     1      -8.800  45.538 -21.600  1.00  0.00     0.026 C 
HETATM   21  C25 UNL     1      -6.687  46.688 -22.583  1.00  0.00     0.012 C 
HETATM   22  C26 UNL     1      -5.947  46.062 -21.386  1.00  0.00     0.007 C 
HETATM   23  C27 UNL     1      -4.501  46.544 -21.284  1.00  0.00     0.011 C 
HETATM   24  C28 UNL     1      -4.306  48.084 -21.174  1.00  0.00    -0.032 C 
HETATM   25  C29 UNL     1      -4.837  48.522 -19.784  1.00  0.00     0.016 C 
HETATM   26  C30 UNL     1      -1.128  50.389 -22.102  1.00  0.00     0.017 C 
ENDROOT
BRANCH   4  27
HETATM   27  C8  UNL     1      -1.320  51.712 -19.809  1.00  0.00     0.149 C 
HETATM   28  O1  UNL     1      -2.506  51.705 -19.523  1.00  0.00    -0.649 OA
BRANCH  27  29
HETATM   29  O2  UNL     1      -0.535  52.668 -19.288  1.00  0.00    -0.776 OA
HETATM   30  H11 UNL     1      -1.153  53.198 -18.742  1.00  0.00     0.167 HD
ENDBRANCH  27  29
ENDBRANCH   4  27
BRANCH   1  31
HETATM   31  C2  UNL     1      -0.528  51.533 -24.384  1.00  0.00    -0.088 C 
HETATM   32  C1  UNL     1      -1.339  50.845 -25.209  1.00  0.00     0.014 C 
HETATM   33  C3  UNL     1       0.712  52.208 -24.913  1.00  0.00     0.043 C 
ENDBRANCH   1  31
BRANCH  19  34
HETATM   34  C24 UNL     1      -7.840  44.815 -23.833  1.00  0.00     0.181 C 
BRANCH  34  35
HETATM   35  O4  UNL     1      -7.960  45.134 -25.217  1.00  0.00    -0.400 OA
HETATM   36  H37 UNL     1      -7.590  46.029 -25.363  1.00  0.00     0.209 HD
ENDBRANCH  34  35
ENDBRANCH  19  34
TORSDOF 5
ENDMDL
MODEL 9
REMARK minimizedAffinity -8.62440205
REMARK  5 active torsions:
REMARK  status: ('A' for Active; 'I' for Inactive)
REMARK    1  A    between atoms: C2_2  and  C4_4 
REMARK    2  A    between atoms: C7_7  and  C8_8 
REMARK    3  A    between atoms: C8_8  and  O2_10 
REMARK    4  A    between atoms: C22_25  and  C24_27 
REMARK    5  A    between atoms: C24_27  and  O4_28 
ROOT
HETATM    1  C4  UNL     1      -5.287  47.264 -19.678  1.00  0.00     0.019 C 
HETATM    2  C5  UNL     1      -6.645  46.800 -19.084  1.00  0.00     0.011 C 
HETATM    3  C6  UNL     1      -7.721  47.139 -20.132  1.00  0.00     0.021 C 
HETATM    4  C7  UNL     1      -7.109  48.304 -20.920  1.00  0.00     0.050 C 
HETATM    5  C9  UNL     1      -7.704  48.528 -22.314  1.00  0.00     0.022 C 
HETATM    6  C10 UNL     1      -6.845  49.528 -23.112  1.00  0.00     0.011 C 
HETATM    7  C11 UNL     1      -5.316  49.167 -23.251  1.00  0.00    -0.032 C 
HETATM    8  C12 UNL     1      -5.275  47.908 -24.177  1.00  0.00     0.016 C 
HETATM    9  C13 UNL     1      -4.759  48.801 -21.826  1.00  0.00     0.000 C 
HETATM   10  C14 UNL     1      -3.312  48.313 -21.914  1.00  0.00     0.006 C 
HETATM   11  C15 UNL     1      -2.439  49.116 -22.871  1.00  0.00     0.006 C 
HETATM   12  C16 UNL     1      -2.981  50.535 -23.163  1.00  0.00     0.003 C 
HETATM   13  C17 UNL     1      -1.898  51.489 -23.884  1.00  0.00    -0.035 C 
HETATM   14  C18 UNL     1      -2.244  52.979 -23.609  1.00  0.00     0.016 C 
HETATM   15  C19 UNL     1      -0.474  51.230 -23.327  1.00  0.00     0.017 C 
HETATM   16  C20 UNL     1       0.607  52.125 -23.902  1.00  0.00     0.080 C 
HETATM   17  C21 UNL     1       0.488  52.421 -25.377  1.00  0.00     0.137 C 
HETATM   18  O3  UNL     1       1.402  53.050 -25.924  1.00  0.00    -0.297 OA
HETATM   19  C22 UNL     1      -0.715  51.953 -26.207  1.00  0.00     0.042 C 
HETATM   20  C23 UNL     1      -1.272  53.198 -26.927  1.00  0.00     0.026 C 
HETATM   21  C25 UNL     1      -1.814  51.165 -25.401  1.00  0.00     0.012 C 
HETATM   22  C26 UNL     1      -3.205  51.203 -26.063  1.00  0.00     0.007 C 
HETATM   23  C27 UNL     1      -4.182  50.227 -25.409  1.00  0.00     0.011 C 
HETATM   24  C28 UNL     1      -4.409  50.414 -23.882  1.00  0.00    -0.032 C 
HETATM   25  C29 UNL     1      -5.183  51.745 -23.685  1.00  0.00     0.016 C 
HETATM   26  C30 UNL     1      -5.665  47.793 -21.084  1.00  0.00     0.017 C 
ENDROOT
BRANCH   4  27
HETATM   27  C8  UNL     1      -7.370  49.562 -20.081  1.00  0.00     0.149 C 
HETATM   28  O1  UNL     1      -8.170  49.641 -19.163  1.00  0.00    -0.649 OA
BRANCH  27  29
HETATM   29  O2  UNL     1      -6.601  50.626 -20.361  1.00  0.00    -0.776 OA
HETATM   30  H11 UNL     1      -6.883  51.293 -19.701  1.00  0.00     0.167 HD
ENDBRANCH  27  29
ENDBRANCH   4  27
BRANCH   1  31
HETATM   31  C2  UNL     1      -4.252  46.149 -19.608  1.00  0.00    -0.088 C 
HETATM   32  C1  UNL     1      -4.241  45.085 -20.432  1.00  0.00     0.014 C 
HETATM   33  C3  UNL     1      -3.216  46.291 -18.523  1.00  0.00     0.043 C 
ENDBRANCH   1  31
BRANCH  19  34
HETATM   34  C24 UNL     1      -0.096  50.974 -27.248  1.00  0.00     0.181 C 
BRANCH  34  35
HETATM   35  O4  UNL     1       0.533  51.619 -28.353  1.00  0.00    -0.400 OA
HETATM   36  H37 UNL     1       0.982  52.427 -28.028  1.00  0.00     0.209 HD
ENDBRANCH  34  35
ENDBRANCH  19  34
TORSDOF 5
ENDMDL
