MODEL 1
REMARK minimizedAffinity -7.63280725
REMARK CNNscore 0.803063154
REMARK CNNaffinity 7.04355764
REMARK  4 active torsions:
REMARK  status: ('A' for Active; 'I' for Inactive)
REMARK    1  A    between atoms: C4_4  and  C5_5 
REMARK    2  A    between atoms: C5_5  and  C6_6 
REMARK    3  A    between atoms: C6_6  and  C7_7 
REMARK    4  A    between atoms: C7_7  and  C9_9 
ROOT
HETATM    1  C9  UNL     1      -1.405  52.978 -10.117  1.00  0.00    -0.002 C 
HETATM    2  C10 UNL     1      -0.971  52.836 -11.602  1.00  0.00     0.006 C 
HETATM    3  C11 UNL     1       0.348  53.637 -11.769  1.00  0.00     0.011 C 
HETATM    4  C12 UNL     1       0.805  53.951 -10.330  1.00  0.00    -0.032 C 
HETATM    5  C13 UNL     1       1.546  52.670  -9.827  1.00  0.00     0.016 C 
HETATM    6  C14 UNL     1       1.743  55.190 -10.119  1.00  0.00     0.004 C 
HETATM    7  C15 UNL     1       3.026  55.136 -10.967  1.00  0.00     0.007 C 
HETATM    8  C16 UNL     1       4.376  54.992 -10.261  1.00  0.00     0.007 C 
HETATM    9  C17 UNL     1       4.349  54.385  -8.849  1.00  0.00     0.010 C 
HETATM   10  C18 UNL     1       5.767  54.386  -8.175  1.00  0.00     0.018 C 
HETATM   11  C19 UNL     1       6.741  53.479  -8.955  1.00  0.00     0.023 C 
HETATM   12  C20 UNL     1       6.408  55.782  -8.072  1.00  0.00     0.023 C 
HETATM   13  C21 UNL     1       5.613  53.831  -6.752  1.00  0.00     0.135 C 
HETATM   14  O1  UNL     1       6.281  52.897  -6.319  1.00  0.00    -0.297 OA
HETATM   15  C22 UNL     1       4.591  54.510  -5.877  1.00  0.00     0.080 C 
HETATM   16  C23 UNL     1       3.235  54.429  -6.556  1.00  0.00     0.018 C 
HETATM   17  C24 UNL     1       3.273  55.028  -7.955  1.00  0.00    -0.026 A 
HETATM   18  C25 UNL     1       2.932  56.487  -8.142  1.00  0.00     0.021 A 
HETATM   19  C26 UNL     1       1.936  55.439  -8.602  1.00  0.00    -0.027 A 
HETATM   20  C27 UNL     1       0.613  55.481  -7.809  1.00  0.00     0.011 C 
HETATM   21  C28 UNL     1      -0.367  54.341  -8.130  1.00  0.00     0.011 C 
HETATM   22  C29 UNL     1      -0.590  54.220  -9.644  1.00  0.00    -0.032 C 
HETATM   23  C30 UNL     1      -1.304  55.518 -10.132  1.00  0.00     0.016 C 
ENDROOT
BRANCH   1  24
HETATM   24  C7  UNL     1      -2.935  52.943  -9.818  1.00  0.00    -0.014 C 
HETATM   25  C8  UNL     1      -3.826  53.593 -10.882  1.00  0.00     0.010 C 
BRANCH  24  26
HETATM   26  C6  UNL     1      -3.383  51.475  -9.581  1.00  0.00     0.008 C 
BRANCH  26  27
HETATM   27  C5  UNL     1      -4.524  51.020 -10.499  1.00  0.00     0.028 C 
BRANCH  27  28
HETATM   28  C4  UNL     1      -4.840  49.563 -10.300  1.00  0.00    -0.025 C 
HETATM   29  C2  UNL     1      -6.031  49.023  -9.971  1.00  0.00    -0.091 C 
HETATM   30  C1  UNL     1      -7.296  49.797  -9.688  1.00  0.00     0.042 C 
HETATM   31  C3  UNL     1      -6.184  47.530  -9.848  1.00  0.00     0.042 C 
ENDBRANCH  27  28
ENDBRANCH  26  27
ENDBRANCH  24  26
ENDBRANCH   1  24
TORSDOF 4
ENDMDL
MODEL 2
REMARK minimizedAffinity -7.70035648
REMARK CNNscore 0.645178974
REMARK CNNaffinity 6.81892157
REMARK  4 active torsions:
REMARK  status: ('A' for Active; 'I' for Inactive)
REMARK    1  A    between atoms: C4_4  and  C5_5 
REMARK    2  A    between atoms: C5_5  and  C6_6 
REMARK    3  A    between atoms: C6_6  and  C7_7 
REMARK    4  A    between atoms: C7_7  and  C9_9 
ROOT
HETATM    1  C9  UNL     1       2.931  56.273  -9.024  1.00  0.00    -0.002 C 
HETATM    2  C10 UNL     1       3.966  55.323  -9.689  1.00  0.00     0.006 C 
HETATM    3  C11 UNL     1       3.271  53.946  -9.866  1.00  0.00     0.011 C 
HETATM    4  C12 UNL     1       1.777  54.219  -9.598  1.00  0.00    -0.032 C 
HETATM    5  C13 UNL     1       1.197  54.781 -10.937  1.00  0.00     0.016 C 
HETATM    6  C14 UNL     1       0.890  53.013  -9.132  1.00  0.00     0.004 C 
HETATM    7  C15 UNL     1       0.933  51.815 -10.096  1.00  0.00     0.007 C 
HETATM    8  C16 UNL     1      -0.337  51.430 -10.859  1.00  0.00     0.007 C 
HETATM    9  C17 UNL     1      -1.391  52.535 -11.035  1.00  0.00     0.010 C 
HETATM   10  C18 UNL     1      -2.695  52.006 -11.729  1.00  0.00     0.018 C 
HETATM   11  C19 UNL     1      -2.395  51.540 -13.169  1.00  0.00     0.023 C 
HETATM   12  C20 UNL     1      -3.366  50.834 -10.988  1.00  0.00     0.023 C 
HETATM   13  C21 UNL     1      -3.702  53.164 -11.788  1.00  0.00     0.135 C 
HETATM   14  O1  UNL     1      -4.247  53.529 -12.825  1.00  0.00    -0.297 OA
HETATM   15  C22 UNL     1      -4.016  53.843 -10.480  1.00  0.00     0.080 C 
HETATM   16  C23 UNL     1      -2.725  54.379  -9.886  1.00  0.00     0.018 C 
HETATM   17  C24 UNL     1      -1.686  53.280  -9.720  1.00  0.00    -0.026 A 
HETATM   18  C25 UNL     1      -1.611  52.529  -8.412  1.00  0.00     0.021 A 
HETATM   19  C26 UNL     1      -0.519  53.528  -8.744  1.00  0.00    -0.027 A 
HETATM   20  C27 UNL     1      -0.494  54.730  -7.777  1.00  0.00     0.011 C 
HETATM   21  C28 UNL     1       0.490  55.847  -8.163  1.00  0.00     0.011 C 
HETATM   22  C29 UNL     1       1.889  55.276  -8.431  1.00  0.00    -0.032 C 
HETATM   23  C30 UNL     1       2.440  54.696  -7.092  1.00  0.00     0.016 C 
ENDROOT
BRANCH   1  24
HETATM   24  C7  UNL     1       3.491  57.393  -8.095  1.00  0.00    -0.014 C 
HETATM   25  C8  UNL     1       2.624  57.729  -6.876  1.00  0.00     0.010 C 
BRANCH  24  26
HETATM   26  C6  UNL     1       4.925  57.016  -7.635  1.00  0.00     0.008 C 
BRANCH  26  27
HETATM   27  C5  UNL     1       5.129  57.094  -6.117  1.00  0.00     0.028 C 
BRANCH  27  28
HETATM   28  C4  UNL     1       6.577  56.921  -5.748  1.00  0.00    -0.025 C 
HETATM   29  C2  UNL     1       7.377  57.819  -5.139  1.00  0.00    -0.091 C 
HETATM   30  C1  UNL     1       6.980  59.219  -4.740  1.00  0.00     0.042 C 
HETATM   31  C3  UNL     1       8.803  57.467  -4.806  1.00  0.00     0.042 C 
ENDBRANCH  27  28
ENDBRANCH  26  27
ENDBRANCH  24  26
ENDBRANCH   1  24
TORSDOF 4
ENDMDL
MODEL 3
REMARK minimizedAffinity -7.52595091
REMARK CNNscore 0.564406276
REMARK CNNaffinity 6.76598167
REMARK  4 active torsions:
REMARK  status: ('A' for Active; 'I' for Inactive)
REMARK    1  A    between atoms: C4_4  and  C5_5 
REMARK    2  A    between atoms: C5_5  and  C6_6 
REMARK    3  A    between atoms: C6_6  and  C7_7 
REMARK    4  A    between atoms: C7_7  and  C9_9 
ROOT
HETATM    1  C9  UNL     1      -1.384  53.035 -10.107  1.00  0.00    -0.002 C 
HETATM    2  C10 UNL     1      -0.937  52.888 -11.588  1.00  0.00     0.006 C 
HETATM    3  C11 UNL     1       0.385  53.684 -11.746  1.00  0.00     0.011 C 
HETATM    4  C12 UNL     1       0.831  54.001 -10.304  1.00  0.00    -0.032 C 
HETATM    5  C13 UNL     1       1.563  52.719  -9.790  1.00  0.00     0.016 C 
HETATM    6  C14 UNL     1       1.770  55.238 -10.088  1.00  0.00     0.004 C 
HETATM    7  C15 UNL     1       3.060  55.178 -10.924  1.00  0.00     0.007 C 
HETATM    8  C16 UNL     1       4.404  55.032 -10.206  1.00  0.00     0.007 C 
HETATM    9  C17 UNL     1       4.362  54.430  -8.792  1.00  0.00     0.010 C 
HETATM   10  C18 UNL     1       5.774  54.428  -8.106  1.00  0.00     0.018 C 
HETATM   11  C19 UNL     1       6.752  53.516  -8.874  1.00  0.00     0.023 C 
HETATM   12  C20 UNL     1       6.418  55.823  -8.001  1.00  0.00     0.023 C 
HETATM   13  C21 UNL     1       5.606  53.879  -6.682  1.00  0.00     0.135 C 
HETATM   14  O1  UNL     1       6.267  52.944  -6.240  1.00  0.00    -0.297 OA
HETATM   15  C22 UNL     1       4.578  54.563  -5.818  1.00  0.00     0.080 C 
HETATM   16  C23 UNL     1       3.228  54.484  -6.509  1.00  0.00     0.018 C 
HETATM   17  C24 UNL     1       3.280  55.078  -7.909  1.00  0.00    -0.026 A 
HETATM   18  C25 UNL     1       2.944  56.538  -8.104  1.00  0.00     0.021 A 
HETATM   19  C26 UNL     1       1.950  55.492  -8.570  1.00  0.00    -0.027 A 
HETATM   20  C27 UNL     1       0.620  55.540  -7.789  1.00  0.00     0.011 C 
HETATM   21  C28 UNL     1      -0.360  54.401  -8.115  1.00  0.00     0.011 C 
HETATM   22  C29 UNL     1      -0.570  54.276  -9.631  1.00  0.00    -0.032 C 
HETATM   23  C30 UNL     1      -1.276  55.575 -10.129  1.00  0.00     0.016 C 
ENDROOT
BRANCH   1  24
HETATM   24  C7  UNL     1      -2.917  53.005  -9.822  1.00  0.00    -0.014 C 
HETATM   25  C8  UNL     1      -3.791  53.718 -10.860  1.00  0.00     0.010 C 
BRANCH  24  26
HETATM   26  C6  UNL     1      -3.385  51.534  -9.660  1.00  0.00     0.008 C 
BRANCH  26  27
HETATM   27  C5  UNL     1      -4.385  51.080 -10.731  1.00  0.00     0.028 C 
BRANCH  27  28
HETATM   28  C4  UNL     1      -3.857  49.909 -11.514  1.00  0.00    -0.025 C 
HETATM   29  C2  UNL     1      -3.323  49.929 -12.752  1.00  0.00    -0.091 C 
HETATM   30  C1  UNL     1      -3.190  51.149 -13.631  1.00  0.00     0.042 C 
HETATM   31  C3  UNL     1      -2.805  48.661 -13.379  1.00  0.00     0.042 C 
ENDBRANCH  27  28
ENDBRANCH  26  27
ENDBRANCH  24  26
ENDBRANCH   1  24
TORSDOF 4
ENDMDL
MODEL 4
REMARK minimizedAffinity -6.95272064
REMARK CNNscore 0.551754713
REMARK CNNaffinity 6.61644316
REMARK  4 active torsions:
REMARK  status: ('A' for Active; 'I' for Inactive)
REMARK    1  A    between atoms: C4_4  and  C5_5 
REMARK    2  A    between atoms: C5_5  and  C6_6 
REMARK    3  A    between atoms: C6_6  and  C7_7 
REMARK    4  A    between atoms: C7_7  and  C9_9 
ROOT
HETATM    1  C9  UNL     1       4.095  54.227  -8.502  1.00  0.00    -0.002 C 
HETATM    2  C10 UNL     1       3.353  55.460  -7.913  1.00  0.00     0.006 C 
HETATM    3  C11 UNL     1       2.025  55.611  -8.702  1.00  0.00     0.011 C 
HETATM    4  C12 UNL     1       1.885  54.297  -9.497  1.00  0.00    -0.032 C 
HETATM    5  C13 UNL     1       1.275  53.257  -8.501  1.00  0.00     0.016 C 
HETATM    6  C14 UNL     1       1.007  54.323 -10.796  1.00  0.00     0.004 C 
HETATM    7  C15 UNL     1      -0.427  54.825 -10.554  1.00  0.00     0.007 C 
HETATM    8  C16 UNL     1      -1.594  53.852 -10.737  1.00  0.00     0.007 C 
HETATM    9  C17 UNL     1      -1.262  52.356 -10.623  1.00  0.00     0.010 C 
HETATM   10  C18 UNL     1      -2.502  51.447 -10.937  1.00  0.00     0.018 C 
HETATM   11  C19 UNL     1      -3.616  51.665  -9.891  1.00  0.00     0.023 C 
HETATM   12  C20 UNL     1      -3.115  51.685 -12.329  1.00  0.00     0.023 C 
HETATM   13  C21 UNL     1      -2.045  49.982 -10.867  1.00  0.00     0.135 C 
HETATM   14  O1  UNL     1      -2.599  49.137 -10.171  1.00  0.00    -0.297 OA
HETATM   15  C22 UNL     1      -0.863  49.610 -11.725  1.00  0.00     0.080 C 
HETATM   16  C23 UNL     1       0.317  50.485 -11.338  1.00  0.00     0.018 C 
HETATM   17  C24 UNL     1      -0.023  51.964 -11.449  1.00  0.00    -0.026 A 
HETATM   18  C25 UNL     1       0.263  52.691 -12.742  1.00  0.00     0.021 A 
HETATM   19  C26 UNL     1       1.143  52.970 -11.538  1.00  0.00    -0.027 A 
HETATM   20  C27 UNL     1       2.604  52.522 -11.748  1.00  0.00     0.011 C 
HETATM   21  C28 UNL     1       3.498  52.638 -10.503  1.00  0.00     0.011 C 
HETATM   22  C29 UNL     1       3.394  54.038  -9.882  1.00  0.00    -0.032 C 
HETATM   23  C30 UNL     1       3.980  55.064 -10.899  1.00  0.00     0.016 C 
ENDROOT
BRANCH   1  24
HETATM   24  C7  UNL     1       5.654  54.252  -8.465  1.00  0.00    -0.014 C 
HETATM   25  C8  UNL     1       6.321  55.148  -9.515  1.00  0.00     0.010 C 
BRANCH  24  26
HETATM   26  C6  UNL     1       6.131  54.659  -7.045  1.00  0.00     0.008 C 
BRANCH  26  27
HETATM   27  C5  UNL     1       6.993  55.927  -7.021  1.00  0.00     0.028 C 
BRANCH  27  28
HETATM   28  C4  UNL     1       6.372  56.997  -6.163  1.00  0.00    -0.025 C 
HETATM   29  C2  UNL     1       6.999  57.807  -5.287  1.00  0.00    -0.091 C 
HETATM   30  C1  UNL     1       8.471  57.767  -4.955  1.00  0.00     0.042 C 
HETATM   31  C3  UNL     1       6.227  58.857  -4.532  1.00  0.00     0.042 C 
ENDBRANCH  27  28
ENDBRANCH  26  27
ENDBRANCH  24  26
ENDBRANCH   1  24
TORSDOF 4
ENDMDL
MODEL 5
REMARK minimizedAffinity -6.75266123
REMARK CNNscore 0.475531101
REMARK CNNaffinity 6.52898073
REMARK  4 active torsions:
REMARK  status: ('A' for Active; 'I' for Inactive)
REMARK    1  A    between atoms: C4_4  and  C5_5 
REMARK    2  A    between atoms: C5_5  and  C6_6 
REMARK    3  A    between atoms: C6_6  and  C7_7 
REMARK    4  A    between atoms: C7_7  and  C9_9 
ROOT
HETATM    1  C9  UNL     1      -1.365  52.977 -10.164  1.00  0.00    -0.002 C 
HETATM    2  C10 UNL     1      -0.924  52.876 -11.651  1.00  0.00     0.006 C 
HETATM    3  C11 UNL     1       0.386  53.696 -11.793  1.00  0.00     0.011 C 
HETATM    4  C12 UNL     1       0.835  53.979 -10.345  1.00  0.00    -0.032 C 
HETATM    5  C13 UNL     1       1.589  52.694  -9.871  1.00  0.00     0.016 C 
HETATM    6  C14 UNL     1       1.758  55.223 -10.100  1.00  0.00     0.004 C 
HETATM    7  C15 UNL     1       3.044  55.205 -10.944  1.00  0.00     0.007 C 
HETATM    8  C16 UNL     1       4.394  55.058 -10.237  1.00  0.00     0.007 C 
HETATM    9  C17 UNL     1       4.368  54.417  -8.841  1.00  0.00     0.010 C 
HETATM   10  C18 UNL     1       5.784  54.416  -8.162  1.00  0.00     0.018 C 
HETATM   11  C19 UNL     1       6.770  53.540  -8.960  1.00  0.00     0.023 C 
HETATM   12  C20 UNL     1       6.409  55.817  -8.022  1.00  0.00     0.023 C 
HETATM   13  C21 UNL     1       5.632  53.825  -6.752  1.00  0.00     0.135 C 
HETATM   14  O1  UNL     1       6.308  52.888  -6.340  1.00  0.00    -0.297 OA
HETATM   15  C22 UNL     1       4.599  54.471  -5.865  1.00  0.00     0.080 C 
HETATM   16  C23 UNL     1       3.246  54.392  -6.551  1.00  0.00     0.018 C 
HETATM   17  C24 UNL     1       3.282  55.025  -7.934  1.00  0.00    -0.026 A 
HETATM   18  C25 UNL     1       2.925  56.484  -8.087  1.00  0.00     0.021 A 
HETATM   19  C26 UNL     1       1.943  55.437  -8.577  1.00  0.00    -0.027 A 
HETATM   20  C27 UNL     1       0.617  55.445  -7.788  1.00  0.00     0.011 C 
HETATM   21  C28 UNL     1      -0.349  54.302  -8.140  1.00  0.00     0.011 C 
HETATM   22  C29 UNL     1      -0.566  54.216  -9.657  1.00  0.00    -0.032 C 
HETATM   23  C30 UNL     1      -1.293  55.517 -10.116  1.00  0.00     0.016 C 
ENDROOT
BRANCH   1  24
HETATM   24  C7  UNL     1      -2.896  52.917  -9.872  1.00  0.00    -0.014 C 
HETATM   25  C8  UNL     1      -3.796  53.492 -10.971  1.00  0.00     0.010 C 
BRANCH  24  26
HETATM   26  C6  UNL     1      -3.307  51.452  -9.566  1.00  0.00     0.008 C 
BRANCH  26  27
HETATM   27  C5  UNL     1      -2.167  50.591  -9.009  1.00  0.00     0.028 C 
BRANCH  27  28
HETATM   28  C4  UNL     1      -1.808  50.997  -7.606  1.00  0.00    -0.025 C 
HETATM   29  C2  UNL     1      -0.628  50.815  -6.979  1.00  0.00    -0.091 C 
HETATM   30  C1  UNL     1       0.574  50.113  -7.562  1.00  0.00     0.042 C 
HETATM   31  C3  UNL     1      -0.424  51.320  -5.576  1.00  0.00     0.042 C 
ENDBRANCH  27  28
ENDBRANCH  26  27
ENDBRANCH  24  26
ENDBRANCH   1  24
TORSDOF 4
ENDMDL
MODEL 6
REMARK minimizedAffinity -7.15875864
REMARK CNNscore 0.378556103
REMARK CNNaffinity 5.72708893
REMARK  4 active torsions:
REMARK  status: ('A' for Active; 'I' for Inactive)
REMARK    1  A    between atoms: C4_4  and  C5_5 
REMARK    2  A    between atoms: C5_5  and  C6_6 
REMARK    3  A    between atoms: C6_6  and  C7_7 
REMARK    4  A    between atoms: C7_7  and  C9_9 
ROOT
HETATM    1  C9  UNL     1      -8.043  47.270 -29.794  1.00  0.00    -0.002 C 
HETATM    2  C10 UNL     1      -8.596  48.257 -30.860  1.00  0.00     0.006 C 
HETATM    3  C11 UNL     1      -8.625  47.496 -32.212  1.00  0.00     0.011 C 
HETATM    4  C12 UNL     1      -8.393  46.018 -31.841  1.00  0.00    -0.032 C 
HETATM    5  C13 UNL     1      -9.788  45.463 -31.401  1.00  0.00     0.016 C 
HETATM    6  C14 UNL     1      -7.802  45.073 -32.944  1.00  0.00     0.004 C 
HETATM    7  C15 UNL     1      -8.629  45.058 -34.241  1.00  0.00     0.007 C 
HETATM    8  C16 UNL     1      -9.349  43.769 -34.646  1.00  0.00     0.007 C 
HETATM    9  C17 UNL     1      -9.649  42.770 -33.517  1.00  0.00     0.010 C 
HETATM   10  C18 UNL     1     -10.286  41.440 -34.056  1.00  0.00     0.018 C 
HETATM   11  C19 UNL     1     -11.665  41.715 -34.690  1.00  0.00     0.023 C 
HETATM   12  C20 UNL     1      -9.424  40.715 -35.106  1.00  0.00     0.023 C 
HETATM   13  C21 UNL     1     -10.475  40.490 -32.864  1.00  0.00     0.135 C 
HETATM   14  O1  UNL     1     -11.548  39.962 -32.589  1.00  0.00    -0.297 OA
HETATM   15  C22 UNL     1      -9.251  40.212 -32.031  1.00  0.00     0.080 C 
HETATM   16  C23 UNL     1      -8.714  41.528 -31.496  1.00  0.00     0.018 C 
HETATM   17  C24 UNL     1      -8.425  42.513 -32.619  1.00  0.00    -0.026 A 
HETATM   18  C25 UNL     1      -7.042  42.554 -33.226  1.00  0.00     0.021 A 
HETATM   19  C26 UNL     1      -7.477  43.692 -32.322  1.00  0.00    -0.027 A 
HETATM   20  C27 UNL     1      -6.647  43.777 -31.025  1.00  0.00     0.011 C 
HETATM   21  C28 UNL     1      -7.149  44.812 -30.005  1.00  0.00     0.011 C 
HETATM   22  C29 UNL     1      -7.349  46.182 -30.669  1.00  0.00    -0.032 C 
HETATM   23  C30 UNL     1      -5.952  46.706 -31.125  1.00  0.00     0.016 C 
ENDROOT
BRANCH   1  24
HETATM   24  C7  UNL     1      -7.240  47.885 -28.607  1.00  0.00    -0.014 C 
HETATM   25  C8  UNL     1      -7.814  47.607 -27.213  1.00  0.00     0.010 C 
BRANCH  24  26
HETATM   26  C6  UNL     1      -5.766  47.404 -28.675  1.00  0.00     0.008 C 
BRANCH  26  27
HETATM   27  C5  UNL     1      -4.752  48.444 -28.184  1.00  0.00     0.028 C 
BRANCH  27  28
HETATM   28  C4  UNL     1      -4.502  48.312 -26.706  1.00  0.00    -0.025 C 
HETATM   29  C2  UNL     1      -3.429  48.749 -26.017  1.00  0.00    -0.091 C 
HETATM   30  C1  UNL     1      -2.223  49.433 -26.614  1.00  0.00     0.042 C 
HETATM   31  C3  UNL     1      -3.356  48.566 -24.524  1.00  0.00     0.042 C 
ENDBRANCH  27  28
ENDBRANCH  26  27
ENDBRANCH  24  26
ENDBRANCH   1  24
TORSDOF 4
ENDMDL
MODEL 7
REMARK minimizedAffinity -7.34669065
REMARK CNNscore 0.373080641
REMARK CNNaffinity 6.34836626
REMARK  4 active torsions:
REMARK  status: ('A' for Active; 'I' for Inactive)
REMARK    1  A    between atoms: C4_4  and  C5_5 
REMARK    2  A    between atoms: C5_5  and  C6_6 
REMARK    3  A    between atoms: C6_6  and  C7_7 
REMARK    4  A    between atoms: C7_7  and  C9_9 
ROOT
HETATM    1  C9  UNL     1       4.570  54.522  -8.000  1.00  0.00    -0.002 C 
HETATM    2  C10 UNL     1       4.190  54.365  -6.501  1.00  0.00     0.006 C 
HETATM    3  C11 UNL     1       2.642  54.440  -6.415  1.00  0.00     0.011 C 
HETATM    4  C12 UNL     1       2.158  54.321  -7.874  1.00  0.00    -0.032 C 
HETATM    5  C13 UNL     1       2.151  52.791  -8.199  1.00  0.00     0.016 C 
HETATM    6  C14 UNL     1       0.750  54.915  -8.225  1.00  0.00     0.004 C 
HETATM    7  C15 UNL     1      -0.386  54.348  -7.355  1.00  0.00     0.007 C 
HETATM    8  C16 UNL     1      -1.464  53.485  -8.015  1.00  0.00     0.007 C 
HETATM    9  C17 UNL     1      -1.082  52.805  -9.339  1.00  0.00     0.010 C 
HETATM   10  C18 UNL     1      -2.291  52.039  -9.984  1.00  0.00     0.018 C 
HETATM   11  C19 UNL     1      -2.742  50.874  -9.080  1.00  0.00     0.023 C 
HETATM   12  C20 UNL     1      -3.521  52.927 -10.252  1.00  0.00     0.023 C 
HETATM   13  C21 UNL     1      -1.822  51.465 -11.329  1.00  0.00     0.135 C 
HETATM   14  O1  UNL     1      -1.936  50.280 -11.630  1.00  0.00    -0.297 OA
HETATM   15  C22 UNL     1      -1.215  52.445 -12.300  1.00  0.00     0.080 C 
HETATM   16  C23 UNL     1      -0.022  53.112 -11.638  1.00  0.00     0.018 C 
HETATM   17  C24 UNL     1      -0.409  53.778 -10.326  1.00  0.00    -0.026 A 
HETATM   18  C25 UNL     1      -0.823  55.230 -10.330  1.00  0.00     0.021 A 
HETATM   19  C26 UNL     1       0.532  54.859  -9.757  1.00  0.00    -0.027 A 
HETATM   20  C27 UNL     1       1.706  55.442 -10.571  1.00  0.00     0.011 C 
HETATM   21  C28 UNL     1       3.098  54.966 -10.125  1.00  0.00     0.011 C 
HETATM   22  C29 UNL     1       3.281  55.149  -8.612  1.00  0.00    -0.032 C 
HETATM   23  C30 UNL     1       3.257  56.677  -8.303  1.00  0.00     0.016 C 
ENDROOT
BRANCH   1  24
HETATM   24  C7  UNL     1       5.940  55.198  -8.317  1.00  0.00    -0.014 C 
HETATM   25  C8  UNL     1       6.669  55.800  -7.110  1.00  0.00     0.010 C 
BRANCH  24  26
HETATM   26  C6  UNL     1       6.865  54.180  -9.037  1.00  0.00     0.008 C 
BRANCH  26  27
HETATM   27  C5  UNL     1       6.145  52.906  -9.496  1.00  0.00     0.028 C 
BRANCH  27  28
HETATM   28  C4  UNL     1       6.985  51.682  -9.251  1.00  0.00    -0.025 C 
HETATM   29  C2  UNL     1       6.789  50.445  -9.749  1.00  0.00    -0.091 C 
HETATM   30  C1  UNL     1       5.638  50.027 -10.632  1.00  0.00     0.042 C 
HETATM   31  C3  UNL     1       7.754  49.334  -9.431  1.00  0.00     0.042 C 
ENDBRANCH  27  28
ENDBRANCH  26  27
ENDBRANCH  24  26
ENDBRANCH   1  24
TORSDOF 4
ENDMDL
MODEL 8
REMARK minimizedAffinity -8.14787483
REMARK CNNscore 0.286175013
REMARK CNNaffinity 6.529562
REMARK  4 active torsions:
REMARK  status: ('A' for Active; 'I' for Inactive)
REMARK    1  A    between atoms: C4_4  and  C5_5 
REMARK    2  A    between atoms: C5_5  and  C6_6 
REMARK    3  A    between atoms: C6_6  and  C7_7 
REMARK    4  A    between atoms: C7_7  and  C9_9 
ROOT
HETATM    1  C9  UNL     1      -2.630  51.415 -21.857  1.00  0.00    -0.002 C 
HETATM    2  C10 UNL     1      -4.001  51.834 -22.457  1.00  0.00     0.006 C 
HETATM    3  C11 UNL     1      -4.896  50.566 -22.474  1.00  0.00     0.011 C 
HETATM    4  C12 UNL     1      -4.144  49.538 -21.604  1.00  0.00    -0.032 C 
HETATM    5  C13 UNL     1      -4.509  49.882 -20.123  1.00  0.00     0.016 C 
HETATM    6  C14 UNL     1      -4.437  48.019 -21.855  1.00  0.00     0.004 C 
HETATM    7  C15 UNL     1      -5.929  47.658 -21.740  1.00  0.00     0.007 C 
HETATM    8  C16 UNL     1      -6.384  46.744 -20.599  1.00  0.00     0.007 C 
HETATM    9  C17 UNL     1      -5.468  46.679 -19.367  1.00  0.00     0.010 C 
HETATM   10  C18 UNL     1      -5.969  45.632 -18.310  1.00  0.00     0.018 C 
HETATM   11  C19 UNL     1      -7.340  46.049 -17.737  1.00  0.00     0.023 C 
HETATM   12  C20 UNL     1      -6.110  44.202 -18.865  1.00  0.00     0.023 C 
HETATM   13  C21 UNL     1      -4.950  45.594 -17.162  1.00  0.00     0.135 C 
HETATM   14  O1  UNL     1      -5.257  45.748 -15.984  1.00  0.00    -0.297 OA
HETATM   15  C22 UNL     1      -3.516  45.336 -17.550  1.00  0.00     0.080 C 
HETATM   16  C23 UNL     1      -3.075  46.410 -18.530  1.00  0.00     0.018 C 
HETATM   17  C24 UNL     1      -3.990  46.471 -19.744  1.00  0.00    -0.026 A 
HETATM   18  C25 UNL     1      -3.647  45.654 -20.967  1.00  0.00     0.021 A 
HETATM   19  C26 UNL     1      -3.458  47.158 -21.018  1.00  0.00    -0.027 A 
HETATM   20  C27 UNL     1      -1.980  47.570 -21.177  1.00  0.00     0.011 C 
HETATM   21  C28 UNL     1      -1.719  49.082 -21.075  1.00  0.00     0.011 C 
HETATM   22  C29 UNL     1      -2.653  49.864 -22.009  1.00  0.00    -0.032 C 
HETATM   23  C30 UNL     1      -2.293  49.487 -23.479  1.00  0.00     0.016 C 
ENDROOT
BRANCH   1  24
HETATM   24  C7  UNL     1      -1.370  52.186 -22.359  1.00  0.00    -0.014 C 
HETATM   25  C8  UNL     1      -0.039  51.737 -21.745  1.00  0.00     0.010 C 
BRANCH  24  26
HETATM   26  C6  UNL     1      -1.293  52.099 -23.907  1.00  0.00     0.008 C 
BRANCH  26  27
HETATM   27  C5  UNL     1       0.138  52.069 -24.455  1.00  0.00     0.028 C 
BRANCH  27  28
HETATM   28  C4  UNL     1       0.154  52.174 -25.955  1.00  0.00    -0.025 C 
HETATM   29  C2  UNL     1       1.145  51.801 -26.790  1.00  0.00    -0.091 C 
HETATM   30  C1  UNL     1       2.480  51.235 -26.368  1.00  0.00     0.042 C 
HETATM   31  C3  UNL     1       0.981  51.942 -28.280  1.00  0.00     0.042 C 
ENDBRANCH  27  28
ENDBRANCH  26  27
ENDBRANCH  24  26
ENDBRANCH   1  24
TORSDOF 4
ENDMDL
MODEL 9
REMARK minimizedAffinity -7.20464373
REMARK CNNscore 0.269804329
REMARK CNNaffinity 5.12142611
REMARK  4 active torsions:
REMARK  status: ('A' for Active; 'I' for Inactive)
REMARK    1  A    between atoms: C4_4  and  C5_5 
REMARK    2  A    between atoms: C5_5  and  C6_6 
REMARK    3  A    between atoms: C6_6  and  C7_7 
REMARK    4  A    between atoms: C7_7  and  C9_9 
ROOT
HETATM    1  C9  UNL     1     -12.939  45.104 -26.510  1.00  0.00    -0.002 C 
HETATM    2  C10 UNL     1     -12.565  43.599 -26.612  1.00  0.00     0.006 C 
HETATM    3  C11 UNL     1     -11.900  43.388 -27.998  1.00  0.00     0.011 C 
HETATM    4  C12 UNL     1     -11.621  44.811 -28.524  1.00  0.00    -0.032 C 
HETATM    5  C13 UNL     1     -10.282  45.261 -27.855  1.00  0.00     0.016 C 
HETATM    6  C14 UNL     1     -11.497  45.002 -30.076  1.00  0.00     0.004 C 
HETATM    7  C15 UNL     1     -10.430  44.098 -30.718  1.00  0.00     0.007 C 
HETATM    8  C16 UNL     1      -9.186  44.743 -31.336  1.00  0.00     0.007 C 
HETATM    9  C17 UNL     1      -8.817  46.144 -30.825  1.00  0.00     0.010 C 
HETATM   10  C18 UNL     1      -7.597  46.756 -31.601  1.00  0.00     0.018 C 
HETATM   11  C19 UNL     1      -6.323  45.920 -31.360  1.00  0.00     0.023 C 
HETATM   12  C20 UNL     1      -7.811  46.854 -33.123  1.00  0.00     0.023 C 
HETATM   13  C21 UNL     1      -7.360  48.176 -31.066  1.00  0.00     0.135 C 
HETATM   14  O1  UNL     1      -6.274  48.564 -30.647  1.00  0.00    -0.297 OA
HETATM   15  C22 UNL     1      -8.546  49.105 -31.091  1.00  0.00     0.080 C 
HETATM   16  C23 UNL     1      -9.671  48.484 -30.281  1.00  0.00     0.018 C 
HETATM   17  C24 UNL     1     -10.027  47.095 -30.790  1.00  0.00    -0.026 A 
HETATM   18  C25 UNL     1     -11.113  46.947 -31.829  1.00  0.00     0.021 A 
HETATM   19  C26 UNL     1     -11.402  46.513 -30.405  1.00  0.00    -0.027 A 
HETATM   20  C27 UNL     1     -12.498  47.363 -29.730  1.00  0.00     0.011 C 
HETATM   21  C28 UNL     1     -12.716  47.066 -28.238  1.00  0.00     0.011 C 
HETATM   22  C29 UNL     1     -12.907  45.562 -28.000  1.00  0.00    -0.032 C 
HETATM   23  C30 UNL     1     -14.232  45.126 -28.699  1.00  0.00     0.016 C 
ENDROOT
BRANCH   1  24
HETATM   24  C7  UNL     1     -14.190  45.468 -25.654  1.00  0.00    -0.014 C 
HETATM   25  C8  UNL     1     -14.640  44.392 -24.659  1.00  0.00     0.010 C 
BRANCH  24  26
HETATM   26  C6  UNL     1     -13.934  46.804 -24.905  1.00  0.00     0.008 C 
BRANCH  26  27
HETATM   27  C5  UNL     1     -14.989  47.129 -23.840  1.00  0.00     0.028 C 
BRANCH  27  28
HETATM   28  C4  UNL     1     -16.368  47.198 -24.437  1.00  0.00    -0.025 C 
HETATM   29  C2  UNL     1     -17.517  46.750 -23.892  1.00  0.00    -0.091 C 
HETATM   30  C1  UNL     1     -17.639  46.034 -22.568  1.00  0.00     0.042 C 
HETATM   31  C3  UNL     1     -18.826  46.935 -24.613  1.00  0.00     0.042 C 
ENDBRANCH  27  28
ENDBRANCH  26  27
ENDBRANCH  24  26
ENDBRANCH   1  24
TORSDOF 4
ENDMDL
