MODEL 1
REMARK minimizedAffinity -9.4270916
REMARK CNNscore 0.398626328
REMARK CNNaffinity 7.36621094
REMARK  12 active torsions:
REMARK  status: ('A' for Active; 'I' for Inactive)
REMARK    1  A    between atoms: C3_3  and  O1_4 
REMARK    2  A    between atoms: N1_14  and  O2_16 
REMARK    3  A    between atoms: O2_16  and  C13_17 
REMARK    4  A    between atoms: C13_17  and  C14_18 
REMARK       I    between atoms: C14_18  and  N2_20 
REMARK    5  A    between atoms: N2_20  and  C15_21 
REMARK    6  A    between atoms: C15_21  and  C16_22 
REMARK    7  A    between atoms: C15_21  and  C23_33 
REMARK       I    between atoms: C16_22  and  N3_24 
REMARK    8  A    between atoms: N3_24  and  C17_25 
REMARK    9  A    between atoms: C17_25  and  C18_26 
REMARK   10  A    between atoms: C17_25  and  C19_29 
REMARK   11  A    between atoms: C18_26  and  O6_28 
REMARK   12  A    between atoms: C19_29  and  C21_31 
ROOT
HETATM    1  C1  UNL     1      -5.381  50.354 -10.094  1.00  0.00     0.015 C 
HETATM    2  C2  UNL     1      -4.397  50.851 -10.573  1.00  0.00    -0.078 C 
HETATM    3  C3  UNL     1      -3.203  51.488 -11.146  1.00  0.00     0.128 C 
HETATM    4  C4  UNL     1      -1.974  51.398 -10.211  1.00  0.00     0.052 C 
HETATM    5  C5  UNL     1      -0.738  51.394 -11.142  1.00  0.00     0.010 C 
HETATM    6  C6  UNL     1      -1.312  51.506 -12.559  1.00  0.00     0.002 C 
HETATM    7  C7  UNL     1      -0.420  51.041 -13.731  1.00  0.00    -0.004 C 
HETATM    8  C8  UNL     1       0.641  52.133 -13.953  1.00  0.00     0.010 C 
HETATM    9  C9  UNL     1       1.510  51.875 -15.164  1.00  0.00     0.035 C 
HETATM   10  C10 UNL     1       0.668  51.783 -16.406  1.00  0.00    -0.069 C 
HETATM   11  C11 UNL     1       0.976  52.543 -17.472  1.00  0.00     0.030 C 
HETATM   12  C12 UNL     1       0.306  52.356 -18.783  1.00  0.00     0.032 C 
HETATM   13  N1  UNL     1       0.652  53.152 -19.759  1.00  0.00    -0.271 N 
ATOM     14  H1  UNL     1       1.319  53.918 -19.668  1.00  0.00     0.194 HD
HETATM   15  C26 UNL     1      -0.672  51.207 -18.918  1.00  0.00     0.060 C 
HETATM   16  C27 UNL     1      -1.399  50.998 -17.598  1.00  0.00     0.020 C 
HETATM   17  C28 UNL     1      -0.455  50.753 -16.384  1.00  0.00    -0.016 C 
HETATM   18  C29 UNL     1       0.208  49.360 -16.548  1.00  0.00     0.020 C 
HETATM   19  C30 UNL     1      -1.269  50.730 -15.018  1.00  0.00     0.002 C 
HETATM   20  C31 UNL     1      -2.602  51.515 -14.971  1.00  0.00     0.007 C 
HETATM   21  C32 UNL     1      -3.484  51.120 -13.761  1.00  0.00     0.014 C 
HETATM   22  C33 UNL     1      -2.687  50.823 -12.467  1.00  0.00     0.003 C 
HETATM   23  C34 UNL     1      -2.569  49.279 -12.294  1.00  0.00     0.020 C 
ENDROOT
BRANCH   3  24
HETATM   24  O1  UNL     1      -3.482  52.887 -11.274  1.00  0.00    -0.377 OA
HETATM   25  H2  UNL     1      -3.678  53.097 -12.198  1.00  0.00     0.211 HD
ENDBRANCH   3  24
BRANCH  13  26
HETATM   26  O2  UNL     1      -0.012  52.818 -20.947  1.00  0.00    -0.271 OA
BRANCH  26  27
HETATM   27  C13 UNL     1       0.918  52.221 -21.846  1.00  0.00     0.303 C 
BRANCH  27  28
HETATM   28  C14 UNL     1       0.797  52.875 -23.218  1.00  0.00     0.244 C 
HETATM   29  O3  UNL     1       1.018  54.068 -23.410  1.00  0.00    -0.271 OA
HETATM   30  N2  UNL     1       0.357  52.026 -24.215  1.00  0.00    -0.346 N 
HETATM   31  H16 UNL     1      -0.149  51.200 -23.900  1.00  0.00     0.163 HD
BRANCH  30  32
HETATM   32  C15 UNL     1      -0.029  52.566 -25.516  1.00  0.00     0.180 C 
BRANCH  32  33
HETATM   33  C16 UNL     1      -1.520  52.203 -25.688  1.00  0.00     0.241 C 
HETATM   34  O4  UNL     1      -2.421  53.034 -25.571  1.00  0.00    -0.271 OA
HETATM   35  N3  UNL     1      -1.753  50.884 -26.006  1.00  0.00    -0.344 N 
HETATM   36  H18 UNL     1      -0.973  50.317 -26.326  1.00  0.00     0.163 HD
BRANCH  35  37
HETATM   37  C17 UNL     1      -3.097  50.372 -26.298  1.00  0.00     0.186 C 
BRANCH  37  38
HETATM   38  C18 UNL     1      -3.285  50.443 -27.812  1.00  0.00     0.163 C 
HETATM   39  O5  UNL     1      -3.657  49.525 -28.530  1.00  0.00    -0.648 OA
BRANCH  38  40
HETATM   40  O6  UNL     1      -3.003  51.646 -28.339  1.00  0.00    -0.775 OA
HETATM   41  H20 UNL     1      -3.162  51.540 -29.299  1.00  0.00     0.167 HD
ENDBRANCH  38  40
ENDBRANCH  37  38
BRANCH  37  42
HETATM   42  C19 UNL     1      -3.289  48.947 -25.729  1.00  0.00     0.014 C 
HETATM   43  C20 UNL     1      -4.451  48.199 -26.407  1.00  0.00     0.012 C 
BRANCH  42  44
HETATM   44  C21 UNL     1      -3.492  48.893 -24.202  1.00  0.00     0.002 C 
HETATM   45  C22 UNL     1      -2.396  49.594 -23.413  1.00  0.00     0.005 C 
ENDBRANCH  42  44
ENDBRANCH  37  42
ENDBRANCH  35  37
ENDBRANCH  32  33
BRANCH  32  46
HETATM   46  C23 UNL     1       0.820  51.969 -26.658  1.00  0.00     0.009 C 
HETATM   47  C24 UNL     1       2.320  52.067 -26.357  1.00  0.00     0.012 C 
HETATM   48  C25 UNL     1       0.456  50.500 -26.915  1.00  0.00     0.012 C 
ENDBRANCH  32  46
ENDBRANCH  30  32
ENDBRANCH  27  28
ENDBRANCH  26  27
ENDBRANCH  13  26
TORSDOF 12
ENDMDL
MODEL 2
REMARK minimizedAffinity -6.92154455
REMARK CNNscore 0.300101221
REMARK CNNaffinity 5.94314909
REMARK  12 active torsions:
REMARK  status: ('A' for Active; 'I' for Inactive)
REMARK    1  A    between atoms: C3_3  and  O1_4 
REMARK    2  A    between atoms: N1_14  and  O2_16 
REMARK    3  A    between atoms: O2_16  and  C13_17 
REMARK    4  A    between atoms: C13_17  and  C14_18 
REMARK       I    between atoms: C14_18  and  N2_20 
REMARK    5  A    between atoms: N2_20  and  C15_21 
REMARK    6  A    between atoms: C15_21  and  C16_22 
REMARK    7  A    between atoms: C15_21  and  C23_33 
REMARK       I    between atoms: C16_22  and  N3_24 
REMARK    8  A    between atoms: N3_24  and  C17_25 
REMARK    9  A    between atoms: C17_25  and  C18_26 
REMARK   10  A    between atoms: C17_25  and  C19_29 
REMARK   11  A    between atoms: C18_26  and  O6_28 
REMARK   12  A    between atoms: C19_29  and  C21_31 
ROOT
HETATM    1  C1  UNL     1      -4.277  45.359 -32.211  1.00  0.00     0.015 C 
HETATM    2  C2  UNL     1      -5.183  46.052 -31.832  1.00  0.00    -0.078 C 
HETATM    3  C3  UNL     1      -6.267  46.925 -31.360  1.00  0.00     0.128 C 
HETATM    4  C4  UNL     1      -6.875  47.784 -32.493  1.00  0.00     0.052 C 
HETATM    5  C5  UNL     1      -8.347  48.035 -32.087  1.00  0.00     0.010 C 
HETATM    6  C6  UNL     1      -8.507  47.331 -30.734  1.00  0.00     0.002 C 
HETATM    7  C7  UNL     1      -9.937  46.961 -30.285  1.00  0.00    -0.004 C 
HETATM    8  C8  UNL     1     -10.615  48.261 -29.816  1.00  0.00     0.010 C 
HETATM    9  C9  UNL     1     -11.985  48.030 -29.219  1.00  0.00     0.035 C 
HETATM   10  C10 UNL     1     -11.898  47.099 -28.043  1.00  0.00    -0.069 C 
HETATM   11  C11 UNL     1     -12.441  47.464 -26.868  1.00  0.00     0.030 C 
HETATM   12  C12 UNL     1     -12.557  46.515 -25.734  1.00  0.00     0.032 C 
HETATM   13  N1  UNL     1     -13.080  46.960 -24.622  1.00  0.00    -0.271 N 
ATOM     14  H1  UNL     1     -13.374  47.924 -24.470  1.00  0.00     0.194 HD
HETATM   15  C26 UNL     1     -12.133  45.079 -25.968  1.00  0.00     0.060 C 
HETATM   16  C27 UNL     1     -10.962  45.046 -26.939  1.00  0.00     0.020 C 
HETATM   17  C28 UNL     1     -11.245  45.746 -28.300  1.00  0.00    -0.016 C 
HETATM   18  C29 UNL     1     -12.273  44.894 -29.091  1.00  0.00     0.020 C 
HETATM   19  C30 UNL     1      -9.927  45.835 -29.186  1.00  0.00     0.002 C 
HETATM   20  C31 UNL     1      -8.569  45.839 -28.442  1.00  0.00     0.007 C 
HETATM   21  C32 UNL     1      -7.374  45.542 -29.382  1.00  0.00     0.014 C 
HETATM   22  C33 UNL     1      -7.511  46.160 -30.795  1.00  0.00     0.003 C 
HETATM   23  C34 UNL     1      -7.969  45.048 -31.786  1.00  0.00     0.020 C 
ENDROOT
BRANCH   3  24
HETATM   24  O1  UNL     1      -5.696  47.861 -30.438  1.00  0.00    -0.377 OA
HETATM   25  H2  UNL     1      -5.909  47.596 -29.532  1.00  0.00     0.211 HD
ENDBRANCH   3  24
BRANCH  13  26
HETATM   26  O2  UNL     1     -13.184  45.941 -23.666  1.00  0.00    -0.271 OA
BRANCH  26  27
HETATM   27  C13 UNL     1     -13.736  46.482 -22.469  1.00  0.00     0.303 C 
BRANCH  27  28
HETATM   28  C14 UNL     1     -14.824  45.556 -21.941  1.00  0.00     0.244 C 
HETATM   29  O3  UNL     1     -14.752  44.331 -22.015  1.00  0.00    -0.271 OA
HETATM   30  N2  UNL     1     -15.929  46.210 -21.431  1.00  0.00    -0.346 N 
HETATM   31  H16 UNL     1     -16.063  47.167 -21.754  1.00  0.00     0.163 HD
BRANCH  30  32
HETATM   32  C15 UNL     1     -17.139  45.458 -21.111  1.00  0.00     0.180 C 
BRANCH  32  33
HETATM   33  C16 UNL     1     -18.043  45.580 -22.357  1.00  0.00     0.241 C 
HETATM   34  O4  UNL     1     -19.081  46.244 -22.360  1.00  0.00    -0.271 OA
HETATM   35  N3  UNL     1     -17.582  44.906 -23.465  1.00  0.00    -0.344 N 
HETATM   36  H18 UNL     1     -16.617  44.589 -23.473  1.00  0.00     0.163 HD
BRANCH  35  37
HETATM   37  C17 UNL     1     -18.258  44.979 -24.766  1.00  0.00     0.186 C 
BRANCH  37  38
HETATM   38  C18 UNL     1     -18.781  46.405 -24.920  1.00  0.00     0.163 C 
HETATM   39  O5  UNL     1     -18.095  47.418 -24.968  1.00  0.00    -0.648 OA
BRANCH  38  40
HETATM   40  O6  UNL     1     -20.119  46.487 -25.009  1.00  0.00    -0.775 OA
HETATM   41  H20 UNL     1     -20.304  47.444 -25.099  1.00  0.00     0.167 HD
ENDBRANCH  38  40
ENDBRANCH  37  38
BRANCH  37  42
HETATM   42  C19 UNL     1     -17.312  44.553 -25.912  1.00  0.00     0.014 C 
HETATM   43  C20 UNL     1     -17.906  44.848 -27.300  1.00  0.00     0.012 C 
BRANCH  42  44
HETATM   44  C21 UNL     1     -16.880  43.073 -25.865  1.00  0.00     0.002 C 
HETATM   45  C22 UNL     1     -15.467  42.864 -25.343  1.00  0.00     0.005 C 
ENDBRANCH  42  44
ENDBRANCH  37  42
ENDBRANCH  35  37
ENDBRANCH  32  33
BRANCH  32  46
HETATM   46  C23 UNL     1     -17.847  46.018 -19.859  1.00  0.00     0.009 C 
HETATM   47  C24 UNL     1     -18.660  44.936 -19.139  1.00  0.00     0.012 C 
HETATM   48  C25 UNL     1     -16.839  46.627 -18.874  1.00  0.00     0.012 C 
ENDBRANCH  32  46
ENDBRANCH  30  32
ENDBRANCH  27  28
ENDBRANCH  26  27
ENDBRANCH  13  26
TORSDOF 12
ENDMDL
MODEL 3
REMARK minimizedAffinity -7.1361804
REMARK CNNscore 0.29172653
REMARK CNNaffinity 6.64204836
REMARK  12 active torsions:
REMARK  status: ('A' for Active; 'I' for Inactive)
REMARK    1  A    between atoms: C3_3  and  O1_4 
REMARK    2  A    between atoms: N1_14  and  O2_16 
REMARK    3  A    between atoms: O2_16  and  C13_17 
REMARK    4  A    between atoms: C13_17  and  C14_18 
REMARK       I    between atoms: C14_18  and  N2_20 
REMARK    5  A    between atoms: N2_20  and  C15_21 
REMARK    6  A    between atoms: C15_21  and  C16_22 
REMARK    7  A    between atoms: C15_21  and  C23_33 
REMARK       I    between atoms: C16_22  and  N3_24 
REMARK    8  A    between atoms: N3_24  and  C17_25 
REMARK    9  A    between atoms: C17_25  and  C18_26 
REMARK   10  A    between atoms: C17_25  and  C19_29 
REMARK   11  A    between atoms: C18_26  and  O6_28 
REMARK   12  A    between atoms: C19_29  and  C21_31 
ROOT
HETATM    1  C1  UNL     1       1.345  49.710  -4.386  1.00  0.00     0.015 C 
HETATM    2  C2  UNL     1       0.516  50.245  -5.073  1.00  0.00    -0.078 C 
HETATM    3  C3  UNL     1      -0.522  50.884  -5.894  1.00  0.00     0.128 C 
HETATM    4  C4  UNL     1      -0.934  52.274  -5.356  1.00  0.00     0.052 C 
HETATM    5  C5  UNL     1      -1.391  53.084  -6.592  1.00  0.00     0.010 C 
HETATM    6  C6  UNL     1      -1.241  52.118  -7.774  1.00  0.00     0.002 C 
HETATM    7  C7  UNL     1      -1.133  52.728  -9.188  1.00  0.00    -0.004 C 
HETATM    8  C8  UNL     1      -2.547  53.183  -9.593  1.00  0.00     0.010 C 
HETATM    9  C9  UNL     1      -2.620  53.684 -11.019  1.00  0.00     0.035 C 
HETATM   10  C10 UNL     1      -2.182  52.611 -11.977  1.00  0.00    -0.069 C 
HETATM   11  C11 UNL     1      -2.979  52.279 -13.008  1.00  0.00     0.030 C 
HETATM   12  C12 UNL     1      -2.519  51.373 -14.089  1.00  0.00     0.032 C 
HETATM   13  N1  UNL     1      -3.367  51.088 -15.042  1.00  0.00    -0.271 N 
ATOM     14  H1  UNL     1      -4.333  51.412 -15.069  1.00  0.00     0.194 HD
HETATM   15  C26 UNL     1      -1.079  50.906 -14.054  1.00  0.00     0.060 C 
HETATM   16  C27 UNL     1      -0.633  50.738 -12.608  1.00  0.00     0.020 C 
HETATM   17  C28 UNL     1      -0.798  52.018 -11.739  1.00  0.00    -0.016 C 
HETATM   18  C29 UNL     1       0.232  53.076 -12.216  1.00  0.00     0.020 C 
HETATM   19  C30 UNL     1      -0.490  51.718 -10.208  1.00  0.00     0.002 C 
HETATM   20  C31 UNL     1      -0.699  50.266  -9.712  1.00  0.00     0.007 C 
HETATM   21  C32 UNL     1      -0.018  50.000  -8.347  1.00  0.00     0.014 C 
HETATM   22  C33 UNL     1      -0.081  51.194  -7.365  1.00  0.00     0.003 C 
HETATM   23  C34 UNL     1       1.293  51.930  -7.381  1.00  0.00     0.020 C 
ENDROOT
BRANCH   3  24
HETATM   24  O1  UNL     1      -1.701  50.075  -5.803  1.00  0.00    -0.377 OA
HETATM   25  H2  UNL     1      -1.798  49.550  -6.609  1.00  0.00     0.211 HD
ENDBRANCH   3  24
BRANCH  13  26
HETATM   26  O2  UNL     1      -2.776  50.278 -16.021  1.00  0.00    -0.271 OA
BRANCH  26  27
HETATM   27  C13 UNL     1      -2.986  50.869 -17.300  1.00  0.00     0.303 C 
BRANCH  27  28
HETATM   28  C14 UNL     1      -1.865  50.458 -18.246  1.00  0.00     0.244 C 
HETATM   29  O3  UNL     1      -0.675  50.544 -17.948  1.00  0.00    -0.271 OA
HETATM   30  N2  UNL     1      -2.295  50.040 -19.491  1.00  0.00    -0.346 N 
HETATM   31  H16 UNL     1      -3.223  50.358 -19.766  1.00  0.00     0.163 HD
BRANCH  30  32
HETATM   32  C15 UNL     1      -1.330  49.843 -20.569  1.00  0.00     0.180 C 
BRANCH  32  33
HETATM   33  C16 UNL     1      -1.706  50.876 -21.653  1.00  0.00     0.241 C 
HETATM   34  O4  UNL     1      -2.801  51.440 -21.680  1.00  0.00    -0.271 OA
HETATM   35  N3  UNL     1      -0.710  51.131 -22.569  1.00  0.00    -0.344 N 
HETATM   36  H18 UNL     1       0.235  50.828 -22.354  1.00  0.00     0.163 HD
BRANCH  35  37
HETATM   37  C17 UNL     1      -0.848  52.148 -23.618  1.00  0.00     0.186 C 
BRANCH  37  38
HETATM   38  C18 UNL     1       0.366  53.069 -23.512  1.00  0.00     0.163 C 
HETATM   39  O5  UNL     1       0.944  53.375 -22.478  1.00  0.00    -0.648 OA
BRANCH  38  40
HETATM   40  O6  UNL     1       0.789  53.549 -24.693  1.00  0.00    -0.775 OA
HETATM   41  H20 UNL     1       1.555  54.115 -24.471  1.00  0.00     0.167 HD
ENDBRANCH  38  40
ENDBRANCH  37  38
BRANCH  37  42
HETATM   42  C19 UNL     1      -0.995  51.497 -25.013  1.00  0.00     0.014 C 
HETATM   43  C20 UNL     1       0.367  51.169 -25.650  1.00  0.00     0.012 C 
BRANCH  42  44
HETATM   44  C21 UNL     1      -1.823  52.323 -26.017  1.00  0.00     0.002 C 
HETATM   45  C22 UNL     1      -3.320  52.292 -25.748  1.00  0.00     0.005 C 
ENDBRANCH  42  44
ENDBRANCH  37  42
ENDBRANCH  35  37
ENDBRANCH  32  33
BRANCH  32  46
HETATM   46  C23 UNL     1      -1.386  48.407 -21.132  1.00  0.00     0.009 C 
HETATM   47  C24 UNL     1      -1.789  47.394 -20.056  1.00  0.00     0.012 C 
HETATM   48  C25 UNL     1      -2.368  48.307 -22.308  1.00  0.00     0.012 C 
ENDBRANCH  32  46
ENDBRANCH  30  32
ENDBRANCH  27  28
ENDBRANCH  26  27
ENDBRANCH  13  26
TORSDOF 12
ENDMDL
MODEL 4
REMARK minimizedAffinity -8.23745346
REMARK CNNscore 0.265838385
REMARK CNNaffinity 6.69207144
REMARK  12 active torsions:
REMARK  status: ('A' for Active; 'I' for Inactive)
REMARK    1  A    between atoms: C3_3  and  O1_4 
REMARK    2  A    between atoms: N1_14  and  O2_16 
REMARK    3  A    between atoms: O2_16  and  C13_17 
REMARK    4  A    between atoms: C13_17  and  C14_18 
REMARK       I    between atoms: C14_18  and  N2_20 
REMARK    5  A    between atoms: N2_20  and  C15_21 
REMARK    6  A    between atoms: C15_21  and  C16_22 
REMARK    7  A    between atoms: C15_21  and  C23_33 
REMARK       I    between atoms: C16_22  and  N3_24 
REMARK    8  A    between atoms: N3_24  and  C17_25 
REMARK    9  A    between atoms: C17_25  and  C18_26 
REMARK   10  A    between atoms: C17_25  and  C19_29 
REMARK   11  A    between atoms: C18_26  and  O6_28 
REMARK   12  A    between atoms: C19_29  and  C21_31 
ROOT
HETATM    1  C1  UNL     1      -0.687  49.926  -6.658  1.00  0.00     0.015 C 
HETATM    2  C2  UNL     1       0.100  50.264  -7.501  1.00  0.00    -0.078 C 
HETATM    3  C3  UNL     1       1.068  50.707  -8.514  1.00  0.00     0.128 C 
HETATM    4  C4  UNL     1       2.495  50.176  -8.245  1.00  0.00     0.052 C 
HETATM    5  C5  UNL     1       3.169  50.060  -9.633  1.00  0.00     0.010 C 
HETATM    6  C6  UNL     1       2.109  50.550 -10.627  1.00  0.00     0.002 C 
HETATM    7  C7  UNL     1       2.253  50.112 -12.101  1.00  0.00    -0.004 C 
HETATM    8  C8  UNL     1       3.383  50.959 -12.715  1.00  0.00     0.010 C 
HETATM    9  C9  UNL     1       3.550  50.732 -14.201  1.00  0.00     0.035 C 
HETATM   10  C10 UNL     1       2.276  51.055 -14.929  1.00  0.00    -0.069 C 
HETATM   11  C11 UNL     1       2.307  51.904 -15.972  1.00  0.00     0.030 C 
HETATM   12  C12 UNL     1       1.125  52.110 -16.845  1.00  0.00     0.032 C 
HETATM   13  N1  UNL     1       1.237  52.969 -17.823  1.00  0.00    -0.271 N 
ATOM     14  H1  UNL     1       2.066  53.536 -18.000  1.00  0.00     0.194 HD
HETATM   15  C26 UNL     1      -0.100  51.256 -16.590  1.00  0.00     0.060 C 
HETATM   16  C27 UNL     1      -0.230  50.984 -15.098  1.00  0.00     0.020 C 
HETATM   17  C28 UNL     1       1.026  50.319 -14.462  1.00  0.00    -0.016 C 
HETATM   18  C29 UNL     1       1.136  48.864 -14.990  1.00  0.00     0.020 C 
HETATM   19  C30 UNL     1       0.892  50.236 -12.879  1.00  0.00     0.002 C 
HETATM   20  C31 UNL     1      -0.016  51.282 -12.186  1.00  0.00     0.007 C 
HETATM   21  C32 UNL     1      -0.379  50.885 -10.734  1.00  0.00     0.014 C 
HETATM   22  C33 UNL     1       0.769  50.190  -9.962  1.00  0.00     0.003 C 
HETATM   23  C34 UNL     1       0.508  48.654  -9.953  1.00  0.00     0.020 C 
ENDROOT
BRANCH   3  24
HETATM   24  O1  UNL     1       1.168  52.133  -8.418  1.00  0.00    -0.377 OA
HETATM   25  H2  UNL     1       0.669  52.543  -9.139  1.00  0.00     0.211 HD
ENDBRANCH   3  24
BRANCH  13  26
HETATM   26  O2  UNL     1       0.071  53.012 -18.599  1.00  0.00    -0.271 OA
BRANCH  26  27
HETATM   27  C13 UNL     1       0.362  53.643 -19.842  1.00  0.00     0.303 C 
BRANCH  27  28
HETATM   28  C14 UNL     1       0.405  52.598 -20.950  1.00  0.00     0.244 C 
HETATM   29  O3  UNL     1       1.363  52.470 -21.711  1.00  0.00    -0.271 OA
HETATM   30  N2  UNL     1      -0.749  51.847 -21.069  1.00  0.00    -0.346 N 
HETATM   31  H16 UNL     1      -1.589  52.266 -20.674  1.00  0.00     0.163 HD
BRANCH  30  32
HETATM   32  C15 UNL     1      -0.939  50.979 -22.227  1.00  0.00     0.180 C 
BRANCH  32  33
HETATM   33  C16 UNL     1      -1.550  51.879 -23.323  1.00  0.00     0.241 C 
HETATM   34  O4  UNL     1      -2.667  52.388 -23.216  1.00  0.00    -0.271 OA
HETATM   35  N3  UNL     1      -0.735  52.084 -24.414  1.00  0.00    -0.344 N 
HETATM   36  H18 UNL     1       0.249  51.847 -24.335  1.00  0.00     0.163 HD
BRANCH  35  37
HETATM   37  C17 UNL     1      -1.106  52.982 -25.513  1.00  0.00     0.186 C 
BRANCH  37  38
HETATM   38  C18 UNL     1       0.084  53.910 -25.754  1.00  0.00     0.163 C 
HETATM   39  O5  UNL     1       0.157  54.769 -26.622  1.00  0.00    -0.648 OA
BRANCH  38  40
HETATM   40  O6  UNL     1       1.106  53.716 -24.903  1.00  0.00    -0.775 OA
HETATM   41  H20 UNL     1       1.784  54.366 -25.177  1.00  0.00     0.167 HD
ENDBRANCH  38  40
ENDBRANCH  37  38
BRANCH  37  42
HETATM   42  C19 UNL     1      -1.518  52.185 -26.773  1.00  0.00     0.014 C 
HETATM   43  C20 UNL     1      -2.908  51.542 -26.629  1.00  0.00     0.012 C 
BRANCH  42  44
HETATM   44  C21 UNL     1      -0.511  51.096 -27.194  1.00  0.00     0.002 C 
HETATM   45  C22 UNL     1       0.650  50.928 -26.226  1.00  0.00     0.005 C 
ENDBRANCH  42  44
ENDBRANCH  37  42
ENDBRANCH  35  37
ENDBRANCH  32  33
BRANCH  32  46
HETATM   46  C23 UNL     1      -1.871  49.792 -21.906  1.00  0.00     0.009 C 
HETATM   47  C24 UNL     1      -2.361  49.098 -23.183  1.00  0.00     0.012 C 
HETATM   48  C25 UNL     1      -1.171  48.758 -21.012  1.00  0.00     0.012 C 
ENDBRANCH  32  46
ENDBRANCH  30  32
ENDBRANCH  27  28
ENDBRANCH  26  27
ENDBRANCH  13  26
TORSDOF 12
ENDMDL
MODEL 5
REMARK minimizedAffinity -7.40372229
REMARK CNNscore 0.263413072
REMARK CNNaffinity 6.09819841
REMARK  12 active torsions:
REMARK  status: ('A' for Active; 'I' for Inactive)
REMARK    1  A    between atoms: C3_3  and  O1_4 
REMARK    2  A    between atoms: N1_14  and  O2_16 
REMARK    3  A    between atoms: O2_16  and  C13_17 
REMARK    4  A    between atoms: C13_17  and  C14_18 
REMARK       I    between atoms: C14_18  and  N2_20 
REMARK    5  A    between atoms: N2_20  and  C15_21 
REMARK    6  A    between atoms: C15_21  and  C16_22 
REMARK    7  A    between atoms: C15_21  and  C23_33 
REMARK       I    between atoms: C16_22  and  N3_24 
REMARK    8  A    between atoms: N3_24  and  C17_25 
REMARK    9  A    between atoms: C17_25  and  C18_26 
REMARK   10  A    between atoms: C17_25  and  C19_29 
REMARK   11  A    between atoms: C18_26  and  O6_28 
REMARK   12  A    between atoms: C19_29  and  C21_31 
ROOT
HETATM    1  C1  UNL     1      17.437  68.145 -28.742  1.00  0.00     0.015 C 
HETATM    2  C2  UNL     1      17.770  67.819 -27.634  1.00  0.00    -0.078 C 
HETATM    3  C3  UNL     1      18.182  67.389 -26.291  1.00  0.00     0.128 C 
HETATM    4  C4  UNL     1      19.693  67.598 -26.037  1.00  0.00     0.052 C 
HETATM    5  C5  UNL     1      19.835  67.827 -24.513  1.00  0.00     0.010 C 
HETATM    6  C6  UNL     1      18.408  67.715 -23.964  1.00  0.00     0.002 C 
HETATM    7  C7  UNL     1      18.116  68.365 -22.594  1.00  0.00    -0.004 C 
HETATM    8  C8  UNL     1      18.722  67.446 -21.519  1.00  0.00     0.010 C 
HETATM    9  C9  UNL     1      18.397  67.891 -20.110  1.00  0.00     0.035 C 
HETATM   10  C10 UNL     1      16.909  67.934 -19.902  1.00  0.00    -0.069 C 
HETATM   11  C11 UNL     1      16.368  67.285 -18.856  1.00  0.00     0.030 C 
HETATM   12  C12 UNL     1      14.940  67.450 -18.489  1.00  0.00     0.032 C 
HETATM   13  N1  UNL     1      14.493  66.765 -17.470  1.00  0.00    -0.271 N 
ATOM     14  H1  UNL     1      15.049  66.096 -16.937  1.00  0.00     0.194 HD
HETATM   15  C26 UNL     1      14.121  68.456 -19.273  1.00  0.00     0.060 C 
HETATM   16  C27 UNL     1      14.598  68.486 -20.718  1.00  0.00     0.020 C 
HETATM   17  C28 UNL     1      16.116  68.793 -20.879  1.00  0.00    -0.016 C 
HETATM   18  C29 UNL     1      16.366  70.272 -20.483  1.00  0.00     0.020 C 
HETATM   19  C30 UNL     1      16.578  68.626 -22.392  1.00  0.00     0.002 C 
HETATM   20  C31 UNL     1      15.760  67.660 -23.283  1.00  0.00     0.007 C 
HETATM   21  C32 UNL     1      16.041  67.860 -24.793  1.00  0.00     0.014 C 
HETATM   22  C33 UNL     1      17.516  68.192 -25.123  1.00  0.00     0.003 C 
HETATM   23  C34 UNL     1      17.641  69.725 -25.371  1.00  0.00     0.020 C 
ENDROOT
BRANCH   3  24
HETATM   24  O1  UNL     1      17.976  65.973 -26.211  1.00  0.00    -0.377 OA
HETATM   25  H2  UNL     1      17.172  65.790 -25.704  1.00  0.00     0.211 HD
ENDBRANCH   3  24
BRANCH  13  26
HETATM   26  O2  UNL     1      13.151  67.069 -17.203  1.00  0.00    -0.271 OA
BRANCH  26  27
HETATM   27  C13 UNL     1      12.321  66.095 -17.828  1.00  0.00     0.303 C 
BRANCH  27  28
HETATM   28  C14 UNL     1      11.790  65.125 -16.781  1.00  0.00     0.244 C 
HETATM   29  O3  UNL     1      11.087  64.156 -17.063  1.00  0.00    -0.271 OA
HETATM   30  N2  UNL     1      12.111  65.461 -15.479  1.00  0.00    -0.346 N 
HETATM   31  H16 UNL     1      12.349  66.439 -15.323  1.00  0.00     0.163 HD
BRANCH  30  32
HETATM   32  C15 UNL     1      11.476  64.761 -14.367  1.00  0.00     0.180 C 
BRANCH  32  33
HETATM   33  C16 UNL     1      10.063  65.372 -14.247  1.00  0.00     0.241 C 
HETATM   34  O4  UNL     1       9.874  66.582 -14.119  1.00  0.00    -0.271 OA
HETATM   35  N3  UNL     1       9.038  64.457 -14.319  1.00  0.00    -0.344 N 
HETATM   36  H18 UNL     1       9.243  63.524 -14.666  1.00  0.00     0.163 HD
BRANCH  35  37
HETATM   37  C17 UNL     1       7.626  64.857 -14.315  1.00  0.00     0.186 C 
BRANCH  37  38
HETATM   38  C18 UNL     1       7.180  64.943 -15.774  1.00  0.00     0.163 C 
HETATM   39  O5  UNL     1       7.526  64.188 -16.673  1.00  0.00    -0.648 OA
BRANCH  38  40
HETATM   40  O6  UNL     1       6.333  65.955 -16.025  1.00  0.00    -0.775 OA
HETATM   41  H20 UNL     1       6.142  65.887 -16.982  1.00  0.00     0.167 HD
ENDBRANCH  38  40
ENDBRANCH  37  38
BRANCH  37  42
HETATM   42  C19 UNL     1       6.769  63.880 -13.477  1.00  0.00     0.014 C 
HETATM   43  C20 UNL     1       5.905  62.959 -14.356  1.00  0.00     0.012 C 
BRANCH  42  44
HETATM   44  C21 UNL     1       5.860  64.564 -12.436  1.00  0.00     0.002 C 
HETATM   45  C22 UNL     1       5.807  66.078 -12.568  1.00  0.00     0.005 C 
ENDBRANCH  42  44
ENDBRANCH  37  42
ENDBRANCH  35  37
ENDBRANCH  32  33
BRANCH  32  46
HETATM   46  C23 UNL     1      12.266  64.938 -13.053  1.00  0.00     0.009 C 
HETATM   47  C24 UNL     1      12.587  63.588 -12.401  1.00  0.00     0.012 C 
HETATM   48  C25 UNL     1      13.576  65.704 -13.288  1.00  0.00     0.012 C 
ENDBRANCH  32  46
ENDBRANCH  30  32
ENDBRANCH  27  28
ENDBRANCH  26  27
ENDBRANCH  13  26
TORSDOF 12
ENDMDL
MODEL 6
REMARK minimizedAffinity -9.54215431
REMARK CNNscore 0.19995679
REMARK CNNaffinity 6.48435163
REMARK  12 active torsions:
REMARK  status: ('A' for Active; 'I' for Inactive)
REMARK    1  A    between atoms: C3_3  and  O1_4 
REMARK    2  A    between atoms: N1_14  and  O2_16 
REMARK    3  A    between atoms: O2_16  and  C13_17 
REMARK    4  A    between atoms: C13_17  and  C14_18 
REMARK       I    between atoms: C14_18  and  N2_20 
REMARK    5  A    between atoms: N2_20  and  C15_21 
REMARK    6  A    between atoms: C15_21  and  C16_22 
REMARK    7  A    between atoms: C15_21  and  C23_33 
REMARK       I    between atoms: C16_22  and  N3_24 
REMARK    8  A    between atoms: N3_24  and  C17_25 
REMARK    9  A    between atoms: C17_25  and  C18_26 
REMARK   10  A    between atoms: C17_25  and  C19_29 
REMARK   11  A    between atoms: C18_26  and  O6_28 
REMARK   12  A    between atoms: C19_29  and  C21_31 
ROOT
HETATM    1  C1  UNL     1       1.374  52.226 -28.172  1.00  0.00     0.015 C 
HETATM    2  C2  UNL     1       0.469  52.408 -27.403  1.00  0.00    -0.078 C 
HETATM    3  C3  UNL     1      -0.634  52.664 -26.467  1.00  0.00     0.128 C 
HETATM    4  C4  UNL     1      -2.013  52.694 -27.167  1.00  0.00     0.052 C 
HETATM    5  C5  UNL     1      -3.035  52.232 -26.101  1.00  0.00     0.010 C 
HETATM    6  C6  UNL     1      -2.202  51.982 -24.838  1.00  0.00     0.002 C 
HETATM    7  C7  UNL     1      -2.802  51.058 -23.756  1.00  0.00    -0.004 C 
HETATM    8  C8  UNL     1      -3.882  51.870 -23.018  1.00  0.00     0.010 C 
HETATM    9  C9  UNL     1      -4.468  51.133 -21.834  1.00  0.00     0.035 C 
HETATM   10  C10 UNL     1      -3.392  50.782 -20.846  1.00  0.00    -0.069 C 
HETATM   11  C11 UNL     1      -3.541  51.127 -19.555  1.00  0.00     0.030 C 
HETATM   12  C12 UNL     1      -2.612  50.642 -18.505  1.00  0.00     0.032 C 
HETATM   13  N1  UNL     1      -2.819  51.042 -17.279  1.00  0.00    -0.271 N 
ATOM     14  H1  UNL     1      -3.550  51.698 -17.004  1.00  0.00     0.194 HD
HETATM   15  C26 UNL     1      -1.536  49.656 -18.915  1.00  0.00     0.060 C 
HETATM   16  C27 UNL     1      -1.072  49.967 -20.331  1.00  0.00     0.020 C 
HETATM   17  C28 UNL     1      -2.216  49.977 -21.387  1.00  0.00    -0.016 C 
HETATM   18  C29 UNL     1      -2.719  48.523 -21.584  1.00  0.00     0.020 C 
HETATM   19  C30 UNL     1      -1.691  50.489 -22.799  1.00  0.00     0.002 C 
HETATM   20  C31 UNL     1      -0.462  51.430 -22.801  1.00  0.00     0.007 C 
HETATM   21  C32 UNL     1       0.190  51.553 -24.201  1.00  0.00     0.014 C 
HETATM   22  C33 UNL     1      -0.822  51.560 -25.372  1.00  0.00     0.003 C 
HETATM   23  C34 UNL     1      -0.847  50.143 -26.020  1.00  0.00     0.020 C 
ENDROOT
BRANCH   3  24
HETATM   24  O1  UNL     1      -0.450  53.981 -25.935  1.00  0.00    -0.377 OA
HETATM   25  H2  UNL     1      -0.091  53.922 -25.038  1.00  0.00     0.211 HD
ENDBRANCH   3  24
BRANCH  13  26
HETATM   26  O2  UNL     1      -1.907  50.456 -16.391  1.00  0.00    -0.271 OA
BRANCH  26  27
HETATM   27  C13 UNL     1      -2.604  50.031 -15.224  1.00  0.00     0.303 C 
BRANCH  27  28
HETATM   28  C14 UNL     1      -3.023  51.247 -14.406  1.00  0.00     0.244 C 
HETATM   29  O3  UNL     1      -3.737  52.140 -14.857  1.00  0.00    -0.271 OA
HETATM   30  N2  UNL     1      -2.481  51.292 -13.136  1.00  0.00    -0.346 N 
HETATM   31  H16 UNL     1      -1.636  50.741 -12.998  1.00  0.00     0.163 HD
BRANCH  30  32
HETATM   32  C15 UNL     1      -2.603  52.505 -12.332  1.00  0.00     0.180 C 
BRANCH  32  33
HETATM   33  C16 UNL     1      -1.426  52.460 -11.334  1.00  0.00     0.241 C 
HETATM   34  O4  UNL     1      -1.324  51.587 -10.470  1.00  0.00    -0.271 OA
HETATM   35  N3  UNL     1      -0.494  53.458 -11.504  1.00  0.00    -0.344 N 
HETATM   36  H18 UNL     1      -0.504  53.988 -12.371  1.00  0.00     0.163 HD
BRANCH  35  37
HETATM   37  C17 UNL     1       0.738  53.526 -10.710  1.00  0.00     0.186 C 
BRANCH  37  38
HETATM   38  C18 UNL     1       1.801  52.728 -11.463  1.00  0.00     0.163 C 
HETATM   39  O5  UNL     1       2.667  52.031 -10.954  1.00  0.00    -0.648 OA
BRANCH  38  40
HETATM   40  O6  UNL     1       1.721  52.842 -12.800  1.00  0.00    -0.775 OA
HETATM   41  H20 UNL     1       2.454  52.291 -13.141  1.00  0.00     0.167 HD
ENDBRANCH  38  40
ENDBRANCH  37  38
BRANCH  37  42
HETATM   42  C19 UNL     1       1.154  54.992 -10.447  1.00  0.00     0.014 C 
HETATM   43  C20 UNL     1       2.672  55.202 -10.585  1.00  0.00     0.012 C 
BRANCH  42  44
HETATM   44  C21 UNL     1       0.702  55.546  -9.081  1.00  0.00     0.002 C 
HETATM   45  C22 UNL     1      -0.454  54.777  -8.460  1.00  0.00     0.005 C 
ENDBRANCH  42  44
ENDBRANCH  37  42
ENDBRANCH  35  37
ENDBRANCH  32  33
BRANCH  32  46
HETATM   46  C23 UNL     1      -3.955  52.566 -11.589  1.00  0.00     0.009 C 
HETATM   47  C24 UNL     1      -4.287  51.232 -10.912  1.00  0.00     0.012 C 
HETATM   48  C25 UNL     1      -3.960  53.679 -10.532  1.00  0.00     0.012 C 
ENDBRANCH  32  46
ENDBRANCH  30  32
ENDBRANCH  27  28
ENDBRANCH  26  27
ENDBRANCH  13  26
TORSDOF 12
ENDMDL
MODEL 7
REMARK minimizedAffinity -7.7229476
REMARK CNNscore 0.185502663
REMARK CNNaffinity 6.32876539
REMARK  12 active torsions:
REMARK  status: ('A' for Active; 'I' for Inactive)
REMARK    1  A    between atoms: C3_3  and  O1_4 
REMARK    2  A    between atoms: N1_14  and  O2_16 
REMARK    3  A    between atoms: O2_16  and  C13_17 
REMARK    4  A    between atoms: C13_17  and  C14_18 
REMARK       I    between atoms: C14_18  and  N2_20 
REMARK    5  A    between atoms: N2_20  and  C15_21 
REMARK    6  A    between atoms: C15_21  and  C16_22 
REMARK    7  A    between atoms: C15_21  and  C23_33 
REMARK       I    between atoms: C16_22  and  N3_24 
REMARK    8  A    between atoms: N3_24  and  C17_25 
REMARK    9  A    between atoms: C17_25  and  C18_26 
REMARK   10  A    between atoms: C17_25  and  C19_29 
REMARK   11  A    between atoms: C18_26  and  O6_28 
REMARK   12  A    between atoms: C19_29  and  C21_31 
ROOT
HETATM    1  C1  UNL     1      -1.220  54.453 -28.146  1.00  0.00     0.015 C 
HETATM    2  C2  UNL     1      -1.415  53.366 -27.672  1.00  0.00    -0.078 C 
HETATM    3  C3  UNL     1      -1.667  52.027 -27.122  1.00  0.00     0.128 C 
HETATM    4  C4  UNL     1      -0.440  51.093 -27.244  1.00  0.00     0.052 C 
HETATM    5  C5  UNL     1      -0.548  50.100 -26.062  1.00  0.00     0.010 C 
HETATM    6  C6  UNL     1      -1.839  50.494 -25.335  1.00  0.00     0.002 C 
HETATM    7  C7  UNL     1      -1.994  50.052 -23.863  1.00  0.00    -0.004 C 
HETATM    8  C8  UNL     1      -2.325  48.549 -23.874  1.00  0.00     0.010 C 
HETATM    9  C9  UNL     1      -2.637  48.003 -22.499  1.00  0.00     0.035 C 
HETATM   10  C10 UNL     1      -3.803  48.733 -21.894  1.00  0.00    -0.069 C 
HETATM   11  C11 UNL     1      -4.848  48.033 -21.420  1.00  0.00     0.030 C 
HETATM   12  C12 UNL     1      -5.933  48.681 -20.642  1.00  0.00     0.032 C 
HETATM   13  N1  UNL     1      -6.921  47.928 -20.236  1.00  0.00    -0.271 N 
ATOM     14  H1  UNL     1      -7.016  46.936 -20.454  1.00  0.00     0.194 HD
HETATM   15  C26 UNL     1      -5.781  50.150 -20.307  1.00  0.00     0.060 C 
HETATM   16  C27 UNL     1      -5.061  50.860 -21.444  1.00  0.00     0.020 C 
HETATM   17  C28 UNL     1      -3.674  50.248 -21.798  1.00  0.00    -0.016 C 
HETATM   18  C29 UNL     1      -2.691  50.543 -20.634  1.00  0.00     0.020 C 
HETATM   19  C30 UNL     1      -3.067  50.918 -23.107  1.00  0.00     0.002 C 
HETATM   20  C31 UNL     1      -4.065  51.523 -24.124  1.00  0.00     0.007 C 
HETATM   21  C32 UNL     1      -3.380  52.469 -25.141  1.00  0.00     0.014 C 
HETATM   22  C33 UNL     1      -1.971  52.006 -25.586  1.00  0.00     0.003 C 
HETATM   23  C34 UNL     1      -0.903  52.829 -24.804  1.00  0.00     0.020 C 
ENDROOT
BRANCH   3  24
HETATM   24  O1  UNL     1      -2.688  51.418 -27.922  1.00  0.00    -0.377 OA
HETATM   25  H2  UNL     1      -3.533  51.451 -27.450  1.00  0.00     0.211 HD
ENDBRANCH   3  24
BRANCH  13  26
HETATM   26  O2  UNL     1      -7.833  48.659 -19.463  1.00  0.00    -0.271 OA
BRANCH  26  27
HETATM   27  C13 UNL     1      -9.054  48.789 -20.186  1.00  0.00     0.303 C 
BRANCH  27  28
HETATM   28  C14 UNL     1     -10.005  47.666 -19.791  1.00  0.00     0.244 C 
HETATM   29  O3  UNL     1      -9.647  46.496 -19.681  1.00  0.00    -0.271 OA
HETATM   30  N2  UNL     1     -11.319  48.064 -19.631  1.00  0.00    -0.346 N 
HETATM   31  H16 UNL     1     -11.578  48.929 -20.101  1.00  0.00     0.163 HD
BRANCH  30  32
HETATM   32  C15 UNL     1     -12.372  47.063 -19.487  1.00  0.00     0.180 C 
BRANCH  32  33
HETATM   33  C16 UNL     1     -13.588  47.630 -20.252  1.00  0.00     0.241 C 
HETATM   34  O4  UNL     1     -13.725  48.833 -20.480  1.00  0.00    -0.271 OA
HETATM   35  N3  UNL     1     -14.488  46.680 -20.677  1.00  0.00    -0.344 N 
HETATM   36  H18 UNL     1     -14.202  45.705 -20.676  1.00  0.00     0.163 HD
BRANCH  35  37
HETATM   37  C17 UNL     1     -15.658  47.017 -21.497  1.00  0.00     0.186 C 
BRANCH  37  38
HETATM   38  C18 UNL     1     -15.296  46.696 -22.946  1.00  0.00     0.163 C 
HETATM   39  O5  UNL     1     -15.121  45.577 -23.409  1.00  0.00    -0.648 OA
BRANCH  38  40
HETATM   40  O6  UNL     1     -15.180  47.780 -23.731  1.00  0.00    -0.775 OA
HETATM   41  H20 UNL     1     -14.946  47.425 -24.612  1.00  0.00     0.167 HD
ENDBRANCH  38  40
ENDBRANCH  37  38
BRANCH  37  42
HETATM   42  C19 UNL     1     -16.920  46.269 -21.008  1.00  0.00     0.014 C 
HETATM   43  C20 UNL     1     -18.115  46.457 -21.958  1.00  0.00     0.012 C 
BRANCH  42  44
HETATM   44  C21 UNL     1     -17.363  46.639 -19.578  1.00  0.00     0.002 C 
HETATM   45  C22 UNL     1     -18.844  46.408 -19.317  1.00  0.00     0.005 C 
ENDBRANCH  42  44
ENDBRANCH  37  42
ENDBRANCH  35  37
ENDBRANCH  32  33
BRANCH  32  46
HETATM   46  C23 UNL     1     -12.723  46.810 -18.005  1.00  0.00     0.009 C 
HETATM   47  C24 UNL     1     -13.912  47.665 -17.553  1.00  0.00     0.012 C 
HETATM   48  C25 UNL     1     -13.046  45.330 -17.754  1.00  0.00     0.012 C 
ENDBRANCH  32  46
ENDBRANCH  30  32
ENDBRANCH  27  28
ENDBRANCH  26  27
ENDBRANCH  13  26
TORSDOF 12
ENDMDL
MODEL 8
REMARK minimizedAffinity -7.79145908
REMARK CNNscore 0.175452963
REMARK CNNaffinity 6.5384202
REMARK  12 active torsions:
REMARK  status: ('A' for Active; 'I' for Inactive)
REMARK    1  A    between atoms: C3_3  and  O1_4 
REMARK    2  A    between atoms: N1_14  and  O2_16 
REMARK    3  A    between atoms: O2_16  and  C13_17 
REMARK    4  A    between atoms: C13_17  and  C14_18 
REMARK       I    between atoms: C14_18  and  N2_20 
REMARK    5  A    between atoms: N2_20  and  C15_21 
REMARK    6  A    between atoms: C15_21  and  C16_22 
REMARK    7  A    between atoms: C15_21  and  C23_33 
REMARK       I    between atoms: C16_22  and  N3_24 
REMARK    8  A    between atoms: N3_24  and  C17_25 
REMARK    9  A    between atoms: C17_25  and  C18_26 
REMARK   10  A    between atoms: C17_25  and  C19_29 
REMARK   11  A    between atoms: C18_26  and  O6_28 
REMARK   12  A    between atoms: C19_29  and  C21_31 
ROOT
HETATM    1  C1  UNL     1      -0.092  53.479 -28.174  1.00  0.00     0.015 C 
HETATM    2  C2  UNL     1      -0.832  52.835 -27.481  1.00  0.00    -0.078 C 
HETATM    3  C3  UNL     1      -1.765  52.065 -26.646  1.00  0.00     0.128 C 
HETATM    4  C4  UNL     1      -2.220  50.749 -27.321  1.00  0.00     0.052 C 
HETATM    5  C5  UNL     1      -2.526  49.768 -26.164  1.00  0.00     0.010 C 
HETATM    6  C6  UNL     1      -2.256  50.571 -24.885  1.00  0.00     0.002 C 
HETATM    7  C7  UNL     1      -1.984  49.779 -23.588  1.00  0.00    -0.004 C 
HETATM    8  C8  UNL     1      -3.338  49.237 -23.097  1.00  0.00     0.010 C 
HETATM    9  C9  UNL     1      -3.246  48.547 -21.753  1.00  0.00     0.035 C 
HETATM   10  C10 UNL     1      -2.716  49.492 -20.712  1.00  0.00    -0.069 C 
HETATM   11  C11 UNL     1      -3.396  49.661 -19.564  1.00  0.00     0.030 C 
HETATM   12  C12 UNL     1      -2.829  50.426 -18.426  1.00  0.00     0.032 C 
HETATM   13  N1  UNL     1      -3.567  50.558 -17.357  1.00  0.00    -0.271 N 
ATOM     14  H1  UNL     1      -4.521  50.208 -17.268  1.00  0.00     0.194 HD
HETATM   15  C26 UNL     1      -1.406  50.931 -18.554  1.00  0.00     0.060 C 
HETATM   16  C27 UNL     1      -1.126  51.304 -20.003  1.00  0.00     0.020 C 
HETATM   17  C28 UNL     1      -1.374  50.147 -21.016  1.00  0.00    -0.016 C 
HETATM   18  C29 UNL     1      -0.285  49.062 -20.803  1.00  0.00     0.020 C 
HETATM   19  C30 UNL     1      -1.242  50.659 -22.516  1.00  0.00     0.002 C 
HETATM   20  C31 UNL     1      -1.521  52.158 -22.783  1.00  0.00     0.007 C 
HETATM   21  C32 UNL     1      -1.000  52.623 -24.165  1.00  0.00     0.014 C 
HETATM   22  C33 UNL     1      -1.159  51.571 -25.289  1.00  0.00     0.003 C 
HETATM   23  C34 UNL     1       0.216  50.875 -25.523  1.00  0.00     0.020 C 
ENDROOT
BRANCH   3  24
HETATM   24  O1  UNL     1      -2.955  52.847 -26.497  1.00  0.00    -0.377 OA
HETATM   25  H2  UNL     1      -2.968  53.257 -25.620  1.00  0.00     0.211 HD
ENDBRANCH   3  24
BRANCH  13  26
HETATM   26  O2  UNL     1      -2.880  51.244 -16.346  1.00  0.00    -0.271 OA
BRANCH  26  27
HETATM   27  C13 UNL     1      -2.703  50.373 -15.232  1.00  0.00     0.303 C 
BRANCH  27  28
HETATM   28  C14 UNL     1      -1.712  50.989 -14.252  1.00  0.00     0.244 C 
HETATM   29  O3  UNL     1      -0.608  51.408 -14.595  1.00  0.00    -0.271 OA
HETATM   30  N2  UNL     1      -2.132  50.979 -12.936  1.00  0.00    -0.346 N 
HETATM   31  H16 UNL     1      -2.851  50.294 -12.709  1.00  0.00     0.163 HD
BRANCH  30  32
HETATM   32  C15 UNL     1      -1.196  51.317 -11.868  1.00  0.00     0.180 C 
BRANCH  32  33
HETATM   33  C16 UNL     1      -0.456  50.002 -11.536  1.00  0.00     0.241 C 
HETATM   34  O4  UNL     1      -0.817  49.250 -10.630  1.00  0.00    -0.271 OA
HETATM   35  N3  UNL     1       0.621  49.733 -12.349  1.00  0.00    -0.344 N 
HETATM   36  H18 UNL     1       0.716  50.253 -13.216  1.00  0.00     0.163 HD
BRANCH  35  37
HETATM   37  C17 UNL     1       1.391  48.488 -12.246  1.00  0.00     0.186 C 
BRANCH  37  38
HETATM   38  C18 UNL     1       1.038  47.639 -13.466  1.00  0.00     0.163 C 
HETATM   39  O5  UNL     1       0.748  46.451 -13.451  1.00  0.00    -0.648 OA
BRANCH  38  40
HETATM   40  O6  UNL     1       1.062  48.318 -14.625  1.00  0.00    -0.775 OA
HETATM   41  H20 UNL     1       0.823  47.655 -15.305  1.00  0.00     0.167 HD
ENDBRANCH  38  40
ENDBRANCH  37  38
BRANCH  37  42
HETATM   42  C19 UNL     1       2.906  48.775 -12.126  1.00  0.00     0.014 C 
HETATM   43  C20 UNL     1       3.420  48.611 -10.685  1.00  0.00     0.012 C 
BRANCH  42  44
HETATM   44  C21 UNL     1       3.334  50.162 -12.648  1.00  0.00     0.002 C 
HETATM   45  C22 UNL     1       4.193  50.106 -13.901  1.00  0.00     0.005 C 
ENDBRANCH  42  44
ENDBRANCH  37  42
ENDBRANCH  35  37
ENDBRANCH  32  33
BRANCH  32  46
HETATM   46  C23 UNL     1      -1.922  51.870 -10.623  1.00  0.00     0.009 C 
HETATM   47  C24 UNL     1      -1.630  53.360 -10.416  1.00  0.00     0.012 C 
HETATM   48  C25 UNL     1      -3.440  51.667 -10.727  1.00  0.00     0.012 C 
ENDBRANCH  32  46
ENDBRANCH  30  32
ENDBRANCH  27  28
ENDBRANCH  26  27
ENDBRANCH  13  26
TORSDOF 12
ENDMDL
MODEL 9
REMARK minimizedAffinity -7.36609411
REMARK CNNscore 0.172236577
REMARK CNNaffinity 6.31550074
REMARK  12 active torsions:
REMARK  status: ('A' for Active; 'I' for Inactive)
REMARK    1  A    between atoms: C3_3  and  O1_4 
REMARK    2  A    between atoms: N1_14  and  O2_16 
REMARK    3  A    between atoms: O2_16  and  C13_17 
REMARK    4  A    between atoms: C13_17  and  C14_18 
REMARK       I    between atoms: C14_18  and  N2_20 
REMARK    5  A    between atoms: N2_20  and  C15_21 
REMARK    6  A    between atoms: C15_21  and  C16_22 
REMARK    7  A    between atoms: C15_21  and  C23_33 
REMARK       I    between atoms: C16_22  and  N3_24 
REMARK    8  A    between atoms: N3_24  and  C17_25 
REMARK    9  A    between atoms: C17_25  and  C18_26 
REMARK   10  A    between atoms: C17_25  and  C19_29 
REMARK   11  A    between atoms: C18_26  and  O6_28 
REMARK   12  A    between atoms: C19_29  and  C21_31 
ROOT
HETATM    1  C1  UNL     1      -0.825  53.008 -27.822  1.00  0.00     0.015 C 
HETATM    2  C2  UNL     1      -0.450  52.655 -26.736  1.00  0.00    -0.078 C 
HETATM    3  C3  UNL     1       0.037  52.211 -25.423  1.00  0.00     0.128 C 
HETATM    4  C4  UNL     1       0.861  53.298 -24.695  1.00  0.00     0.052 C 
HETATM    5  C5  UNL     1       0.663  53.033 -23.183  1.00  0.00     0.010 C 
HETATM    6  C6  UNL     1      -0.241  51.797 -23.115  1.00  0.00     0.002 C 
HETATM    7  C7  UNL     1      -1.029  51.556 -21.809  1.00  0.00    -0.004 C 
HETATM    8  C8  UNL     1      -0.027  51.020 -20.770  1.00  0.00     0.010 C 
HETATM    9  C9  UNL     1      -0.686  50.612 -19.471  1.00  0.00     0.035 C 
HETATM   10  C10 UNL     1      -1.719  49.548 -19.716  1.00  0.00    -0.069 C 
HETATM   11  C11 UNL     1      -1.676  48.407 -19.005  1.00  0.00     0.030 C 
HETATM   12  C12 UNL     1      -2.773  47.410 -19.064  1.00  0.00     0.032 C 
HETATM   13  N1  UNL     1      -2.639  46.320 -18.355  1.00  0.00    -0.271 N 
ATOM     14  H1  UNL     1      -1.815  46.091 -17.800  1.00  0.00     0.194 HD
HETATM   15  C26 UNL     1      -4.002  47.759 -19.877  1.00  0.00     0.060 C 
HETATM   16  C27 UNL     1      -3.595  48.590 -21.085  1.00  0.00     0.020 C 
HETATM   17  C28 UNL     1      -2.807  49.884 -20.729  1.00  0.00    -0.016 C 
HETATM   18  C29 UNL     1      -3.776  50.878 -20.035  1.00  0.00     0.020 C 
HETATM   19  C30 UNL     1      -2.256  50.601 -22.038  1.00  0.00     0.002 C 
HETATM   20  C31 UNL     1      -2.006  49.714 -23.282  1.00  0.00     0.007 C 
HETATM   21  C32 UNL     1      -1.849  50.542 -24.582  1.00  0.00     0.014 C 
HETATM   22  C33 UNL     1      -1.095  51.880 -24.392  1.00  0.00     0.003 C 
HETATM   23  C34 UNL     1      -2.136  53.038 -24.331  1.00  0.00     0.020 C 
ENDROOT
BRANCH   3  24
HETATM   24  O1  UNL     1       0.950  51.129 -25.646  1.00  0.00    -0.377 OA
HETATM   25  H2  UNL     1       0.514  50.289 -25.443  1.00  0.00     0.211 HD
ENDBRANCH   3  24
BRANCH  13  26
HETATM   26  O2  UNL     1      -3.775  45.505 -18.458  1.00  0.00    -0.271 OA
BRANCH  26  27
HETATM   27  C13 UNL     1      -4.378  45.386 -17.173  1.00  0.00     0.303 C 
BRANCH  27  28
HETATM   28  C14 UNL     1      -3.499  44.529 -16.270  1.00  0.00     0.244 C 
HETATM   29  O3  UNL     1      -3.819  43.401 -15.904  1.00  0.00    -0.271 OA
HETATM   30  N2  UNL     1      -2.341  45.153 -15.846  1.00  0.00    -0.346 N 
HETATM   31  H16 UNL     1      -2.352  46.171 -15.879  1.00  0.00     0.163 HD
BRANCH  30  32
HETATM   32  C15 UNL     1      -1.527  44.546 -14.797  1.00  0.00     0.180 C 
BRANCH  32  33
HETATM   33  C16 UNL     1      -1.323  43.078 -15.229  1.00  0.00     0.241 C 
HETATM   34  O4  UNL     1      -1.465  42.133 -14.452  1.00  0.00    -0.271 OA
HETATM   35  N3  UNL     1      -0.994  42.914 -16.556  1.00  0.00    -0.344 N 
HETATM   36  H18 UNL     1      -1.133  43.696 -17.190  1.00  0.00     0.163 HD
BRANCH  35  37
HETATM   37  C17 UNL     1      -0.850  41.590 -17.171  1.00  0.00     0.186 C 
BRANCH  37  38
HETATM   38  C18 UNL     1      -2.027  41.409 -18.128  1.00  0.00     0.163 C 
HETATM   39  O5  UNL     1      -2.638  42.309 -18.688  1.00  0.00    -0.648 OA
BRANCH  38  40
HETATM   40  O6  UNL     1      -2.370  40.126 -18.331  1.00  0.00    -0.775 OA
HETATM   41  H20 UNL     1      -3.127  40.167 -18.950  1.00  0.00     0.167 HD
ENDBRANCH  38  40
ENDBRANCH  37  38
BRANCH  37  42
HETATM   42  C19 UNL     1       0.523  41.443 -17.867  1.00  0.00     0.014 C 
HETATM   43  C20 UNL     1       1.007  39.982 -17.903  1.00  0.00     0.012 C 
BRANCH  42  44
HETATM   44  C21 UNL     1       1.640  42.317 -17.262  1.00  0.00     0.002 C 
HETATM   45  C22 UNL     1       2.352  41.672 -16.083  1.00  0.00     0.005 C 
ENDBRANCH  42  44
ENDBRANCH  37  42
ENDBRANCH  35  37
ENDBRANCH  32  33
BRANCH  32  46
HETATM   46  C23 UNL     1      -2.218  44.624 -13.419  1.00  0.00     0.009 C 
HETATM   47  C24 UNL     1      -2.646  46.057 -13.082  1.00  0.00     0.012 C 
HETATM   48  C25 UNL     1      -3.448  43.707 -13.359  1.00  0.00     0.012 C 
ENDBRANCH  32  46
ENDBRANCH  30  32
ENDBRANCH  27  28
ENDBRANCH  26  27
ENDBRANCH  13  26
TORSDOF 12
ENDMDL
