MODEL 1
REMARK minimizedAffinity -8.29408836
REMARK CNNscore 0.599638879
REMARK CNNaffinity 6.66900206
REMARK  10 active torsions:
REMARK  status: ('A' for Active; 'I' for Inactive)
REMARK    1  A    between atoms: C3_3  and  O1_4 
REMARK    2  A    between atoms: N1_14  and  O2_16 
REMARK    3  A    between atoms: O2_16  and  C13_17 
REMARK    4  A    between atoms: C13_17  and  C14_18 
REMARK       I    between atoms: C14_18  and  N2_20 
REMARK    5  A    between atoms: N2_20  and  C15_21 
REMARK    6  A    between atoms: C15_21  and  C16_22 
REMARK       I    between atoms: C16_22  and  N3_24 
REMARK    7  A    between atoms: N3_24  and  C17_25 
REMARK    8  A    between atoms: C17_25  and  C18_26 
REMARK    9  A    between atoms: C17_25  and  C19_29 
REMARK   10  A    between atoms: C18_26  and  O6_28 
ROOT
HETATM    1  C1  UNL     1       5.318   5.620  10.329  1.00  0.00     0.015 C 
HETATM    2  C2  UNL     1       4.250   6.168  10.302  1.00  0.00    -0.078 C 
HETATM    3  C3  UNL     1       2.962   6.880  10.290  1.00  0.00     0.128 C 
HETATM    4  C4  UNL     1       2.340   6.933   8.891  1.00  0.00     0.052 C 
HETATM    5  C5  UNL     1       0.920   7.409   9.182  1.00  0.00     0.010 C 
HETATM    6  C6  UNL     1       0.508   6.590  10.411  1.00  0.00     0.002 C 
HETATM    7  C7  UNL     1      -0.656   7.155  11.260  1.00  0.00    -0.004 C 
HETATM    8  C8  UNL     1      -0.656   8.672  11.519  1.00  0.00     0.010 C 
HETATM    9  C9  UNL     1      -1.875   9.112  12.332  1.00  0.00     0.035 C 
HETATM   10  C10 UNL     1      -2.107   8.294  13.584  1.00  0.00    -0.069 C 
HETATM   11  C11 UNL     1      -2.382   8.914  14.748  1.00  0.00     0.030 C 
HETATM   12  C12 UNL     1      -2.737   8.149  15.978  1.00  0.00     0.032 C 
HETATM   13  N1  UNL     1      -2.878   8.641  17.171  1.00  0.00    -0.271 N 
ATOM     14  H1  UNL     1      -3.129   8.088  17.991  1.00  0.00     0.194 HD
HETATM   15  C22 UNL     1      -3.014   6.669  15.807  1.00  0.00     0.060 C 
HETATM   16  C23 UNL     1      -2.033   6.062  14.816  1.00  0.00     0.020 C 
HETATM   17  C24 UNL     1      -2.044   6.774  13.429  1.00  0.00    -0.016 C 
HETATM   18  C25 UNL     1      -3.320   6.306  12.679  1.00  0.00     0.020 C 
HETATM   19  C26 UNL     1      -0.765   6.373  12.596  1.00  0.00     0.002 C 
HETATM   20  C27 UNL     1       0.557   6.464  13.409  1.00  0.00     0.007 C 
HETATM   21  C28 UNL     1       1.823   6.784  12.611  1.00  0.00     0.014 C 
HETATM   22  C29 UNL     1       1.831   6.239  11.174  1.00  0.00     0.003 C 
HETATM   23  C30 UNL     1       1.957   4.692  11.233  1.00  0.00     0.020 C 
ENDROOT
BRANCH   3  24
HETATM   24  O1  UNL     1       3.206   8.235  10.682  1.00  0.00    -0.377 OA
HETATM   25  H2  UNL     1       3.992   8.532  10.191  1.00  0.00     0.211 HD
ENDBRANCH   3  24
BRANCH  13  26
HETATM   26  O2  UNL     1      -2.643  10.026  17.197  1.00  0.00    -0.271 OA
BRANCH  26  27
HETATM   27  C13 UNL     1      -1.241  10.248  17.227  1.00  0.00     0.303 C 
BRANCH  27  28
HETATM   28  C14 UNL     1      -0.833  10.998  18.491  1.00  0.00     0.244 C 
HETATM   29  O3  UNL     1      -1.551  11.798  19.085  1.00  0.00    -0.271 OA
HETATM   30  N2  UNL     1       0.433  10.680  18.941  1.00  0.00    -0.350 N 
HETATM   31  H16 UNL     1       1.086  10.184  18.340  1.00  0.00     0.163 HD
BRANCH  30  32
HETATM   32  C15 UNL     1       0.985  11.330  20.112  1.00  0.00     0.225 C 
BRANCH  32  33
HETATM   33  C16 UNL     1       2.350  10.741  20.461  1.00  0.00     0.236 C 
HETATM   34  O4  UNL     1       2.689   9.610  20.116  1.00  0.00    -0.272 OA
HETATM   35  N3  UNL     1       3.162  11.593  21.170  1.00  0.00    -0.345 N 
HETATM   36  H19 UNL     1       2.883  12.565  21.287  1.00  0.00     0.163 HD
BRANCH  35  37
HETATM   37  C17 UNL     1       4.555  11.285  21.502  1.00  0.00     0.185 C 
BRANCH  37  38
HETATM   38  C18 UNL     1       5.479  11.736  20.359  1.00  0.00     0.163 C 
HETATM   39  O5  UNL     1       6.069  11.013  19.572  1.00  0.00    -0.648 OA
BRANCH  38  40
HETATM   40  O6  UNL     1       5.645  13.079  20.296  1.00  0.00    -0.775 OA
HETATM   41  H21 UNL     1       6.250  13.197  19.532  1.00  0.00     0.167 HD
ENDBRANCH  38  40
ENDBRANCH  37  38
BRANCH  37  42
HETATM   42  C19 UNL     1       5.008  11.925  22.833  1.00  0.00     0.010 C 
HETATM   43  C20 UNL     1       6.533  11.925  23.010  1.00  0.00     0.012 C 
HETATM   44  C21 UNL     1       4.469  13.350  22.995  1.00  0.00     0.012 C 
ENDBRANCH  37  42
ENDBRANCH  35  37
ENDBRANCH  32  33
ENDBRANCH  30  32
ENDBRANCH  27  28
ENDBRANCH  26  27
ENDBRANCH  13  26
TORSDOF 10
ENDMDL
MODEL 2
REMARK minimizedAffinity -6.72074986
REMARK CNNscore 0.431477904
REMARK CNNaffinity 6.44636202
REMARK  10 active torsions:
REMARK  status: ('A' for Active; 'I' for Inactive)
REMARK    1  A    between atoms: C3_3  and  O1_4 
REMARK    2  A    between atoms: N1_14  and  O2_16 
REMARK    3  A    between atoms: O2_16  and  C13_17 
REMARK    4  A    between atoms: C13_17  and  C14_18 
REMARK       I    between atoms: C14_18  and  N2_20 
REMARK    5  A    between atoms: N2_20  and  C15_21 
REMARK    6  A    between atoms: C15_21  and  C16_22 
REMARK       I    between atoms: C16_22  and  N3_24 
REMARK    7  A    between atoms: N3_24  and  C17_25 
REMARK    8  A    between atoms: C17_25  and  C18_26 
REMARK    9  A    between atoms: C17_25  and  C19_29 
REMARK   10  A    between atoms: C18_26  and  O6_28 
ROOT
HETATM    1  C1  UNL     1      -0.377   5.828  11.729  1.00  0.00     0.015 C 
HETATM    2  C2  UNL     1      -1.054   6.666  12.260  1.00  0.00    -0.078 C 
HETATM    3  C3  UNL     1      -1.863   7.726  12.882  1.00  0.00     0.128 C 
HETATM    4  C4  UNL     1      -3.363   7.423  12.822  1.00  0.00     0.052 C 
HETATM    5  C5  UNL     1      -3.945   8.459  13.780  1.00  0.00     0.010 C 
HETATM    6  C6  UNL     1      -2.982   8.429  14.973  1.00  0.00     0.002 C 
HETATM    7  C7  UNL     1      -2.981   9.675  15.892  1.00  0.00    -0.004 C 
HETATM    8  C8  UNL     1      -3.043  11.049  15.200  1.00  0.00     0.010 C 
HETATM    9  C9  UNL     1      -3.077  12.196  16.213  1.00  0.00     0.035 C 
HETATM   10  C10 UNL     1      -2.002  12.111  17.275  1.00  0.00    -0.069 C 
HETATM   11  C11 UNL     1      -1.287  13.207  17.593  1.00  0.00     0.030 C 
HETATM   12  C12 UNL     1      -0.305  13.202  18.715  1.00  0.00     0.032 C 
HETATM   13  N1  UNL     1       0.528  14.154  19.007  1.00  0.00    -0.271 N 
ATOM     14  H1  UNL     1       1.184  14.120  19.788  1.00  0.00     0.194 HD
HETATM   15  C22 UNL     1      -0.320  11.997  19.633  1.00  0.00     0.060 C 
HETATM   16  C23 UNL     1      -0.527  10.725  18.826  1.00  0.00     0.020 C 
HETATM   17  C24 UNL     1      -1.821  10.755  17.957  1.00  0.00    -0.016 C 
HETATM   18  C25 UNL     1      -3.024  10.522  18.910  1.00  0.00     0.020 C 
HETATM   19  C26 UNL     1      -1.779   9.610  16.871  1.00  0.00     0.002 C 
HETATM   20  C27 UNL     1      -0.431   9.537  16.100  1.00  0.00     0.007 C 
HETATM   21  C28 UNL     1      -0.498   9.015  14.663  1.00  0.00     0.014 C 
HETATM   22  C29 UNL     1      -1.594   7.966  14.412  1.00  0.00     0.003 C 
HETATM   23  C30 UNL     1      -1.196   6.651  15.138  1.00  0.00     0.020 C 
ENDROOT
BRANCH   3  24
HETATM   24  O1  UNL     1      -1.656   8.930  12.136  1.00  0.00    -0.377 OA
HETATM   25  H2  UNL     1      -1.713   8.689  11.194  1.00  0.00     0.211 HD
ENDBRANCH   3  24
BRANCH  13  26
HETATM   26  O2  UNL     1       0.419  15.237  18.117  1.00  0.00    -0.271 OA
BRANCH  26  27
HETATM   27  C13 UNL     1       1.610  16.005  18.188  1.00  0.00     0.303 C 
BRANCH  27  28
HETATM   28  C14 UNL     1       2.664  15.302  19.040  1.00  0.00     0.244 C 
HETATM   29  O3  UNL     1       3.429  14.437  18.621  1.00  0.00    -0.271 OA
HETATM   30  N2  UNL     1       2.707  15.745  20.347  1.00  0.00    -0.350 N 
HETATM   31  H16 UNL     1       1.947  16.302  20.730  1.00  0.00     0.163 HD
BRANCH  30  32
HETATM   32  C15 UNL     1       3.630  15.156  21.295  1.00  0.00     0.225 C 
BRANCH  32  33
HETATM   33  C16 UNL     1       3.077  13.838  21.835  1.00  0.00     0.236 C 
HETATM   34  O4  UNL     1       2.212  13.794  22.707  1.00  0.00    -0.272 OA
HETATM   35  N3  UNL     1       3.617  12.722  21.243  1.00  0.00    -0.345 N 
HETATM   36  H19 UNL     1       4.210  12.829  20.423  1.00  0.00     0.163 HD
BRANCH  35  37
HETATM   37  C17 UNL     1       3.146  11.362  21.515  1.00  0.00     0.185 C 
BRANCH  37  38
HETATM   38  C18 UNL     1       3.029  10.574  20.201  1.00  0.00     0.163 C 
HETATM   39  O5  UNL     1       3.257  10.995  19.078  1.00  0.00    -0.648 OA
BRANCH  38  40
HETATM   40  O6  UNL     1       2.587   9.305  20.368  1.00  0.00    -0.775 OA
HETATM   41  H21 UNL     1       2.567   8.948  19.453  1.00  0.00     0.167 HD
ENDBRANCH  38  40
ENDBRANCH  37  38
BRANCH  37  42
HETATM   42  C19 UNL     1       4.053  10.602  22.508  1.00  0.00     0.010 C 
HETATM   43  C20 UNL     1       5.297  11.403  22.917  1.00  0.00     0.012 C 
HETATM   44  C21 UNL     1       3.289  10.162  23.760  1.00  0.00     0.012 C 
ENDBRANCH  37  42
ENDBRANCH  35  37
ENDBRANCH  32  33
ENDBRANCH  30  32
ENDBRANCH  27  28
ENDBRANCH  26  27
ENDBRANCH  13  26
TORSDOF 10
ENDMDL
MODEL 3
REMARK minimizedAffinity -8.45260906
REMARK CNNscore 0.395158291
REMARK CNNaffinity 6.66279984
REMARK  10 active torsions:
REMARK  status: ('A' for Active; 'I' for Inactive)
REMARK    1  A    between atoms: C3_3  and  O1_4 
REMARK    2  A    between atoms: N1_14  and  O2_16 
REMARK    3  A    between atoms: O2_16  and  C13_17 
REMARK    4  A    between atoms: C13_17  and  C14_18 
REMARK       I    between atoms: C14_18  and  N2_20 
REMARK    5  A    between atoms: N2_20  and  C15_21 
REMARK    6  A    between atoms: C15_21  and  C16_22 
REMARK       I    between atoms: C16_22  and  N3_24 
REMARK    7  A    between atoms: N3_24  and  C17_25 
REMARK    8  A    between atoms: C17_25  and  C18_26 
REMARK    9  A    between atoms: C17_25  and  C19_29 
REMARK   10  A    between atoms: C18_26  and  O6_28 
ROOT
HETATM    1  C1  UNL     1      -6.800   8.406  15.538  1.00  0.00     0.015 C 
HETATM    2  C2  UNL     1      -5.895   7.694  15.198  1.00  0.00    -0.078 C 
HETATM    3  C3  UNL     1      -4.770   6.819  14.829  1.00  0.00     0.128 C 
HETATM    4  C4  UNL     1      -5.233   5.547  14.114  1.00  0.00     0.052 C 
HETATM    5  C5  UNL     1      -3.925   4.986  13.563  1.00  0.00     0.010 C 
HETATM    6  C6  UNL     1      -3.208   6.222  13.006  1.00  0.00     0.002 C 
HETATM    7  C7  UNL     1      -1.675   6.109  12.823  1.00  0.00    -0.004 C 
HETATM    8  C8  UNL     1      -0.890   5.411  13.949  1.00  0.00     0.010 C 
HETATM    9  C9  UNL     1       0.605   5.325  13.633  1.00  0.00     0.035 C 
HETATM   10  C10 UNL     1       1.219   6.640  13.203  1.00  0.00    -0.069 C 
HETATM   11  C11 UNL     1       2.393   7.035  13.731  1.00  0.00     0.030 C 
HETATM   12  C12 UNL     1       3.096   8.259  13.250  1.00  0.00     0.032 C 
HETATM   13  N1  UNL     1       4.149   8.797  13.785  1.00  0.00    -0.271 N 
ATOM     14  H1  UNL     1       4.609   9.634  13.425  1.00  0.00     0.194 HD
HETATM   15  C22 UNL     1       2.563   8.902  11.986  1.00  0.00     0.060 C 
HETATM   16  C23 UNL     1       1.042   8.873  11.982  1.00  0.00     0.020 C 
HETATM   17  C24 UNL     1       0.458   7.436  12.143  1.00  0.00    -0.016 C 
HETATM   18  C25 UNL     1       0.622   6.715  10.778  1.00  0.00     0.020 C 
HETATM   19  C26 UNL     1      -1.073   7.506  12.521  1.00  0.00     0.002 C 
HETATM   20  C27 UNL     1      -1.382   8.510  13.667  1.00  0.00     0.007 C 
HETATM   21  C28 UNL     1      -2.586   8.180  14.552  1.00  0.00     0.014 C 
HETATM   22  C29 UNL     1      -3.730   7.448  13.832  1.00  0.00     0.003 C 
HETATM   23  C30 UNL     1      -4.408   8.439  12.846  1.00  0.00     0.020 C 
ENDROOT
BRANCH   3  24
HETATM   24  O1  UNL     1      -4.125   6.401  16.037  1.00  0.00    -0.377 OA
HETATM   25  H2  UNL     1      -4.831   6.142  16.657  1.00  0.00     0.211 HD
ENDBRANCH   3  24
BRANCH  13  26
HETATM   26  O2  UNL     1       4.579   8.089  14.921  1.00  0.00    -0.271 OA
BRANCH  26  27
HETATM   27  C13 UNL     1       5.721   7.322  14.572  1.00  0.00     0.303 C 
BRANCH  27  28
HETATM   28  C14 UNL     1       6.996   8.151  14.700  1.00  0.00     0.244 C 
HETATM   29  O3  UNL     1       7.254   9.136  14.014  1.00  0.00    -0.271 OA
HETATM   30  N2  UNL     1       7.849   7.708  15.691  1.00  0.00    -0.350 N 
HETATM   31  H16 UNL     1       7.726   6.787  16.105  1.00  0.00     0.163 HD
BRANCH  30  32
HETATM   32  C15 UNL     1       9.120   8.365  15.919  1.00  0.00     0.225 C 
BRANCH  32  33
HETATM   33  C16 UNL     1       8.969   9.483  16.949  1.00  0.00     0.236 C 
HETATM   34  O4  UNL     1       8.012   9.548  17.717  1.00  0.00    -0.272 OA
HETATM   35  N3  UNL     1      10.005  10.386  16.948  1.00  0.00    -0.345 N 
HETATM   36  H19 UNL     1      10.839  10.189  16.398  1.00  0.00     0.163 HD
BRANCH  35  37
HETATM   37  C17 UNL     1      10.132  11.464  17.932  1.00  0.00     0.185 C 
BRANCH  37  38
HETATM   38  C18 UNL     1      10.868  10.952  19.180  1.00  0.00     0.163 C 
HETATM   39  O5  UNL     1      10.548  11.142  20.343  1.00  0.00    -0.648 OA
BRANCH  38  40
HETATM   40  O6  UNL     1      11.998  10.261  18.897  1.00  0.00    -0.775 OA
HETATM   41  H21 UNL     1      12.341  10.012  19.782  1.00  0.00     0.167 HD
ENDBRANCH  38  40
ENDBRANCH  37  38
BRANCH  37  42
HETATM   42  C19 UNL     1      10.852  12.708  17.366  1.00  0.00     0.010 C 
HETATM   43  C20 UNL     1      11.268  13.707  18.454  1.00  0.00     0.012 C 
HETATM   44  C21 UNL     1      12.070  12.328  16.520  1.00  0.00     0.012 C 
ENDBRANCH  37  42
ENDBRANCH  35  37
ENDBRANCH  32  33
ENDBRANCH  30  32
ENDBRANCH  27  28
ENDBRANCH  26  27
ENDBRANCH  13  26
TORSDOF 10
ENDMDL
MODEL 4
REMARK minimizedAffinity -8.7764473
REMARK CNNscore 0.260008723
REMARK CNNaffinity 6.86406088
REMARK  10 active torsions:
REMARK  status: ('A' for Active; 'I' for Inactive)
REMARK    1  A    between atoms: C3_3  and  O1_4 
REMARK    2  A    between atoms: N1_14  and  O2_16 
REMARK    3  A    between atoms: O2_16  and  C13_17 
REMARK    4  A    between atoms: C13_17  and  C14_18 
REMARK       I    between atoms: C14_18  and  N2_20 
REMARK    5  A    between atoms: N2_20  and  C15_21 
REMARK    6  A    between atoms: C15_21  and  C16_22 
REMARK       I    between atoms: C16_22  and  N3_24 
REMARK    7  A    between atoms: N3_24  and  C17_25 
REMARK    8  A    between atoms: C17_25  and  C18_26 
REMARK    9  A    between atoms: C17_25  and  C19_29 
REMARK   10  A    between atoms: C18_26  and  O6_28 
ROOT
HETATM    1  C1  UNL     1       1.812   6.994   8.482  1.00  0.00     0.015 C 
HETATM    2  C2  UNL     1       1.423   6.705   9.582  1.00  0.00    -0.078 C 
HETATM    3  C3  UNL     1       0.914   6.321  10.908  1.00  0.00     0.128 C 
HETATM    4  C4  UNL     1       2.022   5.797  11.827  1.00  0.00     0.052 C 
HETATM    5  C5  UNL     1       1.335   5.776  13.189  1.00  0.00     0.010 C 
HETATM    6  C6  UNL     1       0.569   7.104  13.228  1.00  0.00     0.002 C 
HETATM    7  C7  UNL     1      -0.610   7.193  14.228  1.00  0.00    -0.004 C 
HETATM    8  C8  UNL     1      -1.529   5.963  14.330  1.00  0.00     0.010 C 
HETATM    9  C9  UNL     1      -2.628   6.158  15.377  1.00  0.00     0.035 C 
HETATM   10  C10 UNL     1      -3.387   7.460  15.238  1.00  0.00    -0.069 C 
HETATM   11  C11 UNL     1      -4.732   7.462  15.311  1.00  0.00     0.030 C 
HETATM   12  C12 UNL     1      -5.514   8.732  15.301  1.00  0.00     0.032 C 
HETATM   13  N1  UNL     1      -6.806   8.834  15.225  1.00  0.00    -0.271 N 
ATOM     14  H1  UNL     1      -7.310   9.721  15.228  1.00  0.00     0.194 HD
HETATM   15  C22 UNL     1      -4.731  10.019  15.452  1.00  0.00     0.060 C 
HETATM   16  C23 UNL     1      -3.436   9.943  14.657  1.00  0.00     0.020 C 
HETATM   17  C24 UNL     1      -2.547   8.724  15.051  1.00  0.00    -0.016 C 
HETATM   18  C25 UNL     1      -1.869   9.064  16.406  1.00  0.00     0.020 C 
HETATM   19  C26 UNL     1      -1.440   8.475  13.954  1.00  0.00     0.002 C 
HETATM   20  C27 UNL     1      -1.994   8.486  12.502  1.00  0.00     0.007 C 
HETATM   21  C28 UNL     1      -1.250   7.617  11.486  1.00  0.00     0.014 C 
HETATM   22  C29 UNL     1       0.260   7.483  11.739  1.00  0.00     0.003 C 
HETATM   23  C30 UNL     1       0.935   8.851  11.441  1.00  0.00     0.020 C 
ENDROOT
BRANCH   3  24
HETATM   24  O1  UNL     1      -0.012   5.244  10.726  1.00  0.00    -0.377 OA
HETATM   25  H2  UNL     1       0.402   4.620  10.104  1.00  0.00     0.211 HD
ENDBRANCH   3  24
BRANCH  13  26
HETATM   26  O2  UNL     1      -7.426   7.576  15.137  1.00  0.00    -0.271 OA
BRANCH  26  27
HETATM   27  C13 UNL     1      -8.824   7.769  14.983  1.00  0.00     0.303 C 
BRANCH  27  28
HETATM   28  C14 UNL     1      -9.405   6.780  13.976  1.00  0.00     0.244 C 
HETATM   29  O3  UNL     1     -10.486   6.922  13.410  1.00  0.00    -0.271 OA
HETATM   30  N2  UNL     1      -8.587   5.696  13.726  1.00  0.00    -0.350 N 
HETATM   31  H16 UNL     1      -7.805   5.486  14.341  1.00  0.00     0.163 HD
BRANCH  30  32
HETATM   32  C15 UNL     1      -9.008   4.648  12.819  1.00  0.00     0.225 C 
BRANCH  32  33
HETATM   33  C16 UNL     1      -7.959   3.540  12.756  1.00  0.00     0.236 C 
HETATM   34  O4  UNL     1      -8.256   2.347  12.794  1.00  0.00    -0.272 OA
HETATM   35  N3  UNL     1      -6.670   3.998  12.629  1.00  0.00    -0.345 N 
HETATM   36  H19 UNL     1      -6.507   4.985  12.446  1.00  0.00     0.163 HD
BRANCH  35  37
HETATM   37  C17 UNL     1      -5.520   3.113  12.424  1.00  0.00     0.185 C 
BRANCH  37  38
HETATM   38  C18 UNL     1      -5.518   2.581  10.982  1.00  0.00     0.163 C 
HETATM   39  O5  UNL     1      -5.426   3.245   9.962  1.00  0.00    -0.648 OA
BRANCH  38  40
HETATM   40  O6  UNL     1      -5.676   1.238  10.901  1.00  0.00    -0.775 OA
HETATM   41  H21 UNL     1      -5.654   1.065   9.934  1.00  0.00     0.167 HD
ENDBRANCH  38  40
ENDBRANCH  37  38
BRANCH  37  42
HETATM   42  C19 UNL     1      -4.173   3.803  12.735  1.00  0.00     0.010 C 
HETATM   43  C20 UNL     1      -2.975   3.103  12.079  1.00  0.00     0.012 C 
HETATM   44  C21 UNL     1      -4.184   5.284  12.344  1.00  0.00     0.012 C 
ENDBRANCH  37  42
ENDBRANCH  35  37
ENDBRANCH  32  33
ENDBRANCH  30  32
ENDBRANCH  27  28
ENDBRANCH  26  27
ENDBRANCH  13  26
TORSDOF 10
ENDMDL
MODEL 5
REMARK minimizedAffinity -7.58200121
REMARK CNNscore 0.259141266
REMARK CNNaffinity 6.16509581
REMARK  10 active torsions:
REMARK  status: ('A' for Active; 'I' for Inactive)
REMARK    1  A    between atoms: C3_3  and  O1_4 
REMARK    2  A    between atoms: N1_14  and  O2_16 
REMARK    3  A    between atoms: O2_16  and  C13_17 
REMARK    4  A    between atoms: C13_17  and  C14_18 
REMARK       I    between atoms: C14_18  and  N2_20 
REMARK    5  A    between atoms: N2_20  and  C15_21 
REMARK    6  A    between atoms: C15_21  and  C16_22 
REMARK       I    between atoms: C16_22  and  N3_24 
REMARK    7  A    between atoms: N3_24  and  C17_25 
REMARK    8  A    between atoms: C17_25  and  C18_26 
REMARK    9  A    between atoms: C17_25  and  C19_29 
REMARK   10  A    between atoms: C18_26  and  O6_28 
ROOT
HETATM    1  C1  UNL     1      -4.234   5.092  13.238  1.00  0.00     0.015 C 
HETATM    2  C2  UNL     1      -3.695   5.814  14.033  1.00  0.00    -0.078 C 
HETATM    3  C3  UNL     1      -3.064   6.678  15.043  1.00  0.00     0.128 C 
HETATM    4  C4  UNL     1      -1.541   6.524  15.070  1.00  0.00     0.052 C 
HETATM    5  C5  UNL     1      -1.107   7.709  15.927  1.00  0.00     0.010 C 
HETATM    6  C6  UNL     1      -1.970   8.866  15.408  1.00  0.00     0.002 C 
HETATM    7  C7  UNL     1      -2.149  10.075  16.358  1.00  0.00    -0.004 C 
HETATM    8  C8  UNL     1      -2.393   9.761  17.846  1.00  0.00     0.010 C 
HETATM    9  C9  UNL     1      -2.513  11.035  18.685  1.00  0.00     0.035 C 
HETATM   10  C10 UNL     1      -3.483  12.052  18.124  1.00  0.00    -0.069 C 
HETATM   11  C11 UNL     1      -4.372  12.650  18.940  1.00  0.00     0.030 C 
HETATM   12  C12 UNL     1      -5.263  13.745  18.458  1.00  0.00     0.032 C 
HETATM   13  N1  UNL     1      -6.241  14.282  19.121  1.00  0.00    -0.271 N 
ATOM     14  H1  UNL     1      -6.828  15.036  18.762  1.00  0.00     0.194 HD
HETATM   15  C22 UNL     1      -4.962  14.320  17.090  1.00  0.00     0.060 C 
HETATM   16  C23 UNL     1      -4.569  13.210  16.128  1.00  0.00     0.020 C 
HETATM   17  C24 UNL     1      -3.361  12.362  16.632  1.00  0.00    -0.016 C 
HETATM   18  C25 UNL     1      -2.078  13.209  16.412  1.00  0.00     0.020 C 
HETATM   19  C26 UNL     1      -3.253  11.019  15.811  1.00  0.00     0.002 C 
HETATM   20  C27 UNL     1      -4.608  10.272  15.667  1.00  0.00     0.007 C 
HETATM   21  C28 UNL     1      -4.534   8.748  15.545  1.00  0.00     0.014 C 
HETATM   22  C29 UNL     1      -3.277   8.221  14.834  1.00  0.00     0.003 C 
HETATM   23  C30 UNL     1      -3.373   8.588  13.327  1.00  0.00     0.020 C 
ENDROOT
BRANCH   3  24
HETATM   24  O1  UNL     1      -3.542   6.270  16.329  1.00  0.00    -0.377 OA
HETATM   25  H2  UNL     1      -3.500   5.297  16.349  1.00  0.00     0.211 HD
ENDBRANCH   3  24
BRANCH  13  26
HETATM   26  O2  UNL     1      -6.395  13.701  20.391  1.00  0.00    -0.271 OA
BRANCH  26  27
HETATM   27  C13 UNL     1      -7.446  14.369  21.072  1.00  0.00     0.303 C 
BRANCH  27  28
HETATM   28  C14 UNL     1      -7.700  13.739  22.439  1.00  0.00     0.244 C 
HETATM   29  O3  UNL     1      -6.898  13.021  23.030  1.00  0.00    -0.271 OA
HETATM   30  N2  UNL     1      -8.925  14.070  22.984  1.00  0.00    -0.350 N 
HETATM   31  H16 UNL     1      -9.652  14.487  22.407  1.00  0.00     0.163 HD
BRANCH  30  32
HETATM   32  C15 UNL     1      -9.333  13.526  24.263  1.00  0.00     0.225 C 
BRANCH  32  33
HETATM   33  C16 UNL     1     -10.397  12.447  24.073  1.00  0.00     0.236 C 
HETATM   34  O4  UNL     1     -11.595  12.662  24.248  1.00  0.00    -0.272 OA
HETATM   35  N3  UNL     1      -9.895  11.233  23.669  1.00  0.00    -0.345 N 
HETATM   36  H19 UNL     1      -8.918  11.164  23.392  1.00  0.00     0.163 HD
BRANCH  35  37
HETATM   37  C17 UNL     1     -10.742  10.094  23.306  1.00  0.00     0.185 C 
BRANCH  37  38
HETATM   38  C18 UNL     1     -11.543   9.624  24.531  1.00  0.00     0.163 C 
HETATM   39  O5  UNL     1     -12.735   9.361  24.563  1.00  0.00    -0.648 OA
BRANCH  38  40
HETATM   40  O6  UNL     1     -10.806   9.551  25.665  1.00  0.00    -0.775 OA
HETATM   41  H21 UNL     1     -11.452   9.244  26.337  1.00  0.00     0.167 HD
ENDBRANCH  38  40
ENDBRANCH  37  38
BRANCH  37  42
HETATM   42  C19 UNL     1     -11.701  10.411  22.137  1.00  0.00     0.010 C 
HETATM   43  C20 UNL     1     -11.094  11.375  21.108  1.00  0.00     0.012 C 
HETATM   44  C21 UNL     1     -12.184   9.140  21.432  1.00  0.00     0.012 C 
ENDBRANCH  37  42
ENDBRANCH  35  37
ENDBRANCH  32  33
ENDBRANCH  30  32
ENDBRANCH  27  28
ENDBRANCH  26  27
ENDBRANCH  13  26
TORSDOF 10
ENDMDL
MODEL 6
REMARK minimizedAffinity -6.8241601
REMARK CNNscore 0.236671135
REMARK CNNaffinity 6.05146551
REMARK  10 active torsions:
REMARK  status: ('A' for Active; 'I' for Inactive)
REMARK    1  A    between atoms: C3_3  and  O1_4 
REMARK    2  A    between atoms: N1_14  and  O2_16 
REMARK    3  A    between atoms: O2_16  and  C13_17 
REMARK    4  A    between atoms: C13_17  and  C14_18 
REMARK       I    between atoms: C14_18  and  N2_20 
REMARK    5  A    between atoms: N2_20  and  C15_21 
REMARK    6  A    between atoms: C15_21  and  C16_22 
REMARK       I    between atoms: C16_22  and  N3_24 
REMARK    7  A    between atoms: N3_24  and  C17_25 
REMARK    8  A    between atoms: C17_25  and  C18_26 
REMARK    9  A    between atoms: C17_25  and  C19_29 
REMARK   10  A    between atoms: C18_26  and  O6_28 
ROOT
HETATM    1  C1  UNL     1      -8.946  17.332  16.965  1.00  0.00     0.015 C 
HETATM    2  C2  UNL     1      -7.905  16.936  16.514  1.00  0.00    -0.078 C 
HETATM    3  C3  UNL     1      -6.656  16.424  15.929  1.00  0.00     0.128 C 
HETATM    4  C4  UNL     1      -5.732  17.549  15.453  1.00  0.00     0.052 C 
HETATM    5  C5  UNL     1      -4.420  16.812  15.201  1.00  0.00     0.010 C 
HETATM    6  C6  UNL     1      -4.291  15.879  16.411  1.00  0.00     0.002 C 
HETATM    7  C7  UNL     1      -3.357  14.656  16.245  1.00  0.00    -0.004 C 
HETATM    8  C8  UNL     1      -3.432  13.900  14.905  1.00  0.00     0.010 C 
HETATM    9  C9  UNL     1      -2.434  12.741  14.848  1.00  0.00     0.035 C 
HETATM   10  C10 UNL     1      -2.486  11.826  16.053  1.00  0.00    -0.069 C 
HETATM   11  C11 UNL     1      -2.490  10.490  15.879  1.00  0.00     0.030 C 
HETATM   12  C12 UNL     1      -2.416   9.551  17.035  1.00  0.00     0.032 C 
HETATM   13  N1  UNL     1      -2.556   8.261  16.983  1.00  0.00    -0.271 N 
ATOM     14  H1  UNL     1      -2.492   7.646  17.795  1.00  0.00     0.194 HD
HETATM   15  C22 UNL     1      -2.092  10.152  18.387  1.00  0.00     0.060 C 
HETATM   16  C23 UNL     1      -2.816  11.480  18.558  1.00  0.00     0.020 C 
HETATM   17  C24 UNL     1      -2.496  12.502  17.424  1.00  0.00    -0.016 C 
HETATM   18  C25 UNL     1      -1.077  13.070  17.700  1.00  0.00     0.020 C 
HETATM   19  C26 UNL     1      -3.547  13.678  17.435  1.00  0.00     0.002 C 
HETATM   20  C27 UNL     1      -5.020  13.192  17.531  1.00  0.00     0.007 C 
HETATM   21  C28 UNL     1      -6.075  14.087  16.876  1.00  0.00     0.014 C 
HETATM   22  C29 UNL     1      -5.750  15.589  16.905  1.00  0.00     0.003 C 
HETATM   23  C30 UNL     1      -5.870  16.092  18.371  1.00  0.00     0.020 C 
ENDROOT
BRANCH   3  24
HETATM   24  O1  UNL     1      -6.997  15.654  14.771  1.00  0.00    -0.377 OA
HETATM   25  H2  UNL     1      -7.654  16.173  14.273  1.00  0.00     0.211 HD
ENDBRANCH   3  24
BRANCH  13  26
HETATM   26  O2  UNL     1      -2.805   7.814  15.674  1.00  0.00    -0.271 OA
BRANCH  26  27
HETATM   27  C13 UNL     1      -1.741   8.243  14.838  1.00  0.00     0.303 C 
BRANCH  27  28
HETATM   28  C14 UNL     1      -0.765   7.102  14.566  1.00  0.00     0.244 C 
HETATM   29  O3  UNL     1      -0.983   5.924  14.837  1.00  0.00    -0.271 OA
HETATM   30  N2  UNL     1       0.404   7.505  13.951  1.00  0.00    -0.350 N 
HETATM   31  H16 UNL     1       0.658   8.489  13.919  1.00  0.00     0.163 HD
BRANCH  30  32
HETATM   32  C15 UNL     1       1.449   6.548  13.655  1.00  0.00     0.225 C 
BRANCH  32  33
HETATM   33  C16 UNL     1       2.243   6.982  12.424  1.00  0.00     0.236 C 
HETATM   34  O4  UNL     1       2.507   8.160  12.191  1.00  0.00    -0.272 OA
HETATM   35  N3  UNL     1       2.647   5.941  11.624  1.00  0.00    -0.345 N 
HETATM   36  H19 UNL     1       2.532   4.985  11.953  1.00  0.00     0.163 HD
BRANCH  35  37
HETATM   37  C17 UNL     1       3.523   6.114  10.462  1.00  0.00     0.185 C 
BRANCH  37  38
HETATM   38  C18 UNL     1       3.904   4.742   9.883  1.00  0.00     0.163 C 
HETATM   39  O5  UNL     1       3.135   3.857   9.544  1.00  0.00    -0.648 OA
BRANCH  38  40
HETATM   40  O6  UNL     1       5.241   4.540   9.803  1.00  0.00    -0.775 OA
HETATM   41  H21 UNL     1       5.313   3.637   9.424  1.00  0.00     0.167 HD
ENDBRANCH  38  40
ENDBRANCH  37  38
BRANCH  37  42
HETATM   42  C19 UNL     1       2.892   6.995   9.363  1.00  0.00     0.010 C 
HETATM   43  C20 UNL     1       3.731   8.237   9.033  1.00  0.00     0.012 C 
HETATM   44  C21 UNL     1       2.617   6.203   8.081  1.00  0.00     0.012 C 
ENDBRANCH  37  42
ENDBRANCH  35  37
ENDBRANCH  32  33
ENDBRANCH  30  32
ENDBRANCH  27  28
ENDBRANCH  26  27
ENDBRANCH  13  26
TORSDOF 10
ENDMDL
MODEL 7
REMARK minimizedAffinity -7.97343826
REMARK CNNscore 0.233286262
REMARK CNNaffinity 5.94023895
REMARK  10 active torsions:
REMARK  status: ('A' for Active; 'I' for Inactive)
REMARK    1  A    between atoms: C3_3  and  O1_4 
REMARK    2  A    between atoms: N1_14  and  O2_16 
REMARK    3  A    between atoms: O2_16  and  C13_17 
REMARK    4  A    between atoms: C13_17  and  C14_18 
REMARK       I    between atoms: C14_18  and  N2_20 
REMARK    5  A    between atoms: N2_20  and  C15_21 
REMARK    6  A    between atoms: C15_21  and  C16_22 
REMARK       I    between atoms: C16_22  and  N3_24 
REMARK    7  A    between atoms: N3_24  and  C17_25 
REMARK    8  A    between atoms: C17_25  and  C18_26 
REMARK    9  A    between atoms: C17_25  and  C19_29 
REMARK   10  A    between atoms: C18_26  and  O6_28 
ROOT
HETATM    1  C1  UNL     1      -4.743  -9.225   8.080  1.00  0.00     0.015 C 
HETATM    2  C2  UNL     1      -4.409  -9.659   7.010  1.00  0.00    -0.078 C 
HETATM    3  C3  UNL     1      -3.987 -10.143   5.687  1.00  0.00     0.128 C 
HETATM    4  C4  UNL     1      -2.961 -11.276   5.782  1.00  0.00     0.052 C 
HETATM    5  C5  UNL     1      -2.928 -11.810   4.353  1.00  0.00     0.010 C 
HETATM    6  C6  UNL     1      -4.407 -11.853   3.949  1.00  0.00     0.002 C 
HETATM    7  C7  UNL     1      -4.708 -11.871   2.431  1.00  0.00    -0.004 C 
HETATM    8  C8  UNL     1      -3.866 -10.936   1.543  1.00  0.00     0.010 C 
HETATM    9  C9  UNL     1      -4.229 -11.075   0.063  1.00  0.00     0.035 C 
HETATM   10  C10 UNL     1      -5.714 -10.986  -0.217  1.00  0.00    -0.069 C 
HETATM   11  C11 UNL     1      -6.160 -10.219  -1.230  1.00  0.00     0.030 C 
HETATM   12  C12 UNL     1      -7.599 -10.196  -1.620  1.00  0.00     0.032 C 
HETATM   13  N1  UNL     1      -8.147  -9.392  -2.479  1.00  0.00    -0.271 N 
ATOM     14  H1  UNL     1      -9.136  -9.408  -2.728  1.00  0.00     0.194 HD
HETATM   15  C22 UNL     1      -8.494 -11.247  -0.996  1.00  0.00     0.060 C 
HETATM   16  C23 UNL     1      -8.128 -11.448   0.466  1.00  0.00     0.020 C 
HETATM   17  C24 UNL     1      -6.629 -11.826   0.675  1.00  0.00    -0.016 C 
HETATM   18  C25 UNL     1      -6.468 -13.317   0.276  1.00  0.00     0.020 C 
HETATM   19  C26 UNL     1      -6.223 -11.637   2.189  1.00  0.00     0.002 C 
HETATM   20  C27 UNL     1      -6.684 -10.280   2.789  1.00  0.00     0.007 C 
HETATM   21  C28 UNL     1      -5.814  -9.702   3.908  1.00  0.00     0.014 C 
HETATM   22  C29 UNL     1      -5.131 -10.753   4.798  1.00  0.00     0.003 C 
HETATM   23  C30 UNL     1      -6.219 -11.450   5.661  1.00  0.00     0.020 C 
ENDROOT
BRANCH   3  24
HETATM   24  O1  UNL     1      -3.341  -9.060   5.009  1.00  0.00    -0.377 OA
HETATM   25  H2  UNL     1      -2.737  -8.647   5.651  1.00  0.00     0.211 HD
ENDBRANCH   3  24
BRANCH  13  26
HETATM   26  O2  UNL     1      -7.212  -8.495  -3.026  1.00  0.00    -0.271 OA
BRANCH  26  27
HETATM   27  C13 UNL     1      -7.741  -7.968  -4.233  1.00  0.00     0.303 C 
BRANCH  27  28
HETATM   28  C14 UNL     1      -8.675  -6.794  -3.955  1.00  0.00     0.244 C 
HETATM   29  O3  UNL     1      -9.064  -6.468  -2.837  1.00  0.00    -0.271 OA
HETATM   30  N2  UNL     1      -9.037  -6.092  -5.087  1.00  0.00    -0.350 N 
HETATM   31  H16 UNL     1      -8.880  -6.486  -6.012  1.00  0.00     0.163 HD
BRANCH  30  32
HETATM   32  C15 UNL     1      -9.947  -4.969  -4.999  1.00  0.00     0.225 C 
BRANCH  32  33
HETATM   33  C16 UNL     1      -9.309  -3.713  -5.592  1.00  0.00     0.236 C 
HETATM   34  O4  UNL     1      -9.387  -3.435  -6.787  1.00  0.00    -0.272 OA
HETATM   35  N3  UNL     1      -8.668  -2.924  -4.669  1.00  0.00    -0.345 N 
HETATM   36  H19 UNL     1      -8.773  -3.128  -3.677  1.00  0.00     0.163 HD
BRANCH  35  37
HETATM   37  C17 UNL     1      -8.096  -1.614  -4.991  1.00  0.00     0.185 C 
BRANCH  37  38
HETATM   38  C18 UNL     1      -7.151  -1.735  -6.196  1.00  0.00     0.163 C 
HETATM   39  O5  UNL     1      -7.430  -1.515  -7.364  1.00  0.00    -0.648 OA
BRANCH  38  40
HETATM   40  O6  UNL     1      -5.911  -2.172  -5.871  1.00  0.00    -0.775 OA
HETATM   41  H21 UNL     1      -5.444  -2.196  -6.734  1.00  0.00     0.167 HD
ENDBRANCH  38  40
ENDBRANCH  37  38
BRANCH  37  42
HETATM   42  C19 UNL     1      -9.175  -0.543  -5.270  1.00  0.00     0.010 C 
HETATM   43  C20 UNL     1      -9.330  -0.223  -6.762  1.00  0.00     0.012 C 
HETATM   44  C21 UNL     1     -10.534  -0.934  -4.681  1.00  0.00     0.012 C 
ENDBRANCH  37  42
ENDBRANCH  35  37
ENDBRANCH  32  33
ENDBRANCH  30  32
ENDBRANCH  27  28
ENDBRANCH  26  27
ENDBRANCH  13  26
TORSDOF 10
ENDMDL
MODEL 8
REMARK minimizedAffinity -7.33095694
REMARK CNNscore 0.222984642
REMARK CNNaffinity 6.00680876
REMARK  10 active torsions:
REMARK  status: ('A' for Active; 'I' for Inactive)
REMARK    1  A    between atoms: C3_3  and  O1_4 
REMARK    2  A    between atoms: N1_14  and  O2_16 
REMARK    3  A    between atoms: O2_16  and  C13_17 
REMARK    4  A    between atoms: C13_17  and  C14_18 
REMARK       I    between atoms: C14_18  and  N2_20 
REMARK    5  A    between atoms: N2_20  and  C15_21 
REMARK    6  A    between atoms: C15_21  and  C16_22 
REMARK       I    between atoms: C16_22  and  N3_24 
REMARK    7  A    between atoms: N3_24  and  C17_25 
REMARK    8  A    between atoms: C17_25  and  C18_26 
REMARK    9  A    between atoms: C17_25  and  C19_29 
REMARK   10  A    between atoms: C18_26  and  O6_28 
ROOT
HETATM    1  C1  UNL     1       6.231  19.110  23.236  1.00  0.00     0.015 C 
HETATM    2  C2  UNL     1       6.483  17.954  23.030  1.00  0.00    -0.078 C 
HETATM    3  C3  UNL     1       6.802  16.550  22.730  1.00  0.00     0.128 C 
HETATM    4  C4  UNL     1       7.881  15.987  23.659  1.00  0.00     0.052 C 
HETATM    5  C5  UNL     1       7.805  14.489  23.380  1.00  0.00     0.010 C 
HETATM    6  C6  UNL     1       6.299  14.205  23.337  1.00  0.00     0.002 C 
HETATM    7  C7  UNL     1       5.859  12.916  22.600  1.00  0.00    -0.004 C 
HETATM    8  C8  UNL     1       6.573  12.595  21.274  1.00  0.00     0.010 C 
HETATM    9  C9  UNL     1       6.081  11.279  20.666  1.00  0.00     0.035 C 
HETATM   10  C10 UNL     1       4.574  11.170  20.574  1.00  0.00    -0.069 C 
HETATM   11  C11 UNL     1       4.004  10.728  19.438  1.00  0.00     0.030 C 
HETATM   12  C12 UNL     1       2.535  10.488  19.342  1.00  0.00     0.032 C 
HETATM   13  N1  UNL     1       1.875  10.201  18.261  1.00  0.00    -0.271 N 
ATOM     14  H1  UNL     1       0.869  10.036  18.232  1.00  0.00     0.194 HD
HETATM   15  C22 UNL     1       1.748  10.527  20.636  1.00  0.00     0.060 C 
HETATM   16  C23 UNL     1       2.257  11.651  21.525  1.00  0.00     0.020 C 
HETATM   17  C24 UNL     1       3.784  11.550  21.827  1.00  0.00    -0.016 C 
HETATM   18  C25 UNL     1       3.973  10.428  22.883  1.00  0.00     0.020 C 
HETATM   19  C26 UNL     1       4.320  12.916  22.406  1.00  0.00     0.002 C 
HETATM   20  C27 UNL     1       3.857  14.157  21.593  1.00  0.00     0.007 C 
HETATM   21  C28 UNL     1       4.801  15.362  21.598  1.00  0.00     0.014 C 
HETATM   22  C29 UNL     1       5.608  15.540  22.893  1.00  0.00     0.003 C 
HETATM   23  C30 UNL     1       4.637  15.978  24.025  1.00  0.00     0.020 C 
ENDROOT
BRANCH   3  24
HETATM   24  O1  UNL     1       7.334  16.495  21.402  1.00  0.00    -0.377 OA
HETATM   25  H2  UNL     1       7.976  17.223  21.326  1.00  0.00     0.211 HD
ENDBRANCH   3  24
BRANCH  13  26
HETATM   26  O2  UNL     1       2.715  10.146  17.135  1.00  0.00    -0.271 OA
BRANCH  26  27
HETATM   27  C13 UNL     1       1.914   9.935  15.982  1.00  0.00     0.303 C 
BRANCH  27  28
HETATM   28  C14 UNL     1       1.662   8.446  15.756  1.00  0.00     0.244 C 
HETATM   29  O3  UNL     1       1.612   7.608  16.652  1.00  0.00    -0.271 OA
HETATM   30  N2  UNL     1       1.464   8.111  14.431  1.00  0.00    -0.350 N 
HETATM   31  H16 UNL     1       1.708   8.765  13.691  1.00  0.00     0.163 HD
BRANCH  30  32
HETATM   32  C15 UNL     1       1.246   6.733  14.044  1.00  0.00     0.225 C 
BRANCH  32  33
HETATM   33  C16 UNL     1       1.726   6.494  12.613  1.00  0.00     0.236 C 
HETATM   34  O4  UNL     1       1.517   5.442  12.014  1.00  0.00    -0.272 OA
HETATM   35  N3  UNL     1       2.386   7.565  12.060  1.00  0.00    -0.345 N 
HETATM   36  H19 UNL     1       2.388   8.458  12.550  1.00  0.00     0.163 HD
BRANCH  35  37
HETATM   37  C17 UNL     1       2.821   7.605  10.662  1.00  0.00     0.185 C 
BRANCH  37  38
HETATM   38  C18 UNL     1       4.036   6.686  10.464  1.00  0.00     0.163 C 
HETATM   39  O5  UNL     1       5.197   7.035  10.315  1.00  0.00    -0.648 OA
BRANCH  38  40
HETATM   40  O6  UNL     1       3.718   5.370  10.420  1.00  0.00    -0.775 OA
HETATM   41  H21 UNL     1       4.586   4.930  10.289  1.00  0.00     0.167 HD
ENDBRANCH  38  40
ENDBRANCH  37  38
BRANCH  37  42
HETATM   42  C19 UNL     1       1.698   7.217   9.675  1.00  0.00     0.010 C 
HETATM   43  C20 UNL     1       0.466   8.128   9.780  1.00  0.00     0.012 C 
HETATM   44  C21 UNL     1       2.194   7.185   8.226  1.00  0.00     0.012 C 
ENDBRANCH  37  42
ENDBRANCH  35  37
ENDBRANCH  32  33
ENDBRANCH  30  32
ENDBRANCH  27  28
ENDBRANCH  26  27
ENDBRANCH  13  26
TORSDOF 10
ENDMDL
MODEL 9
REMARK minimizedAffinity -8.09475231
REMARK CNNscore 0.2189513
REMARK CNNaffinity 6.5975666
REMARK  10 active torsions:
REMARK  status: ('A' for Active; 'I' for Inactive)
REMARK    1  A    between atoms: C3_3  and  O1_4 
REMARK    2  A    between atoms: N1_14  and  O2_16 
REMARK    3  A    between atoms: O2_16  and  C13_17 
REMARK    4  A    between atoms: C13_17  and  C14_18 
REMARK       I    between atoms: C14_18  and  N2_20 
REMARK    5  A    between atoms: N2_20  and  C15_21 
REMARK    6  A    between atoms: C15_21  and  C16_22 
REMARK       I    between atoms: C16_22  and  N3_24 
REMARK    7  A    between atoms: N3_24  and  C17_25 
REMARK    8  A    between atoms: C17_25  and  C18_26 
REMARK    9  A    between atoms: C17_25  and  C19_29 
REMARK   10  A    between atoms: C18_26  and  O6_28 
ROOT
HETATM    1  C1  UNL     1       2.385   8.089   8.738  1.00  0.00     0.015 C 
HETATM    2  C2  UNL     1       1.824   7.516   9.633  1.00  0.00    -0.078 C 
HETATM    3  C3  UNL     1       1.103   6.797  10.695  1.00  0.00     0.128 C 
HETATM    4  C4  UNL     1       2.013   5.838  11.469  1.00  0.00     0.052 C 
HETATM    5  C5  UNL     1       1.153   5.473  12.676  1.00  0.00     0.010 C 
HETATM    6  C6  UNL     1       0.545   6.814  13.105  1.00  0.00     0.002 C 
HETATM    7  C7  UNL     1      -0.738   6.746  13.969  1.00  0.00    -0.004 C 
HETATM    8  C8  UNL     1      -1.797   5.706  13.560  1.00  0.00     0.010 C 
HETATM    9  C9  UNL     1      -2.996   5.709  14.512  1.00  0.00     0.035 C 
HETATM   10  C10 UNL     1      -3.576   7.083  14.766  1.00  0.00    -0.069 C 
HETATM   11  C11 UNL     1      -4.910   7.266  14.719  1.00  0.00     0.030 C 
HETATM   12  C12 UNL     1      -5.534   8.571  15.081  1.00  0.00     0.032 C 
HETATM   13  N1  UNL     1      -6.784   8.888  14.934  1.00  0.00    -0.271 N 
ATOM     14  H1  UNL     1      -7.180   9.790  15.200  1.00  0.00     0.194 HD
HETATM   15  C22 UNL     1      -4.636   9.602  15.734  1.00  0.00     0.060 C 
HETATM   16  C23 UNL     1      -3.265   9.596  15.076  1.00  0.00     0.020 C 
HETATM   17  C24 UNL     1      -2.581   8.195  15.100  1.00  0.00    -0.016 C 
HETATM   18  C25 UNL     1      -2.054   7.962  16.542  1.00  0.00     0.020 C 
HETATM   19  C26 UNL     1      -1.373   8.157  14.084  1.00  0.00     0.002 C 
HETATM   20  C27 UNL     1      -1.725   8.730  12.683  1.00  0.00     0.007 C 
HETATM   21  C28 UNL     1      -0.956   8.143  11.497  1.00  0.00     0.014 C 
HETATM   22  C29 UNL     1       0.482   7.705  11.818  1.00  0.00     0.003 C 
HETATM   23  C30 UNL     1       1.341   8.976  12.069  1.00  0.00     0.020 C 
ENDROOT
BRANCH   3  24
HETATM   24  O1  UNL     1       0.093   5.995  10.074  1.00  0.00    -0.377 OA
HETATM   25  H2  UNL     1       0.512   5.556   9.313  1.00  0.00     0.211 HD
ENDBRANCH   3  24
BRANCH  13  26
HETATM   26  O2  UNL     1      -7.527   7.840  14.364  1.00  0.00    -0.271 OA
BRANCH  26  27
HETATM   27  C13 UNL     1      -8.671   7.603  15.170  1.00  0.00     0.303 C 
BRANCH  27  28
HETATM   28  C14 UNL     1      -9.779   6.932  14.364  1.00  0.00     0.244 C 
HETATM   29  O3  UNL     1      -9.615   6.404  13.267  1.00  0.00    -0.271 OA
HETATM   30  N2  UNL     1     -11.008   6.942  14.993  1.00  0.00    -0.350 N 
HETATM   31  H16 UNL     1     -11.175   7.550  15.791  1.00  0.00     0.163 HD
BRANCH  30  32
HETATM   32  C15 UNL     1     -12.172   6.374  14.346  1.00  0.00     0.225 C 
BRANCH  32  33
HETATM   33  C16 UNL     1     -13.099   7.479  13.841  1.00  0.00     0.236 C 
HETATM   34  O4  UNL     1     -14.174   7.241  13.294  1.00  0.00    -0.272 OA
HETATM   35  N3  UNL     1     -12.631   8.750  14.076  1.00  0.00    -0.345 N 
HETATM   36  H19 UNL     1     -11.815   8.880  14.669  1.00  0.00     0.163 HD
BRANCH  35  37
HETATM   37  C17 UNL     1     -13.411   9.957  13.791  1.00  0.00     0.185 C 
BRANCH  37  38
HETATM   38  C18 UNL     1     -13.742  10.027  12.292  1.00  0.00     0.163 C 
HETATM   39  O5  UNL     1     -14.845   9.900  11.784  1.00  0.00    -0.648 OA
BRANCH  38  40
HETATM   40  O6  UNL     1     -12.655  10.213  11.505  1.00  0.00    -0.775 OA
HETATM   41  H21 UNL     1     -13.031  10.232  10.598  1.00  0.00     0.167 HD
ENDBRANCH  38  40
ENDBRANCH  37  38
BRANCH  37  42
HETATM   42  C19 UNL     1     -14.709  10.041  14.624  1.00  0.00     0.010 C 
HETATM   43  C20 UNL     1     -14.512   9.616  16.086  1.00  0.00     0.012 C 
HETATM   44  C21 UNL     1     -15.333  11.439  14.573  1.00  0.00     0.012 C 
ENDBRANCH  37  42
ENDBRANCH  35  37
ENDBRANCH  32  33
ENDBRANCH  30  32
ENDBRANCH  27  28
ENDBRANCH  26  27
ENDBRANCH  13  26
TORSDOF 10
ENDMDL
