MODEL 1
REMARK minimizedAffinity -9.4111166
REMARK  9 active torsions:
REMARK  status: ('A' for Active; 'I' for Inactive)
REMARK    1  A    between atoms: C2_2  and  C3_3 
REMARK    2  A    between atoms: C2_2  and  C9_12 
REMARK    3  A    between atoms: C3_3  and  C4_4 
REMARK    4  A    between atoms: C4_4  and  C5_5 
REMARK    5  A    between atoms: C5_5  and  O1_6 
REMARK    6  A    between atoms: C5_5  and  C6_7 
REMARK    7  A    between atoms: C6_7  and  O2_9 
REMARK    8  A    between atoms: C6_7  and  C8_10 
REMARK    9  A    between atoms: C8_10  and  O3_11 
ROOT
HETATM    1  C9  UNL     1      -1.190   6.490  13.103  1.00  0.00    -0.002 C 
HETATM    2  C10 UNL     1      -0.849   7.825  13.826  1.00  0.00     0.007 C 
HETATM    3  C11 UNL     1      -2.048   8.170  14.728  1.00  0.00     0.015 C 
HETATM    4  C12 UNL     1      -3.253   7.563  13.987  1.00  0.00    -0.013 C 
HETATM    5  C13 UNL     1      -3.585   8.545  12.817  1.00  0.00     0.021 C 
HETATM    6  C14 UNL     1      -4.581   7.407  14.735  1.00  0.00    -0.070 C 
HETATM    7  C15 UNL     1      -4.991   8.323  15.631  1.00  0.00    -0.022 C 
HETATM    8  C16 UNL     1      -6.405   8.419  16.110  1.00  0.00     0.034 C 
HETATM    9  C17 UNL     1      -7.366   7.882  15.026  1.00  0.00     0.013 C 
HETATM   10  C18 UNL     1      -8.872   8.256  15.270  1.00  0.00     0.018 C 
HETATM   11  C19 UNL     1      -9.044   9.789  15.097  1.00  0.00     0.023 C 
HETATM   12  C20 UNL     1      -9.428   7.899  16.658  1.00  0.00     0.023 C 
HETATM   13  C21 UNL     1      -9.751   7.570  14.211  1.00  0.00     0.135 C 
HETATM   14  O4  UNL     1     -10.734   8.125  13.714  1.00  0.00    -0.297 OA
HETATM   15  C22 UNL     1      -9.456   6.129  13.874  1.00  0.00     0.080 C 
HETATM   16  C23 UNL     1      -7.981   5.926  13.563  1.00  0.00     0.017 C 
HETATM   17  C24 UNL     1      -7.033   6.382  14.700  1.00  0.00    -0.031 C 
HETATM   18  C25 UNL     1      -7.253   5.442  15.919  1.00  0.00     0.016 C 
HETATM   19  C26 UNL     1      -5.482   6.233  14.314  1.00  0.00     0.024 C 
HETATM   20  C27 UNL     1      -5.167   5.745  12.880  1.00  0.00     0.010 C 
HETATM   21  C28 UNL     1      -3.661   5.509  12.565  1.00  0.00     0.011 C 
HETATM   22  C29 UNL     1      -2.675   6.175  13.545  1.00  0.00    -0.029 C 
HETATM   23  C30 UNL     1      -2.470   5.182  14.754  1.00  0.00     0.016 C 
ENDROOT
BRANCH   1  24
HETATM   24  C2  UNL     1      -0.683   6.410  11.632  1.00  0.00    -0.014 C 
HETATM   25  C1  UNL     1       0.429   5.401  11.344  1.00  0.00     0.010 C 
BRANCH  24  26
HETATM   26  C3  UNL     1      -0.315   7.780  11.002  1.00  0.00     0.007 C 
BRANCH  26  27
HETATM   27  C4  UNL     1       1.058   7.800  10.316  1.00  0.00     0.035 C 
BRANCH  27  28
HETATM   28  C5  UNL     1       1.073   8.345   8.873  1.00  0.00     0.154 C 
BRANCH  28  29
HETATM   29  O1  UNL     1      -0.195   8.047   8.258  1.00  0.00    -0.392 OA
HETATM   30  H10 UNL     1      -0.889   8.421   8.833  1.00  0.00     0.210 HD
ENDBRANCH  28  29
BRANCH  28  31
HETATM   31  C6  UNL     1       2.194   7.815   7.932  1.00  0.00     0.101 C 
HETATM   32  C7  UNL     1       1.633   7.259   6.622  1.00  0.00     0.051 C 
BRANCH  31  33
HETATM   33  O2  UNL     1       3.091   8.892   7.612  1.00  0.00    -0.385 OA
HETATM   34  H14 UNL     1       3.204   9.384   8.450  1.00  0.00     0.210 HD
ENDBRANCH  31  33
BRANCH  31  35
HETATM   35  C8  UNL     1       3.027   6.726   8.649  1.00  0.00     0.204 C 
BRANCH  35  36
HETATM   36  O3  UNL     1       2.822   5.434   8.086  1.00  0.00    -0.398 OA
HETATM   37  H17 UNL     1       2.459   4.871   8.796  1.00  0.00     0.209 HD
ENDBRANCH  35  36
ENDBRANCH  31  35
ENDBRANCH  28  31
ENDBRANCH  27  28
ENDBRANCH  26  27
ENDBRANCH  24  26
ENDBRANCH   1  24
TORSDOF 9
ENDMDL
MODEL 2
REMARK minimizedAffinity -9.06630707
REMARK  9 active torsions:
REMARK  status: ('A' for Active; 'I' for Inactive)
REMARK    1  A    between atoms: C2_2  and  C3_3 
REMARK    2  A    between atoms: C2_2  and  C9_12 
REMARK    3  A    between atoms: C3_3  and  C4_4 
REMARK    4  A    between atoms: C4_4  and  C5_5 
REMARK    5  A    between atoms: C5_5  and  O1_6 
REMARK    6  A    between atoms: C5_5  and  C6_7 
REMARK    7  A    between atoms: C6_7  and  O2_9 
REMARK    8  A    between atoms: C6_7  and  C8_10 
REMARK    9  A    between atoms: C8_10  and  O3_11 
ROOT
HETATM    1  C9  UNL     1      -3.143   7.777  14.720  1.00  0.00    -0.002 C 
HETATM    2  C10 UNL     1      -2.400   8.723  15.707  1.00  0.00     0.007 C 
HETATM    3  C11 UNL     1      -1.123   9.208  14.996  1.00  0.00     0.015 C 
HETATM    4  C12 UNL     1      -0.760   8.042  14.059  1.00  0.00    -0.013 C 
HETATM    5  C13 UNL     1      -0.094   6.951  14.959  1.00  0.00     0.021 C 
HETATM    6  C14 UNL     1       0.260   8.281  12.941  1.00  0.00    -0.070 C 
HETATM    7  C15 UNL     1       1.320   9.089  13.122  1.00  0.00    -0.022 C 
HETATM    8  C16 UNL     1       2.518   9.077  12.225  1.00  0.00     0.034 C 
HETATM    9  C17 UNL     1       2.683   7.680  11.587  1.00  0.00     0.013 C 
HETATM   10  C18 UNL     1       4.085   7.449  10.917  1.00  0.00     0.018 C 
HETATM   11  C19 UNL     1       5.172   7.409  12.025  1.00  0.00     0.023 C 
HETATM   12  C20 UNL     1       4.521   8.521   9.905  1.00  0.00     0.023 C 
HETATM   13  C21 UNL     1       4.098   6.086  10.206  1.00  0.00     0.135 C 
HETATM   14  O4  UNL     1       5.094   5.357  10.201  1.00  0.00    -0.297 OA
HETATM   15  C22 UNL     1       2.887   5.701   9.394  1.00  0.00     0.080 C 
HETATM   16  C23 UNL     1       1.606   5.878  10.195  1.00  0.00     0.017 C 
HETATM   17  C24 UNL     1       1.408   7.311  10.748  1.00  0.00    -0.031 C 
HETATM   18  C25 UNL     1       1.187   8.268   9.543  1.00  0.00     0.016 C 
HETATM   19  C26 UNL     1       0.092   7.449  11.657  1.00  0.00     0.024 C 
HETATM   20  C27 UNL     1      -0.720   6.157  11.906  1.00  0.00     0.010 C 
HETATM   21  C28 UNL     1      -2.046   6.336  12.701  1.00  0.00     0.011 C 
HETATM   22  C29 UNL     1      -2.166   7.659  13.483  1.00  0.00    -0.029 C 
HETATM   23  C30 UNL     1      -2.738   8.743  12.488  1.00  0.00     0.016 C 
ENDROOT
BRANCH   1  24
HETATM   24  C2  UNL     1      -3.840   6.561  15.399  1.00  0.00    -0.014 C 
HETATM   25  C1  UNL     1      -3.108   5.220  15.322  1.00  0.00     0.010 C 
BRANCH  24  26
HETATM   26  C3  UNL     1      -5.326   6.363  14.999  1.00  0.00     0.007 C 
BRANCH  26  27
HETATM   27  C4  UNL     1      -5.523   5.895  13.550  1.00  0.00     0.035 C 
BRANCH  27  28
HETATM   28  C5  UNL     1      -5.838   4.395  13.372  1.00  0.00     0.154 C 
BRANCH  28  29
HETATM   29  O1  UNL     1      -5.289   3.958  12.114  1.00  0.00    -0.392 OA
HETATM   30  H10 UNL     1      -4.340   4.183  12.120  1.00  0.00     0.210 HD
ENDBRANCH  28  29
BRANCH  28  31
HETATM   31  C6  UNL     1      -7.338   3.981  13.406  1.00  0.00     0.101 C 
HETATM   32  C7  UNL     1      -7.569   2.598  12.796  1.00  0.00     0.051 C 
BRANCH  31  33
HETATM   33  O2  UNL     1      -7.788   3.949  14.772  1.00  0.00    -0.385 OA
HETATM   34  H14 UNL     1      -7.379   4.732  15.191  1.00  0.00     0.210 HD
ENDBRANCH  31  33
BRANCH  31  35
HETATM   35  C8  UNL     1      -8.201   5.031  12.668  1.00  0.00     0.204 C 
BRANCH  35  36
HETATM   36  O3  UNL     1      -9.262   5.523  13.482  1.00  0.00    -0.398 OA
HETATM   37  H17 UNL     1     -10.095   5.298  13.026  1.00  0.00     0.209 HD
ENDBRANCH  35  36
ENDBRANCH  31  35
ENDBRANCH  28  31
ENDBRANCH  27  28
ENDBRANCH  26  27
ENDBRANCH  24  26
ENDBRANCH   1  24
TORSDOF 9
ENDMDL
MODEL 3
REMARK minimizedAffinity -9.00433445
REMARK  9 active torsions:
REMARK  status: ('A' for Active; 'I' for Inactive)
REMARK    1  A    between atoms: C2_2  and  C3_3 
REMARK    2  A    between atoms: C2_2  and  C9_12 
REMARK    3  A    between atoms: C3_3  and  C4_4 
REMARK    4  A    between atoms: C4_4  and  C5_5 
REMARK    5  A    between atoms: C5_5  and  O1_6 
REMARK    6  A    between atoms: C5_5  and  C6_7 
REMARK    7  A    between atoms: C6_7  and  O2_9 
REMARK    8  A    between atoms: C6_7  and  C8_10 
REMARK    9  A    between atoms: C8_10  and  O3_11 
ROOT
HETATM    1  C9  UNL     1      -1.447   6.801  12.172  1.00  0.00    -0.002 C 
HETATM    2  C10 UNL     1      -1.643   7.941  13.213  1.00  0.00     0.007 C 
HETATM    3  C11 UNL     1      -0.386   8.829  13.155  1.00  0.00     0.015 C 
HETATM    4  C12 UNL     1       0.733   7.855  12.744  1.00  0.00    -0.013 C 
HETATM    5  C13 UNL     1       1.106   7.051  14.031  1.00  0.00     0.021 C 
HETATM    6  C14 UNL     1       2.068   8.425  12.256  1.00  0.00    -0.070 C 
HETATM    7  C15 UNL     1       2.590   9.544  12.793  1.00  0.00    -0.022 C 
HETATM    8  C16 UNL     1       4.024   9.936  12.626  1.00  0.00     0.034 C 
HETATM    9  C17 UNL     1       4.893   8.678  12.410  1.00  0.00     0.013 C 
HETATM   10  C18 UNL     1       6.434   8.934  12.576  1.00  0.00     0.018 C 
HETATM   11  C19 UNL     1       6.733   9.261  14.064  1.00  0.00     0.023 C 
HETATM   12  C20 UNL     1       7.007  10.091  11.742  1.00  0.00     0.023 C 
HETATM   13  C21 UNL     1       7.210   7.656  12.218  1.00  0.00     0.135 C 
HETATM   14  O4  UNL     1       8.219   7.306  12.836  1.00  0.00    -0.297 OA
HETATM   15  C22 UNL     1       6.778   6.886  10.995  1.00  0.00     0.080 C 
HETATM   16  C23 UNL     1       5.281   6.620  11.011  1.00  0.00     0.017 C 
HETATM   17  C24 UNL     1       4.419   7.901  11.131  1.00  0.00    -0.031 C 
HETATM   18  C25 UNL     1       4.601   8.730   9.827  1.00  0.00     0.016 C 
HETATM   19  C26 UNL     1       2.848   7.587  11.228  1.00  0.00     0.024 C 
HETATM   20  C27 UNL     1       2.439   6.096  11.264  1.00  0.00     0.010 C 
HETATM   21  C28 UNL     1       0.907   5.817  11.252  1.00  0.00     0.011 C 
HETATM   22  C29 UNL     1       0.020   7.021  11.624  1.00  0.00    -0.029 C 
HETATM   23  C30 UNL     1      -0.226   7.850  10.304  1.00  0.00     0.016 C 
ENDROOT
BRANCH   1  24
HETATM   24  C2  UNL     1      -2.012   5.421  12.619  1.00  0.00    -0.014 C 
HETATM   25  C1  UNL     1      -1.974   5.117  14.118  1.00  0.00     0.010 C 
BRANCH  24  26
HETATM   26  C3  UNL     1      -1.451   4.208  11.830  1.00  0.00     0.007 C 
BRANCH  26  27
HETATM   27  C4  UNL     1      -2.486   3.518  10.930  1.00  0.00     0.035 C 
BRANCH  27  28
HETATM   28  C5  UNL     1      -3.445   2.544  11.645  1.00  0.00     0.154 C 
BRANCH  28  29
HETATM   29  O1  UNL     1      -3.028   1.196  11.355  1.00  0.00    -0.392 OA
HETATM   30  H10 UNL     1      -2.092   1.121  11.618  1.00  0.00     0.210 HD
ENDBRANCH  28  29
BRANCH  28  31
HETATM   31  C6  UNL     1      -4.957   2.660  11.294  1.00  0.00     0.101 C 
HETATM   32  C7  UNL     1      -5.690   3.641  12.210  1.00  0.00     0.051 C 
BRANCH  31  33
HETATM   33  O2  UNL     1      -5.093   3.125   9.940  1.00  0.00    -0.385 OA
HETATM   34  H14 UNL     1      -4.402   2.648   9.438  1.00  0.00     0.210 HD
ENDBRANCH  31  33
BRANCH  31  35
HETATM   35  C8  UNL     1      -5.632   1.269  11.367  1.00  0.00     0.204 C 
BRANCH  35  36
HETATM   36  O3  UNL     1      -6.972   1.347  11.847  1.00  0.00    -0.398 OA
HETATM   37  H17 UNL     1      -7.010   0.819  12.666  1.00  0.00     0.209 HD
ENDBRANCH  35  36
ENDBRANCH  31  35
ENDBRANCH  28  31
ENDBRANCH  27  28
ENDBRANCH  26  27
ENDBRANCH  24  26
ENDBRANCH   1  24
TORSDOF 9
ENDMDL
MODEL 4
REMARK minimizedAffinity -8.9767828
REMARK  9 active torsions:
REMARK  status: ('A' for Active; 'I' for Inactive)
REMARK    1  A    between atoms: C2_2  and  C3_3 
REMARK    2  A    between atoms: C2_2  and  C9_12 
REMARK    3  A    between atoms: C3_3  and  C4_4 
REMARK    4  A    between atoms: C4_4  and  C5_5 
REMARK    5  A    between atoms: C5_5  and  O1_6 
REMARK    6  A    between atoms: C5_5  and  C6_7 
REMARK    7  A    between atoms: C6_7  and  O2_9 
REMARK    8  A    between atoms: C6_7  and  C8_10 
REMARK    9  A    between atoms: C8_10  and  O3_11 
ROOT
HETATM    1  C9  UNL     1      -0.551   6.967  13.284  1.00  0.00    -0.002 C 
HETATM    2  C10 UNL     1      -0.369   8.371  13.931  1.00  0.00     0.007 C 
HETATM    3  C11 UNL     1      -1.619   8.639  14.790  1.00  0.00     0.015 C 
HETATM    4  C12 UNL     1      -2.735   7.866  14.064  1.00  0.00    -0.013 C 
HETATM    5  C13 UNL     1      -3.139   8.738  12.831  1.00  0.00     0.021 C 
HETATM    6  C14 UNL     1      -4.057   7.614  14.796  1.00  0.00    -0.070 C 
HETATM    7  C15 UNL     1      -4.582   8.533  15.628  1.00  0.00    -0.022 C 
HETATM    8  C16 UNL     1      -6.011   8.507  16.074  1.00  0.00     0.034 C 
HETATM    9  C17 UNL     1      -6.883   7.808  15.007  1.00  0.00     0.013 C 
HETATM   10  C18 UNL     1      -8.425   8.036  15.200  1.00  0.00     0.018 C 
HETATM   11  C19 UNL     1      -8.752   9.529  14.932  1.00  0.00     0.023 C 
HETATM   12  C20 UNL     1      -8.975   7.703  16.597  1.00  0.00     0.023 C 
HETATM   13  C21 UNL     1      -9.202   7.200  14.169  1.00  0.00     0.135 C 
HETATM   14  O4  UNL     1     -10.225   7.618  13.622  1.00  0.00    -0.297 OA
HETATM   15  C22 UNL     1      -8.750   5.781  13.925  1.00  0.00     0.080 C 
HETATM   16  C23 UNL     1      -7.255   5.717  13.654  1.00  0.00     0.017 C 
HETATM   17  C24 UNL     1      -6.388   6.336  14.778  1.00  0.00    -0.031 C 
HETATM   18  C25 UNL     1      -6.538   5.450  16.047  1.00  0.00     0.016 C 
HETATM   19  C26 UNL     1      -4.821   6.330  14.430  1.00  0.00     0.024 C 
HETATM   20  C27 UNL     1      -4.421   5.795  13.035  1.00  0.00     0.010 C 
HETATM   21  C28 UNL     1      -2.892   5.701  12.761  1.00  0.00     0.011 C 
HETATM   22  C29 UNL     1      -2.005   6.523  13.717  1.00  0.00    -0.029 C 
HETATM   23  C30 UNL     1      -1.728   5.629  14.987  1.00  0.00     0.016 C 
ENDROOT
BRANCH   1  24
HETATM   24  C2  UNL     1      -0.003   6.857  11.830  1.00  0.00    -0.014 C 
HETATM   25  C1  UNL     1      -0.829   7.530  10.733  1.00  0.00     0.010 C 
BRANCH  24  26
HETATM   26  C3  UNL     1       0.367   5.415  11.389  1.00  0.00     0.007 C 
BRANCH  26  27
HETATM   27  C4  UNL     1      -0.843   4.487  11.215  1.00  0.00     0.035 C 
BRANCH  27  28
HETATM   28  C5  UNL     1      -0.584   2.994  11.504  1.00  0.00     0.154 C 
BRANCH  28  29
HETATM   29  O1  UNL     1       0.750   2.669  11.070  1.00  0.00    -0.392 OA
HETATM   30  H10 UNL     1       1.358   3.288  11.516  1.00  0.00     0.210 HD
ENDBRANCH  28  29
BRANCH  28  31
HETATM   31  C6  UNL     1      -1.559   1.971  10.852  1.00  0.00     0.101 C 
HETATM   32  C7  UNL     1      -2.775   1.687  11.735  1.00  0.00     0.051 C 
BRANCH  31  33
HETATM   33  O2  UNL     1      -2.029   2.499   9.599  1.00  0.00    -0.385 OA
HETATM   34  H14 UNL     1      -1.244   2.914   9.190  1.00  0.00     0.210 HD
ENDBRANCH  31  33
BRANCH  31  35
HETATM   35  C8  UNL     1      -0.818   0.649  10.539  1.00  0.00     0.204 C 
BRANCH  35  36
HETATM   36  O3  UNL     1      -0.525   0.512   9.151  1.00  0.00    -0.398 OA
HETATM   37  H17 UNL     1      -0.984  -0.292   8.843  1.00  0.00     0.209 HD
ENDBRANCH  35  36
ENDBRANCH  31  35
ENDBRANCH  28  31
ENDBRANCH  27  28
ENDBRANCH  26  27
ENDBRANCH  24  26
ENDBRANCH   1  24
TORSDOF 9
ENDMDL
MODEL 5
REMARK minimizedAffinity -8.9752903
REMARK  9 active torsions:
REMARK  status: ('A' for Active; 'I' for Inactive)
REMARK    1  A    between atoms: C2_2  and  C3_3 
REMARK    2  A    between atoms: C2_2  and  C9_12 
REMARK    3  A    between atoms: C3_3  and  C4_4 
REMARK    4  A    between atoms: C4_4  and  C5_5 
REMARK    5  A    between atoms: C5_5  and  O1_6 
REMARK    6  A    between atoms: C5_5  and  C6_7 
REMARK    7  A    between atoms: C6_7  and  O2_9 
REMARK    8  A    between atoms: C6_7  and  C8_10 
REMARK    9  A    between atoms: C8_10  and  O3_11 
ROOT
HETATM    1  C9  UNL     1      -1.959   7.463  13.813  1.00  0.00    -0.002 C 
HETATM    2  C10 UNL     1      -1.650   6.893  15.228  1.00  0.00     0.007 C 
HETATM    3  C11 UNL     1      -0.217   7.327  15.588  1.00  0.00     0.015 C 
HETATM    4  C12 UNL     1       0.494   7.412  14.225  1.00  0.00    -0.013 C 
HETATM    5  C13 UNL     1       0.820   5.941  13.811  1.00  0.00     0.021 C 
HETATM    6  C14 UNL     1       1.842   8.135  14.137  1.00  0.00    -0.070 C 
HETATM    7  C15 UNL     1       2.741   8.062  15.135  1.00  0.00    -0.022 C 
HETATM    8  C16 UNL     1       4.182   8.428  14.962  1.00  0.00     0.034 C 
HETATM    9  C17 UNL     1       4.607   8.216  13.492  1.00  0.00     0.013 C 
HETATM   10  C18 UNL     1       6.162   8.227  13.272  1.00  0.00     0.018 C 
HETATM   11  C19 UNL     1       6.775   6.972  13.951  1.00  0.00     0.023 C 
HETATM   12  C20 UNL     1       6.904   9.448  13.840  1.00  0.00     0.023 C 
HETATM   13  C21 UNL     1       6.470   8.137  11.768  1.00  0.00     0.135 C 
HETATM   14  O4  UNL     1       7.421   7.483  11.331  1.00  0.00    -0.297 OA
HETATM   15  C22 UNL     1       5.646   8.979  10.827  1.00  0.00     0.080 C 
HETATM   16  C23 UNL     1       4.158   8.797  11.083  1.00  0.00     0.017 C 
HETATM   17  C24 UNL     1       3.732   9.106  12.540  1.00  0.00    -0.031 C 
HETATM   18  C25 UNL     1       3.934  10.628  12.790  1.00  0.00     0.016 C 
HETATM   19  C26 UNL     1       2.173   8.828  12.804  1.00  0.00     0.024 C 
HETATM   20  C27 UNL     1       1.363   8.238  11.626  1.00  0.00     0.010 C 
HETATM   21  C28 UNL     1      -0.165   8.076  11.873  1.00  0.00     0.011 C 
HETATM   22  C29 UNL     1      -0.597   8.121  13.352  1.00  0.00    -0.029 C 
HETATM   23  C30 UNL     1      -0.801   9.638  13.736  1.00  0.00     0.016 C 
ENDROOT
BRANCH   1  24
HETATM   24  C2  UNL     1      -2.819   6.522  12.918  1.00  0.00    -0.014 C 
HETATM   25  C1  UNL     1      -4.335   6.594  13.105  1.00  0.00     0.010 C 
BRANCH  24  26
HETATM   26  C3  UNL     1      -2.367   5.037  12.923  1.00  0.00     0.007 C 
BRANCH  26  27
HETATM   27  C4  UNL     1      -1.551   4.630  11.688  1.00  0.00     0.035 C 
BRANCH  27  28
HETATM   28  C5  UNL     1      -0.996   3.191  11.702  1.00  0.00     0.154 C 
BRANCH  28  29
HETATM   29  O1  UNL     1       0.336   3.209  11.154  1.00  0.00    -0.392 OA
HETATM   30  H10 UNL     1       0.852   3.856  11.671  1.00  0.00     0.210 HD
ENDBRANCH  28  29
BRANCH  28  31
HETATM   31  C6  UNL     1      -1.812   2.114  10.930  1.00  0.00     0.101 C 
HETATM   32  C7  UNL     1      -3.081   1.703  11.679  1.00  0.00     0.051 C 
BRANCH  31  33
HETATM   33  O2  UNL     1      -2.200   2.642   9.650  1.00  0.00    -0.385 OA
HETATM   34  H14 UNL     1      -1.417   3.133   9.331  1.00  0.00     0.210 HD
ENDBRANCH  31  33
BRANCH  31  35
HETATM   35  C8  UNL     1      -0.935   0.867  10.661  1.00  0.00     0.204 C 
BRANCH  35  36
HETATM   36  O3  UNL     1      -0.574   0.751   9.287  1.00  0.00    -0.398 OA
HETATM   37  H17 UNL     1      -0.940  -0.095   8.969  1.00  0.00     0.209 HD
ENDBRANCH  35  36
ENDBRANCH  31  35
ENDBRANCH  28  31
ENDBRANCH  27  28
ENDBRANCH  26  27
ENDBRANCH  24  26
ENDBRANCH   1  24
TORSDOF 9
ENDMDL
MODEL 6
REMARK minimizedAffinity -8.96740532
REMARK  9 active torsions:
REMARK  status: ('A' for Active; 'I' for Inactive)
REMARK    1  A    between atoms: C2_2  and  C3_3 
REMARK    2  A    between atoms: C2_2  and  C9_12 
REMARK    3  A    between atoms: C3_3  and  C4_4 
REMARK    4  A    between atoms: C4_4  and  C5_5 
REMARK    5  A    between atoms: C5_5  and  O1_6 
REMARK    6  A    between atoms: C5_5  and  C6_7 
REMARK    7  A    between atoms: C6_7  and  O2_9 
REMARK    8  A    between atoms: C6_7  and  C8_10 
REMARK    9  A    between atoms: C8_10  and  O3_11 
ROOT
HETATM    1  C9  UNL     1      -1.412   6.338  12.033  1.00  0.00    -0.002 C 
HETATM    2  C10 UNL     1      -1.685   7.425  13.113  1.00  0.00     0.007 C 
HETATM    3  C11 UNL     1      -0.481   8.386  13.102  1.00  0.00     0.015 C 
HETATM    4  C12 UNL     1       0.696   7.493  12.670  1.00  0.00    -0.013 C 
HETATM    5  C13 UNL     1       1.103   6.666  13.932  1.00  0.00     0.021 C 
HETATM    6  C14 UNL     1       2.001   8.157  12.218  1.00  0.00    -0.070 C 
HETATM    7  C15 UNL     1       2.451   9.283  12.802  1.00  0.00    -0.022 C 
HETATM    8  C16 UNL     1       3.862   9.764  12.666  1.00  0.00     0.034 C 
HETATM    9  C17 UNL     1       4.805   8.567  12.416  1.00  0.00     0.013 C 
HETATM   10  C18 UNL     1       6.327   8.906  12.610  1.00  0.00     0.018 C 
HETATM   11  C19 UNL     1       6.591   9.194  14.112  1.00  0.00     0.023 C 
HETATM   12  C20 UNL     1       6.840  10.124  11.825  1.00  0.00     0.023 C 
HETATM   13  C21 UNL     1       7.179   7.688  12.215  1.00  0.00     0.135 C 
HETATM   14  O4  UNL     1       8.201   7.375  12.832  1.00  0.00    -0.297 OA
HETATM   15  C22 UNL     1       6.805   6.940  10.960  1.00  0.00     0.080 C 
HETATM   16  C23 UNL     1       5.326   6.588  10.948  1.00  0.00     0.017 C 
HETATM   17  C24 UNL     1       4.390   7.812  11.104  1.00  0.00    -0.031 C 
HETATM   18  C25 UNL     1       4.536   8.697   9.833  1.00  0.00     0.016 C 
HETATM   19  C26 UNL     1       2.839   7.404  11.170  1.00  0.00     0.024 C 
HETATM   20  C27 UNL     1       2.516   5.892  11.148  1.00  0.00     0.010 C 
HETATM   21  C28 UNL     1       1.004   5.525  11.108  1.00  0.00     0.011 C 
HETATM   22  C29 UNL     1       0.044   6.662  11.512  1.00  0.00    -0.029 C 
HETATM   23  C30 UNL     1      -0.236   7.523  10.220  1.00  0.00     0.016 C 
ENDROOT
BRANCH   1  24
HETATM   24  C2  UNL     1      -1.901   4.911  12.424  1.00  0.00    -0.014 C 
HETATM   25  C1  UNL     1      -2.234   3.961  11.272  1.00  0.00     0.010 C 
BRANCH  24  26
HETATM   26  C3  UNL     1      -3.053   4.887  13.464  1.00  0.00     0.007 C 
BRANCH  26  27
HETATM   27  C4  UNL     1      -4.410   5.333  12.901  1.00  0.00     0.035 C 
BRANCH  27  28
HETATM   28  C5  UNL     1      -5.592   4.383  13.183  1.00  0.00     0.154 C 
BRANCH  28  29
HETATM   29  O1  UNL     1      -5.770   3.523  12.041  1.00  0.00    -0.392 OA
HETATM   30  H10 UNL     1      -4.916   3.082  11.876  1.00  0.00     0.210 HD
ENDBRANCH  28  29
BRANCH  28  31
HETATM   31  C6  UNL     1      -6.965   5.042  13.501  1.00  0.00     0.101 C 
HETATM   32  C7  UNL     1      -7.353   4.891  14.973  1.00  0.00     0.051 C 
BRANCH  31  33
HETATM   33  O2  UNL     1      -6.896   6.446  13.198  1.00  0.00    -0.385 OA
HETATM   34  H14 UNL     1      -6.392   6.500  12.362  1.00  0.00     0.210 HD
ENDBRANCH  31  33
BRANCH  31  35
HETATM   35  C8  UNL     1      -8.071   4.437  12.603  1.00  0.00     0.204 C 
BRANCH  35  36
HETATM   36  O3  UNL     1      -8.595   3.225  13.138  1.00  0.00    -0.398 OA
HETATM   37  H17 UNL     1      -8.420   2.527  12.480  1.00  0.00     0.209 HD
ENDBRANCH  35  36
ENDBRANCH  31  35
ENDBRANCH  28  31
ENDBRANCH  27  28
ENDBRANCH  26  27
ENDBRANCH  24  26
ENDBRANCH   1  24
TORSDOF 9
ENDMDL
MODEL 7
REMARK minimizedAffinity -8.72345734
REMARK  9 active torsions:
REMARK  status: ('A' for Active; 'I' for Inactive)
REMARK    1  A    between atoms: C2_2  and  C3_3 
REMARK    2  A    between atoms: C2_2  and  C9_12 
REMARK    3  A    between atoms: C3_3  and  C4_4 
REMARK    4  A    between atoms: C4_4  and  C5_5 
REMARK    5  A    between atoms: C5_5  and  O1_6 
REMARK    6  A    between atoms: C5_5  and  C6_7 
REMARK    7  A    between atoms: C6_7  and  O2_9 
REMARK    8  A    between atoms: C6_7  and  C8_10 
REMARK    9  A    between atoms: C8_10  and  O3_11 
ROOT
HETATM    1  C9  UNL     1      -3.756   8.067  14.858  1.00  0.00    -0.002 C 
HETATM    2  C10 UNL     1      -3.339   6.788  15.640  1.00  0.00     0.007 C 
HETATM    3  C11 UNL     1      -1.889   6.462  15.237  1.00  0.00     0.015 C 
HETATM    4  C12 UNL     1      -1.783   6.989  13.794  1.00  0.00    -0.013 C 
HETATM    5  C13 UNL     1      -2.492   5.930  12.890  1.00  0.00     0.021 C 
HETATM    6  C14 UNL     1      -0.395   7.152  13.165  1.00  0.00    -0.070 C 
HETATM    7  C15 UNL     1       0.596   6.279  13.424  1.00  0.00    -0.022 C 
HETATM    8  C16 UNL     1       1.827   6.170  12.580  1.00  0.00     0.034 C 
HETATM    9  C17 UNL     1       1.516   6.615  11.134  1.00  0.00     0.013 C 
HETATM   10  C18 UNL     1       2.622   6.211  10.094  1.00  0.00     0.018 C 
HETATM   11  C19 UNL     1       2.633   4.667   9.943  1.00  0.00     0.023 C 
HETATM   12  C20 UNL     1       4.055   6.635  10.453  1.00  0.00     0.023 C 
HETATM   13  C21 UNL     1       2.277   6.808   8.719  1.00  0.00     0.135 C 
HETATM   14  O4  UNL     1       2.483   6.196   7.668  1.00  0.00    -0.297 OA
HETATM   15  C22 UNL     1       1.787   8.234   8.670  1.00  0.00     0.080 C 
HETATM   16  C23 UNL     1       0.650   8.461   9.656  1.00  0.00     0.017 C 
HETATM   17  C24 UNL     1       1.010   8.100  11.118  1.00  0.00    -0.031 C 
HETATM   18  C25 UNL     1       2.089   9.105  11.612  1.00  0.00     0.016 C 
HETATM   19  C26 UNL     1      -0.231   8.271  12.123  1.00  0.00     0.024 C 
HETATM   20  C27 UNL     1      -1.583   8.682  11.495  1.00  0.00     0.010 C 
HETATM   21  C28 UNL     1      -2.742   8.942  12.500  1.00  0.00     0.011 C 
HETATM   22  C29 UNL     1      -2.525   8.365  13.913  1.00  0.00    -0.029 C 
HETATM   23  C30 UNL     1      -1.708   9.434  14.738  1.00  0.00     0.016 C 
ENDROOT
BRANCH   1  24
HETATM   24  C2  UNL     1      -5.240   8.073  14.385  1.00  0.00    -0.014 C 
HETATM   25  C1  UNL     1      -6.298   8.374  15.449  1.00  0.00     0.010 C 
BRANCH  24  26
HETATM   26  C3  UNL     1      -5.663   6.820  13.574  1.00  0.00     0.007 C 
BRANCH  26  27
HETATM   27  C4  UNL     1      -7.151   6.463  13.711  1.00  0.00     0.035 C 
BRANCH  27  28
HETATM   28  C5  UNL     1      -7.620   5.242  12.893  1.00  0.00     0.154 C 
BRANCH  28  29
HETATM   29  O1  UNL     1      -8.921   4.847  13.366  1.00  0.00    -0.392 OA
HETATM   30  H10 UNL     1      -9.500   5.630  13.308  1.00  0.00     0.210 HD
ENDBRANCH  28  29
BRANCH  28  31
HETATM   31  C6  UNL     1      -6.703   3.984  12.916  1.00  0.00     0.101 C 
HETATM   32  C7  UNL     1      -6.170   3.632  11.527  1.00  0.00     0.051 C 
BRANCH  31  33
HETATM   33  O2  UNL     1      -5.579   4.235  13.777  1.00  0.00    -0.385 OA
HETATM   34  H14 UNL     1      -5.950   4.713  14.545  1.00  0.00     0.210 HD
ENDBRANCH  31  33
BRANCH  31  35
HETATM   35  C8  UNL     1      -7.467   2.775  13.507  1.00  0.00     0.204 C 
BRANCH  35  36
HETATM   36  O3  UNL     1      -8.068   1.972  12.494  1.00  0.00    -0.398 OA
HETATM   37  H17 UNL     1      -9.029   1.982  12.659  1.00  0.00     0.209 HD
ENDBRANCH  35  36
ENDBRANCH  31  35
ENDBRANCH  28  31
ENDBRANCH  27  28
ENDBRANCH  26  27
ENDBRANCH  24  26
ENDBRANCH   1  24
TORSDOF 9
ENDMDL
MODEL 8
REMARK minimizedAffinity -8.50460052
REMARK  9 active torsions:
REMARK  status: ('A' for Active; 'I' for Inactive)
REMARK    1  A    between atoms: C2_2  and  C3_3 
REMARK    2  A    between atoms: C2_2  and  C9_12 
REMARK    3  A    between atoms: C3_3  and  C4_4 
REMARK    4  A    between atoms: C4_4  and  C5_5 
REMARK    5  A    between atoms: C5_5  and  O1_6 
REMARK    6  A    between atoms: C5_5  and  C6_7 
REMARK    7  A    between atoms: C6_7  and  O2_9 
REMARK    8  A    between atoms: C6_7  and  C8_10 
REMARK    9  A    between atoms: C8_10  and  O3_11 
ROOT
HETATM    1  C9  UNL     1      -7.889   5.120  14.017  1.00  0.00    -0.002 C 
HETATM    2  C10 UNL     1      -7.489   3.652  13.686  1.00  0.00     0.007 C 
HETATM    3  C11 UNL     1      -5.951   3.587  13.707  1.00  0.00     0.015 C 
HETATM    4  C12 UNL     1      -5.517   5.000  13.277  1.00  0.00    -0.013 C 
HETATM    5  C13 UNL     1      -5.701   5.060  11.727  1.00  0.00     0.021 C 
HETATM    6  C14 UNL     1      -4.063   5.428  13.501  1.00  0.00    -0.070 C 
HETATM    7  C15 UNL     1      -3.047   4.557  13.355  1.00  0.00    -0.022 C 
HETATM    8  C16 UNL     1      -1.622   4.986  13.200  1.00  0.00     0.034 C 
HETATM    9  C17 UNL     1      -1.561   6.393  12.564  1.00  0.00     0.013 C 
HETATM   10  C18 UNL     1      -0.136   6.789  12.035  1.00  0.00     0.018 C 
HETATM   11  C19 UNL     1       0.218   5.890  10.820  1.00  0.00     0.023 C 
HETATM   12  C20 UNL     1       1.011   6.644  13.047  1.00  0.00     0.023 C 
HETATM   13  C21 UNL     1      -0.158   8.246  11.542  1.00  0.00     0.135 C 
HETATM   14  O4  UNL     1       0.471   8.611  10.545  1.00  0.00    -0.297 OA
HETATM   15  C22 UNL     1      -0.876   9.268  12.387  1.00  0.00     0.080 C 
HETATM   16  C23 UNL     1      -2.279   8.800  12.745  1.00  0.00     0.017 C 
HETATM   17  C24 UNL     1      -2.316   7.431  13.468  1.00  0.00    -0.031 C 
HETATM   18  C25 UNL     1      -1.652   7.603  14.864  1.00  0.00     0.016 C 
HETATM   19  C26 UNL     1      -3.811   6.923  13.761  1.00  0.00     0.024 C 
HETATM   20  C27 UNL     1      -4.962   7.807  13.227  1.00  0.00     0.010 C 
HETATM   21  C28 UNL     1      -6.398   7.349  13.613  1.00  0.00     0.011 C 
HETATM   22  C29 UNL     1      -6.511   5.890  14.099  1.00  0.00    -0.029 C 
HETATM   23  C30 UNL     1      -6.205   5.885  15.647  1.00  0.00     0.016 C 
ENDROOT
BRANCH   1  24
HETATM   24  C2  UNL     1      -9.132   5.637  13.234  1.00  0.00    -0.014 C 
HETATM   25  C1  UNL     1      -8.936   5.915  11.743  1.00  0.00     0.010 C 
BRANCH  24  26
HETATM   26  C3  UNL     1      -9.855   6.841  13.895  1.00  0.00     0.007 C 
BRANCH  26  27
HETATM   27  C4  UNL     1     -11.387   6.745  13.855  1.00  0.00     0.035 C 
BRANCH  27  28
HETATM   28  C5  UNL     1     -12.144   7.906  14.533  1.00  0.00     0.154 C 
BRANCH  28  29
HETATM   29  O1  UNL     1     -13.100   7.351  15.456  1.00  0.00    -0.392 OA
HETATM   30  H10 UNL     1     -12.609   6.768  16.064  1.00  0.00     0.210 HD
ENDBRANCH  28  29
BRANCH  28  31
HETATM   31  C6  UNL     1     -12.903   8.893  13.599  1.00  0.00     0.101 C 
HETATM   32  C7  UNL     1     -14.132   8.250  12.955  1.00  0.00     0.051 C 
BRANCH  31  33
HETATM   33  O2  UNL     1     -13.341  10.027  14.367  1.00  0.00    -0.385 OA
HETATM   34  H14 UNL     1     -12.595  10.231  14.965  1.00  0.00     0.210 HD
ENDBRANCH  31  33
BRANCH  31  35
HETATM   35  C8  UNL     1     -11.954   9.428  12.500  1.00  0.00     0.204 C 
BRANCH  35  36
HETATM   36  O3  UNL     1     -12.660  10.106  11.464  1.00  0.00    -0.398 OA
HETATM   37  H17 UNL     1     -12.482   9.621  10.636  1.00  0.00     0.209 HD
ENDBRANCH  35  36
ENDBRANCH  31  35
ENDBRANCH  28  31
ENDBRANCH  27  28
ENDBRANCH  26  27
ENDBRANCH  24  26
ENDBRANCH   1  24
TORSDOF 9
ENDMDL
MODEL 9
REMARK minimizedAffinity -8.48453331
REMARK  9 active torsions:
REMARK  status: ('A' for Active; 'I' for Inactive)
REMARK    1  A    between atoms: C2_2  and  C3_3 
REMARK    2  A    between atoms: C2_2  and  C9_12 
REMARK    3  A    between atoms: C3_3  and  C4_4 
REMARK    4  A    between atoms: C4_4  and  C5_5 
REMARK    5  A    between atoms: C5_5  and  O1_6 
REMARK    6  A    between atoms: C5_5  and  C6_7 
REMARK    7  A    between atoms: C6_7  and  O2_9 
REMARK    8  A    between atoms: C6_7  and  C8_10 
REMARK    9  A    between atoms: C8_10  and  O3_11 
ROOT
HETATM    1  C9  UNL     1      -5.277   4.827  13.807  1.00  0.00    -0.002 C 
HETATM    2  C10 UNL     1      -4.659   5.710  14.931  1.00  0.00     0.007 C 
HETATM    3  C11 UNL     1      -5.819   6.475  15.595  1.00  0.00     0.015 C 
HETATM    4  C12 UNL     1      -6.843   6.647  14.459  1.00  0.00    -0.013 C 
HETATM    5  C13 UNL     1      -6.311   7.812  13.564  1.00  0.00     0.021 C 
HETATM    6  C14 UNL     1      -8.275   7.065  14.810  1.00  0.00    -0.070 C 
HETATM    7  C15 UNL     1      -8.524   7.934  15.808  1.00  0.00    -0.022 C 
HETATM    8  C16 UNL     1      -9.830   8.649  15.958  1.00  0.00     0.034 C 
HETATM    9  C17 UNL     1     -10.506   8.807  14.578  1.00  0.00     0.013 C 
HETATM   10  C18 UNL     1     -11.691   9.838  14.565  1.00  0.00     0.018 C 
HETATM   11  C19 UNL     1     -11.120  11.264  14.790  1.00  0.00     0.023 C 
HETATM   12  C20 UNL     1     -12.774   9.617  15.634  1.00  0.00     0.023 C 
HETATM   13  C21 UNL     1     -12.371   9.824  13.186  1.00  0.00     0.135 C 
HETATM   14  O4  UNL     1     -12.793  10.853  12.651  1.00  0.00    -0.297 OA
HETATM   15  C22 UNL     1     -12.629   8.486  12.539  1.00  0.00     0.080 C 
HETATM   16  C23 UNL     1     -11.374   7.626  12.529  1.00  0.00     0.017 C 
HETATM   17  C24 UNL     1     -10.762   7.398  13.933  1.00  0.00    -0.031 C 
HETATM   18  C25 UNL     1     -11.756   6.533  14.759  1.00  0.00     0.016 C 
HETATM   19  C26 UNL     1      -9.395   6.558  13.886  1.00  0.00     0.024 C 
HETATM   20  C27 UNL     1      -8.862   6.176  12.485  1.00  0.00     0.010 C 
HETATM   21  C28 UNL     1      -7.593   5.274  12.469  1.00  0.00     0.011 C 
HETATM   22  C29 UNL     1      -6.806   5.228  13.794  1.00  0.00    -0.029 C 
HETATM   23  C30 UNL     1      -7.463   4.111  14.693  1.00  0.00     0.016 C 
ENDROOT
BRANCH   1  24
HETATM   24  C2  UNL     1      -4.396   4.708  12.529  1.00  0.00    -0.014 C 
HETATM   25  C1  UNL     1      -4.014   3.293  12.089  1.00  0.00     0.010 C 
BRANCH  24  26
HETATM   26  C3  UNL     1      -3.132   5.608  12.531  1.00  0.00     0.007 C 
BRANCH  26  27
HETATM   27  C4  UNL     1      -1.812   4.828  12.608  1.00  0.00     0.035 C 
BRANCH  27  28
HETATM   28  C5  UNL     1      -0.832   5.061  11.440  1.00  0.00     0.154 C 
BRANCH  28  29
HETATM   29  O1  UNL     1      -0.251   3.796  11.070  1.00  0.00    -0.392 OA
HETATM   30  H10 UNL     1      -0.987   3.186  10.876  1.00  0.00     0.210 HD
ENDBRANCH  28  29
BRANCH  28  31
HETATM   31  C6  UNL     1       0.332   6.064  11.686  1.00  0.00     0.101 C 
HETATM   32  C7  UNL     1       1.690   5.483  11.290  1.00  0.00     0.051 C 
BRANCH  31  33
HETATM   33  O2  UNL     1       0.107   7.250  10.904  1.00  0.00    -0.385 OA
HETATM   34  H14 UNL     1      -0.852   7.424  10.979  1.00  0.00     0.210 HD
ENDBRANCH  31  33
BRANCH  31  35
HETATM   35  C8  UNL     1       0.361   6.498  13.171  1.00  0.00     0.204 C 
BRANCH  35  36
HETATM   36  O3  UNL     1       1.370   5.817  13.911  1.00  0.00    -0.398 OA
HETATM   37  H17 UNL     1       0.916   5.320  14.617  1.00  0.00     0.209 HD
ENDBRANCH  35  36
ENDBRANCH  31  35
ENDBRANCH  28  31
ENDBRANCH  27  28
ENDBRANCH  26  27
ENDBRANCH  24  26
ENDBRANCH   1  24
TORSDOF 9
ENDMDL
