MODEL 1
REMARK minimizedAffinity -7.54071474
REMARK CNNscore 0.870621085
REMARK CNNaffinity 7.5517478
REMARK  9 active torsions:
REMARK  status: ('A' for Active; 'I' for Inactive)
REMARK    1  A    between atoms: C2_2  and  C30_33 
REMARK    2  A    between atoms: C3_3  and  C4_4 
REMARK    3  A    between atoms: C4_4  and  C5_5 
REMARK    4  A    between atoms: C5_5  and  C6_6 
REMARK    5  A    between atoms: C6_6  and  C8_8 
REMARK    6  A    between atoms: C10_10  and  O1_11 
REMARK    7  A    between atoms: C23_24  and  O2_25 
REMARK    8  A    between atoms: C29_31  and  O3_32 
REMARK    9  A    between atoms: C30_33  and  O4_34 
ROOT
HETATM    1  C8  UNL     1       3.372  56.092  -7.757  1.00  0.00     0.001 C 
HETATM    2  C9  UNL     1       4.421  55.117  -8.354  1.00  0.00     0.038 C 
HETATM    3  C10 UNL     1       3.635  54.103  -9.218  1.00  0.00     0.132 C 
HETATM    4  C11 UNL     1       2.254  54.767  -9.450  1.00  0.00     0.016 C 
HETATM    5  C12 UNL     1       2.390  55.825 -10.596  1.00  0.00     0.023 C 
HETATM    6  C13 UNL     1       1.063  53.892  -9.837  1.00  0.00    -0.037 C 
HETATM    7  C14 UNL     1      -0.193  54.306  -9.518  1.00  0.00    -0.065 C 
HETATM    8  C15 UNL     1      -0.437  55.585  -8.702  1.00  0.00     0.036 C 
HETATM    9  C16 UNL     1       0.792  56.304  -8.100  1.00  0.00     0.015 C 
HETATM   10  C17 UNL     1       2.009  55.377  -8.022  1.00  0.00    -0.026 C 
HETATM   11  C18 UNL     1       1.721  54.316  -6.920  1.00  0.00     0.016 C 
HETATM   12  C19 UNL     1      -1.449  53.474  -9.906  1.00  0.00    -0.016 C 
HETATM   13  C20 UNL     1      -1.816  52.680  -8.635  1.00  0.00     0.020 C 
HETATM   14  C21 UNL     1      -2.597  54.407 -10.352  1.00  0.00     0.016 C 
HETATM   15  C22 UNL     1      -3.848  53.747 -10.928  1.00  0.00     0.033 C 
HETATM   16  C23 UNL     1      -3.739  52.272 -11.309  1.00  0.00     0.126 C 
HETATM   17  C24 UNL     1      -2.335  51.774 -11.769  1.00  0.00    -0.017 C 
HETATM   18  C25 UNL     1      -2.258  52.001 -13.307  1.00  0.00     0.018 C 
HETATM   19  C26 UNL     1      -2.244  50.243 -11.551  1.00  0.00     0.018 C 
HETATM   20  C27 UNL     1      -1.121  52.569 -11.135  1.00  0.00     0.011 C 
HETATM   21  C28 UNL     1       0.130  51.716 -10.844  1.00  0.00     0.043 C 
HETATM   22  C29 UNL     1       1.355  52.597 -10.566  1.00  0.00     0.148 C 
ENDROOT
BRANCH   1  23
HETATM   23  C6  UNL     1       3.648  56.660  -6.335  1.00  0.00    -0.013 C 
HETATM   24  C7  UNL     1       3.395  58.179  -6.345  1.00  0.00     0.010 C 
BRANCH  23  25
HETATM   25  C5  UNL     1       5.061  56.391  -5.769  1.00  0.00     0.008 C 
BRANCH  25  26
HETATM   26  C4  UNL     1       5.776  57.674  -5.325  1.00  0.00     0.028 C 
BRANCH  26  27
HETATM   27  C3  UNL     1       7.267  57.490  -5.295  1.00  0.00    -0.022 C 
HETATM   28  C2  UNL     1       8.207  58.414  -5.001  1.00  0.00    -0.064 C 
HETATM   29  C1  UNL     1       7.897  59.860  -4.713  1.00  0.00     0.045 C 
BRANCH  28  30
HETATM   30  C30 UNL     1       9.691  58.104  -4.971  1.00  0.00     0.197 C 
BRANCH  30  31
HETATM   31  O4  UNL     1      10.486  59.227  -5.328  1.00  0.00    -0.397 OA
HETATM   32  H50 UNL     1      10.201  59.489  -6.217  1.00  0.00     0.209 HD
ENDBRANCH  30  31
ENDBRANCH  28  30
ENDBRANCH  26  27
ENDBRANCH  25  26
ENDBRANCH  23  25
ENDBRANCH   1  23
BRANCH   3  33
HETATM   33  O1  UNL     1       4.317  53.812 -10.433  1.00  0.00    -0.394 OA
HETATM   34  H17 UNL     1       5.227  53.538 -10.194  1.00  0.00     0.210 HD
ENDBRANCH   3  33
BRANCH  22  35
HETATM   35  O3  UNL     1       1.950  52.902 -11.819  1.00  0.00    -0.391 OA
HETATM   36  H47 UNL     1       2.865  53.193 -11.637  1.00  0.00     0.210 HD
ENDBRANCH  22  35
BRANCH  16  37
HETATM   37  O2  UNL     1      -4.219  51.490 -10.209  1.00  0.00    -0.395 OA
HETATM   38  H36 UNL     1      -5.149  51.732 -10.053  1.00  0.00     0.210 HD
ENDBRANCH  16  37
TORSDOF 9
ENDMDL
MODEL 2
REMARK minimizedAffinity -7.68155718
REMARK CNNscore 0.762427092
REMARK CNNaffinity 7.34082651
REMARK  9 active torsions:
REMARK  status: ('A' for Active; 'I' for Inactive)
REMARK    1  A    between atoms: C2_2  and  C30_33 
REMARK    2  A    between atoms: C3_3  and  C4_4 
REMARK    3  A    between atoms: C4_4  and  C5_5 
REMARK    4  A    between atoms: C5_5  and  C6_6 
REMARK    5  A    between atoms: C6_6  and  C8_8 
REMARK    6  A    between atoms: C10_10  and  O1_11 
REMARK    7  A    between atoms: C23_24  and  O2_25 
REMARK    8  A    between atoms: C29_31  and  O3_32 
REMARK    9  A    between atoms: C30_33  and  O4_34 
ROOT
HETATM    1  C8  UNL     1      -2.021  51.921 -11.092  1.00  0.00     0.001 C 
HETATM    2  C9  UNL     1      -1.313  52.222 -12.439  1.00  0.00     0.038 C 
HETATM    3  C10 UNL     1      -0.103  53.127 -12.106  1.00  0.00     0.132 C 
HETATM    4  C11 UNL     1       0.107  52.960 -10.579  1.00  0.00     0.016 C 
HETATM    5  C12 UNL     1       0.880  51.623 -10.321  1.00  0.00     0.023 C 
HETATM    6  C13 UNL     1       0.876  54.035  -9.813  1.00  0.00    -0.037 C 
HETATM    7  C14 UNL     1       0.617  54.215  -8.489  1.00  0.00    -0.065 C 
HETATM    8  C15 UNL     1      -0.489  53.428  -7.770  1.00  0.00     0.036 C 
HETATM    9  C16 UNL     1      -1.423  52.545  -8.627  1.00  0.00     0.015 C 
HETATM   10  C17 UNL     1      -1.392  52.953 -10.104  1.00  0.00    -0.026 C 
HETATM   11  C18 UNL     1      -2.101  54.334 -10.223  1.00  0.00     0.016 C 
HETATM   12  C19 UNL     1       1.384  55.275  -7.645  1.00  0.00    -0.016 C 
HETATM   13  C20 UNL     1       0.448  56.500  -7.590  1.00  0.00     0.020 C 
HETATM   14  C21 UNL     1       1.690  54.721  -6.236  1.00  0.00     0.016 C 
HETATM   15  C22 UNL     1       2.587  55.569  -5.335  1.00  0.00     0.033 C 
HETATM   16  C23 UNL     1       3.352  56.711  -5.998  1.00  0.00     0.126 C 
HETATM   17  C24 UNL     1       3.749  56.509  -7.491  1.00  0.00    -0.017 C 
HETATM   18  C25 UNL     1       5.138  55.804  -7.497  1.00  0.00     0.018 C 
HETATM   19  C26 UNL     1       3.964  57.894  -8.151  1.00  0.00     0.018 C 
HETATM   20  C27 UNL     1       2.765  55.574  -8.307  1.00  0.00     0.011 C 
HETATM   21  C28 UNL     1       2.569  55.971  -9.783  1.00  0.00     0.043 C 
HETATM   22  C29 UNL     1       1.898  54.846 -10.581  1.00  0.00     0.148 C 
ENDROOT
BRANCH   1  23
HETATM   23  C6  UNL     1      -3.569  51.764 -11.115  1.00  0.00    -0.013 C 
HETATM   24  C7  UNL     1      -4.214  53.156 -10.981  1.00  0.00     0.010 C 
BRANCH  23  25
HETATM   25  C5  UNL     1      -4.165  50.830 -10.039  1.00  0.00     0.008 C 
BRANCH  25  26
HETATM   26  C4  UNL     1      -5.100  49.766 -10.629  1.00  0.00     0.028 C 
BRANCH  26  27
HETATM   27  C3  UNL     1      -6.506  49.932 -10.129  1.00  0.00    -0.022 C 
HETATM   28  C2  UNL     1      -7.181  49.127  -9.280  1.00  0.00    -0.064 C 
HETATM   29  C1  UNL     1      -6.626  47.839  -8.730  1.00  0.00     0.045 C 
BRANCH  28  30
HETATM   30  C30 UNL     1      -8.597  49.413  -8.817  1.00  0.00     0.197 C 
BRANCH  30  31
HETATM   31  O4  UNL     1      -8.636  49.984  -7.516  1.00  0.00    -0.397 OA
HETATM   32  H50 UNL     1      -8.197  49.349  -6.929  1.00  0.00     0.209 HD
ENDBRANCH  30  31
ENDBRANCH  28  30
ENDBRANCH  26  27
ENDBRANCH  25  26
ENDBRANCH  23  25
ENDBRANCH   1  23
BRANCH   3  33
HETATM   33  O1  UNL     1       1.046  52.764 -12.862  1.00  0.00    -0.394 OA
HETATM   34  H17 UNL     1       0.779  52.756 -13.805  1.00  0.00     0.210 HD
ENDBRANCH   3  33
BRANCH  22  35
HETATM   35  O3  UNL     1       2.926  53.976 -11.033  1.00  0.00    -0.391 OA
HETATM   36  H47 UNL     1       2.553  53.451 -11.768  1.00  0.00     0.210 HD
ENDBRANCH  22  35
BRANCH  16  37
HETATM   37  O2  UNL     1       2.590  57.913  -5.834  1.00  0.00    -0.395 OA
HETATM   38  H36 UNL     1       2.493  58.079  -4.880  1.00  0.00     0.210 HD
ENDBRANCH  16  37
TORSDOF 9
ENDMDL
MODEL 3
REMARK minimizedAffinity -7.11289549
REMARK CNNscore 0.617513895
REMARK CNNaffinity 6.14893961
REMARK  9 active torsions:
REMARK  status: ('A' for Active; 'I' for Inactive)
REMARK    1  A    between atoms: C2_2  and  C30_33 
REMARK    2  A    between atoms: C3_3  and  C4_4 
REMARK    3  A    between atoms: C4_4  and  C5_5 
REMARK    4  A    between atoms: C5_5  and  C6_6 
REMARK    5  A    between atoms: C6_6  and  C8_8 
REMARK    6  A    between atoms: C10_10  and  O1_11 
REMARK    7  A    between atoms: C23_24  and  O2_25 
REMARK    8  A    between atoms: C29_31  and  O3_32 
REMARK    9  A    between atoms: C30_33  and  O4_34 
ROOT
HETATM    1  C8  UNL     1      -8.546  47.443 -29.458  1.00  0.00     0.001 C 
HETATM    2  C9  UNL     1      -8.407  48.439 -28.277  1.00  0.00     0.038 C 
HETATM    3  C10 UNL     1      -9.580  48.142 -27.313  1.00  0.00     0.132 C 
HETATM    4  C11 UNL     1     -10.084  46.735 -27.725  1.00  0.00     0.016 C 
HETATM    5  C12 UNL     1      -9.136  45.657 -27.100  1.00  0.00     0.023 C 
HETATM    6  C13 UNL     1     -11.500  46.311 -27.340  1.00  0.00    -0.037 C 
HETATM    7  C14 UNL     1     -12.146  45.390 -28.107  1.00  0.00    -0.065 C 
HETATM    8  C15 UNL     1     -11.521  44.835 -29.396  1.00  0.00     0.036 C 
HETATM    9  C16 UNL     1     -10.209  45.478 -29.899  1.00  0.00     0.015 C 
HETATM   10  C17 UNL     1      -9.987  46.866 -29.289  1.00  0.00    -0.026 C 
HETATM   11  C18 UNL     1     -11.042  47.826 -29.912  1.00  0.00     0.016 C 
HETATM   12  C19 UNL     1     -13.579  44.896 -27.755  1.00  0.00    -0.016 C 
HETATM   13  C20 UNL     1     -14.523  45.723 -28.653  1.00  0.00     0.020 C 
HETATM   14  C21 UNL     1     -13.708  43.381 -28.026  1.00  0.00     0.016 C 
HETATM   15  C22 UNL     1     -14.999  42.700 -27.575  1.00  0.00     0.033 C 
HETATM   16  C23 UNL     1     -15.900  43.485 -26.625  1.00  0.00     0.126 C 
HETATM   17  C24 UNL     1     -15.193  44.487 -25.664  1.00  0.00    -0.017 C 
HETATM   18  C25 UNL     1     -14.820  43.692 -24.378  1.00  0.00     0.018 C 
HETATM   19  C26 UNL     1     -16.208  45.571 -25.224  1.00  0.00     0.018 C 
HETATM   20  C27 UNL     1     -13.841  45.090 -26.228  1.00  0.00     0.011 C 
HETATM   21  C28 UNL     1     -13.566  46.552 -25.827  1.00  0.00     0.043 C 
HETATM   22  C29 UNL     1     -12.110  46.946 -26.109  1.00  0.00     0.148 C 
ENDROOT
BRANCH   1  23
HETATM   23  C6  UNL     1      -8.104  47.935 -30.866  1.00  0.00    -0.013 C 
HETATM   24  C7  UNL     1      -8.512  49.411 -31.030  1.00  0.00     0.010 C 
BRANCH  23  25
HETATM   25  C5  UNL     1      -8.656  47.128 -32.063  1.00  0.00     0.008 C 
BRANCH  25  26
HETATM   26  C4  UNL     1      -7.570  46.314 -32.780  1.00  0.00     0.028 C 
BRANCH  26  27
HETATM   27  C3  UNL     1      -6.523  47.206 -33.383  1.00  0.00    -0.022 C 
HETATM   28  C2  UNL     1      -5.190  47.179 -33.166  1.00  0.00    -0.064 C 
HETATM   29  C1  UNL     1      -4.522  46.251 -32.185  1.00  0.00     0.045 C 
BRANCH  28  30
HETATM   30  C30 UNL     1      -4.219  48.115 -33.859  1.00  0.00     0.197 C 
BRANCH  30  31
HETATM   31  O4  UNL     1      -2.883  47.942 -33.406  1.00  0.00    -0.397 OA
HETATM   32  H50 UNL     1      -2.900  48.101 -32.449  1.00  0.00     0.209 HD
ENDBRANCH  30  31
ENDBRANCH  28  30
ENDBRANCH  26  27
ENDBRANCH  25  26
ENDBRANCH  23  25
ENDBRANCH   1  23
BRANCH   3  33
HETATM   33  O1  UNL     1      -9.167  48.201 -25.953  1.00  0.00    -0.394 OA
HETATM   34  H17 UNL     1      -8.730  49.069 -25.822  1.00  0.00     0.210 HD
ENDBRANCH   3  33
BRANCH  22  35
HETATM   35  O3  UNL     1     -11.343  46.572 -24.973  1.00  0.00    -0.391 OA
HETATM   36  H47 UNL     1     -10.507  47.075 -25.015  1.00  0.00     0.210 HD
ENDBRANCH  22  35
BRANCH  16  37
HETATM   37  O2  UNL     1     -16.899  44.151 -27.407  1.00  0.00    -0.395 OA
HETATM   38  H36 UNL     1     -17.413  43.473 -27.878  1.00  0.00     0.210 HD
ENDBRANCH  16  37
TORSDOF 9
ENDMDL
MODEL 4
REMARK minimizedAffinity -8.08435249
REMARK CNNscore 0.508387148
REMARK CNNaffinity 6.83487892
REMARK  9 active torsions:
REMARK  status: ('A' for Active; 'I' for Inactive)
REMARK    1  A    between atoms: C2_2  and  C30_33 
REMARK    2  A    between atoms: C3_3  and  C4_4 
REMARK    3  A    between atoms: C4_4  and  C5_5 
REMARK    4  A    between atoms: C5_5  and  C6_6 
REMARK    5  A    between atoms: C6_6  and  C8_8 
REMARK    6  A    between atoms: C10_10  and  O1_11 
REMARK    7  A    between atoms: C23_24  and  O2_25 
REMARK    8  A    between atoms: C29_31  and  O3_32 
REMARK    9  A    between atoms: C30_33  and  O4_34 
ROOT
HETATM    1  C8  UNL     1      -3.800  49.813 -23.633  1.00  0.00     0.001 C 
HETATM    2  C9  UNL     1      -4.314  48.970 -24.830  1.00  0.00     0.038 C 
HETATM    3  C10 UNL     1      -5.595  48.253 -24.343  1.00  0.00     0.132 C 
HETATM    4  C11 UNL     1      -6.022  49.026 -23.069  1.00  0.00     0.016 C 
HETATM    5  C12 UNL     1      -6.768  50.334 -23.499  1.00  0.00     0.023 C 
HETATM    6  C13 UNL     1      -6.939  48.343 -22.056  1.00  0.00    -0.037 C 
HETATM    7  C14 UNL     1      -6.886  48.726 -20.752  1.00  0.00    -0.065 C 
HETATM    8  C15 UNL     1      -5.866  49.765 -20.259  1.00  0.00     0.036 C 
HETATM    9  C16 UNL     1      -4.780  50.240 -21.250  1.00  0.00     0.015 C 
HETATM   10  C17 UNL     1      -4.610  49.262 -22.417  1.00  0.00    -0.026 C 
HETATM   11  C18 UNL     1      -3.948  47.971 -21.854  1.00  0.00     0.016 C 
HETATM   12  C19 UNL     1      -7.811  48.088 -19.676  1.00  0.00    -0.016 C 
HETATM   13  C20 UNL     1      -6.944  47.015 -18.984  1.00  0.00     0.020 C 
HETATM   14  C21 UNL     1      -8.299  49.164 -18.679  1.00  0.00     0.016 C 
HETATM   15  C22 UNL     1      -9.352  48.739 -17.657  1.00  0.00     0.033 C 
HETATM   16  C23 UNL     1     -10.058  47.408 -17.904  1.00  0.00     0.126 C 
HETATM   17  C24 UNL     1     -10.222  46.971 -19.391  1.00  0.00    -0.017 C 
HETATM   18  C25 UNL     1     -11.564  47.580 -19.894  1.00  0.00     0.018 C 
HETATM   19  C26 UNL     1     -10.394  45.433 -19.453  1.00  0.00     0.018 C 
HETATM   20  C27 UNL     1      -9.091  47.512 -20.359  1.00  0.00     0.011 C 
HETATM   21  C28 UNL     1      -8.696  46.550 -21.495  1.00  0.00     0.043 C 
HETATM   22  C29 UNL     1      -7.868  47.265 -22.572  1.00  0.00     0.148 C 
ENDROOT
BRANCH   1  23
HETATM   23  C6  UNL     1      -2.261  49.982 -23.484  1.00  0.00    -0.013 C 
HETATM   24  C7  UNL     1      -1.783  49.161 -22.272  1.00  0.00     0.010 C 
BRANCH  23  25
HETATM   25  C5  UNL     1      -1.757  51.435 -23.335  1.00  0.00     0.008 C 
BRANCH  25  26
HETATM   26  C4  UNL     1      -0.247  51.567 -23.572  1.00  0.00     0.028 C 
BRANCH  26  27
HETATM   27  C3  UNL     1       0.317  52.770 -22.871  1.00  0.00    -0.022 C 
HETATM   28  C2  UNL     1       0.613  52.897 -21.559  1.00  0.00    -0.064 C 
HETATM   29  C1  UNL     1       0.348  51.826 -20.534  1.00  0.00     0.045 C 
BRANCH  28  30
HETATM   30  C30 UNL     1       1.212  54.158 -20.964  1.00  0.00     0.197 C 
BRANCH  30  31
HETATM   31  O4  UNL     1       1.973  54.895 -21.912  1.00  0.00    -0.397 OA
HETATM   32  H50 UNL     1       2.666  54.294 -22.228  1.00  0.00     0.209 HD
ENDBRANCH  30  31
ENDBRANCH  28  30
ENDBRANCH  26  27
ENDBRANCH  25  26
ENDBRANCH  23  25
ENDBRANCH   1  23
BRANCH   3  33
HETATM   33  O1  UNL     1      -6.604  48.248 -25.346  1.00  0.00    -0.394 OA
HETATM   34  H17 UNL     1      -6.202  47.875 -26.158  1.00  0.00     0.210 HD
ENDBRANCH   3  33
BRANCH  22  35
HETATM   35  O3  UNL     1      -8.782  47.849 -23.489  1.00  0.00    -0.391 OA
HETATM   36  H47 UNL     1      -8.284  48.035 -24.309  1.00  0.00     0.210 HD
ENDBRANCH  22  35
BRANCH  16  37
HETATM   37  O2  UNL     1      -9.378  46.396 -17.151  1.00  0.00    -0.395 OA
HETATM   38  H36 UNL     1      -9.430  46.638 -16.209  1.00  0.00     0.210 HD
ENDBRANCH  16  37
TORSDOF 9
ENDMDL
MODEL 5
REMARK minimizedAffinity -8.53779793
REMARK CNNscore 0.489114881
REMARK CNNaffinity 6.80457497
REMARK  9 active torsions:
REMARK  status: ('A' for Active; 'I' for Inactive)
REMARK    1  A    between atoms: C2_2  and  C30_33 
REMARK    2  A    between atoms: C3_3  and  C4_4 
REMARK    3  A    between atoms: C4_4  and  C5_5 
REMARK    4  A    between atoms: C5_5  and  C6_6 
REMARK    5  A    between atoms: C6_6  and  C8_8 
REMARK    6  A    between atoms: C10_10  and  O1_11 
REMARK    7  A    between atoms: C23_24  and  O2_25 
REMARK    8  A    between atoms: C29_31  and  O3_32 
REMARK    9  A    between atoms: C30_33  and  O4_34 
ROOT
HETATM    1  C8  UNL     1      -3.102  51.209 -23.640  1.00  0.00     0.001 C 
HETATM    2  C9  UNL     1      -4.564  51.379 -24.133  1.00  0.00     0.038 C 
HETATM    3  C10 UNL     1      -5.422  50.391 -23.308  1.00  0.00     0.132 C 
HETATM    4  C11 UNL     1      -4.536  50.016 -22.093  1.00  0.00     0.016 C 
HETATM    5  C12 UNL     1      -4.620  51.165 -21.034  1.00  0.00     0.023 C 
HETATM    6  C13 UNL     1      -4.831  48.727 -21.327  1.00  0.00    -0.037 C 
HETATM    7  C14 UNL     1      -3.818  48.106 -20.665  1.00  0.00    -0.065 C 
HETATM    8  C15 UNL     1      -2.371  48.617 -20.742  1.00  0.00     0.036 C 
HETATM    9  C16 UNL     1      -2.060  49.760 -21.734  1.00  0.00     0.015 C 
HETATM   10  C17 UNL     1      -3.142  49.887 -22.811  1.00  0.00    -0.026 C 
HETATM   11  C18 UNL     1      -3.022  48.647 -23.745  1.00  0.00     0.016 C 
HETATM   12  C19 UNL     1      -4.057  46.805 -19.845  1.00  0.00    -0.016 C 
HETATM   13  C20 UNL     1      -3.624  45.654 -20.777  1.00  0.00     0.020 C 
HETATM   14  C21 UNL     1      -3.229  46.831 -18.540  1.00  0.00     0.016 C 
HETATM   15  C22 UNL     1      -3.476  45.706 -17.536  1.00  0.00     0.033 C 
HETATM   16  C23 UNL     1      -4.721  44.849 -17.750  1.00  0.00     0.126 C 
HETATM   17  C24 UNL     1      -5.940  45.547 -18.425  1.00  0.00    -0.017 C 
HETATM   18  C25 UNL     1      -6.784  46.184 -17.282  1.00  0.00     0.018 C 
HETATM   19  C26 UNL     1      -6.841  44.473 -19.082  1.00  0.00     0.018 C 
HETATM   20  C27 UNL     1      -5.554  46.726 -19.410  1.00  0.00     0.011 C 
HETATM   21  C28 UNL     1      -6.470  46.868 -20.641  1.00  0.00     0.043 C 
HETATM   22  C29 UNL     1      -6.254  48.213 -21.347  1.00  0.00     0.148 C 
ENDROOT
BRANCH   1  23
HETATM   23  C6  UNL     1      -1.967  51.394 -24.688  1.00  0.00    -0.013 C 
HETATM   24  C7  UNL     1      -2.048  50.254 -25.720  1.00  0.00     0.010 C 
BRANCH  23  25
HETATM   25  C5  UNL     1      -0.532  51.454 -24.118  1.00  0.00     0.008 C 
BRANCH  25  26
HETATM   26  C4  UNL     1       0.516  51.794 -25.186  1.00  0.00     0.028 C 
BRANCH  26  27
HETATM   27  C3  UNL     1       0.056  52.920 -26.068  1.00  0.00    -0.022 C 
HETATM   28  C2  UNL     1       0.075  52.972 -27.418  1.00  0.00    -0.064 C 
HETATM   29  C1  UNL     1       0.653  51.887 -28.288  1.00  0.00     0.045 C 
BRANCH  28  30
HETATM   30  C30 UNL     1      -0.448  54.156 -28.208  1.00  0.00     0.197 C 
BRANCH  30  31
HETATM   31  O4  UNL     1      -1.859  54.114 -28.375  1.00  0.00    -0.397 OA
HETATM   32  H50 UNL     1      -2.052  53.278 -28.828  1.00  0.00     0.209 HD
ENDBRANCH  30  31
ENDBRANCH  28  30
ENDBRANCH  26  27
ENDBRANCH  25  26
ENDBRANCH  23  25
ENDBRANCH   1  23
BRANCH   3  33
HETATM   33  O1  UNL     1      -6.663  50.971 -22.924  1.00  0.00    -0.394 OA
HETATM   34  H17 UNL     1      -7.087  51.310 -23.740  1.00  0.00     0.210 HD
ENDBRANCH   3  33
BRANCH  22  35
HETATM   35  O3  UNL     1      -7.094  49.165 -20.710  1.00  0.00    -0.391 OA
HETATM   36  H47 UNL     1      -7.188  49.918 -21.325  1.00  0.00     0.210 HD
ENDBRANCH  22  35
BRANCH  16  37
HETATM   37  O2  UNL     1      -4.337  43.680 -18.483  1.00  0.00    -0.395 OA
HETATM   38  H36 UNL     1      -3.679  43.196 -17.954  1.00  0.00     0.210 HD
ENDBRANCH  16  37
TORSDOF 9
ENDMDL
MODEL 6
REMARK minimizedAffinity -7.69347095
REMARK CNNscore 0.457853377
REMARK CNNaffinity 6.49453926
REMARK  9 active torsions:
REMARK  status: ('A' for Active; 'I' for Inactive)
REMARK    1  A    between atoms: C2_2  and  C30_33 
REMARK    2  A    between atoms: C3_3  and  C4_4 
REMARK    3  A    between atoms: C4_4  and  C5_5 
REMARK    4  A    between atoms: C5_5  and  C6_6 
REMARK    5  A    between atoms: C6_6  and  C8_8 
REMARK    6  A    between atoms: C10_10  and  O1_11 
REMARK    7  A    between atoms: C23_24  and  O2_25 
REMARK    8  A    between atoms: C29_31  and  O3_32 
REMARK    9  A    between atoms: C30_33  and  O4_34 
ROOT
HETATM    1  C8  UNL     1      -3.672  49.513 -23.459  1.00  0.00     0.001 C 
HETATM    2  C9  UNL     1      -4.256  48.807 -24.711  1.00  0.00     0.038 C 
HETATM    3  C10 UNL     1      -5.613  48.203 -24.280  1.00  0.00     0.132 C 
HETATM    4  C11 UNL     1      -5.972  48.935 -22.962  1.00  0.00     0.016 C 
HETATM    5  C12 UNL     1      -6.569  50.339 -23.312  1.00  0.00     0.023 C 
HETATM    6  C13 UNL     1      -6.970  48.291 -22.001  1.00  0.00    -0.037 C 
HETATM    7  C14 UNL     1      -6.894  48.584 -20.675  1.00  0.00    -0.065 C 
HETATM    8  C15 UNL     1      -5.777  49.474 -20.109  1.00  0.00     0.036 C 
HETATM    9  C16 UNL     1      -4.633  49.891 -21.060  1.00  0.00     0.015 C 
HETATM   10  C17 UNL     1      -4.552  48.977 -22.287  1.00  0.00    -0.026 C 
HETATM   11  C18 UNL     1      -4.039  47.589 -21.803  1.00  0.00     0.016 C 
HETATM   12  C19 UNL     1      -7.897  47.982 -19.648  1.00  0.00    -0.016 C 
HETATM   13  C20 UNL     1      -7.159  46.780 -19.020  1.00  0.00     0.020 C 
HETATM   14  C21 UNL     1      -8.281  49.038 -18.588  1.00  0.00     0.016 C 
HETATM   15  C22 UNL     1      -9.387  48.665 -17.603  1.00  0.00     0.033 C 
HETATM   16  C23 UNL     1     -10.227  47.436 -17.939  1.00  0.00     0.126 C 
HETATM   17  C24 UNL     1     -10.417  47.114 -19.452  1.00  0.00    -0.017 C 
HETATM   18  C25 UNL     1     -11.679  47.893 -19.924  1.00  0.00     0.018 C 
HETATM   19  C26 UNL     1     -10.751  45.610 -19.613  1.00  0.00     0.018 C 
HETATM   20  C27 UNL     1      -9.221  47.590 -20.375  1.00  0.00     0.011 C 
HETATM   21  C28 UNL     1      -8.916  46.665 -21.568  1.00  0.00     0.043 C 
HETATM   22  C29 UNL     1      -8.002  47.354 -22.591  1.00  0.00     0.148 C 
ENDROOT
BRANCH   1  23
HETATM   23  C6  UNL     1      -2.125  49.507 -23.289  1.00  0.00    -0.013 C 
HETATM   24  C7  UNL     1      -1.779  48.967 -21.889  1.00  0.00     0.010 C 
BRANCH  23  25
HETATM   25  C5  UNL     1      -1.422  50.868 -23.490  1.00  0.00     0.008 C 
BRANCH  25  26
HETATM   26  C4  UNL     1      -2.355  51.937 -24.073  1.00  0.00     0.028 C 
BRANCH  26  27
HETATM   27  C3  UNL     1      -1.720  52.644 -25.237  1.00  0.00    -0.022 C 
HETATM   28  C2  UNL     1      -1.583  52.194 -26.502  1.00  0.00    -0.064 C 
HETATM   29  C1  UNL     1      -2.004  50.818 -26.950  1.00  0.00     0.045 C 
BRANCH  28  30
HETATM   30  C30 UNL     1      -0.947  53.013 -27.609  1.00  0.00     0.197 C 
BRANCH  30  31
HETATM   31  O4  UNL     1      -1.866  53.918 -28.208  1.00  0.00    -0.397 OA
HETATM   32  H50 UNL     1      -2.595  53.376 -28.548  1.00  0.00     0.209 HD
ENDBRANCH  30  31
ENDBRANCH  28  30
ENDBRANCH  26  27
ENDBRANCH  25  26
ENDBRANCH  23  25
ENDBRANCH   1  23
BRANCH   3  33
HETATM   33  O1  UNL     1      -6.603  48.369 -25.288  1.00  0.00    -0.394 OA
HETATM   34  H17 UNL     1      -6.232  48.007 -26.120  1.00  0.00     0.210 HD
ENDBRANCH   3  33
BRANCH  22  35
HETATM   35  O3  UNL     1      -8.836  48.089 -23.476  1.00  0.00    -0.391 OA
HETATM   36  H47 UNL     1      -8.310  48.272 -24.278  1.00  0.00     0.210 HD
ENDBRANCH  22  35
BRANCH  16  37
HETATM   37  O2  UNL     1      -9.670  46.311 -17.247  1.00  0.00    -0.395 OA
HETATM   38  H36 UNL     1      -9.708  46.498 -16.293  1.00  0.00     0.210 HD
ENDBRANCH  16  37
TORSDOF 9
ENDMDL
MODEL 7
REMARK minimizedAffinity -7.5095892
REMARK CNNscore 0.432074487
REMARK CNNaffinity 6.15790129
REMARK  9 active torsions:
REMARK  status: ('A' for Active; 'I' for Inactive)
REMARK    1  A    between atoms: C2_2  and  C30_33 
REMARK    2  A    between atoms: C3_3  and  C4_4 
REMARK    3  A    between atoms: C4_4  and  C5_5 
REMARK    4  A    between atoms: C5_5  and  C6_6 
REMARK    5  A    between atoms: C6_6  and  C8_8 
REMARK    6  A    between atoms: C10_10  and  O1_11 
REMARK    7  A    between atoms: C23_24  and  O2_25 
REMARK    8  A    between atoms: C29_31  and  O3_32 
REMARK    9  A    between atoms: C30_33  and  O4_34 
ROOT
HETATM    1  C8  UNL     1      -9.655  44.687 -33.999  1.00  0.00     0.001 C 
HETATM    2  C9  UNL     1      -8.269  43.990 -33.995  1.00  0.00     0.038 C 
HETATM    3  C10 UNL     1      -7.652  44.249 -32.600  1.00  0.00     0.132 C 
HETATM    4  C11 UNL     1      -8.846  44.689 -31.715  1.00  0.00     0.016 C 
HETATM    5  C12 UNL     1      -9.636  43.415 -31.265  1.00  0.00     0.023 C 
HETATM    6  C13 UNL     1      -8.572  45.478 -30.435  1.00  0.00    -0.037 C 
HETATM    7  C14 UNL     1      -9.530  46.318 -29.959  1.00  0.00    -0.065 C 
HETATM    8  C15 UNL     1     -10.842  46.560 -30.722  1.00  0.00     0.036 C 
HETATM    9  C16 UNL     1     -10.977  45.956 -32.139  1.00  0.00     0.015 C 
HETATM   10  C17 UNL     1      -9.611  45.606 -32.738  1.00  0.00    -0.026 C 
HETATM   11  C18 UNL     1      -8.883  46.945 -33.057  1.00  0.00     0.016 C 
HETATM   12  C19 UNL     1      -9.325  47.130 -28.648  1.00  0.00    -0.016 C 
HETATM   13  C20 UNL     1      -8.883  48.535 -29.108  1.00  0.00     0.020 C 
HETATM   14  C21 UNL     1     -10.637  47.179 -27.833  1.00  0.00     0.016 C 
HETATM   15  C22 UNL     1     -10.566  47.792 -26.436  1.00  0.00     0.033 C 
HETATM   16  C23 UNL     1      -9.176  48.008 -25.844  1.00  0.00     0.126 C 
HETATM   17  C24 UNL     1      -8.065  47.011 -26.293  1.00  0.00    -0.017 C 
HETATM   18  C25 UNL     1      -8.112  45.809 -25.304  1.00  0.00     0.018 C 
HETATM   19  C26 UNL     1      -6.679  47.676 -26.103  1.00  0.00     0.018 C 
HETATM   20  C27 UNL     1      -8.276  46.410 -27.743  1.00  0.00     0.011 C 
HETATM   21  C28 UNL     1      -6.978  46.161 -28.536  1.00  0.00     0.043 C 
HETATM   22  C29 UNL     1      -7.232  45.273 -29.762  1.00  0.00     0.148 C 
ENDROOT
BRANCH   1  23
HETATM   23  C6  UNL     1     -10.147  45.295 -35.344  1.00  0.00    -0.013 C 
HETATM   24  C7  UNL     1      -9.032  46.181 -35.929  1.00  0.00     0.010 C 
BRANCH  23  25
HETATM   25  C5  UNL     1     -11.453  46.116 -35.271  1.00  0.00     0.008 C 
BRANCH  25  26
HETATM   26  C4  UNL     1     -12.233  46.109 -36.593  1.00  0.00     0.028 C 
BRANCH  26  27
HETATM   27  C3  UNL     1     -11.934  47.331 -37.414  1.00  0.00    -0.022 C 
HETATM   28  C2  UNL     1     -12.813  48.234 -37.900  1.00  0.00    -0.064 C 
HETATM   29  C1  UNL     1     -14.306  48.115 -37.745  1.00  0.00     0.045 C 
BRANCH  28  30
HETATM   30  C30 UNL     1     -12.390  49.455 -38.695  1.00  0.00     0.197 C 
BRANCH  30  31
HETATM   31  O4  UNL     1     -13.493  50.281 -39.045  1.00  0.00    -0.397 OA
HETATM   32  H50 UNL     1     -14.098  49.721 -39.557  1.00  0.00     0.209 HD
ENDBRANCH  30  31
ENDBRANCH  28  30
ENDBRANCH  26  27
ENDBRANCH  25  26
ENDBRANCH  23  25
ENDBRANCH   1  23
BRANCH   3  33
HETATM   33  O1  UNL     1      -6.992  43.093 -32.097  1.00  0.00    -0.394 OA
HETATM   34  H17 UNL     1      -6.358  42.802 -32.785  1.00  0.00     0.210 HD
ENDBRANCH   3  33
BRANCH  22  35
HETATM   35  O3  UNL     1      -7.138  43.922 -29.333  1.00  0.00    -0.391 OA
HETATM   36  H47 UNL     1      -6.999  43.378 -30.132  1.00  0.00     0.210 HD
ENDBRANCH  22  35
BRANCH  16  37
HETATM   37  O2  UNL     1      -8.782  49.359 -26.111  1.00  0.00    -0.395 OA
HETATM   38  H36 UNL     1      -9.427  49.950 -25.685  1.00  0.00     0.210 HD
ENDBRANCH  16  37
TORSDOF 9
ENDMDL
MODEL 8
REMARK minimizedAffinity -7.5348649
REMARK CNNscore 0.426346689
REMARK CNNaffinity 6.31586981
REMARK  9 active torsions:
REMARK  status: ('A' for Active; 'I' for Inactive)
REMARK    1  A    between atoms: C2_2  and  C30_33 
REMARK    2  A    between atoms: C3_3  and  C4_4 
REMARK    3  A    between atoms: C4_4  and  C5_5 
REMARK    4  A    between atoms: C5_5  and  C6_6 
REMARK    5  A    between atoms: C6_6  and  C8_8 
REMARK    6  A    between atoms: C10_10  and  O1_11 
REMARK    7  A    between atoms: C23_24  and  O2_25 
REMARK    8  A    between atoms: C29_31  and  O3_32 
REMARK    9  A    between atoms: C30_33  and  O4_34 
ROOT
HETATM    1  C8  UNL     1      -8.309  47.189 -24.653  1.00  0.00     0.001 C 
HETATM    2  C9  UNL     1      -8.954  48.591 -24.819  1.00  0.00     0.038 C 
HETATM    3  C10 UNL     1      -9.294  48.743 -26.320  1.00  0.00     0.132 C 
HETATM    4  C11 UNL     1      -9.251  47.299 -26.883  1.00  0.00     0.016 C 
HETATM    5  C12 UNL     1     -10.593  46.578 -26.526  1.00  0.00     0.023 C 
HETATM    6  C13 UNL     1      -9.059  47.092 -28.385  1.00  0.00    -0.037 C 
HETATM    7  C14 UNL     1      -8.485  45.941 -28.826  1.00  0.00    -0.065 C 
HETATM    8  C15 UNL     1      -7.944  44.885 -27.849  1.00  0.00     0.036 C 
HETATM    9  C16 UNL     1      -7.911  45.240 -26.345  1.00  0.00     0.015 C 
HETATM   10  C17 UNL     1      -7.990  46.753 -26.118  1.00  0.00    -0.026 C 
HETATM   11  C18 UNL     1      -6.642  47.370 -26.595  1.00  0.00     0.016 C 
HETATM   12  C19 UNL     1      -8.285  45.657 -30.343  1.00  0.00    -0.016 C 
HETATM   13  C20 UNL     1      -6.817  46.035 -30.634  1.00  0.00     0.020 C 
HETATM   14  C21 UNL     1      -8.569  44.171 -30.655  1.00  0.00     0.016 C 
HETATM   15  C22 UNL     1      -8.585  43.759 -32.126  1.00  0.00     0.033 C 
HETATM   16  C23 UNL     1      -8.638  44.882 -33.158  1.00  0.00     0.126 C 
HETATM   17  C24 UNL     1      -9.368  46.190 -32.728  1.00  0.00    -0.017 C 
HETATM   18  C25 UNL     1     -10.870  46.011 -33.097  1.00  0.00     0.018 C 
HETATM   19  C26 UNL     1      -8.847  47.369 -33.587  1.00  0.00     0.018 C 
HETATM   20  C27 UNL     1      -9.318  46.483 -31.172  1.00  0.00     0.011 C 
HETATM   21  C28 UNL     1      -9.226  47.974 -30.796  1.00  0.00     0.043 C 
HETATM   22  C29 UNL     1      -9.530  48.196 -29.308  1.00  0.00     0.148 C 
ENDROOT
BRANCH   1  23
HETATM   23  C6  UNL     1      -7.200  47.034 -23.574  1.00  0.00    -0.013 C 
HETATM   24  C7  UNL     1      -7.716  46.109 -22.456  1.00  0.00     0.010 C 
BRANCH  23  25
HETATM   25  C5  UNL     1      -6.690  48.348 -22.941  1.00  0.00     0.008 C 
BRANCH  25  26
HETATM   26  C4  UNL     1      -5.258  48.696 -23.369  1.00  0.00     0.028 C 
BRANCH  26  27
HETATM   27  C3  UNL     1      -4.249  47.843 -22.656  1.00  0.00    -0.022 C 
HETATM   28  C2  UNL     1      -2.964  48.146 -22.372  1.00  0.00    -0.064 C 
HETATM   29  C1  UNL     1      -2.290  49.422 -22.807  1.00  0.00     0.045 C 
BRANCH  28  30
HETATM   30  C30 UNL     1      -2.040  47.212 -21.614  1.00  0.00     0.197 C 
BRANCH  30  31
HETATM   31  O4  UNL     1      -0.910  47.887 -21.077  1.00  0.00    -0.397 OA
HETATM   32  H50 UNL     1      -0.455  48.293 -21.832  1.00  0.00     0.209 HD
ENDBRANCH  30  31
ENDBRANCH  28  30
ENDBRANCH  26  27
ENDBRANCH  25  26
ENDBRANCH  23  25
ENDBRANCH   1  23
BRANCH   3  33
HETATM   33  O1  UNL     1     -10.558  49.369 -26.509  1.00  0.00    -0.394 OA
HETATM   34  H17 UNL     1     -10.544  50.205 -25.999  1.00  0.00     0.210 HD
ENDBRANCH   3  33
BRANCH  22  35
HETATM   35  O3  UNL     1     -10.938  48.331 -29.179  1.00  0.00    -0.391 OA
HETATM   36  H47 UNL     1     -11.106  48.761 -28.318  1.00  0.00     0.210 HD
ENDBRANCH  22  35
BRANCH  16  37
HETATM   37  O2  UNL     1      -7.298  45.165 -33.580  1.00  0.00    -0.395 OA
HETATM   38  H36 UNL     1      -6.933  44.355 -33.978  1.00  0.00     0.210 HD
ENDBRANCH  16  37
TORSDOF 9
ENDMDL
MODEL 9
REMARK minimizedAffinity -8.43743038
REMARK CNNscore 0.418528795
REMARK CNNaffinity 6.77792883
REMARK  9 active torsions:
REMARK  status: ('A' for Active; 'I' for Inactive)
REMARK    1  A    between atoms: C2_2  and  C30_33 
REMARK    2  A    between atoms: C3_3  and  C4_4 
REMARK    3  A    between atoms: C4_4  and  C5_5 
REMARK    4  A    between atoms: C5_5  and  C6_6 
REMARK    5  A    between atoms: C6_6  and  C8_8 
REMARK    6  A    between atoms: C10_10  and  O1_11 
REMARK    7  A    between atoms: C23_24  and  O2_25 
REMARK    8  A    between atoms: C29_31  and  O3_32 
REMARK    9  A    between atoms: C30_33  and  O4_34 
ROOT
HETATM    1  C8  UNL     1      -0.514  51.166 -20.436  1.00  0.00     0.001 C 
HETATM    2  C9  UNL     1      -1.157  52.033 -19.321  1.00  0.00     0.038 C 
HETATM    3  C10 UNL     1      -2.463  51.317 -18.907  1.00  0.00     0.132 C 
HETATM    4  C11 UNL     1      -2.316  49.875 -19.456  1.00  0.00     0.016 C 
HETATM    5  C12 UNL     1      -1.410  49.054 -18.478  1.00  0.00     0.023 C 
HETATM    6  C13 UNL     1      -3.569  49.027 -19.666  1.00  0.00    -0.037 C 
HETATM    7  C14 UNL     1      -3.552  48.045 -20.607  1.00  0.00    -0.065 C 
HETATM    8  C15 UNL     1      -2.337  47.827 -21.523  1.00  0.00     0.036 C 
HETATM    9  C16 UNL     1      -1.194  48.865 -21.467  1.00  0.00     0.015 C 
HETATM   10  C17 UNL     1      -1.658  50.188 -20.850  1.00  0.00    -0.026 C 
HETATM   11  C18 UNL     1      -2.622  50.867 -21.867  1.00  0.00     0.016 C 
HETATM   12  C19 UNL     1      -4.786  47.129 -20.854  1.00  0.00    -0.016 C 
HETATM   13  C20 UNL     1      -5.505  47.740 -22.074  1.00  0.00     0.020 C 
HETATM   14  C21 UNL     1      -4.334  45.676 -21.120  1.00  0.00     0.016 C 
HETATM   15  C22 UNL     1      -5.427  44.613 -21.214  1.00  0.00     0.033 C 
HETATM   16  C23 UNL     1      -6.819  45.007 -20.726  1.00  0.00     0.126 C 
HETATM   17  C24 UNL     1      -6.883  46.065 -19.584  1.00  0.00    -0.017 C 
HETATM   18  C25 UNL     1      -6.822  45.281 -18.240  1.00  0.00     0.018 C 
HETATM   19  C26 UNL     1      -8.265  46.763 -19.615  1.00  0.00     0.018 C 
HETATM   20  C27 UNL     1      -5.670  47.083 -19.567  1.00  0.00     0.011 C 
HETATM   21  C28 UNL     1      -6.030  48.513 -19.121  1.00  0.00     0.043 C 
HETATM   22  C29 UNL     1      -4.772  49.332 -18.800  1.00  0.00     0.148 C 
ENDROOT
BRANCH   1  23
HETATM   23  C6  UNL     1       0.272  51.906 -21.556  1.00  0.00    -0.013 C 
HETATM   24  C7  UNL     1       0.920  53.169 -20.961  1.00  0.00     0.010 C 
BRANCH  23  25
HETATM   25  C5  UNL     1      -0.552  52.305 -22.802  1.00  0.00     0.008 C 
BRANCH  25  26
HETATM   26  C4  UNL     1       0.120  51.885 -24.116  1.00  0.00     0.028 C 
BRANCH  26  27
HETATM   27  C3  UNL     1      -0.714  52.270 -25.305  1.00  0.00    -0.022 C 
HETATM   28  C2  UNL     1      -1.678  51.541 -25.908  1.00  0.00    -0.064 C 
HETATM   29  C1  UNL     1      -2.038  50.135 -25.505  1.00  0.00     0.045 C 
BRANCH  28  30
HETATM   30  C30 UNL     1      -2.480  52.047 -27.091  1.00  0.00     0.197 C 
BRANCH  30  31
HETATM   31  O4  UNL     1      -2.182  53.400 -27.409  1.00  0.00    -0.397 OA
HETATM   32  H50 UNL     1      -2.375  53.914 -26.609  1.00  0.00     0.209 HD
ENDBRANCH  30  31
ENDBRANCH  28  30
ENDBRANCH  26  27
ENDBRANCH  25  26
ENDBRANCH  23  25
ENDBRANCH   1  23
BRANCH   3  33
HETATM   33  O1  UNL     1      -2.654  51.351 -17.497  1.00  0.00    -0.394 OA
HETATM   34  H17 UNL     1      -2.588  52.289 -17.220  1.00  0.00     0.210 HD
ENDBRANCH   3  33
BRANCH  22  35
HETATM   35  O3  UNL     1      -4.437  49.078 -17.444  1.00  0.00    -0.391 OA
HETATM   36  H47 UNL     1      -3.846  49.800 -17.156  1.00  0.00     0.210 HD
ENDBRANCH  22  35
BRANCH  16  37
HETATM   37  O2  UNL     1      -7.583  45.438 -21.859  1.00  0.00    -0.395 OA
HETATM   38  H36 UNL     1      -7.640  44.693 -22.483  1.00  0.00     0.210 HD
ENDBRANCH  16  37
TORSDOF 9
ENDMDL
