MODEL 1
REMARK minimizedAffinity -7.81325006
REMARK  14 active torsions:
REMARK  status: ('A' for Active; 'I' for Inactive)
REMARK    1  A    between atoms: C2_2  and  C3_3 
REMARK    2  A    between atoms: C2_2  and  C27_31 
REMARK    3  A    between atoms: C4_4  and  C5_5 
REMARK    4  A    between atoms: C6_6  and  C7_7 
REMARK    5  A    between atoms: C6_6  and  C9_9 
REMARK    6  A    between atoms: C13_13  and  O1_14 
REMARK    7  A    between atoms: C15_16  and  C16_17 
REMARK    8  A    between atoms: C16_17  and  C17_18 
REMARK    9  A    between atoms: C17_18  and  C18_19 
REMARK   10  A    between atoms: C18_19  and  O2_20 
REMARK   11  A    between atoms: C20_22  and  C22_24 
REMARK   12  A    between atoms: C25_28  and  O4_30 
REMARK   13  A    between atoms: C27_31  and  C28_32 
REMARK   14  A    between atoms: C28_32  and  C29_33 
ROOT
HETATM    1  C9  UNL     1      -2.106   6.499  13.953  1.00  0.00     0.044 C 
HETATM    2  C10 UNL     1      -1.256   5.274  14.321  1.00  0.00     0.013 C 
HETATM    3  C11 UNL     1       0.176   5.699  14.082  1.00  0.00     0.017 C 
HETATM    4  C12 UNL     1       0.171   6.630  12.837  1.00  0.00     0.025 C 
HETATM    5  C13 UNL     1      -1.191   7.421  13.060  1.00  0.00     0.141 C 
HETATM    6  C15 UNL     1       1.575   7.418  12.835  1.00  0.00     0.029 C 
HETATM    7  C19 UNL     1       2.040   7.800  11.413  1.00  0.00    -0.066 C 
HETATM    8  C20 UNL     1       3.325   7.721  10.976  1.00  0.00    -0.021 C 
HETATM    9  C21 UNL     1       4.515   7.246  11.774  1.00  0.00     0.052 C 
HETATM   10  C23 UNL     1       0.855   8.115  10.539  1.00  0.00     0.038 C 
HETATM   11  C24 UNL     1       0.099   6.817  10.255  1.00  0.00     0.042 C 
HETATM   12  C25 UNL     1       0.047   5.832  11.462  1.00  0.00     0.065 C 
HETATM   13  C26 UNL     1       1.096   4.714  11.302  1.00  0.00     0.047 C 
ENDROOT
BRANCH   5  14
HETATM   14  O1  UNL     1      -1.016   8.714  13.627  1.00  0.00    -0.389 OA
HETATM   15  C14 UNL     1      -1.727   9.735  12.934  1.00  0.00     0.202 C 
ENDBRANCH   5  14
BRANCH   6  16
HETATM   16  C16 UNL     1       1.655   8.634  13.795  1.00  0.00     0.012 C 
BRANCH  16  17
HETATM   17  C17 UNL     1       2.857   8.647  14.748  1.00  0.00     0.027 C 
BRANCH  17  18
HETATM   18  C18 UNL     1       2.628   7.769  15.979  1.00  0.00     0.164 C 
BRANCH  18  19
HETATM   19  O2  UNL     1       3.177   6.472  15.792  1.00  0.00    -0.401 OA
HETATM   20  H27 UNL     1       4.145   6.561  15.802  1.00  0.00     0.209 HD
ENDBRANCH  18  19
ENDBRANCH  17  18
ENDBRANCH  16  17
ENDBRANCH   6  16
BRANCH  12  21
HETATM   21  O4  UNL     1      -1.224   5.167  11.368  1.00  0.00    -0.389 OA
HETATM   22  H39 UNL     1      -1.257   4.691  10.522  1.00  0.00     0.210 HD
ENDBRANCH  12  21
BRANCH   1  23
HETATM   23  C6  UNL     1      -2.792   7.135  15.177  1.00  0.00    -0.074 C 
HETATM   24  C5  UNL     1      -4.125   7.079  15.404  1.00  0.00     0.003 C 
BRANCH  24  25
HETATM   25  C4  UNL     1      -5.150   6.496  14.558  1.00  0.00     0.001 C 
HETATM   26  C3  UNL     1      -6.379   6.202  15.017  1.00  0.00     0.006 C 
BRANCH  26  27
HETATM   27  C2  UNL     1      -7.485   5.626  14.249  1.00  0.00    -0.067 C 
HETATM   28  C1  UNL     1      -8.531   6.418  13.952  1.00  0.00     0.019 C 
BRANCH  27  29
HETATM   29  C27 UNL     1      -7.384   4.166  13.829  1.00  0.00     0.041 C 
BRANCH  29  30
HETATM   30  C28 UNL     1      -7.028   3.880  12.362  1.00  0.00     0.032 C 
BRANCH  30  31
HETATM   31  C29 UNL     1      -5.564   3.567  12.203  1.00  0.00    -0.024 C 
HETATM   32  C30 UNL     1      -5.010   2.431  11.737  1.00  0.00    -0.091 C 
HETATM   33  C31 UNL     1      -3.513   2.269  11.690  1.00  0.00     0.042 C 
HETATM   34  C32 UNL     1      -5.779   1.243  11.224  1.00  0.00     0.042 C 
ENDBRANCH  30  31
ENDBRANCH  29  30
ENDBRANCH  27  29
ENDBRANCH  26  27
ENDBRANCH  24  25
BRANCH  23  35
HETATM   35  C7  UNL     1      -1.854   7.830  16.166  1.00  0.00     0.030 C 
HETATM   36  C8  UNL     1      -2.389   9.054  16.905  1.00  0.00     0.010 C 
ENDBRANCH  23  35
ENDBRANCH   1  23
BRANCH   8  37
HETATM   37  C22 UNL     1       3.716   8.077   9.571  1.00  0.00     0.265 C 
HETATM   38  O3  UNL     1       3.578   7.304   8.628  1.00  0.00    -0.302 OA
ENDBRANCH   8  37
TORSDOF 14
ENDMDL
MODEL 2
REMARK minimizedAffinity -7.78951931
REMARK  14 active torsions:
REMARK  status: ('A' for Active; 'I' for Inactive)
REMARK    1  A    between atoms: C2_2  and  C3_3 
REMARK    2  A    between atoms: C2_2  and  C27_31 
REMARK    3  A    between atoms: C4_4  and  C5_5 
REMARK    4  A    between atoms: C6_6  and  C7_7 
REMARK    5  A    between atoms: C6_6  and  C9_9 
REMARK    6  A    between atoms: C13_13  and  O1_14 
REMARK    7  A    between atoms: C15_16  and  C16_17 
REMARK    8  A    between atoms: C16_17  and  C17_18 
REMARK    9  A    between atoms: C17_18  and  C18_19 
REMARK   10  A    between atoms: C18_19  and  O2_20 
REMARK   11  A    between atoms: C20_22  and  C22_24 
REMARK   12  A    between atoms: C25_28  and  O4_30 
REMARK   13  A    between atoms: C27_31  and  C28_32 
REMARK   14  A    between atoms: C28_32  and  C29_33 
ROOT
HETATM    1  C9  UNL     1      -1.058   5.599  12.940  1.00  0.00     0.044 C 
HETATM    2  C10 UNL     1      -0.967   5.266  14.436  1.00  0.00     0.013 C 
HETATM    3  C11 UNL     1      -2.402   5.209  14.917  1.00  0.00     0.017 C 
HETATM    4  C12 UNL     1      -3.185   6.301  14.136  1.00  0.00     0.025 C 
HETATM    5  C13 UNL     1      -2.497   6.198  12.706  1.00  0.00     0.141 C 
HETATM    6  C15 UNL     1      -4.751   5.966  14.308  1.00  0.00     0.029 C 
HETATM    7  C19 UNL     1      -5.638   7.229  14.244  1.00  0.00    -0.066 C 
HETATM    8  C20 UNL     1      -6.712   7.457  15.047  1.00  0.00    -0.021 C 
HETATM    9  C21 UNL     1      -7.224   6.547  16.136  1.00  0.00     0.052 C 
HETATM   10  C23 UNL     1      -5.055   8.234  13.286  1.00  0.00     0.038 C 
HETATM   11  C24 UNL     1      -3.778   8.810  13.901  1.00  0.00     0.042 C 
HETATM   12  C25 UNL     1      -2.926   7.772  14.692  1.00  0.00     0.065 C 
HETATM   13  C26 UNL     1      -3.167   7.909  16.209  1.00  0.00     0.047 C 
ENDROOT
BRANCH   5  14
HETATM   14  O1  UNL     1      -3.246   5.440  11.762  1.00  0.00    -0.389 OA
HETATM   15  C14 UNL     1      -3.596   4.142  12.232  1.00  0.00     0.202 C 
ENDBRANCH   5  14
BRANCH   6  16
HETATM   16  C16 UNL     1      -5.298   4.851  13.379  1.00  0.00     0.012 C 
BRANCH  16  17
HETATM   17  C17 UNL     1      -6.607   4.193  13.834  1.00  0.00     0.027 C 
BRANCH  17  18
HETATM   18  C18 UNL     1      -7.678   4.222  12.744  1.00  0.00     0.164 C 
BRANCH  18  19
HETATM   19  O2  UNL     1      -8.664   3.223  12.968  1.00  0.00    -0.401 OA
HETATM   20  H27 UNL     1      -9.180   3.493  13.747  1.00  0.00     0.209 HD
ENDBRANCH  18  19
ENDBRANCH  17  18
ENDBRANCH  16  17
ENDBRANCH   6  16
BRANCH  12  21
HETATM   21  O4  UNL     1      -1.557   8.161  14.495  1.00  0.00    -0.389 OA
HETATM   22  H39 UNL     1      -1.441   9.058  14.851  1.00  0.00     0.210 HD
ENDBRANCH  12  21
BRANCH   1  23
HETATM   23  C6  UNL     1      -0.610   4.429  12.043  1.00  0.00    -0.074 C 
HETATM   24  C5  UNL     1       0.572   4.397  11.386  1.00  0.00     0.003 C 
BRANCH  24  25
HETATM   25  C4  UNL     1       1.592   5.427  11.334  1.00  0.00     0.001 C 
HETATM   26  C3  UNL     1       1.326   6.716  11.614  1.00  0.00     0.006 C 
BRANCH  26  27
HETATM   27  C2  UNL     1       2.280   7.827  11.603  1.00  0.00    -0.067 C 
HETATM   28  C1  UNL     1       2.007   8.904  12.363  1.00  0.00     0.019 C 
BRANCH  27  29
HETATM   29  C27 UNL     1       3.524   7.698  10.736  1.00  0.00     0.041 C 
BRANCH  29  30
HETATM   30  C28 UNL     1       3.629   8.624   9.514  1.00  0.00     0.032 C 
BRANCH  30  31
HETATM   31  C29 UNL     1       3.197   7.920   8.254  1.00  0.00    -0.024 C 
HETATM   32  C30 UNL     1       1.945   7.781   7.776  1.00  0.00    -0.091 C 
HETATM   33  C31 UNL     1       1.686   6.999   6.515  1.00  0.00     0.042 C 
HETATM   34  C32 UNL     1       0.711   8.366   8.408  1.00  0.00     0.042 C 
ENDBRANCH  30  31
ENDBRANCH  29  30
ENDBRANCH  27  29
ENDBRANCH  26  27
ENDBRANCH  24  25
BRANCH  23  35
HETATM   35  C7  UNL     1      -1.592   3.258  11.955  1.00  0.00     0.030 C 
HETATM   36  C8  UNL     1      -1.153   2.027  11.167  1.00  0.00     0.010 C 
ENDBRANCH  23  35
ENDBRANCH   1  23
BRANCH   8  37
HETATM   37  C22 UNL     1      -7.521   8.718  14.961  1.00  0.00     0.265 C 
HETATM   38  O3  UNL     1      -8.583   8.866  15.559  1.00  0.00    -0.302 OA
ENDBRANCH   8  37
TORSDOF 14
ENDMDL
MODEL 3
REMARK minimizedAffinity -7.76273298
REMARK  14 active torsions:
REMARK  status: ('A' for Active; 'I' for Inactive)
REMARK    1  A    between atoms: C2_2  and  C3_3 
REMARK    2  A    between atoms: C2_2  and  C27_31 
REMARK    3  A    between atoms: C4_4  and  C5_5 
REMARK    4  A    between atoms: C6_6  and  C7_7 
REMARK    5  A    between atoms: C6_6  and  C9_9 
REMARK    6  A    between atoms: C13_13  and  O1_14 
REMARK    7  A    between atoms: C15_16  and  C16_17 
REMARK    8  A    between atoms: C16_17  and  C17_18 
REMARK    9  A    between atoms: C17_18  and  C18_19 
REMARK   10  A    between atoms: C18_19  and  O2_20 
REMARK   11  A    between atoms: C20_22  and  C22_24 
REMARK   12  A    between atoms: C25_28  and  O4_30 
REMARK   13  A    between atoms: C27_31  and  C28_32 
REMARK   14  A    between atoms: C28_32  and  C29_33 
ROOT
HETATM    1  C9  UNL     1      -3.732   7.591  13.628  1.00  0.00     0.044 C 
HETATM    2  C10 UNL     1      -2.999   8.589  12.719  1.00  0.00     0.013 C 
HETATM    3  C11 UNL     1      -1.803   9.053  13.524  1.00  0.00     0.017 C 
HETATM    4  C12 UNL     1      -2.259   9.132  15.008  1.00  0.00     0.025 C 
HETATM    5  C13 UNL     1      -3.222   7.870  15.094  1.00  0.00     0.141 C 
HETATM    6  C15 UNL     1      -0.923   9.195  15.905  1.00  0.00     0.029 C 
HETATM    7  C19 UNL     1      -1.133   9.959  17.231  1.00  0.00    -0.066 C 
HETATM    8  C20 UNL     1      -0.234  10.822  17.773  1.00  0.00    -0.021 C 
HETATM    9  C21 UNL     1       1.107  11.199  17.193  1.00  0.00     0.052 C 
HETATM   10  C23 UNL     1      -2.530   9.738  17.750  1.00  0.00     0.038 C 
HETATM   11  C24 UNL     1      -3.512  10.472  16.835  1.00  0.00     0.042 C 
HETATM   12  C25 UNL     1      -3.132  10.428  15.324  1.00  0.00     0.065 C 
HETATM   13  C26 UNL     1      -2.459  11.746  14.890  1.00  0.00     0.047 C 
ENDROOT
BRANCH   5  14
HETATM   14  O1  UNL     1      -2.613   6.722  15.675  1.00  0.00    -0.389 OA
HETATM   15  C14 UNL     1      -1.680   6.079  14.812  1.00  0.00     0.202 C 
ENDBRANCH   5  14
BRANCH   6  16
HETATM   16  C16 UNL     1      -0.223   7.833  16.150  1.00  0.00     0.012 C 
BRANCH  16  17
HETATM   17  C17 UNL     1       1.028   7.570  15.301  1.00  0.00     0.027 C 
BRANCH  17  18
HETATM   18  C18 UNL     1       2.314   7.655  16.124  1.00  0.00     0.164 C 
BRANCH  18  19
HETATM   19  O2  UNL     1       3.195   6.586  15.810  1.00  0.00    -0.401 OA
HETATM   20  H27 UNL     1       3.535   6.744  14.912  1.00  0.00     0.209 HD
ENDBRANCH  18  19
ENDBRANCH  17  18
ENDBRANCH  16  17
ENDBRANCH   6  16
BRANCH  12  21
HETATM   21  O4  UNL     1      -4.379  10.392  14.610  1.00  0.00    -0.389 OA
HETATM   22  H39 UNL     1      -4.877  11.199  14.826  1.00  0.00     0.210 HD
ENDBRANCH  12  21
BRANCH   1  23
HETATM   23  C6  UNL     1      -3.658   6.145  13.102  1.00  0.00    -0.074 C 
HETATM   24  C5  UNL     1      -2.555   5.610  12.529  1.00  0.00     0.003 C 
BRANCH  24  25
HETATM   25  C4  UNL     1      -1.293   6.266  12.241  1.00  0.00     0.001 C 
HETATM   26  C3  UNL     1      -0.545   5.945  11.170  1.00  0.00     0.006 C 
BRANCH  26  27
HETATM   27  C2  UNL     1       0.731   6.549  10.783  1.00  0.00    -0.067 C 
HETATM   28  C1  UNL     1       1.794   5.739  10.622  1.00  0.00     0.019 C 
BRANCH  27  29
HETATM   29  C27 UNL     1       0.781   8.058  10.581  1.00  0.00     0.041 C 
BRANCH  29  30
HETATM   30  C28 UNL     1       0.041   8.628   9.361  1.00  0.00     0.032 C 
BRANCH  30  31
HETATM   31  C29 UNL     1       0.433   7.910   8.097  1.00  0.00    -0.024 C 
HETATM   32  C30 UNL     1       1.658   7.833   7.540  1.00  0.00    -0.091 C 
HETATM   33  C31 UNL     1       1.864   7.107   6.236  1.00  0.00     0.042 C 
HETATM   34  C32 UNL     1       2.911   8.426   8.125  1.00  0.00     0.042 C 
ENDBRANCH  30  31
ENDBRANCH  29  30
ENDBRANCH  27  29
ENDBRANCH  26  27
ENDBRANCH  24  25
BRANCH  23  35
HETATM   35  C7  UNL     1      -4.927   5.312  13.295  1.00  0.00     0.030 C 
HETATM   36  C8  UNL     1      -6.223   6.060  13.596  1.00  0.00     0.010 C 
ENDBRANCH  23  35
ENDBRANCH   1  23
BRANCH   8  37
HETATM   37  C22 UNL     1      -0.504  11.561  19.051  1.00  0.00     0.265 C 
HETATM   38  O3  UNL     1      -1.160  12.598  19.092  1.00  0.00    -0.302 OA
ENDBRANCH   8  37
TORSDOF 14
ENDMDL
MODEL 4
REMARK minimizedAffinity -7.63171434
REMARK  14 active torsions:
REMARK  status: ('A' for Active; 'I' for Inactive)
REMARK    1  A    between atoms: C2_2  and  C3_3 
REMARK    2  A    between atoms: C2_2  and  C27_31 
REMARK    3  A    between atoms: C4_4  and  C5_5 
REMARK    4  A    between atoms: C6_6  and  C7_7 
REMARK    5  A    between atoms: C6_6  and  C9_9 
REMARK    6  A    between atoms: C13_13  and  O1_14 
REMARK    7  A    between atoms: C15_16  and  C16_17 
REMARK    8  A    between atoms: C16_17  and  C17_18 
REMARK    9  A    between atoms: C17_18  and  C18_19 
REMARK   10  A    between atoms: C18_19  and  O2_20 
REMARK   11  A    between atoms: C20_22  and  C22_24 
REMARK   12  A    between atoms: C25_28  and  O4_30 
REMARK   13  A    between atoms: C27_31  and  C28_32 
REMARK   14  A    between atoms: C28_32  and  C29_33 
ROOT
HETATM    1  C9  UNL     1      -0.267   7.130  11.068  1.00  0.00     0.044 C 
HETATM    2  C10 UNL     1       0.141   5.650  11.032  1.00  0.00     0.013 C 
HETATM    3  C11 UNL     1       1.531   5.607  11.630  1.00  0.00     0.017 C 
HETATM    4  C12 UNL     1       2.260   6.901  11.173  1.00  0.00     0.025 C 
HETATM    5  C13 UNL     1       1.069   7.953  11.230  1.00  0.00     0.141 C 
HETATM    6  C15 UNL     1       3.543   7.079  12.131  1.00  0.00     0.029 C 
HETATM    7  C19 UNL     1       4.707   7.818  11.434  1.00  0.00    -0.066 C 
HETATM    8  C20 UNL     1       6.018   7.481  11.559  1.00  0.00    -0.021 C 
HETATM    9  C21 UNL     1       6.575   6.341  12.376  1.00  0.00     0.052 C 
HETATM   10  C23 UNL     1       4.175   8.853  10.478  1.00  0.00     0.038 C 
HETATM   11  C24 UNL     1       3.536   8.135   9.288  1.00  0.00     0.042 C 
HETATM   12  C25 UNL     1       2.771   6.831   9.665  1.00  0.00     0.065 C 
HETATM   13  C26 UNL     1       3.630   5.586   9.363  1.00  0.00     0.047 C 
ENDROOT
BRANCH   5  14
HETATM   14  O1  UNL     1       1.065   8.753  12.406  1.00  0.00    -0.389 OA
HETATM   15  C14 UNL     1       0.730   8.024  13.584  1.00  0.00     0.202 C 
ENDBRANCH   5  14
BRANCH   6  16
HETATM   16  C16 UNL     1       3.250   7.687  13.527  1.00  0.00     0.012 C 
BRANCH  16  17
HETATM   17  C17 UNL     1       4.219   8.785  13.987  1.00  0.00     0.027 C 
BRANCH  17  18
HETATM   18  C18 UNL     1       5.023   8.368  15.218  1.00  0.00     0.164 C 
BRANCH  18  19
HETATM   19  O2  UNL     1       4.831   6.991  15.514  1.00  0.00    -0.401 OA
HETATM   20  H27 UNL     1       5.275   6.479  14.817  1.00  0.00     0.209 HD
ENDBRANCH  18  19
ENDBRANCH  17  18
ENDBRANCH  16  17
ENDBRANCH   6  16
BRANCH  12  21
HETATM   21  O4  UNL     1       1.664   6.750   8.752  1.00  0.00    -0.389 OA
HETATM   22  H39 UNL     1       2.017   6.704   7.848  1.00  0.00     0.210 HD
ENDBRANCH  12  21
BRANCH   1  23
HETATM   23  C6  UNL     1      -1.409   7.409  12.063  1.00  0.00    -0.074 C 
HETATM   24  C5  UNL     1      -2.068   6.440  12.738  1.00  0.00     0.003 C 
BRANCH  24  25
HETATM   25  C4  UNL     1      -1.897   5.003  12.631  1.00  0.00     0.001 C 
HETATM   26  C3  UNL     1      -2.638   4.252  11.797  1.00  0.00     0.006 C 
BRANCH  26  27
HETATM   27  C2  UNL     1      -2.539   2.803  11.603  1.00  0.00    -0.067 C 
HETATM   28  C1  UNL     1      -1.334   2.285  11.302  1.00  0.00     0.019 C 
BRANCH  27  29
HETATM   29  C27 UNL     1      -3.803   1.970  11.758  1.00  0.00     0.041 C 
BRANCH  29  30
HETATM   30  C28 UNL     1      -5.114   2.577  11.233  1.00  0.00     0.032 C 
BRANCH  30  31
HETATM   31  C29 UNL     1      -5.693   3.562  12.214  1.00  0.00    -0.024 C 
HETATM   32  C30 UNL     1      -6.839   3.448  12.915  1.00  0.00    -0.091 C 
HETATM   33  C31 UNL     1      -7.296   4.559  13.824  1.00  0.00     0.042 C 
HETATM   34  C32 UNL     1      -7.755   2.255  12.884  1.00  0.00     0.042 C 
ENDBRANCH  30  31
ENDBRANCH  29  30
ENDBRANCH  27  29
ENDBRANCH  26  27
ENDBRANCH  24  25
BRANCH  23  35
HETATM   35  C7  UNL     1      -1.749   8.886  12.274  1.00  0.00     0.030 C 
HETATM   36  C8  UNL     1      -2.838   9.222  13.289  1.00  0.00     0.010 C 
ENDBRANCH  23  35
ENDBRANCH   1  23
BRANCH   8  37
HETATM   37  C22 UNL     1       7.106   8.217  10.834  1.00  0.00     0.265 C 
HETATM   38  O3  UNL     1       7.566   9.283  11.233  1.00  0.00    -0.302 OA
ENDBRANCH   8  37
TORSDOF 14
ENDMDL
MODEL 5
REMARK minimizedAffinity -7.6116457
REMARK  14 active torsions:
REMARK  status: ('A' for Active; 'I' for Inactive)
REMARK    1  A    between atoms: C2_2  and  C3_3 
REMARK    2  A    between atoms: C2_2  and  C27_31 
REMARK    3  A    between atoms: C4_4  and  C5_5 
REMARK    4  A    between atoms: C6_6  and  C7_7 
REMARK    5  A    between atoms: C6_6  and  C9_9 
REMARK    6  A    between atoms: C13_13  and  O1_14 
REMARK    7  A    between atoms: C15_16  and  C16_17 
REMARK    8  A    between atoms: C16_17  and  C17_18 
REMARK    9  A    between atoms: C17_18  and  C18_19 
REMARK   10  A    between atoms: C18_19  and  O2_20 
REMARK   11  A    between atoms: C20_22  and  C22_24 
REMARK   12  A    between atoms: C25_28  and  O4_30 
REMARK   13  A    between atoms: C27_31  and  C28_32 
REMARK   14  A    between atoms: C28_32  and  C29_33 
ROOT
HETATM    1  C9  UNL     1      -4.925   5.997  14.012  1.00  0.00     0.044 C 
HETATM    2  C10 UNL     1      -5.121   7.370  13.350  1.00  0.00     0.013 C 
HETATM    3  C11 UNL     1      -3.753   7.759  12.834  1.00  0.00     0.017 C 
HETATM    4  C12 UNL     1      -2.714   7.237  13.865  1.00  0.00     0.025 C 
HETATM    5  C13 UNL     1      -3.379   5.856  14.288  1.00  0.00     0.141 C 
HETATM    6  C15 UNL     1      -1.279   7.254  13.134  1.00  0.00     0.029 C 
HETATM    7  C19 UNL     1      -0.111   7.464  14.123  1.00  0.00    -0.066 C 
HETATM    8  C20 UNL     1       0.971   8.251  13.881  1.00  0.00    -0.021 C 
HETATM    9  C21 UNL     1       1.228   9.061  12.634  1.00  0.00     0.052 C 
HETATM   10  C23 UNL     1      -0.416   6.807  15.443  1.00  0.00     0.038 C 
HETATM   11  C24 UNL     1      -1.526   7.598  16.137  1.00  0.00     0.042 C 
HETATM   12  C25 UNL     1      -2.618   8.147  15.170  1.00  0.00     0.065 C 
HETATM   13  C26 UNL     1      -2.379   9.639  14.865  1.00  0.00     0.047 C 
ENDROOT
BRANCH   5  14
HETATM   14  O1  UNL     1      -2.820   4.724  13.631  1.00  0.00    -0.389 OA
HETATM   15  C14 UNL     1      -2.786   4.854  12.213  1.00  0.00     0.202 C 
ENDBRANCH   5  14
BRANCH   6  16
HETATM   16  C16 UNL     1      -1.002   6.057  12.187  1.00  0.00     0.012 C 
BRANCH  16  17
HETATM   17  C17 UNL     1      -0.094   6.360  10.987  1.00  0.00     0.027 C 
BRANCH  17  18
HETATM   18  C18 UNL     1       1.123   5.437  10.936  1.00  0.00     0.164 C 
BRANCH  18  19
HETATM   19  O2  UNL     1       0.777   4.111  11.313  1.00  0.00    -0.401 OA
HETATM   20  H27 UNL     1       0.229   3.740  10.601  1.00  0.00     0.209 HD
ENDBRANCH  18  19
ENDBRANCH  17  18
ENDBRANCH  16  17
ENDBRANCH   6  16
BRANCH  12  21
HETATM   21  O4  UNL     1      -3.849   8.110  15.912  1.00  0.00    -0.389 OA
HETATM   22  H39 UNL     1      -3.751   8.679  16.694  1.00  0.00     0.210 HD
ENDBRANCH  12  21
BRANCH   1  23
HETATM   23  C6  UNL     1      -5.626   4.861  13.243  1.00  0.00    -0.074 C 
HETATM   24  C5  UNL     1      -6.968   4.690  13.217  1.00  0.00     0.003 C 
BRANCH  24  25
HETATM   25  C4  UNL     1      -7.979   5.457  13.920  1.00  0.00     0.001 C 
HETATM   26  C3  UNL     1      -8.974   6.094  13.277  1.00  0.00     0.006 C 
BRANCH  26  27
HETATM   27  C2  UNL     1     -10.047   6.881  13.889  1.00  0.00    -0.067 C 
HETATM   28  C1  UNL     1     -11.074   7.267  13.110  1.00  0.00     0.019 C 
BRANCH  27  29
HETATM   29  C27 UNL     1      -9.938   7.214  15.371  1.00  0.00     0.041 C 
BRANCH  29  30
HETATM   30  C28 UNL     1      -8.832   8.194  15.792  1.00  0.00     0.032 C 
BRANCH  30  31
HETATM   31  C29 UNL     1      -9.048   9.558  15.190  1.00  0.00    -0.024 C 
HETATM   32  C30 UNL     1      -9.849  10.541  15.645  1.00  0.00    -0.091 C 
HETATM   33  C31 UNL     1      -9.984  11.835  14.886  1.00  0.00     0.042 C 
HETATM   34  C32 UNL     1     -10.663  10.475  16.909  1.00  0.00     0.042 C 
ENDBRANCH  30  31
ENDBRANCH  29  30
ENDBRANCH  27  29
ENDBRANCH  26  27
ENDBRANCH  24  25
BRANCH  23  35
HETATM   35  C7  UNL     1      -4.698   3.927  12.464  1.00  0.00     0.030 C 
HETATM   36  C8  UNL     1      -5.337   2.764  11.710  1.00  0.00     0.010 C 
ENDBRANCH  23  35
ENDBRANCH   1  23
BRANCH   8  37
HETATM   37  C22 UNL     1       2.064   8.442  14.892  1.00  0.00     0.265 C 
HETATM   38  O3  UNL     1       3.217   8.069  14.700  1.00  0.00    -0.302 OA
ENDBRANCH   8  37
TORSDOF 14
ENDMDL
MODEL 6
REMARK minimizedAffinity -7.58717728
REMARK  14 active torsions:
REMARK  status: ('A' for Active; 'I' for Inactive)
REMARK    1  A    between atoms: C2_2  and  C3_3 
REMARK    2  A    between atoms: C2_2  and  C27_31 
REMARK    3  A    between atoms: C4_4  and  C5_5 
REMARK    4  A    between atoms: C6_6  and  C7_7 
REMARK    5  A    between atoms: C6_6  and  C9_9 
REMARK    6  A    between atoms: C13_13  and  O1_14 
REMARK    7  A    between atoms: C15_16  and  C16_17 
REMARK    8  A    between atoms: C16_17  and  C17_18 
REMARK    9  A    between atoms: C17_18  and  C18_19 
REMARK   10  A    between atoms: C18_19  and  O2_20 
REMARK   11  A    between atoms: C20_22  and  C22_24 
REMARK   12  A    between atoms: C25_28  and  O4_30 
REMARK   13  A    between atoms: C27_31  and  C28_32 
REMARK   14  A    between atoms: C28_32  and  C29_33 
ROOT
HETATM    1  C9  UNL     1       2.402   7.782  14.318  1.00  0.00     0.044 C 
HETATM    2  C10 UNL     1       2.833   9.139  13.741  1.00  0.00     0.013 C 
HETATM    3  C11 UNL     1       2.336   9.137  12.311  1.00  0.00     0.017 C 
HETATM    4  C12 UNL     1       2.485   7.684  11.781  1.00  0.00     0.025 C 
HETATM    5  C13 UNL     1       2.103   6.850  13.081  1.00  0.00     0.141 C 
HETATM    6  C15 UNL     1       1.579   7.574  10.455  1.00  0.00     0.029 C 
HETATM    7  C19 UNL     1       2.123   6.535   9.449  1.00  0.00    -0.066 C 
HETATM    8  C20 UNL     1       2.153   6.710   8.101  1.00  0.00    -0.021 C 
HETATM    9  C21 UNL     1       1.682   7.929   7.346  1.00  0.00     0.052 C 
HETATM   10  C23 UNL     1       2.756   5.379  10.178  1.00  0.00     0.038 C 
HETATM   11  C24 UNL     1       4.056   5.863  10.823  1.00  0.00     0.042 C 
HETATM   12  C25 UNL     1       3.985   7.311  11.393  1.00  0.00     0.065 C 
HETATM   13  C26 UNL     1       4.637   8.315  10.419  1.00  0.00     0.047 C 
ENDROOT
BRANCH   5  14
HETATM   14  O1  UNL     1       0.763   6.372  13.083  1.00  0.00    -0.389 OA
HETATM   15  C14 UNL     1       0.661   4.977  12.814  1.00  0.00     0.202 C 
ENDBRANCH   5  14
BRANCH   6  16
HETATM   16  C16 UNL     1       0.061   7.373  10.701  1.00  0.00     0.012 C 
BRANCH  16  17
HETATM   17  C17 UNL     1      -0.793   8.647  10.644  1.00  0.00     0.027 C 
BRANCH  17  18
HETATM   18  C18 UNL     1      -1.590   8.866  11.929  1.00  0.00     0.164 C 
BRANCH  18  19
HETATM   19  O2  UNL     1      -1.155  10.036  12.609  1.00  0.00    -0.401 OA
HETATM   20  H27 UNL     1      -1.437  10.801  12.080  1.00  0.00     0.209 HD
ENDBRANCH  18  19
ENDBRANCH  17  18
ENDBRANCH  16  17
ENDBRANCH   6  16
BRANCH  12  21
HETATM   21  O4  UNL     1       4.832   7.315  12.554  1.00  0.00    -0.389 OA
HETATM   22  H39 UNL     1       5.735   7.089  12.274  1.00  0.00     0.210 HD
ENDBRANCH  12  21
BRANCH   1  23
HETATM   23  C6  UNL     1       1.313   7.915  15.399  1.00  0.00    -0.074 C 
HETATM   24  C5  UNL     1       0.089   7.346  15.305  1.00  0.00     0.003 C 
BRANCH  24  25
HETATM   25  C4  UNL     1      -0.457   6.584  14.198  1.00  0.00     0.001 C 
HETATM   26  C3  UNL     1      -1.714   6.106  14.207  1.00  0.00     0.006 C 
BRANCH  26  27
HETATM   27  C2  UNL     1      -2.365   5.338  13.142  1.00  0.00    -0.067 C 
HETATM   28  C1  UNL     1      -1.959   5.542  11.876  1.00  0.00     0.019 C 
BRANCH  27  29
HETATM   29  C27 UNL     1      -3.459   4.354  13.532  1.00  0.00     0.041 C 
BRANCH  29  30
HETATM   30  C28 UNL     1      -4.779   4.424  12.749  1.00  0.00     0.032 C 
BRANCH  30  31
HETATM   31  C29 UNL     1      -5.832   5.181  13.515  1.00  0.00    -0.024 C 
HETATM   32  C30 UNL     1      -7.168   5.018  13.459  1.00  0.00    -0.091 C 
HETATM   33  C31 UNL     1      -8.085   5.902  14.264  1.00  0.00     0.042 C 
HETATM   34  C32 UNL     1      -7.877   3.980  12.631  1.00  0.00     0.042 C 
ENDBRANCH  30  31
ENDBRANCH  29  30
ENDBRANCH  27  29
ENDBRANCH  26  27
ENDBRANCH  24  25
BRANCH  23  35
HETATM   35  C7  UNL     1       1.712   8.726  16.635  1.00  0.00     0.030 C 
HETATM   36  C8  UNL     1       0.824   9.905  17.022  1.00  0.00     0.010 C 
ENDBRANCH  23  35
ENDBRANCH   1  23
BRANCH   8  37
HETATM   37  C22 UNL     1       2.721   5.677   7.172  1.00  0.00     0.265 C 
HETATM   38  O3  UNL     1       3.384   4.723   7.568  1.00  0.00    -0.302 OA
ENDBRANCH   8  37
TORSDOF 14
ENDMDL
MODEL 7
REMARK minimizedAffinity -7.53248167
REMARK  14 active torsions:
REMARK  status: ('A' for Active; 'I' for Inactive)
REMARK    1  A    between atoms: C2_2  and  C3_3 
REMARK    2  A    between atoms: C2_2  and  C27_31 
REMARK    3  A    between atoms: C4_4  and  C5_5 
REMARK    4  A    between atoms: C6_6  and  C7_7 
REMARK    5  A    between atoms: C6_6  and  C9_9 
REMARK    6  A    between atoms: C13_13  and  O1_14 
REMARK    7  A    between atoms: C15_16  and  C16_17 
REMARK    8  A    between atoms: C16_17  and  C17_18 
REMARK    9  A    between atoms: C17_18  and  C18_19 
REMARK   10  A    between atoms: C18_19  and  O2_20 
REMARK   11  A    between atoms: C20_22  and  C22_24 
REMARK   12  A    between atoms: C25_28  and  O4_30 
REMARK   13  A    between atoms: C27_31  and  C28_32 
REMARK   14  A    between atoms: C28_32  and  C29_33 
ROOT
HETATM    1  C9  UNL     1      -2.265   5.997  13.158  1.00  0.00     0.044 C 
HETATM    2  C10 UNL     1      -2.443   7.370  12.492  1.00  0.00     0.013 C 
HETATM    3  C11 UNL     1      -1.038   7.857  12.210  1.00  0.00     0.017 C 
HETATM    4  C12 UNL     1      -0.146   7.378  13.389  1.00  0.00     0.025 C 
HETATM    5  C13 UNL     1      -0.778   5.947  13.679  1.00  0.00     0.141 C 
HETATM    6  C15 UNL     1       1.383   7.503  12.900  1.00  0.00     0.029 C 
HETATM    7  C19 UNL     1       2.360   7.763  14.068  1.00  0.00    -0.066 C 
HETATM    8  C20 UNL     1       3.412   8.622  14.016  1.00  0.00    -0.021 C 
HETATM    9  C21 UNL     1       3.812   9.477  12.838  1.00  0.00     0.052 C 
HETATM   10  C23 UNL     1       1.891   7.056  15.313  1.00  0.00     0.038 C 
HETATM   11  C24 UNL     1       0.634   7.758  15.828  1.00  0.00     0.042 C 
HETATM   12  C25 UNL     1      -0.322   8.260  14.704  1.00  0.00     0.065 C 
HETATM   13  C26 UNL     1      -0.137   9.772  14.462  1.00  0.00     0.047 C 
ENDROOT
BRANCH   5  14
HETATM   14  O1  UNL     1      -0.046   4.870  13.107  1.00  0.00    -0.389 OA
HETATM   15  C14 UNL     1       0.224   5.045  11.719  1.00  0.00     0.202 C 
ENDBRANCH   5  14
BRANCH   6  16
HETATM   16  C16 UNL     1       1.888   6.350  11.994  1.00  0.00     0.012 C 
BRANCH  16  17
HETATM   17  C17 UNL     1       2.712   6.780  10.773  1.00  0.00     0.027 C 
BRANCH  17  18
HETATM   18  C18 UNL     1       4.147   6.256  10.830  1.00  0.00     0.164 C 
BRANCH  18  19
HETATM   19  O2  UNL     1       4.310   5.117   9.996  1.00  0.00    -0.401 OA
HETATM   20  H27 UNL     1       4.258   5.422   9.074  1.00  0.00     0.209 HD
ENDBRANCH  18  19
ENDBRANCH  17  18
ENDBRANCH  16  17
ENDBRANCH   6  16
BRANCH  12  21
HETATM   21  O4  UNL     1      -1.651   8.127  15.236  1.00  0.00    -0.389 OA
HETATM   22  H39 UNL     1      -1.718   8.682  16.032  1.00  0.00     0.210 HD
ENDBRANCH  12  21
BRANCH   1  23
HETATM   23  C6  UNL     1      -2.757   4.838  12.271  1.00  0.00    -0.074 C 
HETATM   24  C5  UNL     1      -4.003   4.317  12.338  1.00  0.00     0.003 C 
BRANCH  24  25
HETATM   25  C4  UNL     1      -5.070   4.673  13.256  1.00  0.00     0.001 C 
HETATM   26  C3  UNL     1      -6.363   4.679  12.886  1.00  0.00     0.006 C 
BRANCH  26  27
HETATM   27  C2  UNL     1      -7.512   5.009  13.732  1.00  0.00    -0.067 C 
HETATM   28  C1  UNL     1      -8.575   5.600  13.155  1.00  0.00     0.019 C 
BRANCH  27  29
HETATM   29  C27 UNL     1      -7.438   4.661  15.212  1.00  0.00     0.041 C 
BRANCH  29  30
HETATM   30  C28 UNL     1      -7.372   5.832  16.206  1.00  0.00     0.032 C 
BRANCH  30  31
HETATM   31  C29 UNL     1      -6.277   6.800  15.842  1.00  0.00    -0.024 C 
HETATM   32  C30 UNL     1      -6.411   8.039  15.332  1.00  0.00    -0.091 C 
HETATM   33  C31 UNL     1      -5.197   8.859  14.978  1.00  0.00     0.042 C 
HETATM   34  C32 UNL     1      -7.723   8.728  15.070  1.00  0.00     0.042 C 
ENDBRANCH  30  31
ENDBRANCH  29  30
ENDBRANCH  27  29
ENDBRANCH  26  27
ENDBRANCH  24  25
BRANCH  23  35
HETATM   35  C7  UNL     1      -1.737   4.311  11.258  1.00  0.00     0.030 C 
HETATM   36  C8  UNL     1      -2.186   3.193  10.321  1.00  0.00     0.010 C 
ENDBRANCH  23  35
ENDBRANCH   1  23
BRANCH   8  37
HETATM   37  C22 UNL     1       4.313   8.858  15.193  1.00  0.00     0.265 C 
HETATM   38  O3  UNL     1       5.194   8.069  15.522  1.00  0.00    -0.302 OA
ENDBRANCH   8  37
TORSDOF 14
ENDMDL
MODEL 8
REMARK minimizedAffinity -7.52048635
REMARK  14 active torsions:
REMARK  status: ('A' for Active; 'I' for Inactive)
REMARK    1  A    between atoms: C2_2  and  C3_3 
REMARK    2  A    between atoms: C2_2  and  C27_31 
REMARK    3  A    between atoms: C4_4  and  C5_5 
REMARK    4  A    between atoms: C6_6  and  C7_7 
REMARK    5  A    between atoms: C6_6  and  C9_9 
REMARK    6  A    between atoms: C13_13  and  O1_14 
REMARK    7  A    between atoms: C15_16  and  C16_17 
REMARK    8  A    between atoms: C16_17  and  C17_18 
REMARK    9  A    between atoms: C17_18  and  C18_19 
REMARK   10  A    between atoms: C18_19  and  O2_20 
REMARK   11  A    between atoms: C20_22  and  C22_24 
REMARK   12  A    between atoms: C25_28  and  O4_30 
REMARK   13  A    between atoms: C27_31  and  C28_32 
REMARK   14  A    between atoms: C28_32  and  C29_33 
ROOT
HETATM    1  C9  UNL     1      -2.685   7.720  13.384  1.00  0.00     0.044 C 
HETATM    2  C10 UNL     1      -2.107   8.894  12.578  1.00  0.00     0.013 C 
HETATM    3  C11 UNL     1      -1.074   9.526  13.486  1.00  0.00     0.017 C 
HETATM    4  C12 UNL     1      -1.623   9.426  14.936  1.00  0.00     0.025 C 
HETATM    5  C13 UNL     1      -2.326   8.000  14.893  1.00  0.00     0.141 C 
HETATM    6  C15 UNL     1      -0.379   9.686  15.926  1.00  0.00     0.029 C 
HETATM    7  C19 UNL     1      -0.812  10.314  17.270  1.00  0.00    -0.066 C 
HETATM    8  C20 UNL     1      -0.130  11.297  17.915  1.00  0.00    -0.021 C 
HETATM    9  C21 UNL     1       1.144  11.958  17.449  1.00  0.00     0.052 C 
HETATM   10  C23 UNL     1      -2.167   9.799  17.679  1.00  0.00     0.038 C 
HETATM   11  C24 UNL     1      -3.217  10.388  16.735  1.00  0.00     0.042 C 
HETATM   12  C25 UNL     1      -2.748  10.509  15.254  1.00  0.00     0.065 C 
HETATM   13  C26 UNL     1      -2.319  11.956  14.933  1.00  0.00     0.047 C 
ENDROOT
BRANCH   5  14
HETATM   14  O1  UNL     1      -1.541   6.956  15.459  1.00  0.00    -0.389 OA
HETATM   15  C14 UNL     1      -0.421   6.594  14.657  1.00  0.00     0.202 C 
ENDBRANCH   5  14
BRANCH   6  16
HETATM   16  C16 UNL     1       0.556   8.470  16.152  1.00  0.00     0.012 C 
BRANCH  16  17
HETATM   17  C17 UNL     1       2.052   8.796  16.252  1.00  0.00     0.027 C 
BRANCH  17  18
HETATM   18  C18 UNL     1       2.895   7.939  15.307  1.00  0.00     0.164 C 
BRANCH  18  19
HETATM   19  O2  UNL     1       3.001   6.604  15.784  1.00  0.00    -0.401 OA
HETATM   20  H27 UNL     1       2.127   6.190  15.685  1.00  0.00     0.209 HD
ENDBRANCH  18  19
ENDBRANCH  17  18
ENDBRANCH  16  17
ENDBRANCH   6  16
BRANCH  12  21
HETATM   21  O4  UNL     1      -3.920  10.281  14.454  1.00  0.00    -0.389 OA
HETATM   22  H39 UNL     1      -4.577  10.964  14.674  1.00  0.00     0.210 HD
ENDBRANCH  12  21
BRANCH   1  23
HETATM   23  C6  UNL     1      -2.301   6.349  12.794  1.00  0.00    -0.074 C 
HETATM   24  C5  UNL     1      -3.038   5.228  12.962  1.00  0.00     0.003 C 
BRANCH  24  25
HETATM   25  C4  UNL     1      -4.249   5.065  13.745  1.00  0.00     0.001 C 
HETATM   26  C3  UNL     1      -5.441   5.530  13.329  1.00  0.00     0.006 C 
BRANCH  26  27
HETATM   27  C2  UNL     1      -6.720   5.410  14.033  1.00  0.00    -0.067 C 
HETATM   28  C1  UNL     1      -7.327   6.539  14.443  1.00  0.00     0.019 C 
BRANCH  27  29
HETATM   29  C27 UNL     1      -7.289   4.015  14.255  1.00  0.00     0.041 C 
BRANCH  29  30
HETATM   30  C28 UNL     1      -7.651   3.196  13.007  1.00  0.00     0.032 C 
BRANCH  30  31
HETATM   31  C29 UNL     1      -6.734   3.517  11.855  1.00  0.00    -0.024 C 
HETATM   32  C30 UNL     1      -5.946   2.667  11.169  1.00  0.00    -0.091 C 
HETATM   33  C31 UNL     1      -5.049   3.171  10.068  1.00  0.00     0.042 C 
HETATM   34  C32 UNL     1      -5.871   1.182  11.400  1.00  0.00     0.042 C 
ENDBRANCH  30  31
ENDBRANCH  29  30
ENDBRANCH  27  29
ENDBRANCH  26  27
ENDBRANCH  24  25
BRANCH  23  35
HETATM   35  C7  UNL     1      -1.018   6.331  11.960  1.00  0.00     0.030 C 
HETATM   36  C8  UNL     1      -0.684   5.045  11.208  1.00  0.00     0.010 C 
ENDBRANCH  23  35
ENDBRANCH   1  23
BRANCH   8  37
HETATM   37  C22 UNL     1      -0.613  11.892  19.206  1.00  0.00     0.265 C 
HETATM   38  O3  UNL     1       0.126  12.501  19.973  1.00  0.00    -0.302 OA
ENDBRANCH   8  37
TORSDOF 14
ENDMDL
MODEL 9
REMARK minimizedAffinity -7.50412321
REMARK  14 active torsions:
REMARK  status: ('A' for Active; 'I' for Inactive)
REMARK    1  A    between atoms: C2_2  and  C3_3 
REMARK    2  A    between atoms: C2_2  and  C27_31 
REMARK    3  A    between atoms: C4_4  and  C5_5 
REMARK    4  A    between atoms: C6_6  and  C7_7 
REMARK    5  A    between atoms: C6_6  and  C9_9 
REMARK    6  A    between atoms: C13_13  and  O1_14 
REMARK    7  A    between atoms: C15_16  and  C16_17 
REMARK    8  A    between atoms: C16_17  and  C17_18 
REMARK    9  A    between atoms: C17_18  and  C18_19 
REMARK   10  A    between atoms: C18_19  and  O2_20 
REMARK   11  A    between atoms: C20_22  and  C22_24 
REMARK   12  A    between atoms: C25_28  and  O4_30 
REMARK   13  A    between atoms: C27_31  and  C28_32 
REMARK   14  A    between atoms: C28_32  and  C29_33 
ROOT
HETATM    1  C9  UNL     1      -4.727   6.045  13.973  1.00  0.00     0.044 C 
HETATM    2  C10 UNL     1      -4.959   7.433  13.357  1.00  0.00     0.013 C 
HETATM    3  C11 UNL     1      -3.595   7.886  12.879  1.00  0.00     0.017 C 
HETATM    4  C12 UNL     1      -2.557   7.362  13.910  1.00  0.00     0.025 C 
HETATM    5  C13 UNL     1      -3.182   5.945  14.272  1.00  0.00     0.141 C 
HETATM    6  C15 UNL     1      -1.112   7.453  13.206  1.00  0.00     0.029 C 
HETATM    7  C19 UNL     1       0.032   7.666  14.223  1.00  0.00    -0.066 C 
HETATM    8  C20 UNL     1       1.090   8.497  14.029  1.00  0.00    -0.021 C 
HETATM    9  C21 UNL     1       1.341   9.360  12.817  1.00  0.00     0.052 C 
HETATM   10  C23 UNL     1      -0.273   6.952  15.514  1.00  0.00     0.038 C 
HETATM   11  C24 UNL     1      -1.420   7.680  16.214  1.00  0.00     0.042 C 
HETATM   12  C25 UNL     1      -2.514   8.227  15.248  1.00  0.00     0.065 C 
HETATM   13  C26 UNL     1      -2.321   9.737  15.001  1.00  0.00     0.047 C 
ENDROOT
BRANCH   5  14
HETATM   14  O1  UNL     1      -2.574   4.858  13.585  1.00  0.00    -0.389 OA
HETATM   15  C14 UNL     1      -2.616   4.990  12.167  1.00  0.00     0.202 C 
ENDBRANCH   5  14
BRANCH   6  16
HETATM   16  C16 UNL     1      -0.778   6.302  12.222  1.00  0.00     0.012 C 
BRANCH  16  17
HETATM   17  C17 UNL     1       0.066   6.697  11.003  1.00  0.00     0.027 C 
BRANCH  17  18
HETATM   18  C18 UNL     1       1.427   6.001  10.991  1.00  0.00     0.164 C 
BRANCH  18  19
HETATM   19  O2  UNL     1       1.765   5.559   9.684  1.00  0.00    -0.401 OA
HETATM   20  H27 UNL     1       1.953   6.349   9.149  1.00  0.00     0.209 HD
ENDBRANCH  18  19
ENDBRANCH  17  18
ENDBRANCH  16  17
ENDBRANCH   6  16
BRANCH  12  21
HETATM   21  O4  UNL     1      -3.756   8.122  15.966  1.00  0.00    -0.389 OA
HETATM   22  H39 UNL     1      -3.690   8.666  16.769  1.00  0.00     0.210 HD
ENDBRANCH  12  21
BRANCH   1  23
HETATM   23  C6  UNL     1      -5.377   4.915  13.151  1.00  0.00    -0.074 C 
HETATM   24  C5  UNL     1      -6.649   4.956  12.693  1.00  0.00     0.003 C 
BRANCH  24  25
HETATM   25  C4  UNL     1      -7.645   5.987  12.918  1.00  0.00     0.001 C 
HETATM   26  C3  UNL     1      -8.433   5.999  14.008  1.00  0.00     0.006 C 
BRANCH  26  27
HETATM   27  C2  UNL     1      -9.456   6.994  14.336  1.00  0.00    -0.067 C 
HETATM   28  C1  UNL     1      -9.184   7.888  15.304  1.00  0.00     0.019 C 
BRANCH  27  29
HETATM   29  C27 UNL     1     -10.766   6.959  13.561  1.00  0.00     0.041 C 
BRANCH  29  30
HETATM   30  C28 UNL     1     -11.998   7.582  14.235  1.00  0.00     0.032 C 
BRANCH  30  31
HETATM   31  C29 UNL     1     -13.024   6.534  14.579  1.00  0.00    -0.024 C 
HETATM   32  C30 UNL     1     -14.212   6.318  13.981  1.00  0.00    -0.091 C 
HETATM   33  C31 UNL     1     -15.144   5.248  14.489  1.00  0.00     0.042 C 
HETATM   34  C32 UNL     1     -14.728   7.075  12.788  1.00  0.00     0.042 C 
ENDBRANCH  30  31
ENDBRANCH  29  30
ENDBRANCH  27  29
ENDBRANCH  26  27
ENDBRANCH  24  25
BRANCH  23  35
HETATM   35  C7  UNL     1      -4.468   3.721  12.848  1.00  0.00     0.030 C 
HETATM   36  C8  UNL     1      -5.004   2.649  11.902  1.00  0.00     0.010 C 
ENDBRANCH  23  35
ENDBRANCH   1  23
BRANCH   8  37
HETATM   37  C22 UNL     1       2.159   8.688  15.066  1.00  0.00     0.265 C 
HETATM   38  O3  UNL     1       3.205   8.046  15.065  1.00  0.00    -0.302 OA
ENDBRANCH   8  37
TORSDOF 14
ENDMDL
