MODEL 1
REMARK minimizedAffinity -9.57252407
REMARK  13 active torsions:
REMARK  status: ('A' for Active; 'I' for Inactive)
REMARK    1  A    between atoms: C4_4  and  C5_5 
REMARK    2  A    between atoms: C5_5  and  C6_6 
REMARK    3  A    between atoms: C6_6  and  C7_7 
REMARK    4  A    between atoms: C9_9  and  C10_10 
REMARK    5  A    between atoms: C11_11  and  C12_12 
REMARK    6  A    between atoms: C14_14  and  C15_15 
REMARK    7  A    between atoms: C18_18  and  C19_19 
REMARK    8  A    between atoms: C19_19  and  C20_20 
REMARK    9  A    between atoms: C20_20  and  C21_21 
REMARK   10  A    between atoms: C21_21  and  O1_22 
REMARK   11  A    between atoms: C23_24  and  C25_26 
REMARK   12  A    between atoms: C28_30  and  O3_32 
REMARK   13  A    between atoms: C30_33  and  O4_34 
ROOT
HETATM    1  C15 UNL     1      -1.139   4.379  12.046  1.00  0.00     0.149 C 
HETATM    2  C16 UNL     1      -0.427   5.300  11.054  1.00  0.00     0.054 C 
HETATM    3  C17 UNL     1       0.551   6.181  11.888  1.00  0.00     0.050 C 
HETATM    4  C18 UNL     1       1.967   6.206  11.187  1.00  0.00     0.032 C 
HETATM    5  C22 UNL     1       1.818   6.728   9.747  1.00  0.00    -0.066 C 
HETATM    6  C23 UNL     1       2.425   6.200   8.649  1.00  0.00    -0.021 C 
HETATM    7  C24 UNL     1       2.210   6.662   7.228  1.00  0.00     0.052 C 
HETATM    8  C26 UNL     1       0.800   7.849   9.580  1.00  0.00     0.038 C 
HETATM    9  C27 UNL     1       0.362   8.565  10.854  1.00  0.00     0.042 C 
HETATM   10  C28 UNL     1       0.039   7.664  12.073  1.00  0.00     0.067 C 
HETATM   11  C29 UNL     1      -1.446   7.796  12.437  1.00  0.00     0.047 C 
HETATM   12  C30 UNL     1       0.592   5.346  13.191  1.00  0.00     0.270 C 
HETATM   13  O5  UNL     1      -0.700   4.774  13.348  1.00  0.00    -0.351 OA
ENDROOT
BRANCH   4  14
HETATM   14  C19 UNL     1       3.057   6.977  11.979  1.00  0.00     0.012 C 
BRANCH  14  15
HETATM   15  C20 UNL     1       4.034   7.771  11.108  1.00  0.00     0.027 C 
BRANCH  15  16
HETATM   16  C21 UNL     1       5.375   7.060  10.982  1.00  0.00     0.164 C 
BRANCH  16  17
HETATM   17  O1  UNL     1       5.564   6.208  12.104  1.00  0.00    -0.401 OA
HETATM   18  H32 UNL     1       4.892   5.507  12.056  1.00  0.00     0.209 HD
ENDBRANCH  16  17
ENDBRANCH  15  16
ENDBRANCH  14  15
ENDBRANCH   4  14
BRANCH  10  19
HETATM   19  O3  UNL     1       0.727   8.310  13.164  1.00  0.00    -0.389 OA
HETATM   20  H44 UNL     1       0.702   7.692  13.928  1.00  0.00     0.210 HD
ENDBRANCH  10  19
BRANCH  12  21
HETATM   21  O4  UNL     1       0.882   6.091  14.353  1.00  0.00    -0.370 OA
HETATM   22  H46 UNL     1       0.912   5.426  15.068  1.00  0.00     0.212 HD
ENDBRANCH  12  21
BRANCH   1  23
HETATM   23  C14 UNL     1      -2.634   4.469  12.004  1.00  0.00     0.011 C 
HETATM   24  C12 UNL     1      -3.530   3.464  11.894  1.00  0.00    -0.063 C 
HETATM   25  C13 UNL     1      -3.152   2.013  11.733  1.00  0.00     0.048 C 
BRANCH  24  26
HETATM   26  C11 UNL     1      -4.956   3.802  11.894  1.00  0.00     0.006 C 
HETATM   27  C10 UNL     1      -5.688   4.169  12.961  1.00  0.00     0.001 C 
BRANCH  27  28
HETATM   28  C9  UNL     1      -7.097   4.486  12.862  1.00  0.00     0.002 C 
HETATM   29  C7  UNL     1      -7.704   5.625  13.256  1.00  0.00    -0.084 C 
HETATM   30  C8  UNL     1      -7.020   6.791  13.921  1.00  0.00     0.043 C 
BRANCH  29  31
HETATM   31  C6  UNL     1      -9.206   5.777  13.067  1.00  0.00     0.037 C 
BRANCH  31  32
HETATM   32  C5  UNL     1      -9.851   6.857  13.948  1.00  0.00     0.031 C 
BRANCH  32  33
HETATM   33  C4  UNL     1     -11.358   6.840  13.927  1.00  0.00    -0.024 C 
HETATM   34  C2  UNL     1     -12.189   7.667  13.263  1.00  0.00    -0.091 C 
HETATM   35  C1  UNL     1     -13.683   7.471  13.329  1.00  0.00     0.042 C 
HETATM   36  C3  UNL     1     -11.763   8.839  12.421  1.00  0.00     0.042 C 
ENDBRANCH  32  33
ENDBRANCH  31  32
ENDBRANCH  29  31
ENDBRANCH  27  28
ENDBRANCH  24  26
ENDBRANCH   1  23
BRANCH   6  37
HETATM   37  C25 UNL     1       3.389   5.053   8.721  1.00  0.00     0.265 C 
HETATM   38  O2  UNL     1       3.652   4.348   7.752  1.00  0.00    -0.302 OA
ENDBRANCH   6  37
TORSDOF 13
ENDMDL
MODEL 2
REMARK minimizedAffinity -9.15071201
REMARK  13 active torsions:
REMARK  status: ('A' for Active; 'I' for Inactive)
REMARK    1  A    between atoms: C4_4  and  C5_5 
REMARK    2  A    between atoms: C5_5  and  C6_6 
REMARK    3  A    between atoms: C6_6  and  C7_7 
REMARK    4  A    between atoms: C9_9  and  C10_10 
REMARK    5  A    between atoms: C11_11  and  C12_12 
REMARK    6  A    between atoms: C14_14  and  C15_15 
REMARK    7  A    between atoms: C18_18  and  C19_19 
REMARK    8  A    between atoms: C19_19  and  C20_20 
REMARK    9  A    between atoms: C20_20  and  C21_21 
REMARK   10  A    between atoms: C21_21  and  O1_22 
REMARK   11  A    between atoms: C23_24  and  C25_26 
REMARK   12  A    between atoms: C28_30  and  O3_32 
REMARK   13  A    between atoms: C30_33  and  O4_34 
ROOT
HETATM    1  C15 UNL     1       0.167   5.020  12.364  1.00  0.00     0.149 C 
HETATM    2  C16 UNL     1       0.822   5.291  11.010  1.00  0.00     0.054 C 
HETATM    3  C17 UNL     1       1.871   6.420  11.241  1.00  0.00     0.050 C 
HETATM    4  C18 UNL     1       3.234   6.026  10.547  1.00  0.00     0.032 C 
HETATM    5  C22 UNL     1       2.994   5.772   9.048  1.00  0.00    -0.066 C 
HETATM    6  C23 UNL     1       3.514   4.740   8.329  1.00  0.00    -0.021 C 
HETATM    7  C24 UNL     1       3.207   4.446   6.880  1.00  0.00     0.052 C 
HETATM    8  C26 UNL     1       1.985   6.711   8.400  1.00  0.00     0.038 C 
HETATM    9  C27 UNL     1       1.649   7.985   9.169  1.00  0.00     0.042 C 
HETATM   10  C28 UNL     1       1.398   7.823  10.690  1.00  0.00     0.067 C 
HETATM   11  C29 UNL     1      -0.056   8.191  11.017  1.00  0.00     0.047 C 
HETATM   12  C30 UNL     1       1.989   6.341  12.782  1.00  0.00     0.270 C 
HETATM   13  O5  UNL     1       0.702   5.986  13.271  1.00  0.00    -0.351 OA
ENDROOT
BRANCH   4  14
HETATM   14  C19 UNL     1       4.390   7.033  10.791  1.00  0.00     0.012 C 
BRANCH  14  15
HETATM   15  C20 UNL     1       5.494   6.520  11.719  1.00  0.00     0.027 C 
BRANCH  15  16
HETATM   16  C21 UNL     1       6.826   6.399  10.988  1.00  0.00     0.164 C 
BRANCH  16  17
HETATM   17  O1  UNL     1       6.932   5.104  10.412  1.00  0.00    -0.401 OA
HETATM   18  H32 UNL     1       6.249   5.033   9.724  1.00  0.00     0.209 HD
ENDBRANCH  16  17
ENDBRANCH  15  16
ENDBRANCH  14  15
ENDBRANCH   4  14
BRANCH  10  19
HETATM   19  O3  UNL     1       2.171   8.891  11.276  1.00  0.00    -0.389 OA
HETATM   20  H44 UNL     1       2.189   8.735  12.247  1.00  0.00     0.210 HD
ENDBRANCH  10  19
BRANCH  12  21
HETATM   21  O4  UNL     1       2.372   7.548  13.403  1.00  0.00    -0.370 OA
HETATM   22  H46 UNL     1       2.442   7.325  14.350  1.00  0.00     0.212 HD
ENDBRANCH  12  21
BRANCH   1  23
HETATM   23  C14 UNL     1      -1.326   5.150  12.361  1.00  0.00     0.011 C 
HETATM   24  C12 UNL     1      -2.245   4.234  11.986  1.00  0.00    -0.063 C 
HETATM   25  C13 UNL     1      -1.901   2.875  11.429  1.00  0.00     0.048 C 
BRANCH  24  26
HETATM   26  C11 UNL     1      -3.663   4.589  12.092  1.00  0.00     0.006 C 
HETATM   27  C10 UNL     1      -4.583   3.977  12.860  1.00  0.00     0.001 C 
BRANCH  27  28
HETATM   28  C9  UNL     1      -5.966   4.403  12.898  1.00  0.00     0.002 C 
HETATM   29  C7  UNL     1      -7.060   3.631  12.728  1.00  0.00    -0.084 C 
HETATM   30  C8  UNL     1      -7.044   2.156  12.422  1.00  0.00     0.043 C 
BRANCH  29  31
HETATM   31  C6  UNL     1      -8.442   4.261  12.807  1.00  0.00     0.037 C 
BRANCH  31  32
HETATM   32  C5  UNL     1      -8.445   5.796  12.742  1.00  0.00     0.031 C 
BRANCH  32  33
HETATM   33  C4  UNL     1      -9.064   6.455  13.947  1.00  0.00    -0.024 C 
HETATM   34  C2  UNL     1      -8.439   7.051  14.981  1.00  0.00    -0.091 C 
HETATM   35  C1  UNL     1      -9.232   7.700  16.089  1.00  0.00     0.042 C 
HETATM   36  C3  UNL     1      -6.948   7.137  15.166  1.00  0.00     0.042 C 
ENDBRANCH  32  33
ENDBRANCH  31  32
ENDBRANCH  29  31
ENDBRANCH  27  28
ENDBRANCH  24  26
ENDBRANCH   1  23
BRANCH   6  37
HETATM   37  C25 UNL     1       4.461   3.733   8.911  1.00  0.00     0.265 C 
HETATM   38  O2  UNL     1       5.382   3.241   8.268  1.00  0.00    -0.302 OA
ENDBRANCH   6  37
TORSDOF 13
ENDMDL
MODEL 3
REMARK minimizedAffinity -8.55531216
REMARK  13 active torsions:
REMARK  status: ('A' for Active; 'I' for Inactive)
REMARK    1  A    between atoms: C4_4  and  C5_5 
REMARK    2  A    between atoms: C5_5  and  C6_6 
REMARK    3  A    between atoms: C6_6  and  C7_7 
REMARK    4  A    between atoms: C9_9  and  C10_10 
REMARK    5  A    between atoms: C11_11  and  C12_12 
REMARK    6  A    between atoms: C14_14  and  C15_15 
REMARK    7  A    between atoms: C18_18  and  C19_19 
REMARK    8  A    between atoms: C19_19  and  C20_20 
REMARK    9  A    between atoms: C20_20  and  C21_21 
REMARK   10  A    between atoms: C21_21  and  O1_22 
REMARK   11  A    between atoms: C23_24  and  C25_26 
REMARK   12  A    between atoms: C28_30  and  O3_32 
REMARK   13  A    between atoms: C30_33  and  O4_34 
ROOT
HETATM    1  C15 UNL     1       0.292   5.403  12.317  1.00  0.00     0.149 C 
HETATM    2  C16 UNL     1       0.918   5.553  10.930  1.00  0.00     0.054 C 
HETATM    3  C17 UNL     1       2.018   6.650  11.054  1.00  0.00     0.050 C 
HETATM    4  C18 UNL     1       3.343   6.150  10.353  1.00  0.00     0.032 C 
HETATM    5  C22 UNL     1       3.048   5.804   8.883  1.00  0.00    -0.066 C 
HETATM    6  C23 UNL     1       3.505   4.704   8.225  1.00  0.00    -0.021 C 
HETATM    7  C24 UNL     1       3.144   4.324   6.809  1.00  0.00     0.052 C 
HETATM    8  C26 UNL     1       2.060   6.738   8.197  1.00  0.00     0.038 C 
HETATM    9  C27 UNL     1       1.798   8.075   8.884  1.00  0.00     0.042 C 
HETATM   10  C28 UNL     1       1.585   8.030  10.418  1.00  0.00     0.067 C 
HETATM   11  C29 UNL     1       0.158   8.481  10.758  1.00  0.00     0.047 C 
HETATM   12  C30 UNL     1       2.177   6.672  12.593  1.00  0.00     0.270 C 
HETATM   13  O5  UNL     1       0.892   6.406  13.140  1.00  0.00    -0.351 OA
ENDROOT
BRANCH   4  14
HETATM   14  C19 UNL     1       4.544   7.122  10.496  1.00  0.00     0.012 C 
BRANCH  14  15
HETATM   15  C20 UNL     1       5.677   6.607  11.388  1.00  0.00     0.027 C 
BRANCH  15  16
HETATM   16  C21 UNL     1       6.675   7.710  11.717  1.00  0.00     0.164 C 
BRANCH  16  17
HETATM   17  O1  UNL     1       7.770   7.157  12.434  1.00  0.00    -0.401 OA
HETATM   18  H32 UNL     1       8.238   6.552  11.833  1.00  0.00     0.209 HD
ENDBRANCH  16  17
ENDBRANCH  15  16
ENDBRANCH  14  15
ENDBRANCH   4  14
BRANCH  10  19
HETATM   19  O3  UNL     1       2.417   9.102  10.908  1.00  0.00    -0.389 OA
HETATM   20  H44 UNL     1       2.458   9.012  11.886  1.00  0.00     0.210 HD
ENDBRANCH  10  19
BRANCH  12  21
HETATM   21  O4  UNL     1       2.627   7.902  13.117  1.00  0.00    -0.370 OA
HETATM   22  H46 UNL     1       2.715   7.742  14.076  1.00  0.00     0.212 HD
ENDBRANCH  12  21
BRANCH   1  23
HETATM   23  C14 UNL     1      -1.194   5.596  12.345  1.00  0.00     0.011 C 
HETATM   24  C12 UNL     1      -1.910   6.472  13.084  1.00  0.00    -0.063 C 
HETATM   25  C13 UNL     1      -1.305   7.413  14.095  1.00  0.00     0.048 C 
BRANCH  24  26
HETATM   26  C11 UNL     1      -3.367   6.487  12.921  1.00  0.00     0.006 C 
HETATM   27  C10 UNL     1      -4.269   6.849  13.851  1.00  0.00     0.001 C 
BRANCH  27  28
HETATM   28  C9  UNL     1      -5.694   6.832  13.596  1.00  0.00     0.002 C 
HETATM   29  C7  UNL     1      -6.671   6.493  14.464  1.00  0.00    -0.084 C 
HETATM   30  C8  UNL     1      -6.454   6.023  15.878  1.00  0.00     0.043 C 
BRANCH  29  31
HETATM   31  C6  UNL     1      -8.123   6.539  14.011  1.00  0.00     0.037 C 
BRANCH  31  32
HETATM   32  C5  UNL     1      -8.551   5.358  13.128  1.00  0.00     0.031 C 
BRANCH  32  33
HETATM   33  C4  UNL     1      -7.440   4.797  12.280  1.00  0.00    -0.024 C 
HETATM   34  C2  UNL     1      -6.962   3.537  12.264  1.00  0.00    -0.091 C 
HETATM   35  C1  UNL     1      -5.862   3.144  11.309  1.00  0.00     0.042 C 
HETATM   36  C3  UNL     1      -7.428   2.416  13.152  1.00  0.00     0.042 C 
ENDBRANCH  32  33
ENDBRANCH  31  32
ENDBRANCH  29  31
ENDBRANCH  27  28
ENDBRANCH  24  26
ENDBRANCH   1  23
BRANCH   6  37
HETATM   37  C25 UNL     1       4.427   3.700   8.851  1.00  0.00     0.265 C 
HETATM   38  O2  UNL     1       5.230   3.041   8.199  1.00  0.00    -0.302 OA
ENDBRANCH   6  37
TORSDOF 13
ENDMDL
MODEL 4
REMARK minimizedAffinity -8.30553722
REMARK  13 active torsions:
REMARK  status: ('A' for Active; 'I' for Inactive)
REMARK    1  A    between atoms: C4_4  and  C5_5 
REMARK    2  A    between atoms: C5_5  and  C6_6 
REMARK    3  A    between atoms: C6_6  and  C7_7 
REMARK    4  A    between atoms: C9_9  and  C10_10 
REMARK    5  A    between atoms: C11_11  and  C12_12 
REMARK    6  A    between atoms: C14_14  and  C15_15 
REMARK    7  A    between atoms: C18_18  and  C19_19 
REMARK    8  A    between atoms: C19_19  and  C20_20 
REMARK    9  A    between atoms: C20_20  and  C21_21 
REMARK   10  A    between atoms: C21_21  and  O1_22 
REMARK   11  A    between atoms: C23_24  and  C25_26 
REMARK   12  A    between atoms: C28_30  and  O3_32 
REMARK   13  A    between atoms: C30_33  and  O4_34 
ROOT
HETATM    1  C15 UNL     1      -2.942   5.154  13.408  1.00  0.00     0.149 C 
HETATM    2  C16 UNL     1      -2.262   6.224  12.554  1.00  0.00     0.054 C 
HETATM    3  C17 UNL     1      -1.323   7.023  13.507  1.00  0.00     0.050 C 
HETATM    4  C18 UNL     1       0.094   7.196  12.829  1.00  0.00     0.032 C 
HETATM    5  C22 UNL     1      -0.068   7.899  11.470  1.00  0.00    -0.066 C 
HETATM    6  C23 UNL     1       0.564   7.544  10.318  1.00  0.00    -0.021 C 
HETATM    7  C24 UNL     1       0.337   8.182   8.968  1.00  0.00     0.052 C 
HETATM    8  C26 UNL     1      -1.129   8.992  11.443  1.00  0.00     0.038 C 
HETATM    9  C27 UNL     1      -1.601   9.515  12.797  1.00  0.00     0.042 C 
HETATM   10  C28 UNL     1      -1.893   8.448  13.882  1.00  0.00     0.067 C 
HETATM   11  C29 UNL     1      -3.384   8.474  14.246  1.00  0.00     0.047 C 
HETATM   12  C30 UNL     1      -1.256   6.025  14.688  1.00  0.00     0.270 C 
HETATM   13  O5  UNL     1      -2.525   5.388  14.755  1.00  0.00    -0.351 OA
ENDROOT
BRANCH   4  14
HETATM   14  C19 UNL     1       1.150   7.895  13.727  1.00  0.00     0.012 C 
BRANCH  14  15
HETATM   15  C20 UNL     1       2.145   6.944  14.397  1.00  0.00     0.027 C 
BRANCH  15  16
HETATM   16  C21 UNL     1       2.808   7.592  15.607  1.00  0.00     0.164 C 
BRANCH  16  17
HETATM   17  O1  UNL     1       4.196   7.286  15.603  1.00  0.00    -0.401 OA
HETATM   18  H32 UNL     1       4.589   7.719  14.827  1.00  0.00     0.209 HD
ENDBRANCH  16  17
ENDBRANCH  15  16
ENDBRANCH  14  15
ENDBRANCH   4  14
BRANCH  10  19
HETATM   19  O3  UNL     1      -1.236   8.970  15.056  1.00  0.00    -0.389 OA
HETATM   20  H44 UNL     1      -1.240   8.254  15.731  1.00  0.00     0.210 HD
ENDBRANCH  10  19
BRANCH  12  21
HETATM   21  O4  UNL     1      -1.000   6.619  15.942  1.00  0.00    -0.370 OA
HETATM   22  H46 UNL     1      -0.947   5.868  16.562  1.00  0.00     0.212 HD
ENDBRANCH  12  21
BRANCH   1  23
HETATM   23  C14 UNL     1      -4.439   5.191  13.364  1.00  0.00     0.011 C 
HETATM   24  C12 UNL     1      -5.279   4.334  12.744  1.00  0.00    -0.063 C 
HETATM   25  C13 UNL     1      -4.823   3.166  11.906  1.00  0.00     0.048 C 
BRANCH  24  26
HETATM   26  C11 UNL     1      -6.721   4.569  12.860  1.00  0.00     0.006 C 
HETATM   27  C10 UNL     1      -7.317   5.738  13.157  1.00  0.00     0.001 C 
BRANCH  27  28
HETATM   28  C9  UNL     1      -8.755   5.873  13.250  1.00  0.00     0.002 C 
HETATM   29  C7  UNL     1      -9.443   6.737  14.027  1.00  0.00    -0.084 C 
HETATM   30  C8  UNL     1      -8.828   7.719  14.991  1.00  0.00     0.043 C 
BRANCH  29  31
HETATM   31  C6  UNL     1     -10.963   6.733  13.987  1.00  0.00     0.037 C 
BRANCH  31  32
HETATM   32  C5  UNL     1     -11.577   7.769  13.033  1.00  0.00     0.031 C 
BRANCH  32  33
HETATM   33  C4  UNL     1     -12.568   8.692  13.692  1.00  0.00    -0.024 C 
HETATM   34  C2  UNL     1     -12.342   9.910  14.224  1.00  0.00    -0.091 C 
HETATM   35  C1  UNL     1     -13.476  10.715  14.810  1.00  0.00     0.042 C 
HETATM   36  C3  UNL     1     -11.003  10.590  14.309  1.00  0.00     0.042 C 
ENDBRANCH  32  33
ENDBRANCH  31  32
ENDBRANCH  29  31
ENDBRANCH  27  28
ENDBRANCH  24  26
ENDBRANCH   1  23
BRANCH   6  37
HETATM   37  C25 UNL     1       1.571   6.435  10.245  1.00  0.00     0.265 C 
HETATM   38  O2  UNL     1       1.254   5.250  10.260  1.00  0.00    -0.302 OA
ENDBRANCH   6  37
TORSDOF 13
ENDMDL
MODEL 5
REMARK minimizedAffinity -7.84462357
REMARK  13 active torsions:
REMARK  status: ('A' for Active; 'I' for Inactive)
REMARK    1  A    between atoms: C4_4  and  C5_5 
REMARK    2  A    between atoms: C5_5  and  C6_6 
REMARK    3  A    between atoms: C6_6  and  C7_7 
REMARK    4  A    between atoms: C9_9  and  C10_10 
REMARK    5  A    between atoms: C11_11  and  C12_12 
REMARK    6  A    between atoms: C14_14  and  C15_15 
REMARK    7  A    between atoms: C18_18  and  C19_19 
REMARK    8  A    between atoms: C19_19  and  C20_20 
REMARK    9  A    between atoms: C20_20  and  C21_21 
REMARK   10  A    between atoms: C21_21  and  O1_22 
REMARK   11  A    between atoms: C23_24  and  C25_26 
REMARK   12  A    between atoms: C28_30  and  O3_32 
REMARK   13  A    between atoms: C30_33  and  O4_34 
ROOT
HETATM    1  C15 UNL     1      -0.560   5.229  12.685  1.00  0.00     0.149 C 
HETATM    2  C16 UNL     1       0.123   5.907  11.497  1.00  0.00     0.054 C 
HETATM    3  C17 UNL     1       1.399   6.605  12.057  1.00  0.00     0.050 C 
HETATM    4  C18 UNL     1       2.632   6.277  11.124  1.00  0.00     0.032 C 
HETATM    5  C22 UNL     1       2.322   6.727   9.686  1.00  0.00    -0.066 C 
HETATM    6  C23 UNL     1       2.592   6.010   8.560  1.00  0.00    -0.021 C 
HETATM    7  C24 UNL     1       2.209   6.417   7.157  1.00  0.00     0.052 C 
HETATM    8  C26 UNL     1       1.540   8.029   9.582  1.00  0.00     0.038 C 
HETATM    9  C27 UNL     1       1.504   8.903  10.833  1.00  0.00     0.042 C 
HETATM   10  C28 UNL     1       1.242   8.173  12.174  1.00  0.00     0.067 C 
HETATM   11  C29 UNL     1      -0.089   8.648  12.772  1.00  0.00     0.047 C 
HETATM   12  C30 UNL     1       1.515   5.866  13.412  1.00  0.00     0.270 C 
HETATM   13  O5  UNL     1       0.188   5.600  13.845  1.00  0.00    -0.351 OA
ENDROOT
BRANCH   4  14
HETATM   14  C19 UNL     1       3.985   6.840  11.635  1.00  0.00     0.012 C 
BRANCH  14  15
HETATM   15  C20 UNL     1       4.930   7.324  10.532  1.00  0.00     0.027 C 
BRANCH  15  16
HETATM   16  C21 UNL     1       6.323   7.613  11.077  1.00  0.00     0.164 C 
BRANCH  16  17
HETATM   17  O1  UNL     1       6.665   6.629  12.043  1.00  0.00    -0.401 OA
HETATM   18  H32 UNL     1       6.738   5.777  11.580  1.00  0.00     0.209 HD
ENDBRANCH  16  17
ENDBRANCH  15  16
ENDBRANCH  14  15
ENDBRANCH   4  14
BRANCH  10  19
HETATM   19  O3  UNL     1       2.240   8.722  13.060  1.00  0.00    -0.389 OA
HETATM   20  H44 UNL     1       2.235   8.173  13.876  1.00  0.00     0.210 HD
ENDBRANCH  10  19
BRANCH  12  21
HETATM   21  O4  UNL     1       2.164   6.602  14.425  1.00  0.00    -0.370 OA
HETATM   22  H46 UNL     1       2.194   5.993  15.188  1.00  0.00     0.212 HD
ENDBRANCH  12  21
BRANCH   1  23
HETATM   23  C14 UNL     1      -1.987   5.639  12.890  1.00  0.00     0.011 C 
HETATM   24  C12 UNL     1      -3.104   5.039  12.427  1.00  0.00    -0.063 C 
HETATM   25  C13 UNL     1      -3.100   3.823  11.535  1.00  0.00     0.048 C 
BRANCH  24  26
HETATM   26  C11 UNL     1      -4.402   5.622  12.780  1.00  0.00     0.006 C 
HETATM   27  C10 UNL     1      -4.605   6.786  13.423  1.00  0.00     0.001 C 
BRANCH  27  28
HETATM   28  C9  UNL     1      -5.931   7.281  13.729  1.00  0.00     0.002 C 
HETATM   29  C7  UNL     1      -6.265   8.171  14.687  1.00  0.00    -0.084 C 
HETATM   30  C8  UNL     1      -5.306   8.801  15.663  1.00  0.00     0.043 C 
BRANCH  29  31
HETATM   31  C6  UNL     1      -7.722   8.576  14.858  1.00  0.00     0.037 C 
BRANCH  31  32
HETATM   32  C5  UNL     1      -8.646   7.441  15.324  1.00  0.00     0.031 C 
BRANCH  32  33
HETATM   33  C4  UNL     1      -8.334   6.106  14.699  1.00  0.00    -0.024 C 
HETATM   34  C2  UNL     1      -8.704   5.649  13.487  1.00  0.00    -0.091 C 
HETATM   35  C1  UNL     1      -8.259   4.289  13.009  1.00  0.00     0.042 C 
HETATM   36  C3  UNL     1      -9.571   6.389  12.504  1.00  0.00     0.042 C 
ENDBRANCH  32  33
ENDBRANCH  31  32
ENDBRANCH  29  31
ENDBRANCH  27  28
ENDBRANCH  24  26
ENDBRANCH   1  23
BRANCH   6  37
HETATM   37  C25 UNL     1       3.298   4.688   8.582  1.00  0.00     0.265 C 
HETATM   38  O2  UNL     1       3.782   4.178   7.576  1.00  0.00    -0.302 OA
ENDBRANCH   6  37
TORSDOF 13
ENDMDL
MODEL 6
REMARK minimizedAffinity -7.71282148
REMARK  13 active torsions:
REMARK  status: ('A' for Active; 'I' for Inactive)
REMARK    1  A    between atoms: C4_4  and  C5_5 
REMARK    2  A    between atoms: C5_5  and  C6_6 
REMARK    3  A    between atoms: C6_6  and  C7_7 
REMARK    4  A    between atoms: C9_9  and  C10_10 
REMARK    5  A    between atoms: C11_11  and  C12_12 
REMARK    6  A    between atoms: C14_14  and  C15_15 
REMARK    7  A    between atoms: C18_18  and  C19_19 
REMARK    8  A    between atoms: C19_19  and  C20_20 
REMARK    9  A    between atoms: C20_20  and  C21_21 
REMARK   10  A    between atoms: C21_21  and  O1_22 
REMARK   11  A    between atoms: C23_24  and  C25_26 
REMARK   12  A    between atoms: C28_30  and  O3_32 
REMARK   13  A    between atoms: C30_33  and  O4_34 
ROOT
HETATM    1  C15 UNL     1      -2.965   5.465  13.754  1.00  0.00     0.149 C 
HETATM    2  C16 UNL     1      -2.281   6.516  12.878  1.00  0.00     0.054 C 
HETATM    3  C17 UNL     1      -1.055   7.038  13.686  1.00  0.00     0.050 C 
HETATM    4  C18 UNL     1       0.218   7.073  12.750  1.00  0.00     0.032 C 
HETATM    5  C22 UNL     1      -0.071   7.954  11.521  1.00  0.00    -0.066 C 
HETATM    6  C23 UNL     1       0.263   7.650  10.237  1.00  0.00    -0.021 C 
HETATM    7  C24 UNL     1      -0.098   8.476   9.025  1.00  0.00     0.052 C 
HETATM    8  C26 UNL     1      -0.910   9.191  11.811  1.00  0.00     0.038 C 
HETATM    9  C27 UNL     1      -1.022   9.611  13.274  1.00  0.00     0.042 C 
HETATM   10  C28 UNL     1      -1.288   8.477  14.296  1.00  0.00     0.067 C 
HETATM   11  C29 UNL     1      -2.656   8.686  14.959  1.00  0.00     0.047 C 
HETATM   12  C30 UNL     1      -0.943   5.905  14.734  1.00  0.00     0.270 C 
HETATM   13  O5  UNL     1      -2.269   5.467  15.003  1.00  0.00    -0.351 OA
ENDROOT
BRANCH   4  14
HETATM   14  C19 UNL     1       1.528   7.487  13.471  1.00  0.00     0.012 C 
BRANCH  14  15
HETATM   15  C20 UNL     1       2.788   7.390  12.607  1.00  0.00     0.027 C 
BRANCH  15  16
HETATM   16  C21 UNL     1       3.355   8.769  12.290  1.00  0.00     0.164 C 
BRANCH  16  17
HETATM   17  O1  UNL     1       2.475   9.767  12.789  1.00  0.00    -0.401 OA
HETATM   18  H32 UNL     1       2.477   9.700  13.759  1.00  0.00     0.209 HD
ENDBRANCH  16  17
ENDBRANCH  15  16
ENDBRANCH  14  15
ENDBRANCH   4  14
BRANCH  10  19
HETATM   19  O3  UNL     1      -0.342   8.744  15.352  1.00  0.00    -0.389 OA
HETATM   20  H44 UNL     1      -0.344   7.961  15.947  1.00  0.00     0.210 HD
ENDBRANCH  10  19
BRANCH  12  21
HETATM   21  O4  UNL     1      -0.358   6.295  15.957  1.00  0.00    -0.370 OA
HETATM   22  H46 UNL     1      -0.322   5.473  16.483  1.00  0.00     0.212 HD
ENDBRANCH  12  21
BRANCH   1  23
HETATM   23  C14 UNL     1      -4.414   5.738  14.021  1.00  0.00     0.011 C 
HETATM   24  C12 UNL     1      -5.163   6.777  13.591  1.00  0.00    -0.063 C 
HETATM   25  C13 UNL     1      -4.622   7.923  12.774  1.00  0.00     0.048 C 
BRANCH  24  26
HETATM   26  C11 UNL     1      -6.579   6.815  13.970  1.00  0.00     0.006 C 
HETATM   27  C10 UNL     1      -7.172   7.741  14.745  1.00  0.00     0.001 C 
BRANCH  27  28
HETATM   28  C9  UNL     1      -8.583   7.694  15.065  1.00  0.00     0.002 C 
HETATM   29  C7  UNL     1      -9.557   7.083  14.358  1.00  0.00    -0.084 C 
HETATM   30  C8  UNL     1      -9.359   6.351  13.057  1.00  0.00     0.043 C 
BRANCH  29  31
HETATM   31  C6  UNL     1     -10.993   7.141  14.857  1.00  0.00     0.037 C 
BRANCH  31  32
HETATM   32  C5  UNL     1     -12.037   6.641  13.847  1.00  0.00     0.031 C 
BRANCH  32  33
HETATM   33  C4  UNL     1     -13.320   6.169  14.481  1.00  0.00    -0.024 C 
HETATM   34  C2  UNL     1     -14.574   6.283  14.001  1.00  0.00    -0.091 C 
HETATM   35  C1  UNL     1     -15.743   5.709  14.763  1.00  0.00     0.042 C 
HETATM   36  C3  UNL     1     -14.958   6.969  12.718  1.00  0.00     0.042 C 
ENDBRANCH  32  33
ENDBRANCH  31  32
ENDBRANCH  29  31
ENDBRANCH  27  28
ENDBRANCH  24  26
ENDBRANCH   1  23
BRANCH   6  37
HETATM   37  C25 UNL     1       1.029   6.417   9.861  1.00  0.00     0.265 C 
HETATM   38  O2  UNL     1       1.986   6.440   9.093  1.00  0.00    -0.302 OA
ENDBRANCH   6  37
TORSDOF 13
ENDMDL
MODEL 7
REMARK minimizedAffinity -7.64024162
REMARK  13 active torsions:
REMARK  status: ('A' for Active; 'I' for Inactive)
REMARK    1  A    between atoms: C4_4  and  C5_5 
REMARK    2  A    between atoms: C5_5  and  C6_6 
REMARK    3  A    between atoms: C6_6  and  C7_7 
REMARK    4  A    between atoms: C9_9  and  C10_10 
REMARK    5  A    between atoms: C11_11  and  C12_12 
REMARK    6  A    between atoms: C14_14  and  C15_15 
REMARK    7  A    between atoms: C18_18  and  C19_19 
REMARK    8  A    between atoms: C19_19  and  C20_20 
REMARK    9  A    between atoms: C20_20  and  C21_21 
REMARK   10  A    between atoms: C21_21  and  O1_22 
REMARK   11  A    between atoms: C23_24  and  C25_26 
REMARK   12  A    between atoms: C28_30  and  O3_32 
REMARK   13  A    between atoms: C30_33  and  O4_34 
ROOT
HETATM    1  C15 UNL     1       0.787   7.166  15.629  1.00  0.00     0.149 C 
HETATM    2  C16 UNL     1      -0.427   7.577  14.796  1.00  0.00     0.054 C 
HETATM    3  C17 UNL     1      -0.152   7.094  13.340  1.00  0.00     0.050 C 
HETATM    4  C18 UNL     1      -1.433   6.363  12.775  1.00  0.00     0.032 C 
HETATM    5  C22 UNL     1      -2.640   7.315  12.839  1.00  0.00    -0.066 C 
HETATM    6  C23 UNL     1      -3.891   6.977  13.254  1.00  0.00    -0.021 C 
HETATM    7  C24 UNL     1      -5.050   7.934  13.397  1.00  0.00     0.052 C 
HETATM    8  C26 UNL     1      -2.318   8.770  12.520  1.00  0.00     0.038 C 
HETATM    9  C27 UNL     1      -0.990   9.034  11.815  1.00  0.00     0.042 C 
HETATM   10  C28 UNL     1       0.242   8.273  12.365  1.00  0.00     0.067 C 
HETATM   11  C29 UNL     1       1.257   9.274  12.935  1.00  0.00     0.047 C 
HETATM   12  C30 UNL     1       0.986   6.084  13.622  1.00  0.00     0.270 C 
HETATM   13  O5  UNL     1       1.731   6.604  14.715  1.00  0.00    -0.351 OA
ENDROOT
BRANCH   4  14
HETATM   14  C19 UNL     1      -1.246   5.751  11.361  1.00  0.00     0.012 C 
BRANCH  14  15
HETATM   15  C20 UNL     1      -1.143   4.223  11.337  1.00  0.00     0.027 C 
BRANCH  15  16
HETATM   16  C21 UNL     1      -2.322   3.596  10.603  1.00  0.00     0.164 C 
BRANCH  16  17
HETATM   17  O1  UNL     1      -1.873   2.462   9.873  1.00  0.00    -0.401 OA
HETATM   18  H32 UNL     1      -1.583   1.795  10.519  1.00  0.00     0.209 HD
ENDBRANCH  16  17
ENDBRANCH  15  16
ENDBRANCH  14  15
ENDBRANCH   4  14
BRANCH  10  19
HETATM   19  O3  UNL     1       0.883   7.763  11.177  1.00  0.00    -0.389 OA
HETATM   20  H44 UNL     1       1.574   7.128  11.472  1.00  0.00     0.210 HD
ENDBRANCH  10  19
BRANCH  12  21
HETATM   21  O4  UNL     1       1.875   5.888  12.544  1.00  0.00    -0.370 OA
HETATM   22  H46 UNL     1       2.496   5.205  12.861  1.00  0.00     0.212 HD
ENDBRANCH  12  21
BRANCH   1  23
HETATM   23  C14 UNL     1       1.447   8.300  16.353  1.00  0.00     0.011 C 
HETATM   24  C12 UNL     1       0.895   9.462  16.767  1.00  0.00    -0.063 C 
HETATM   25  C13 UNL     1      -0.538   9.853  16.510  1.00  0.00     0.048 C 
BRANCH  24  26
HETATM   26  C11 UNL     1       1.747  10.419  17.481  1.00  0.00     0.006 C 
HETATM   27  C10 UNL     1       2.054  10.391  18.790  1.00  0.00     0.001 C 
BRANCH  27  28
HETATM   28  C9  UNL     1       2.908  11.385  19.407  1.00  0.00     0.002 C 
HETATM   29  C7  UNL     1       3.512  11.303  20.611  1.00  0.00    -0.084 C 
HETATM   30  C8  UNL     1       3.377  10.154  21.576  1.00  0.00     0.043 C 
BRANCH  29  31
HETATM   31  C6  UNL     1       4.380  12.455  21.093  1.00  0.00     0.037 C 
BRANCH  31  32
HETATM   32  C5  UNL     1       4.791  12.367  22.570  1.00  0.00     0.031 C 
BRANCH  32  33
HETATM   33  C4  UNL     1       6.211  11.911  22.781  1.00  0.00    -0.024 C 
HETATM   34  C2  UNL     1       7.302  12.668  23.012  1.00  0.00    -0.091 C 
HETATM   35  C1  UNL     1       8.648  12.027  23.242  1.00  0.00     0.042 C 
HETATM   36  C3  UNL     1       7.324  14.172  23.061  1.00  0.00     0.042 C 
ENDBRANCH  32  33
ENDBRANCH  31  32
ENDBRANCH  29  31
ENDBRANCH  27  28
ENDBRANCH  24  26
ENDBRANCH   1  23
BRANCH   6  37
HETATM   37  C25 UNL     1      -4.271   5.582  13.651  1.00  0.00     0.265 C 
HETATM   38  O2  UNL     1      -4.764   4.780  12.863  1.00  0.00    -0.302 OA
ENDBRANCH   6  37
TORSDOF 13
ENDMDL
MODEL 8
REMARK minimizedAffinity -7.63092709
REMARK  13 active torsions:
REMARK  status: ('A' for Active; 'I' for Inactive)
REMARK    1  A    between atoms: C4_4  and  C5_5 
REMARK    2  A    between atoms: C5_5  and  C6_6 
REMARK    3  A    between atoms: C6_6  and  C7_7 
REMARK    4  A    between atoms: C9_9  and  C10_10 
REMARK    5  A    between atoms: C11_11  and  C12_12 
REMARK    6  A    between atoms: C14_14  and  C15_15 
REMARK    7  A    between atoms: C18_18  and  C19_19 
REMARK    8  A    between atoms: C19_19  and  C20_20 
REMARK    9  A    between atoms: C20_20  and  C21_21 
REMARK   10  A    between atoms: C21_21  and  O1_22 
REMARK   11  A    between atoms: C23_24  and  C25_26 
REMARK   12  A    between atoms: C28_30  and  O3_32 
REMARK   13  A    between atoms: C30_33  and  O4_34 
ROOT
HETATM    1  C15 UNL     1      -1.320  10.023  14.806  1.00  0.00     0.149 C 
HETATM    2  C16 UNL     1      -0.365   9.264  13.884  1.00  0.00     0.054 C 
HETATM    3  C17 UNL     1      -0.889   7.798  13.811  1.00  0.00     0.050 C 
HETATM    4  C18 UNL     1      -0.913   7.321  12.304  1.00  0.00     0.032 C 
HETATM    5  C22 UNL     1       0.496   7.453  11.700  1.00  0.00    -0.066 C 
HETATM    6  C23 UNL     1       0.782   7.949  10.466  1.00  0.00    -0.021 C 
HETATM    7  C24 UNL     1       2.171   8.155   9.910  1.00  0.00     0.052 C 
HETATM    8  C26 UNL     1       1.630   7.100  12.654  1.00  0.00     0.038 C 
HETATM    9  C27 UNL     1       1.249   6.311  13.903  1.00  0.00     0.042 C 
HETATM   10  C28 UNL     1      -0.017   6.790  14.658  1.00  0.00     0.067 C 
HETATM   11  C29 UNL     1       0.371   7.285  16.058  1.00  0.00     0.047 C 
HETATM   12  C30 UNL     1      -2.324   8.017  14.348  1.00  0.00     0.270 C 
HETATM   13  O5  UNL     1      -2.243   9.056  15.314  1.00  0.00    -0.351 OA
ENDROOT
BRANCH   4  14
HETATM   14  C19 UNL     1      -1.510   5.904  12.094  1.00  0.00     0.012 C 
BRANCH  14  15
HETATM   15  C20 UNL     1      -0.704   5.008  11.150  1.00  0.00     0.027 C 
BRANCH  15  16
HETATM   16  C21 UNL     1      -0.847   3.536  11.519  1.00  0.00     0.164 C 
BRANCH  16  17
HETATM   17  O1  UNL     1      -1.499   2.847  10.461  1.00  0.00    -0.401 OA
HETATM   18  H32 UNL     1      -0.906   2.866   9.690  1.00  0.00     0.209 HD
ENDBRANCH  16  17
ENDBRANCH  15  16
ENDBRANCH  14  15
ENDBRANCH   4  14
BRANCH  10  19
HETATM   19  O3  UNL     1      -0.744   5.569  14.908  1.00  0.00    -0.389 OA
HETATM   20  H44 UNL     1      -1.637   5.825  15.230  1.00  0.00     0.210 HD
ENDBRANCH  10  19
BRANCH  12  21
HETATM   21  O4  UNL     1      -2.894   6.888  14.971  1.00  0.00    -0.370 OA
HETATM   22  H46 UNL     1      -3.797   7.171  15.211  1.00  0.00     0.212 HD
ENDBRANCH  12  21
BRANCH   1  23
HETATM   23  C14 UNL     1      -0.650  10.694  15.967  1.00  0.00     0.011 C 
HETATM   24  C12 UNL     1      -1.109  10.834  17.230  1.00  0.00    -0.063 C 
HETATM   25  C13 UNL     1      -2.464  10.361  17.691  1.00  0.00     0.048 C 
BRANCH  24  26
HETATM   26  C11 UNL     1      -0.255  11.518  18.206  1.00  0.00     0.006 C 
HETATM   27  C10 UNL     1       0.690  10.949  18.975  1.00  0.00     0.001 C 
BRANCH  27  28
HETATM   28  C9  UNL     1       1.487  11.711  19.914  1.00  0.00     0.002 C 
HETATM   29  C7  UNL     1       2.131  11.240  21.003  1.00  0.00    -0.084 C 
HETATM   30  C8  UNL     1       2.110   9.810  21.476  1.00  0.00     0.043 C 
BRANCH  29  31
HETATM   31  C6  UNL     1       2.926  12.200  21.875  1.00  0.00     0.037 C 
BRANCH  31  32
HETATM   32  C5  UNL     1       3.619  11.541  23.077  1.00  0.00     0.031 C 
BRANCH  32  33
HETATM   33  C4  UNL     1       5.117  11.450  22.942  1.00  0.00    -0.024 C 
HETATM   34  C2  UNL     1       6.015  12.454  22.961  1.00  0.00    -0.091 C 
HETATM   35  C1  UNL     1       7.492  12.167  22.853  1.00  0.00     0.042 C 
HETATM   36  C3  UNL     1       5.684  13.918  23.078  1.00  0.00     0.042 C 
ENDBRANCH  32  33
ENDBRANCH  31  32
ENDBRANCH  29  31
ENDBRANCH  27  28
ENDBRANCH  24  26
ENDBRANCH   1  23
BRANCH   6  37
HETATM   37  C25 UNL     1      -0.275   8.381   9.493  1.00  0.00     0.265 C 
HETATM   38  O2  UNL     1      -0.035   8.607   8.311  1.00  0.00    -0.302 OA
ENDBRANCH   6  37
TORSDOF 13
ENDMDL
MODEL 9
REMARK minimizedAffinity -7.60944271
REMARK  13 active torsions:
REMARK  status: ('A' for Active; 'I' for Inactive)
REMARK    1  A    between atoms: C4_4  and  C5_5 
REMARK    2  A    between atoms: C5_5  and  C6_6 
REMARK    3  A    between atoms: C6_6  and  C7_7 
REMARK    4  A    between atoms: C9_9  and  C10_10 
REMARK    5  A    between atoms: C11_11  and  C12_12 
REMARK    6  A    between atoms: C14_14  and  C15_15 
REMARK    7  A    between atoms: C18_18  and  C19_19 
REMARK    8  A    between atoms: C19_19  and  C20_20 
REMARK    9  A    between atoms: C20_20  and  C21_21 
REMARK   10  A    between atoms: C21_21  and  O1_22 
REMARK   11  A    between atoms: C23_24  and  C25_26 
REMARK   12  A    between atoms: C28_30  and  O3_32 
REMARK   13  A    between atoms: C30_33  and  O4_34 
ROOT
HETATM    1  C15 UNL     1       3.467   8.597  11.567  1.00  0.00     0.149 C 
HETATM    2  C16 UNL     1       4.410   9.430  12.435  1.00  0.00     0.054 C 
HETATM    3  C17 UNL     1       5.525   8.463  12.936  1.00  0.00     0.050 C 
HETATM    4  C18 UNL     1       6.939   9.140  12.739  1.00  0.00     0.032 C 
HETATM    5  C22 UNL     1       6.974  10.485  13.487  1.00  0.00    -0.066 C 
HETATM    6  C23 UNL     1       7.494  11.645  13.001  1.00  0.00    -0.021 C 
HETATM    7  C24 UNL     1       7.450  12.981  13.703  1.00  0.00     0.052 C 
HETATM    8  C26 UNL     1       6.243  10.487  14.823  1.00  0.00     0.038 C 
HETATM    9  C27 UNL     1       5.922   9.122  15.426  1.00  0.00     0.042 C 
HETATM   10  C28 UNL     1       5.352   8.059  14.453  1.00  0.00     0.067 C 
HETATM   11  C29 UNL     1       3.921   7.691  14.867  1.00  0.00     0.047 C 
HETATM   12  C30 UNL     1       5.320   7.303  11.932  1.00  0.00     0.270 C 
HETATM   13  O5  UNL     1       3.927   7.246  11.655  1.00  0.00    -0.351 OA
ENDROOT
BRANCH   4  14
HETATM   14  C19 UNL     1       8.139   8.231  13.115  1.00  0.00     0.012 C 
BRANCH  14  15
HETATM   15  C20 UNL     1       9.293   8.956  13.812  1.00  0.00     0.027 C 
BRANCH  15  16
HETATM   16  C21 UNL     1      10.489   8.034  14.017  1.00  0.00     0.164 C 
BRANCH  16  17
HETATM   17  O1  UNL     1      11.688   8.794  13.949  1.00  0.00    -0.401 OA
HETATM   18  H32 UNL     1      11.693   9.402  14.709  1.00  0.00     0.209 HD
ENDBRANCH  16  17
ENDBRANCH  15  16
ENDBRANCH  14  15
ENDBRANCH   4  14
BRANCH  10  19
HETATM   19  O3  UNL     1       6.120   6.875  14.758  1.00  0.00    -0.389 OA
HETATM   20  H44 UNL     1       5.923   6.215  14.056  1.00  0.00     0.210 HD
ENDBRANCH  10  19
BRANCH  12  21
HETATM   21  O4  UNL     1       5.719   6.038  12.411  1.00  0.00    -0.370 OA
HETATM   22  H46 UNL     1       5.568   5.434  11.660  1.00  0.00     0.212 HD
ENDBRANCH  12  21
BRANCH   1  23
HETATM   23  C14 UNL     1       2.034   8.638  12.002  1.00  0.00     0.011 C 
HETATM   24  C12 UNL     1       0.927   8.431  11.256  1.00  0.00    -0.063 C 
HETATM   25  C13 UNL     1       0.949   8.162   9.772  1.00  0.00     0.048 C 
BRANCH  24  26
HETATM   26  C11 UNL     1      -0.379   8.506  11.917  1.00  0.00     0.006 C 
HETATM   27  C10 UNL     1      -1.146   7.464  12.286  1.00  0.00     0.001 C 
BRANCH  27  28
HETATM   28  C9  UNL     1      -2.428   7.639  12.937  1.00  0.00     0.002 C 
HETATM   29  C7  UNL     1      -3.138   6.701  13.599  1.00  0.00    -0.084 C 
HETATM   30  C8  UNL     1      -2.739   5.257  13.755  1.00  0.00     0.043 C 
BRANCH  29  31
HETATM   31  C6  UNL     1      -4.473   7.075  14.224  1.00  0.00     0.037 C 
BRANCH  31  32
HETATM   32  C5  UNL     1      -5.700   6.673  13.392  1.00  0.00     0.031 C 
BRANCH  32  33
HETATM   33  C4  UNL     1      -6.146   5.251  13.612  1.00  0.00    -0.024 C 
HETATM   34  C2  UNL     1      -7.251   4.644  13.139  1.00  0.00    -0.091 C 
HETATM   35  C1  UNL     1      -7.515   3.188  13.432  1.00  0.00     0.042 C 
HETATM   36  C3  UNL     1      -8.319   5.302  12.307  1.00  0.00     0.042 C 
ENDBRANCH  32  33
ENDBRANCH  31  32
ENDBRANCH  29  31
ENDBRANCH  27  28
ENDBRANCH  24  26
ENDBRANCH   1  23
BRANCH   6  37
HETATM   37  C25 UNL     1       8.170  11.742  11.666  1.00  0.00     0.265 C 
HETATM   38  O2  UNL     1       8.453  10.755  10.993  1.00  0.00    -0.302 OA
ENDBRANCH   6  37
TORSDOF 13
ENDMDL
