MODEL 1
REMARK minimizedAffinity -8.18208027
REMARK CNNscore 0.590436637
REMARK CNNaffinity 6.42131472
REMARK  5 active torsions:
REMARK  status: ('A' for Active; 'I' for Inactive)
REMARK    1  A    between atoms: C2_2  and  C4_4 
REMARK    2  A    between atoms: C7_7  and  C8_8 
REMARK    3  A    between atoms: C8_8  and  O2_10 
REMARK    4  A    between atoms: C11_13  and  C12_14 
REMARK    5  A    between atoms: C12_14  and  O4_16 
ROOT
HETATM    1  C4  UNL     1       2.258   8.401   9.238  1.00  0.00     0.019 C 
HETATM    2  C5  UNL     1       3.711   7.941   8.943  1.00  0.00     0.011 C 
HETATM    3  C6  UNL     1       4.189   7.154  10.175  1.00  0.00     0.021 C 
HETATM    4  C7  UNL     1       3.306   7.679  11.313  1.00  0.00     0.050 C 
HETATM    5  C9  UNL     1       3.187   6.749  12.528  1.00  0.00     0.022 C 
HETATM    6  C10 UNL     1       2.075   7.236  13.482  1.00  0.00     0.023 C 
HETATM    7  C11 UNL     1       0.662   7.366  12.805  1.00  0.00     0.057 C 
HETATM    8  C13 UNL     1       0.823   8.286  11.524  1.00  0.00     0.011 C 
HETATM    9  C14 UNL     1      -0.505   8.570  10.808  1.00  0.00     0.007 C 
HETATM   10  C15 UNL     1      -1.605   9.065  11.749  1.00  0.00     0.006 C 
HETATM   11  C16 UNL     1      -1.802   8.154  12.982  1.00  0.00     0.003 C 
HETATM   12  C17 UNL     1      -3.134   8.454  13.793  1.00  0.00    -0.035 C 
HETATM   13  C18 UNL     1      -3.273   9.958  14.164  1.00  0.00     0.016 C 
HETATM   14  C19 UNL     1      -4.354   8.140  12.860  1.00  0.00     0.017 C 
HETATM   15  C20 UNL     1      -5.630   7.811  13.611  1.00  0.00     0.080 C 
HETATM   16  C21 UNL     1      -5.464   6.616  14.524  1.00  0.00     0.135 C 
HETATM   17  O5  UNL     1      -6.467   5.984  14.874  1.00  0.00    -0.297 OA
HETATM   18  C22 UNL     1      -4.046   6.266  15.019  1.00  0.00     0.017 C 
HETATM   19  C23 UNL     1      -3.468   5.191  14.089  1.00  0.00     0.023 C 
HETATM   20  C24 UNL     1      -4.199   5.617  16.416  1.00  0.00     0.023 C 
HETATM   21  C25 UNL     1      -3.241   7.615  15.125  1.00  0.00     0.009 C 
HETATM   22  C26 UNL     1      -1.895   7.539  15.875  1.00  0.00     0.007 C 
HETATM   23  C27 UNL     1      -0.713   7.101  15.021  1.00  0.00     0.011 C 
HETATM   24  C28 UNL     1      -0.457   8.004  13.789  1.00  0.00    -0.022 C 
HETATM   25  C29 UNL     1       0.054   9.372  14.333  1.00  0.00     0.017 C 
HETATM   26  C30 UNL     1       1.935   7.737  10.598  1.00  0.00     0.018 C 
ENDROOT
BRANCH   4  27
HETATM   27  C8  UNL     1       3.960   8.985  11.795  1.00  0.00     0.149 C 
HETATM   28  O1  UNL     1       3.397   9.857  12.441  1.00  0.00    -0.649 OA
BRANCH  27  29
HETATM   29  O2  UNL     1       5.257   9.135  11.494  1.00  0.00    -0.776 OA
HETATM   30  H11 UNL     1       5.504   9.979  11.926  1.00  0.00     0.167 HD
ENDBRANCH  27  29
ENDBRANCH   4  27
BRANCH   1  31
HETATM   31  C2  UNL     1       1.336   8.087   8.072  1.00  0.00    -0.088 C 
HETATM   32  C1  UNL     1       0.026   8.381   8.128  1.00  0.00     0.014 C 
HETATM   33  C3  UNL     1       1.921   7.471   6.828  1.00  0.00     0.043 C 
ENDBRANCH   1  31
BRANCH   7  34
HETATM   34  C12 UNL     1       0.228   5.934  12.375  1.00  0.00     0.149 C 
HETATM   35  O3  UNL     1       0.248   4.920  13.054  1.00  0.00    -0.649 OA
BRANCH  34  36
HETATM   36  O4  UNL     1      -0.213   5.843  11.105  1.00  0.00    -0.776 OA
HETATM   37  H16 UNL     1      -0.451   4.898  11.002  1.00  0.00     0.167 HD
ENDBRANCH  34  36
ENDBRANCH   7  34
TORSDOF 5
ENDMDL
MODEL 2
REMARK minimizedAffinity -7.40185881
REMARK CNNscore 0.442450613
REMARK CNNaffinity 5.89660025
REMARK  5 active torsions:
REMARK  status: ('A' for Active; 'I' for Inactive)
REMARK    1  A    between atoms: C2_2  and  C4_4 
REMARK    2  A    between atoms: C7_7  and  C8_8 
REMARK    3  A    between atoms: C8_8  and  O2_10 
REMARK    4  A    between atoms: C11_13  and  C12_14 
REMARK    5  A    between atoms: C12_14  and  O4_16 
ROOT
HETATM    1  C4  UNL     1      13.558  -4.350   4.283  1.00  0.00     0.019 C 
HETATM    2  C5  UNL     1      12.027  -4.565   4.162  1.00  0.00     0.011 C 
HETATM    3  C6  UNL     1      11.564  -5.228   5.470  1.00  0.00     0.021 C 
HETATM    4  C7  UNL     1      12.830  -5.903   6.009  1.00  0.00     0.050 C 
HETATM    5  C9  UNL     1      12.821  -6.199   7.515  1.00  0.00     0.022 C 
HETATM    6  C10 UNL     1      14.226  -6.620   7.998  1.00  0.00     0.023 C 
HETATM    7  C11 UNL     1      15.349  -5.561   7.699  1.00  0.00     0.057 C 
HETATM    8  C13 UNL     1      15.301  -5.231   6.148  1.00  0.00     0.011 C 
HETATM    9  C14 UNL     1      16.408  -4.267   5.698  1.00  0.00     0.007 C 
HETATM   10  C15 UNL     1      17.803  -4.687   6.164  1.00  0.00     0.006 C 
HETATM   11  C16 UNL     1      17.873  -4.972   7.682  1.00  0.00     0.003 C 
HETATM   12  C17 UNL     1      19.354  -5.088   8.244  1.00  0.00    -0.035 C 
HETATM   13  C18 UNL     1      20.215  -6.097   7.431  1.00  0.00     0.016 C 
HETATM   14  C19 UNL     1      20.056  -3.698   8.060  1.00  0.00     0.017 C 
HETATM   15  C20 UNL     1      21.202  -3.459   9.024  1.00  0.00     0.080 C 
HETATM   16  C21 UNL     1      20.758  -3.531  10.468  1.00  0.00     0.135 C 
HETATM   17  O5  UNL     1      21.439  -2.973  11.335  1.00  0.00    -0.297 OA
HETATM   18  C22 UNL     1      19.492  -4.346  10.803  1.00  0.00     0.017 C 
HETATM   19  C23 UNL     1      18.301  -3.379  10.854  1.00  0.00     0.023 C 
HETATM   20  C24 UNL     1      19.677  -4.907  12.234  1.00  0.00     0.023 C 
HETATM   21  C25 UNL     1      19.401  -5.522   9.760  1.00  0.00     0.009 C 
HETATM   22  C26 UNL     1      18.378  -6.631  10.080  1.00  0.00     0.007 C 
HETATM   23  C27 UNL     1      16.957  -6.339   9.616  1.00  0.00     0.011 C 
HETATM   24  C28 UNL     1      16.832  -6.080   8.095  1.00  0.00    -0.022 C 
HETATM   25  C29 UNL     1      17.111  -7.438   7.382  1.00  0.00     0.017 C 
HETATM   26  C30 UNL     1      13.876  -4.798   5.729  1.00  0.00     0.018 C 
ENDROOT
BRANCH   4  27
HETATM   27  C8  UNL     1      12.943  -7.250   5.275  1.00  0.00     0.149 C 
HETATM   28  O1  UNL     1      12.544  -7.468   4.140  1.00  0.00    -0.649 OA
BRANCH  27  29
HETATM   29  O2  UNL     1      13.559  -8.233   5.947  1.00  0.00    -0.776 OA
HETATM   30  H11 UNL     1      13.585  -8.975   5.308  1.00  0.00     0.167 HD
ENDBRANCH  27  29
ENDBRANCH   4  27
BRANCH   1  31
HETATM   31  C2  UNL     1      13.946  -2.933   3.890  1.00  0.00    -0.088 C 
HETATM   32  C1  UNL     1      15.072  -2.692   3.199  1.00  0.00     0.014 C 
HETATM   33  C3  UNL     1      13.024  -1.800   4.255  1.00  0.00     0.043 C 
ENDBRANCH   1  31
BRANCH   7  34
HETATM   34  C12 UNL     1      15.003  -4.284   8.520  1.00  0.00     0.149 C 
HETATM   35  O3  UNL     1      14.030  -4.106   9.236  1.00  0.00    -0.649 OA
BRANCH  34  36
HETATM   36  O4  UNL     1      15.900  -3.285   8.403  1.00  0.00    -0.776 OA
HETATM   37  H16 UNL     1      15.545  -2.576   8.978  1.00  0.00     0.167 HD
ENDBRANCH  34  36
ENDBRANCH   7  34
TORSDOF 5
ENDMDL
MODEL 3
REMARK minimizedAffinity -5.88468122
REMARK CNNscore 0.431234419
REMARK CNNaffinity 5.78498316
REMARK  5 active torsions:
REMARK  status: ('A' for Active; 'I' for Inactive)
REMARK    1  A    between atoms: C2_2  and  C4_4 
REMARK    2  A    between atoms: C7_7  and  C8_8 
REMARK    3  A    between atoms: C8_8  and  O2_10 
REMARK    4  A    between atoms: C11_13  and  C12_14 
REMARK    5  A    between atoms: C12_14  and  O4_16 
ROOT
HETATM    1  C4  UNL     1     -13.048  13.903  -1.672  1.00  0.00     0.019 C 
HETATM    2  C5  UNL     1     -12.399  13.739  -0.272  1.00  0.00     0.011 C 
HETATM    3  C6  UNL     1     -12.521  12.254   0.106  1.00  0.00     0.021 C 
HETATM    4  C7  UNL     1     -13.704  11.756  -0.732  1.00  0.00     0.050 C 
HETATM    5  C9  UNL     1     -13.746  10.239  -0.963  1.00  0.00     0.022 C 
HETATM    6  C10 UNL     1     -14.803   9.879  -2.031  1.00  0.00     0.023 C 
HETATM    7  C11 UNL     1     -14.585  10.594  -3.414  1.00  0.00     0.057 C 
HETATM    8  C13 UNL     1     -14.490  12.154  -3.141  1.00  0.00     0.011 C 
HETATM    9  C14 UNL     1     -14.362  12.988  -4.423  1.00  0.00     0.007 C 
HETATM   10  C15 UNL     1     -15.414  12.642  -5.478  1.00  0.00     0.006 C 
HETATM   11  C16 UNL     1     -15.489  11.129  -5.784  1.00  0.00     0.003 C 
HETATM   12  C17 UNL     1     -16.326  10.780  -7.088  1.00  0.00    -0.035 C 
HETATM   13  C18 UNL     1     -17.738  11.433  -7.074  1.00  0.00     0.016 C 
HETATM   14  C19 UNL     1     -15.589  11.406  -8.322  1.00  0.00     0.017 C 
HETATM   15  C20 UNL     1     -15.896  10.712  -9.635  1.00  0.00     0.080 C 
HETATM   16  C21 UNL     1     -15.523   9.246  -9.606  1.00  0.00     0.135 C 
HETATM   17  O5  UNL     1     -15.323   8.656 -10.674  1.00  0.00    -0.297 OA
HETATM   18  C22 UNL     1     -15.455   8.535  -8.239  1.00  0.00     0.017 C 
HETATM   19  C23 UNL     1     -13.996   8.553  -7.764  1.00  0.00     0.023 C 
HETATM   20  C24 UNL     1     -15.834   7.053  -8.477  1.00  0.00     0.023 C 
HETATM   21  C25 UNL     1     -16.512   9.228  -7.298  1.00  0.00     0.009 C 
HETATM   22  C26 UNL     1     -16.822   8.494  -5.978  1.00  0.00     0.007 C 
HETATM   23  C27 UNL     1     -15.861   8.802  -4.837  1.00  0.00     0.011 C 
HETATM   24  C28 UNL     1     -15.777  10.304  -4.472  1.00  0.00    -0.022 C 
HETATM   25  C29 UNL     1     -17.144  10.688  -3.829  1.00  0.00     0.017 C 
HETATM   26  C30 UNL     1     -13.403  12.453  -2.080  1.00  0.00     0.018 C 
ENDROOT
BRANCH   4  27
HETATM   27  C8  UNL     1     -14.973  12.139   0.048  1.00  0.00     0.149 C 
HETATM   28  O1  UNL     1     -15.575  13.197  -0.065  1.00  0.00    -0.649 OA
BRANCH  27  29
HETATM   29  O2  UNL     1     -15.448  11.207   0.886  1.00  0.00    -0.776 OA
HETATM   30  H11 UNL     1     -16.272  11.604   1.237  1.00  0.00     0.167 HD
ENDBRANCH  27  29
ENDBRANCH   4  27
BRANCH   1  31
HETATM   31  C2  UNL     1     -12.143  14.689  -2.607  1.00  0.00    -0.088 C 
HETATM   32  C1  UNL     1     -11.252  14.063  -3.393  1.00  0.00     0.014 C 
HETATM   33  C3  UNL     1     -12.287  16.186  -2.669  1.00  0.00     0.043 C 
ENDBRANCH   1  31
BRANCH   7  34
HETATM   34  C12 UNL     1     -13.235  10.076  -3.989  1.00  0.00     0.149 C 
HETATM   35  O3  UNL     1     -12.582  10.564  -4.898  1.00  0.00    -0.649 OA
BRANCH  34  36
HETATM   36  O4  UNL     1     -12.765   8.962  -3.393  1.00  0.00    -0.776 OA
HETATM   37  H16 UNL     1     -11.921   8.780  -3.857  1.00  0.00     0.167 HD
ENDBRANCH  34  36
ENDBRANCH   7  34
TORSDOF 5
ENDMDL
MODEL 4
REMARK minimizedAffinity -5.96123409
REMARK CNNscore 0.370202839
REMARK CNNaffinity 5.43536949
REMARK  5 active torsions:
REMARK  status: ('A' for Active; 'I' for Inactive)
REMARK    1  A    between atoms: C2_2  and  C4_4 
REMARK    2  A    between atoms: C7_7  and  C8_8 
REMARK    3  A    between atoms: C8_8  and  O2_10 
REMARK    4  A    between atoms: C11_13  and  C12_14 
REMARK    5  A    between atoms: C12_14  and  O4_16 
ROOT
HETATM    1  C4  UNL     1     -14.844   8.307  14.229  1.00  0.00     0.019 C 
HETATM    2  C5  UNL     1     -15.266   9.754  13.860  1.00  0.00     0.011 C 
HETATM    3  C6  UNL     1     -16.767   9.712  13.532  1.00  0.00     0.021 C 
HETATM    4  C7  UNL     1     -17.016   8.253  13.133  1.00  0.00     0.050 C 
HETATM    5  C9  UNL     1     -18.473   7.785  13.247  1.00  0.00     0.022 C 
HETATM    6  C10 UNL     1     -18.569   6.252  13.090  1.00  0.00     0.023 C 
HETATM    7  C11 UNL     1     -17.699   5.447  14.123  1.00  0.00     0.057 C 
HETATM    8  C13 UNL     1     -16.211   5.987  14.024  1.00  0.00     0.011 C 
HETATM    9  C14 UNL     1     -15.227   5.226  14.924  1.00  0.00     0.007 C 
HETATM   10  C15 UNL     1     -15.310   3.707  14.762  1.00  0.00     0.006 C 
HETATM   11  C16 UNL     1     -16.750   3.162  14.898  1.00  0.00     0.003 C 
HETATM   12  C17 UNL     1     -16.826   1.584  15.060  1.00  0.00    -0.035 C 
HETATM   13  C18 UNL     1     -16.033   0.839  13.948  1.00  0.00     0.016 C 
HETATM   14  C19 UNL     1     -16.120   1.199  16.406  1.00  0.00     0.017 C 
HETATM   15  C20 UNL     1     -16.591  -0.120  16.988  1.00  0.00     0.080 C 
HETATM   16  C21 UNL     1     -18.078  -0.124  17.264  1.00  0.00     0.135 C 
HETATM   17  O5  UNL     1     -18.535  -0.924  18.088  1.00  0.00    -0.297 OA
HETATM   18  C22 UNL     1     -18.972   0.845  16.463  1.00  0.00     0.017 C 
HETATM   19  C23 UNL     1     -19.177   2.112  17.305  1.00  0.00     0.023 C 
HETATM   20  C24 UNL     1     -20.359   0.172  16.320  1.00  0.00     0.023 C 
HETATM   21  C25 UNL     1     -18.306   1.038  15.050  1.00  0.00     0.009 C 
HETATM   22  C26 UNL     1     -19.176   1.734  13.983  1.00  0.00     0.007 C 
HETATM   23  C27 UNL     1     -19.132   3.256  14.020  1.00  0.00     0.011 C 
HETATM   24  C28 UNL     1     -17.712   3.849  13.855  1.00  0.00    -0.022 C 
HETATM   25  C29 UNL     1     -17.275   3.569  12.385  1.00  0.00     0.017 C 
HETATM   26  C30 UNL     1     -16.177   7.523  14.209  1.00  0.00     0.018 C 
ENDROOT
BRANCH   4  27
HETATM   27  C8  UNL     1     -16.609   8.137  11.654  1.00  0.00     0.149 C 
HETATM   28  O1  UNL     1     -17.040   8.838  10.750  1.00  0.00    -0.649 OA
BRANCH  27  29
HETATM   29  O2  UNL     1     -15.686   7.208  11.373  1.00  0.00    -0.776 OA
HETATM   30  H11 UNL     1     -15.518   7.325  10.414  1.00  0.00     0.167 HD
ENDBRANCH  27  29
ENDBRANCH   4  27
BRANCH   1  31
HETATM   31  C2  UNL     1     -14.039   8.283  15.518  1.00  0.00    -0.088 C 
HETATM   32  C1  UNL     1     -12.696   8.325  15.494  1.00  0.00     0.014 C 
HETATM   33  C3  UNL     1     -14.772   8.248  16.832  1.00  0.00     0.043 C 
ENDBRANCH   1  31
BRANCH   7  34
HETATM   34  C12 UNL     1     -18.275   5.747  15.538  1.00  0.00     0.149 C 
HETATM   35  O3  UNL     1     -17.665   5.771  16.596  1.00  0.00    -0.649 OA
BRANCH  34  36
HETATM   36  O4  UNL     1     -19.598   6.002  15.559  1.00  0.00    -0.776 OA
HETATM   37  H16 UNL     1     -19.793   6.177  16.503  1.00  0.00     0.167 HD
ENDBRANCH  34  36
ENDBRANCH   7  34
TORSDOF 5
ENDMDL
MODEL 5
REMARK minimizedAffinity -5.67951632
REMARK CNNscore 0.326021373
REMARK CNNaffinity 5.57834482
REMARK  5 active torsions:
REMARK  status: ('A' for Active; 'I' for Inactive)
REMARK    1  A    between atoms: C2_2  and  C4_4 
REMARK    2  A    between atoms: C7_7  and  C8_8 
REMARK    3  A    between atoms: C8_8  and  O2_10 
REMARK    4  A    between atoms: C11_13  and  C12_14 
REMARK    5  A    between atoms: C12_14  and  O4_16 
ROOT
HETATM    1  C4  UNL     1      -1.824  15.511   3.425  1.00  0.00     0.019 C 
HETATM    2  C5  UNL     1      -2.459  14.203   2.883  1.00  0.00     0.011 C 
HETATM    3  C6  UNL     1      -1.299  13.277   2.483  1.00  0.00     0.021 C 
HETATM    4  C7  UNL     1      -0.131  14.236   2.230  1.00  0.00     0.050 C 
HETATM    5  C9  UNL     1       1.264  13.603   2.317  1.00  0.00     0.022 C 
HETATM    6  C10 UNL     1       2.359  14.691   2.319  1.00  0.00     0.023 C 
HETATM    7  C11 UNL     1       2.211  15.746   3.476  1.00  0.00     0.057 C 
HETATM    8  C13 UNL     1       0.744  16.345   3.398  1.00  0.00     0.011 C 
HETATM    9  C14 UNL     1       0.487  17.457   4.424  1.00  0.00     0.007 C 
HETATM   10  C15 UNL     1       1.564  18.544   4.420  1.00  0.00     0.006 C 
HETATM   11  C16 UNL     1       2.997  17.977   4.538  1.00  0.00     0.003 C 
HETATM   12  C17 UNL     1       4.096  19.075   4.863  1.00  0.00    -0.035 C 
HETATM   13  C18 UNL     1       4.035  20.279   3.880  1.00  0.00     0.016 C 
HETATM   14  C19 UNL     1       3.782  19.675   6.277  1.00  0.00     0.017 C 
HETATM   15  C20 UNL     1       4.992  20.272   6.971  1.00  0.00     0.080 C 
HETATM   16  C21 UNL     1       6.096  19.256   7.167  1.00  0.00     0.135 C 
HETATM   17  O5  UNL     1       6.942  19.451   8.047  1.00  0.00    -0.297 OA
HETATM   18  C22 UNL     1       6.145  18.038   6.223  1.00  0.00     0.017 C 
HETATM   19  C23 UNL     1       5.429  16.869   6.913  1.00  0.00     0.023 C 
HETATM   20  C24 UNL     1       7.632  17.633   6.079  1.00  0.00     0.023 C 
HETATM   21  C25 UNL     1       5.565  18.499   4.833  1.00  0.00     0.009 C 
HETATM   22  C26 UNL     1       5.786  17.529   3.655  1.00  0.00     0.007 C 
HETATM   23  C27 UNL     1       4.741  16.428   3.531  1.00  0.00     0.011 C 
HETATM   24  C28 UNL     1       3.291  16.950   3.379  1.00  0.00    -0.022 C 
HETATM   25  C29 UNL     1       3.198  17.615   1.972  1.00  0.00     0.017 C 
HETATM   26  C30 UNL     1      -0.307  15.209   3.419  1.00  0.00     0.018 C 
ENDROOT
BRANCH   4  27
HETATM   27  C8  UNL     1      -0.311  14.760   0.795  1.00  0.00     0.149 C 
HETATM   28  O1  UNL     1      -0.203  15.929   0.454  1.00  0.00    -0.649 OA
BRANCH  27  29
HETATM   29  O2  UNL     1      -0.576  13.834  -0.137  1.00  0.00    -0.776 OA
HETATM   30  H11 UNL     1      -0.597  14.341  -0.975  1.00  0.00     0.167 HD
ENDBRANCH  27  29
ENDBRANCH   4  27
BRANCH   1  31
HETATM   31  C2  UNL     1      -2.450  15.916   4.750  1.00  0.00    -0.088 C 
HETATM   32  C1  UNL     1      -2.019  15.388   5.907  1.00  0.00     0.014 C 
HETATM   33  C3  UNL     1      -3.542  16.953   4.751  1.00  0.00     0.043 C 
ENDBRANCH   1  31
BRANCH   7  34
HETATM   34  C12 UNL     1       2.397  14.980   4.818  1.00  0.00     0.149 C 
HETATM   35  O3  UNL     1       1.985  13.865   5.098  1.00  0.00    -0.649 OA
BRANCH  34  36
HETATM   36  O4  UNL     1       3.096  15.655   5.753  1.00  0.00    -0.776 OA
HETATM   37  H16 UNL     1       3.129  15.040   6.516  1.00  0.00     0.167 HD
ENDBRANCH  34  36
ENDBRANCH   7  34
TORSDOF 5
ENDMDL
MODEL 6
REMARK minimizedAffinity -5.63166094
REMARK CNNscore 0.301103413
REMARK CNNaffinity 5.76785851
REMARK  5 active torsions:
REMARK  status: ('A' for Active; 'I' for Inactive)
REMARK    1  A    between atoms: C2_2  and  C4_4 
REMARK    2  A    between atoms: C7_7  and  C8_8 
REMARK    3  A    between atoms: C8_8  and  O2_10 
REMARK    4  A    between atoms: C11_13  and  C12_14 
REMARK    5  A    between atoms: C12_14  and  O4_16 
ROOT
HETATM    1  C4  UNL     1       5.237  14.617   0.160  1.00  0.00     0.019 C 
HETATM    2  C5  UNL     1       6.105  15.204  -0.984  1.00  0.00     0.011 C 
HETATM    3  C6  UNL     1       5.220  16.203  -1.749  1.00  0.00     0.021 C 
HETATM    4  C7  UNL     1       3.791  15.735  -1.447  1.00  0.00     0.050 C 
HETATM    5  C9  UNL     1       2.703  16.801  -1.635  1.00  0.00     0.022 C 
HETATM    6  C10 UNL     1       1.358  16.317  -1.051  1.00  0.00     0.023 C 
HETATM    7  C11 UNL     1       1.425  15.927   0.471  1.00  0.00     0.057 C 
HETATM    8  C13 UNL     1       2.592  14.867   0.646  1.00  0.00     0.011 C 
HETATM    9  C14 UNL     1       2.715  14.330   2.080  1.00  0.00     0.007 C 
HETATM   10  C15 UNL     1       1.386  13.838   2.658  1.00  0.00     0.006 C 
HETATM   11  C16 UNL     1       0.250  14.878   2.530  1.00  0.00     0.003 C 
HETATM   12  C17 UNL     1      -1.034  14.533   3.400  1.00  0.00    -0.035 C 
HETATM   13  C18 UNL     1      -1.548  13.087   3.144  1.00  0.00     0.016 C 
HETATM   14  C19 UNL     1      -0.622  14.568   4.912  1.00  0.00     0.017 C 
HETATM   15  C20 UNL     1      -1.778  14.839   5.855  1.00  0.00     0.080 C 
HETATM   16  C21 UNL     1      -2.458  16.158   5.562  1.00  0.00     0.135 C 
HETATM   17  O5  UNL     1      -3.116  16.706   6.453  1.00  0.00    -0.297 OA
HETATM   18  C22 UNL     1      -2.338  16.741   4.139  1.00  0.00     0.017 C 
HETATM   19  C23 UNL     1      -1.174  17.741   4.129  1.00  0.00     0.023 C 
HETATM   20  C24 UNL     1      -3.630  17.550   3.868  1.00  0.00     0.023 C 
HETATM   21  C25 UNL     1      -2.233  15.526   3.142  1.00  0.00     0.009 C 
HETATM   22  C26 UNL     1      -2.397  15.865   1.646  1.00  0.00     0.007 C 
HETATM   23  C27 UNL     1      -1.120  16.323   0.953  1.00  0.00     0.011 C 
HETATM   24  C28 UNL     1       0.038  15.298   1.026  1.00  0.00    -0.022 C 
HETATM   25  C29 UNL     1      -0.374  14.088   0.134  1.00  0.00     0.017 C 
HETATM   26  C30 UNL     1       3.915  15.416   0.061  1.00  0.00     0.018 C 
ENDROOT
BRANCH   4  27
HETATM   27  C8  UNL     1       3.496  14.595  -2.437  1.00  0.00     0.149 C 
HETATM   28  O1  UNL     1       4.242  13.655  -2.669  1.00  0.00    -0.649 OA
BRANCH  27  29
HETATM   29  O2  UNL     1       2.308  14.650  -3.055  1.00  0.00    -0.776 OA
HETATM   30  H11 UNL     1       2.280  13.827  -3.586  1.00  0.00     0.167 HD
ENDBRANCH  27  29
ENDBRANCH   4  27
BRANCH   1  31
HETATM   31  C2  UNL     1       5.978  14.656   1.486  1.00  0.00    -0.088 C 
HETATM   32  C1  UNL     1       6.391  13.523   2.080  1.00  0.00     0.014 C 
HETATM   33  C3  UNL     1       6.280  15.992   2.111  1.00  0.00     0.043 C 
ENDBRANCH   1  31
BRANCH   7  34
HETATM   34  C12 UNL     1       1.767  17.223   1.261  1.00  0.00     0.149 C 
HETATM   35  O3  UNL     1       1.288  18.335   1.101  1.00  0.00    -0.649 OA
BRANCH  34  36
HETATM   36  O4  UNL     1       2.700  17.063   2.219  1.00  0.00    -0.776 OA
HETATM   37  H16 UNL     1       2.788  17.953   2.619  1.00  0.00     0.167 HD
ENDBRANCH  34  36
ENDBRANCH   7  34
TORSDOF 5
ENDMDL
MODEL 7
REMARK minimizedAffinity -5.95840931
REMARK CNNscore 0.274061143
REMARK CNNaffinity 5.7371459
REMARK  5 active torsions:
REMARK  status: ('A' for Active; 'I' for Inactive)
REMARK    1  A    between atoms: C2_2  and  C4_4 
REMARK    2  A    between atoms: C7_7  and  C8_8 
REMARK    3  A    between atoms: C8_8  and  O2_10 
REMARK    4  A    between atoms: C11_13  and  C12_14 
REMARK    5  A    between atoms: C12_14  and  O4_16 
ROOT
HETATM    1  C4  UNL     1     -14.360  -7.772  16.343  1.00  0.00     0.019 C 
HETATM    2  C5  UNL     1     -13.051  -8.235  17.036  1.00  0.00     0.011 C 
HETATM    3  C6  UNL     1     -11.974  -7.192  16.700  1.00  0.00     0.021 C 
HETATM    4  C7  UNL     1     -12.479  -6.543  15.406  1.00  0.00     0.050 C 
HETATM    5  C9  UNL     1     -11.907  -5.151  15.107  1.00  0.00     0.022 C 
HETATM    6  C10 UNL     1     -12.675  -4.482  13.946  1.00  0.00     0.023 C 
HETATM    7  C11 UNL     1     -14.222  -4.349  14.196  1.00  0.00     0.057 C 
HETATM    8  C13 UNL     1     -14.778  -5.790  14.556  1.00  0.00     0.011 C 
HETATM    9  C14 UNL     1     -16.302  -5.824  14.742  1.00  0.00     0.007 C 
HETATM   10  C15 UNL     1     -17.067  -5.173  13.588  1.00  0.00     0.006 C 
HETATM   11  C16 UNL     1     -16.562  -3.751  13.254  1.00  0.00     0.003 C 
HETATM   12  C17 UNL     1     -17.532  -2.935  12.298  1.00  0.00    -0.035 C 
HETATM   13  C18 UNL     1     -17.899  -3.730  11.012  1.00  0.00     0.016 C 
HETATM   14  C19 UNL     1     -18.888  -2.715  13.053  1.00  0.00     0.017 C 
HETATM   15  C20 UNL     1     -19.674  -1.513  12.563  1.00  0.00     0.080 C 
HETATM   16  C21 UNL     1     -18.890  -0.226  12.697  1.00  0.00     0.135 C 
HETATM   17  O5  UNL     1     -19.501   0.848  12.737  1.00  0.00    -0.297 OA
HETATM   18  C22 UNL     1     -17.350  -0.307  12.729  1.00  0.00     0.017 C 
HETATM   19  C23 UNL     1     -16.903  -0.319  14.197  1.00  0.00     0.023 C 
HETATM   20  C24 UNL     1     -16.812   1.003  12.104  1.00  0.00     0.023 C 
HETATM   21  C25 UNL     1     -16.929  -1.547  11.853  1.00  0.00     0.009 C 
HETATM   22  C26 UNL     1     -15.429  -1.648  11.506  1.00  0.00     0.007 C 
HETATM   23  C27 UNL     1     -14.574  -2.326  12.568  1.00  0.00     0.011 C 
HETATM   24  C28 UNL     1     -15.023  -3.767  12.913  1.00  0.00    -0.022 C 
HETATM   25  C29 UNL     1     -14.710  -4.647  11.665  1.00  0.00     0.017 C 
HETATM   26  C30 UNL     1     -13.983  -6.399  15.736  1.00  0.00     0.018 C 
ENDROOT
BRANCH   4  27
HETATM   27  C8  UNL     1     -12.045  -7.476  14.262  1.00  0.00     0.149 C 
HETATM   28  O1  UNL     1     -12.722  -7.749  13.283  1.00  0.00    -0.649 OA
BRANCH  27  29
HETATM   29  O2  UNL     1     -10.811  -7.988  14.362  1.00  0.00    -0.776 OA
HETATM   30  H11 UNL     1     -10.697  -8.496  13.532  1.00  0.00     0.167 HD
ENDBRANCH  27  29
ENDBRANCH   4  27
BRANCH   1  31
HETATM   31  C2  UNL     1     -15.535  -7.811  17.306  1.00  0.00    -0.088 C 
HETATM   32  C1  UNL     1     -16.262  -8.930  17.464  1.00  0.00     0.014 C 
HETATM   33  C3  UNL     1     -15.852  -6.582  18.115  1.00  0.00     0.043 C 
ENDBRANCH   1  31
BRANCH   7  34
HETATM   34  C12 UNL     1     -14.408  -3.393  15.410  1.00  0.00     0.149 C 
HETATM   35  O3  UNL     1     -15.294  -3.428  16.250  1.00  0.00    -0.649 OA
BRANCH  34  36
HETATM   36  O4  UNL     1     -13.470  -2.432  15.513  1.00  0.00    -0.776 OA
HETATM   37  H16 UNL     1     -13.724  -1.935  16.318  1.00  0.00     0.167 HD
ENDBRANCH  34  36
ENDBRANCH   7  34
TORSDOF 5
ENDMDL
MODEL 8
REMARK minimizedAffinity -5.607409
REMARK CNNscore 0.269966424
REMARK CNNaffinity 5.27979612
REMARK  5 active torsions:
REMARK  status: ('A' for Active; 'I' for Inactive)
REMARK    1  A    between atoms: C2_2  and  C4_4 
REMARK    2  A    between atoms: C7_7  and  C8_8 
REMARK    3  A    between atoms: C8_8  and  O2_10 
REMARK    4  A    between atoms: C11_13  and  C12_14 
REMARK    5  A    between atoms: C12_14  and  O4_16 
ROOT
HETATM    1  C4  UNL     1     -16.209   7.007  14.712  1.00  0.00     0.019 C 
HETATM    2  C5  UNL     1     -17.059   8.303  14.784  1.00  0.00     0.011 C 
HETATM    3  C6  UNL     1     -18.533   7.868  14.834  1.00  0.00     0.021 C 
HETATM    4  C7  UNL     1     -18.528   6.473  14.200  1.00  0.00     0.050 C 
HETATM    5  C9  UNL     1     -19.727   5.587  14.563  1.00  0.00     0.022 C 
HETATM    6  C10 UNL     1     -19.490   4.131  14.103  1.00  0.00     0.023 C 
HETATM    7  C11 UNL     1     -18.185   3.479  14.688  1.00  0.00     0.057 C 
HETATM    8  C13 UNL     1     -16.970   4.441  14.347  1.00  0.00     0.011 C 
HETATM    9  C14 UNL     1     -15.610   3.882  14.788  1.00  0.00     0.007 C 
HETATM   10  C15 UNL     1     -15.367   2.445  14.323  1.00  0.00     0.006 C 
HETATM   11  C16 UNL     1     -16.525   1.488  14.686  1.00  0.00     0.003 C 
HETATM   12  C17 UNL     1     -16.164  -0.049  14.512  1.00  0.00    -0.035 C 
HETATM   13  C18 UNL     1     -15.581  -0.362  13.104  1.00  0.00     0.016 C 
HETATM   14  C19 UNL     1     -15.019  -0.398  15.524  1.00  0.00     0.017 C 
HETATM   15  C20 UNL     1     -14.962  -1.866  15.902  1.00  0.00     0.080 C 
HETATM   16  C21 UNL     1     -16.253  -2.346  16.527  1.00  0.00     0.135 C 
HETATM   17  O5  UNL     1     -16.237  -3.353  17.242  1.00  0.00    -0.297 OA
HETATM   18  C22 UNL     1     -17.551  -1.578  16.203  1.00  0.00     0.017 C 
HETATM   19  C23 UNL     1     -17.797  -0.561  17.326  1.00  0.00     0.023 C 
HETATM   20  C24 UNL     1     -18.712  -2.601  16.261  1.00  0.00     0.023 C 
HETATM   21  C25 UNL     1     -17.402  -0.999  14.746  1.00  0.00     0.009 C 
HETATM   22  C26 UNL     1     -18.691  -0.444  14.106  1.00  0.00     0.007 C 
HETATM   23  C27 UNL     1     -19.008   1.002  14.463  1.00  0.00     0.011 C 
HETATM   24  C28 UNL     1     -17.889   2.004  14.088  1.00  0.00    -0.022 C 
HETATM   25  C29 UNL     1     -17.853   2.077  12.531  1.00  0.00     0.017 C 
HETATM   26  C30 UNL     1     -17.257   5.876  14.849  1.00  0.00     0.018 C 
ENDROOT
BRANCH   4  27
HETATM   27  C8  UNL     1     -18.563   6.695  12.678  1.00  0.00     0.149 C 
HETATM   28  O1  UNL     1     -19.537   7.075  12.045  1.00  0.00    -0.649 OA
BRANCH  27  29
HETATM   29  O2  UNL     1     -17.411   6.474  12.028  1.00  0.00    -0.776 OA
HETATM   30  H11 UNL     1     -17.612   6.720  11.101  1.00  0.00     0.167 HD
ENDBRANCH  27  29
ENDBRANCH   4  27
BRANCH   1  31
HETATM   31  C2  UNL     1     -15.077   7.036  15.726  1.00  0.00    -0.088 C 
HETATM   32  C1  UNL     1     -13.800   7.175  15.331  1.00  0.00     0.014 C 
HETATM   33  C3  UNL     1     -15.411   6.944  17.191  1.00  0.00     0.043 C 
ENDBRANCH   1  31
BRANCH   7  34
HETATM   34  C12 UNL     1     -18.370   3.391  16.231  1.00  0.00     0.149 C 
HETATM   35  O3  UNL     1     -19.381   3.074  16.838  1.00  0.00    -0.649 OA
BRANCH  34  36
HETATM   36  O4  UNL     1     -17.271   3.709  16.944  1.00  0.00    -0.776 OA
HETATM   37  H16 UNL     1     -17.550   3.594  17.876  1.00  0.00     0.167 HD
ENDBRANCH  34  36
ENDBRANCH   7  34
TORSDOF 5
ENDMDL
MODEL 9
REMARK minimizedAffinity -5.74967003
REMARK CNNscore 0.253341705
REMARK CNNaffinity 5.63658142
REMARK  5 active torsions:
REMARK  status: ('A' for Active; 'I' for Inactive)
REMARK    1  A    between atoms: C2_2  and  C4_4 
REMARK    2  A    between atoms: C7_7  and  C8_8 
REMARK    3  A    between atoms: C8_8  and  O2_10 
REMARK    4  A    between atoms: C11_13  and  C12_14 
REMARK    5  A    between atoms: C12_14  and  O4_16 
ROOT
HETATM    1  C4  UNL     1       3.632   8.298  12.278  1.00  0.00     0.019 C 
HETATM    2  C5  UNL     1       3.910   7.001  11.472  1.00  0.00     0.011 C 
HETATM    3  C6  UNL     1       5.360   6.588  11.776  1.00  0.00     0.021 C 
HETATM    4  C7  UNL     1       6.032   7.895  12.213  1.00  0.00     0.050 C 
HETATM    5  C9  UNL     1       7.304   7.725  13.053  1.00  0.00     0.022 C 
HETATM    6  C10 UNL     1       7.740   9.076  13.663  1.00  0.00     0.023 C 
HETATM    7  C11 UNL     1       6.639   9.764  14.548  1.00  0.00     0.057 C 
HETATM    8  C13 UNL     1       5.319   9.878  13.675  1.00  0.00     0.011 C 
HETATM    9  C14 UNL     1       4.178  10.614  14.391  1.00  0.00     0.007 C 
HETATM   10  C15 UNL     1       4.604  11.957  14.986  1.00  0.00     0.006 C 
HETATM   11  C16 UNL     1       5.865  11.854  15.873  1.00  0.00     0.003 C 
HETATM   12  C17 UNL     1       6.136  13.147  16.754  1.00  0.00    -0.035 C 
HETATM   13  C18 UNL     1       6.139  14.449  15.904  1.00  0.00     0.016 C 
HETATM   14  C19 UNL     1       4.945  13.309  17.761  1.00  0.00     0.017 C 
HETATM   15  C20 UNL     1       5.302  14.094  19.010  1.00  0.00     0.080 C 
HETATM   16  C21 UNL     1       6.437  13.456  19.780  1.00  0.00     0.135 C 
HETATM   17  O5  UNL     1       6.568  13.716  20.981  1.00  0.00    -0.297 OA
HETATM   18  C22 UNL     1       7.415  12.540  19.017  1.00  0.00     0.017 C 
HETATM   19  C23 UNL     1       6.948  11.089  19.194  1.00  0.00     0.023 C 
HETATM   20  C24 UNL     1       8.791  12.659  19.717  1.00  0.00     0.023 C 
HETATM   21  C25 UNL     1       7.503  13.077  17.539  1.00  0.00     0.009 C 
HETATM   22  C26 UNL     1       8.641  12.494  16.676  1.00  0.00     0.007 C 
HETATM   23  C27 UNL     1       8.309  11.174  15.993  1.00  0.00     0.011 C 
HETATM   24  C28 UNL     1       7.071  11.237  15.067  1.00  0.00    -0.022 C 
HETATM   25  C29 UNL     1       7.467  12.119  13.844  1.00  0.00     0.017 C 
HETATM   26  C30 UNL     1       4.922   8.493  13.110  1.00  0.00     0.018 C 
ENDROOT
BRANCH   4  27
HETATM   27  C8  UNL     1       6.429   8.625  10.918  1.00  0.00     0.149 C 
HETATM   28  O1  UNL     1       7.190   8.186  10.069  1.00  0.00    -0.649 OA
BRANCH  27  29
HETATM   29  O2  UNL     1       5.854   9.820  10.721  1.00  0.00    -0.776 OA
HETATM   30  H11 UNL     1       6.177  10.094   9.837  1.00  0.00     0.167 HD
ENDBRANCH  27  29
ENDBRANCH   4  27
BRANCH   1  31
HETATM   31  C2  UNL     1       2.320   8.200  13.037  1.00  0.00    -0.088 C 
HETATM   32  C1  UNL     1       1.221   8.841  12.603  1.00  0.00     0.014 C 
HETATM   33  C3  UNL     1       2.256   7.340  14.271  1.00  0.00     0.043 C 
ENDBRANCH   1  31
BRANCH   7  34
HETATM   34  C12 UNL     1       6.384   8.831  15.769  1.00  0.00     0.149 C 
HETATM   35  O3  UNL     1       7.199   8.463  16.601  1.00  0.00    -0.649 OA
BRANCH  34  36
HETATM   36  O4  UNL     1       5.113   8.402  15.887  1.00  0.00    -0.776 OA
HETATM   37  H16 UNL     1       5.122   7.846  16.694  1.00  0.00     0.167 HD
ENDBRANCH  34  36
ENDBRANCH   7  34
TORSDOF 5
ENDMDL
