MODEL 1
REMARK minimizedAffinity -8.1575489
REMARK  2 active torsions:
REMARK  status: ('A' for Active; 'I' for Inactive)
REMARK    1  A    between atoms: C1_2  and  C2_3 
REMARK       I    between atoms: C1_2  and  N3_14 
REMARK    2  A    between atoms: C3_7  and  C4_8 
ROOT
HETATM    1  O1  UNL     1      14.021  37.442  17.508  1.00  0.00    -0.266 OA
HETATM    2  C1  UNL     1      14.388  36.272  17.366  1.00  0.00     0.272 C 
HETATM    3  N3  UNL     1      14.382  35.384  18.453  1.00  0.00    -0.338 N 
HETATM    4  C9  UNL     1      15.238  34.201  18.516  1.00  0.00     0.127 C 
HETATM    5  C10 UNL     1      15.888  34.050  19.884  1.00  0.00     0.024 C 
HETATM    6  C11 UNL     1      14.842  33.830  20.964  1.00  0.00     0.037 C 
HETATM    7  C12 UNL     1      13.611  34.663  20.748  1.00  0.00    -0.060 C 
HETATM    8  C13 UNL     1      12.429  34.356  21.383  1.00  0.00    -0.015 C 
HETATM    9  C14 UNL     1      11.141  35.244  21.291  1.00  0.00     0.031 C 
HETATM   10  C15 UNL     1      11.682  36.566  20.835  1.00  0.00     0.019 C 
HETATM   11  C16 UNL     1      12.219  36.112  19.462  1.00  0.00     0.031 C 
HETATM   12  C17 UNL     1      11.162  36.512  18.480  1.00  0.00     0.124 C 
HETATM   13  N4  UNL     1       9.930  35.744  18.924  1.00  0.00    -0.407 N 
HETATM   14  C18 UNL     1       8.700  36.503  18.743  1.00  0.00     0.117 C 
HETATM   15  C19 UNL     1       7.480  35.585  18.788  1.00  0.00     0.019 C 
HETATM   16  C20 UNL     1       7.491  34.605  19.959  1.00  0.00     0.004 C 
HETATM   17  C21 UNL     1       8.636  34.872  20.927  1.00  0.00     0.026 C 
HETATM   18  C22 UNL     1       9.999  34.896  20.203  1.00  0.00     0.086 C 
HETATM   19  C23 UNL     1      13.697  35.830  19.665  1.00  0.00     0.122 C 
ENDROOT
BRANCH   2  20
HETATM   20  C2  UNL     1      14.804  35.795  16.027  1.00  0.00     0.118 A 
HETATM   21  N1  UNL     1      13.990  35.699  14.956  1.00  0.00    -0.295 N 
HETATM   22  N2  UNL     1      14.793  35.294  13.960  1.00  0.00    -0.299 N 
ATOM     23  H1  UNL     1      12.989  35.892  14.913  1.00  0.00     0.187 HD
HETATM   24  C3  UNL     1      16.092  35.121  14.332  1.00  0.00     0.061 A 
HETATM   25  H1  UNL     1      14.385  35.153  13.042  1.00  0.00     0.187 HD
HETATM   26  C8  UNL     1      16.139  35.445  15.665  1.00  0.00     0.068 A 
BRANCH  24  27
HETATM   27  C4  UNL     1      17.262  34.661  13.419  1.00  0.00    -0.001 A 
HETATM   28  C5  UNL     1      17.330  34.956  12.075  1.00  0.00     0.063 A 
HETATM   29  S1  UNL     1      18.741  34.313  11.344  1.00  0.00    -0.113 SA
HETATM   30  C6  UNL     1      19.263  33.634  12.823  1.00  0.00     0.050 A 
HETATM   31  C7  UNL     1      18.384  33.896  13.852  1.00  0.00     0.021 A 
ENDBRANCH  24  27
ENDBRANCH   2  20
TORSDOF 2
ENDMDL
MODEL 2
REMARK minimizedAffinity -8.14556026
REMARK  2 active torsions:
REMARK  status: ('A' for Active; 'I' for Inactive)
REMARK    1  A    between atoms: C1_2  and  C2_3 
REMARK       I    between atoms: C1_2  and  N3_14 
REMARK    2  A    between atoms: C3_7  and  C4_8 
ROOT
HETATM    1  O1  UNL     1      15.784  35.658  17.377  1.00  0.00    -0.266 OA
HETATM    2  C1  UNL     1      15.024  36.417  16.769  1.00  0.00     0.272 C 
HETATM    3  N3  UNL     1      15.535  37.416  15.927  1.00  0.00    -0.338 N 
HETATM    4  C9  UNL     1      14.791  38.629  15.591  1.00  0.00     0.127 C 
HETATM    5  C10 UNL     1      15.669  39.869  15.676  1.00  0.00     0.024 C 
HETATM    6  C11 UNL     1      16.795  39.810  14.656  1.00  0.00     0.037 C 
HETATM    7  C12 UNL     1      17.367  38.429  14.513  1.00  0.00    -0.060 C 
HETATM    8  C13 UNL     1      18.122  38.087  13.414  1.00  0.00    -0.015 C 
HETATM    9  C14 UNL     1      18.841  36.704  13.255  1.00  0.00     0.031 C 
HETATM   10  C15 UNL     1      18.891  36.191  14.663  1.00  0.00     0.019 C 
HETATM   11  C16 UNL     1      17.371  36.075  14.900  1.00  0.00     0.031 C 
HETATM   12  C17 UNL     1      17.053  34.630  14.672  1.00  0.00     0.124 C 
HETATM   13  N4  UNL     1      17.454  34.380  13.230  1.00  0.00    -0.407 N 
HETATM   14  C18 UNL     1      18.022  33.055  13.027  1.00  0.00     0.117 C 
HETATM   15  C19 UNL     1      18.018  32.680  11.546  1.00  0.00     0.019 C 
HETATM   16  C20 UNL     1      18.553  33.781  10.632  1.00  0.00     0.004 C 
HETATM   17  C21 UNL     1      19.134  34.951  11.414  1.00  0.00     0.026 C 
HETATM   18  C22 UNL     1      18.122  35.512  12.434  1.00  0.00     0.086 C 
HETATM   19  C23 UNL     1      16.962  37.350  15.614  1.00  0.00     0.122 C 
ENDROOT
BRANCH   2  20
HETATM   20  C2  UNL     1      13.559  36.246  16.905  1.00  0.00     0.118 A 
HETATM   21  N1  UNL     1      12.695  36.157  15.872  1.00  0.00    -0.295 N 
HETATM   22  N2  UNL     1      11.503  35.944  16.449  1.00  0.00    -0.299 N 
ATOM     23  H1  UNL     1      12.902  36.234  14.876  1.00  0.00     0.187 HD
HETATM   24  C3  UNL     1      11.549  35.890  17.810  1.00  0.00     0.061 A 
HETATM   25  H1  UNL     1      10.691  35.844  15.850  1.00  0.00     0.187 HD
HETATM   26  C8  UNL     1      12.869  36.073  18.141  1.00  0.00     0.068 A 
BRANCH  24  27
HETATM   27  C4  UNL     1      10.347  35.659  18.768  1.00  0.00    -0.001 A 
HETATM   28  C5  UNL     1      10.330  34.674  19.731  1.00  0.00     0.063 A 
HETATM   29  S1  UNL     1       8.869  34.674  20.628  1.00  0.00    -0.113 SA
HETATM   30  C6  UNL     1       8.253  35.988  19.725  1.00  0.00     0.050 A 
HETATM   31  C7  UNL     1       9.142  36.421  18.766  1.00  0.00     0.021 A 
ENDBRANCH  24  27
ENDBRANCH   2  20
TORSDOF 2
ENDMDL
MODEL 3
REMARK minimizedAffinity -8.03381824
REMARK  2 active torsions:
REMARK  status: ('A' for Active; 'I' for Inactive)
REMARK    1  A    between atoms: C1_2  and  C2_3 
REMARK       I    between atoms: C1_2  and  N3_14 
REMARK    2  A    between atoms: C3_7  and  C4_8 
ROOT
HETATM    1  O1  UNL     1      13.789  36.031  15.776  1.00  0.00    -0.266 OA
HETATM    2  C1  UNL     1      13.466  35.896  16.960  1.00  0.00     0.272 C 
HETATM    3  N3  UNL     1      14.444  35.846  17.966  1.00  0.00    -0.338 N 
HETATM    4  C9  UNL     1      14.221  35.202  19.259  1.00  0.00     0.127 C 
HETATM    5  C10 UNL     1      15.407  34.342  19.670  1.00  0.00     0.024 C 
HETATM    6  C11 UNL     1      16.652  35.191  19.871  1.00  0.00     0.037 C 
HETATM    7  C12 UNL     1      16.770  36.285  18.848  1.00  0.00    -0.060 C 
HETATM    8  C13 UNL     1      17.600  37.362  19.059  1.00  0.00    -0.015 C 
HETATM    9  C14 UNL     1      17.856  38.479  17.989  1.00  0.00     0.031 C 
HETATM   10  C15 UNL     1      17.425  37.821  16.712  1.00  0.00     0.019 C 
HETATM   11  C16 UNL     1      15.935  37.632  17.065  1.00  0.00     0.031 C 
HETATM   12  C17 UNL     1      15.231  38.772  16.398  1.00  0.00     0.124 C 
HETATM   13  N4  UNL     1      15.842  40.010  17.029  1.00  0.00    -0.407 N 
HETATM   14  C18 UNL     1      15.987  41.108  16.084  1.00  0.00     0.117 C 
HETATM   15  C19 UNL     1      16.193  42.434  16.815  1.00  0.00     0.019 C 
HETATM   16  C20 UNL     1      17.241  42.367  17.925  1.00  0.00     0.004 C 
HETATM   17  C21 UNL     1      17.976  41.034  17.948  1.00  0.00     0.026 C 
HETATM   18  C22 UNL     1      16.996  39.845  18.031  1.00  0.00     0.086 C 
HETATM   19  C23 UNL     1      15.807  36.210  17.580  1.00  0.00     0.122 C 
ENDROOT
BRANCH   2  20
HETATM   20  C2  UNL     1      12.032  35.820  17.322  1.00  0.00     0.118 A 
HETATM   21  N1  UNL     1      11.013  35.836  16.438  1.00  0.00    -0.295 N 
HETATM   22  N2  UNL     1       9.913  35.681  17.192  1.00  0.00    -0.299 N 
ATOM     23  H1  UNL     1      11.066  35.941  15.425  1.00  0.00     0.187 HD
HETATM   24  C3  UNL     1      10.168  35.565  18.525  1.00  0.00     0.061 A 
HETATM   25  H1  UNL     1       9.012  35.663  16.727  1.00  0.00     0.187 HD
HETATM   26  C8  UNL     1      11.534  35.643  18.646  1.00  0.00     0.068 A 
BRANCH  24  27
HETATM   27  C4  UNL     1       9.118  35.376  19.655  1.00  0.00    -0.001 A 
HETATM   28  C5  UNL     1       9.274  34.477  20.686  1.00  0.00     0.063 A 
HETATM   29  S1  UNL     1       7.949  34.505  21.773  1.00  0.00    -0.113 SA
HETATM   30  C6  UNL     1       7.158  35.716  20.862  1.00  0.00     0.050 A 
HETATM   31  C7  UNL     1       7.891  36.095  19.758  1.00  0.00     0.021 A 
ENDBRANCH  24  27
ENDBRANCH   2  20
TORSDOF 2
ENDMDL
MODEL 4
REMARK minimizedAffinity -7.71983624
REMARK  2 active torsions:
REMARK  status: ('A' for Active; 'I' for Inactive)
REMARK    1  A    between atoms: C1_2  and  C2_3 
REMARK       I    between atoms: C1_2  and  N3_14 
REMARK    2  A    between atoms: C3_7  and  C4_8 
ROOT
HETATM    1  O1  UNL     1      15.255  37.020  15.372  1.00  0.00    -0.266 OA
HETATM    2  C1  UNL     1      15.884  35.958  15.398  1.00  0.00     0.272 C 
HETATM    3  N3  UNL     1      16.512  35.528  16.577  1.00  0.00    -0.338 N 
HETATM    4  C9  UNL     1      17.651  34.611  16.582  1.00  0.00     0.127 C 
HETATM    5  C10 UNL     1      18.738  35.072  17.542  1.00  0.00     0.024 C 
HETATM    6  C11 UNL     1      18.235  35.071  18.977  1.00  0.00     0.037 C 
HETATM    7  C12 UNL     1      16.814  35.546  19.085  1.00  0.00    -0.060 C 
HETATM    8  C13 UNL     1      16.066  35.285  20.211  1.00  0.00    -0.015 C 
HETATM    9  C14 UNL     1      14.620  35.846  20.437  1.00  0.00     0.031 C 
HETATM   10  C15 UNL     1      14.553  36.992  19.472  1.00  0.00     0.019 C 
HETATM   11  C16 UNL     1      14.705  36.180  18.169  1.00  0.00     0.031 C 
HETATM   12  C17 UNL     1      13.310  36.015  17.651  1.00  0.00     0.124 C 
HETATM   13  N4  UNL     1      12.590  35.254  18.748  1.00  0.00    -0.407 N 
HETATM   14  C18 UNL     1      11.204  35.674  18.906  1.00  0.00     0.117 C 
HETATM   15  C19 UNL     1      10.405  34.635  19.691  1.00  0.00     0.019 C 
HETATM   16  C20 UNL     1      11.103  34.153  20.961  1.00  0.00     0.004 C 
HETATM   17  C21 UNL     1      12.372  34.941  21.259  1.00  0.00     0.026 C 
HETATM   18  C22 UNL     1      13.337  34.942  20.054  1.00  0.00     0.086 C 
HETATM   19  C23 UNL     1      16.176  36.250  17.804  1.00  0.00     0.122 C 
ENDROOT
BRANCH   2  20
HETATM   20  C2  UNL     1      15.947  35.117  14.181  1.00  0.00     0.118 A 
HETATM   21  N1  UNL     1      14.938  34.962  13.299  1.00  0.00    -0.295 N 
HETATM   22  N2  UNL     1      15.452  34.182  12.335  1.00  0.00    -0.299 N 
ATOM     23  H1  UNL     1      13.996  35.351  13.352  1.00  0.00     0.187 HD
HETATM   24  C3  UNL     1      16.748  33.821  12.548  1.00  0.00     0.061 A 
HETATM   25  H1  UNL     1      14.857  33.932  11.553  1.00  0.00     0.187 HD
HETATM   26  C8  UNL     1      17.106  34.416  13.733  1.00  0.00     0.068 A 
BRANCH  24  27
HETATM   27  C4  UNL     1      17.623  32.929  11.624  1.00  0.00    -0.001 A 
HETATM   28  C5  UNL     1      18.523  33.440  10.715  1.00  0.00     0.063 A 
HETATM   29  S1  UNL     1      19.338  32.205   9.849  1.00  0.00    -0.113 SA
HETATM   30  C6  UNL     1      18.484  30.982  10.684  1.00  0.00     0.050 A 
HETATM   31  C7  UNL     1      17.602  31.503  11.607  1.00  0.00     0.021 A 
ENDBRANCH  24  27
ENDBRANCH   2  20
TORSDOF 2
ENDMDL
MODEL 5
REMARK minimizedAffinity -7.38501358
REMARK  2 active torsions:
REMARK  status: ('A' for Active; 'I' for Inactive)
REMARK    1  A    between atoms: C1_2  and  C2_3 
REMARK       I    between atoms: C1_2  and  N3_14 
REMARK    2  A    between atoms: C3_7  and  C4_8 
ROOT
HETATM    1  O1  UNL     1      17.090  43.287   6.257  1.00  0.00    -0.266 OA
HETATM    2  C1  UNL     1      17.574  43.287   5.121  1.00  0.00     0.272 C 
HETATM    3  N3  UNL     1      17.282  44.324   4.221  1.00  0.00    -0.338 N 
HETATM    4  C9  UNL     1      17.370  44.165   2.771  1.00  0.00     0.127 C 
HETATM    5  C10 UNL     1      16.166  44.773   2.065  1.00  0.00     0.024 C 
HETATM    6  C11 UNL     1      16.107  46.276   2.286  1.00  0.00     0.037 C 
HETATM    7  C12 UNL     1      16.501  46.665   3.682  1.00  0.00    -0.060 C 
HETATM    8  C13 UNL     1      16.860  47.960   3.981  1.00  0.00    -0.015 C 
HETATM    9  C14 UNL     1      17.172  48.459   5.433  1.00  0.00     0.031 C 
HETATM   10  C15 UNL     1      16.530  47.409   6.290  1.00  0.00     0.019 C 
HETATM   11  C16 UNL     1      17.399  46.214   5.846  1.00  0.00     0.031 C 
HETATM   12  C17 UNL     1      18.435  46.069   6.917  1.00  0.00     0.124 C 
HETATM   13  N4  UNL     1      19.181  47.391   6.898  1.00  0.00    -0.407 N 
HETATM   14  C18 UNL     1      19.586  47.825   8.227  1.00  0.00     0.117 C 
HETATM   15  C19 UNL     1      20.671  48.898   8.143  1.00  0.00     0.019 C 
HETATM   16  C20 UNL     1      20.360  50.011   7.145  1.00  0.00     0.004 C 
HETATM   17  C21 UNL     1      18.953  49.898   6.572  1.00  0.00     0.026 C 
HETATM   18  C22 UNL     1      18.699  48.506   5.958  1.00  0.00     0.086 C 
HETATM   19  C23 UNL     1      16.606  45.500   4.766  1.00  0.00     0.122 C 
ENDROOT
BRANCH   2  20
HETATM   20  C2  UNL     1      18.496  42.200   4.720  1.00  0.00     0.118 A 
HETATM   21  N1  UNL     1      19.731  42.012   5.228  1.00  0.00    -0.295 N 
HETATM   22  N2  UNL     1      20.170  40.891   4.634  1.00  0.00    -0.299 N 
ATOM     23  H1  UNL     1      20.221  42.591   5.910  1.00  0.00     0.187 HD
HETATM   24  C3  UNL     1      19.279  40.341   3.763  1.00  0.00     0.061 A 
HETATM   25  H1  UNL     1      21.097  40.554   4.872  1.00  0.00     0.187 HD
HETATM   26  C8  UNL     1      18.177  41.159   3.799  1.00  0.00     0.068 A 
BRANCH  24  27
HETATM   27  C4  UNL     1      19.484  39.050   2.922  1.00  0.00    -0.001 A 
HETATM   28  C5  UNL     1      19.206  38.976   1.575  1.00  0.00     0.063 A 
HETATM   29  S1  UNL     1      19.538  37.422   0.932  1.00  0.00    -0.113 SA
HETATM   30  C6  UNL     1      20.049  36.842   2.456  1.00  0.00     0.050 A 
HETATM   31  C7  UNL     1      19.974  37.812   3.432  1.00  0.00     0.021 A 
ENDBRANCH  24  27
ENDBRANCH   2  20
TORSDOF 2
ENDMDL
MODEL 6
REMARK minimizedAffinity -7.38421535
REMARK  2 active torsions:
REMARK  status: ('A' for Active; 'I' for Inactive)
REMARK    1  A    between atoms: C1_2  and  C2_3 
REMARK       I    between atoms: C1_2  and  N3_14 
REMARK    2  A    between atoms: C3_7  and  C4_8 
ROOT
HETATM    1  O1  UNL     1       4.821  65.744  -3.977  1.00  0.00    -0.266 OA
HETATM    2  C1  UNL     1       3.848  65.501  -4.698  1.00  0.00     0.272 C 
HETATM    3  N3  UNL     1       3.936  65.650  -6.090  1.00  0.00    -0.338 N 
HETATM    4  C9  UNL     1       2.769  65.884  -6.940  1.00  0.00     0.127 C 
HETATM    5  C10 UNL     1       3.030  66.976  -7.966  1.00  0.00     0.024 C 
HETATM    6  C11 UNL     1       4.134  66.567  -8.929  1.00  0.00     0.037 C 
HETATM    7  C12 UNL     1       5.246  65.827  -8.243  1.00  0.00    -0.060 C 
HETATM    8  C13 UNL     1       6.140  65.068  -8.965  1.00  0.00    -0.015 C 
HETATM    9  C14 UNL     1       7.388  64.364  -8.329  1.00  0.00     0.031 C 
HETATM   10  C15 UNL     1       7.565  65.104  -7.037  1.00  0.00     0.019 C 
HETATM   11  C16 UNL     1       6.227  64.705  -6.380  1.00  0.00     0.031 C 
HETATM   12  C17 UNL     1       6.568  63.572  -5.464  1.00  0.00     0.124 C 
HETATM   13  N4  UNL     1       7.125  62.501  -6.384  1.00  0.00    -0.407 N 
HETATM   14  C18 UNL     1       8.213  61.749  -5.776  1.00  0.00     0.117 C 
HETATM   15  C19 UNL     1       8.459  60.441  -6.527  1.00  0.00     0.019 C 
HETATM   16  C20 UNL     1       8.530  60.606  -8.043  1.00  0.00     0.004 C 
HETATM   17  C21 UNL     1       8.509  62.069  -8.468  1.00  0.00     0.026 C 
HETATM   18  C22 UNL     1       7.294  62.815  -7.878  1.00  0.00     0.086 C 
HETATM   19  C23 UNL     1       5.272  65.854  -6.649  1.00  0.00     0.122 C 
ENDROOT
BRANCH   2  20
HETATM   20  C2  UNL     1       2.590  65.014  -4.087  1.00  0.00     0.118 A 
HETATM   21  N1  UNL     1       2.499  63.962  -3.247  1.00  0.00    -0.295 N 
HETATM   22  N2  UNL     1       1.204  63.926  -2.895  1.00  0.00    -0.299 N 
ATOM     23  H1  UNL     1       3.246  63.336  -2.946  1.00  0.00     0.187 HD
HETATM   24  C3  UNL     1       0.448  64.905  -3.467  1.00  0.00     0.061 A 
HETATM   25  H1  UNL     1       0.901  63.200  -2.255  1.00  0.00     0.187 HD
HETATM   26  C8  UNL     1       1.316  65.635  -4.240  1.00  0.00     0.068 A 
BRANCH  24  27
HETATM   27  C4  UNL     1      -1.076  65.134  -3.264  1.00  0.00    -0.001 A 
HETATM   28  C5  UNL     1      -1.771  66.157  -3.869  1.00  0.00     0.063 A 
HETATM   29  S1  UNL     1      -3.434  66.143  -3.451  1.00  0.00    -0.113 SA
HETATM   30  C6  UNL     1      -3.226  64.771  -2.453  1.00  0.00     0.050 A 
HETATM   31  C7  UNL     1      -1.921  64.330  -2.444  1.00  0.00     0.021 A 
ENDBRANCH  24  27
ENDBRANCH   2  20
TORSDOF 2
ENDMDL
MODEL 7
REMARK minimizedAffinity -7.32507372
REMARK  2 active torsions:
REMARK  status: ('A' for Active; 'I' for Inactive)
REMARK    1  A    between atoms: C1_2  and  C2_3 
REMARK       I    between atoms: C1_2  and  N3_14 
REMARK    2  A    between atoms: C3_7  and  C4_8 
ROOT
HETATM    1  O1  UNL     1      19.366  52.477   5.393  1.00  0.00    -0.266 OA
HETATM    2  C1  UNL     1      18.313  51.906   5.691  1.00  0.00     0.272 C 
HETATM    3  N3  UNL     1      18.333  50.640   6.297  1.00  0.00    -0.338 N 
HETATM    4  C9  UNL     1      17.214  49.703   6.217  1.00  0.00     0.127 C 
HETATM    5  C10 UNL     1      17.687  48.288   5.914  1.00  0.00     0.024 C 
HETATM    6  C11 UNL     1      18.560  47.753   7.037  1.00  0.00     0.037 C 
HETATM    7  C12 UNL     1      19.476  48.802   7.601  1.00  0.00    -0.060 C 
HETATM    8  C13 UNL     1      20.071  48.634   8.830  1.00  0.00    -0.015 C 
HETATM    9  C14 UNL     1      21.121  49.633   9.426  1.00  0.00     0.031 C 
HETATM   10  C15 UNL     1      21.591  50.383   8.216  1.00  0.00     0.019 C 
HETATM   11  C16 UNL     1      20.249  51.046   7.843  1.00  0.00     0.031 C 
HETATM   12  C17 UNL     1      20.335  52.432   8.401  1.00  0.00     0.124 C 
HETATM   13  N4  UNL     1      20.506  52.226   9.894  1.00  0.00    -0.407 N 
HETATM   14  C18 UNL     1      21.389  53.213  10.500  1.00  0.00     0.117 C 
HETATM   15  C19 UNL     1      21.210  53.248  12.017  1.00  0.00     0.019 C 
HETATM   16  C20 UNL     1      21.209  51.866  12.668  1.00  0.00     0.004 C 
HETATM   17  C21 UNL     1      21.558  50.761  11.681  1.00  0.00     0.026 C 
HETATM   18  C22 UNL     1      20.642  50.796  10.440  1.00  0.00     0.086 C 
HETATM   19  C23 UNL     1      19.628  50.160   6.779  1.00  0.00     0.122 C 
ENDROOT
BRANCH   2  20
HETATM   20  C2  UNL     1      17.019  52.580   5.436  1.00  0.00     0.118 A 
HETATM   21  N1  UNL     1      15.810  51.989   5.538  1.00  0.00    -0.295 N 
HETATM   22  N2  UNL     1      14.934  52.975   5.289  1.00  0.00    -0.299 N 
ATOM     23  H1  UNL     1      15.608  51.013   5.756  1.00  0.00     0.187 HD
HETATM   24  C3  UNL     1      15.515  54.179   5.030  1.00  0.00     0.061 A 
HETATM   25  H1  UNL     1      13.945  52.754   5.312  1.00  0.00     0.187 HD
HETATM   26  C8  UNL     1      16.868  53.963   5.125  1.00  0.00     0.068 A 
BRANCH  24  27
HETATM   27  C4  UNL     1      14.781  55.510   4.706  1.00  0.00    -0.001 A 
HETATM   28  C5  UNL     1      15.024  56.688   5.377  1.00  0.00     0.063 A 
HETATM   29  S1  UNL     1      14.060  57.978   4.788  1.00  0.00    -0.113 SA
HETATM   30  C6  UNL     1      13.310  56.962   3.637  1.00  0.00     0.050 A 
HETATM   31  C7  UNL     1      13.787  55.670   3.696  1.00  0.00     0.021 A 
ENDBRANCH  24  27
ENDBRANCH   2  20
TORSDOF 2
ENDMDL
MODEL 8
REMARK minimizedAffinity -7.11509609
REMARK  2 active torsions:
REMARK  status: ('A' for Active; 'I' for Inactive)
REMARK    1  A    between atoms: C1_2  and  C2_3 
REMARK       I    between atoms: C1_2  and  N3_14 
REMARK    2  A    between atoms: C3_7  and  C4_8 
ROOT
HETATM    1  O1  UNL     1       0.371  68.738  -7.548  1.00  0.00    -0.266 OA
HETATM    2  C1  UNL     1       0.827  67.915  -8.347  1.00  0.00     0.272 C 
HETATM    3  N3  UNL     1       1.978  67.177  -8.033  1.00  0.00    -0.338 N 
HETATM    4  C9  UNL     1       2.852  66.596  -9.051  1.00  0.00     0.127 C 
HETATM    5  C10 UNL     1       4.321  66.834  -8.734  1.00  0.00     0.024 C 
HETATM    6  C11 UNL     1       4.719  66.139  -7.442  1.00  0.00     0.037 C 
HETATM    7  C12 UNL     1       3.647  66.223  -6.393  1.00  0.00    -0.060 C 
HETATM    8  C13 UNL     1       3.649  65.373  -5.310  1.00  0.00    -0.015 C 
HETATM    9  C14 UNL     1       2.629  65.480  -4.125  1.00  0.00     0.031 C 
HETATM   10  C15 UNL     1       2.110  66.880  -4.257  1.00  0.00     0.019 C 
HETATM   11  C16 UNL     1       1.440  66.728  -5.638  1.00  0.00     0.031 C 
HETATM   12  C17 UNL     1      -0.010  66.507  -5.343  1.00  0.00     0.124 C 
HETATM   13  N4  UNL     1      -0.036  65.231  -4.521  1.00  0.00    -0.407 N 
HETATM   14  C18 UNL     1      -1.055  65.254  -3.481  1.00  0.00     0.117 C 
HETATM   15  C19 UNL     1      -1.342  63.843  -2.969  1.00  0.00     0.019 C 
HETATM   16  C20 UNL     1      -0.085  63.037  -2.651  1.00  0.00     0.004 C 
HETATM   17  C21 UNL     1       1.183  63.875  -2.755  1.00  0.00     0.026 C 
HETATM   18  C22 UNL     1       1.294  64.570  -4.128  1.00  0.00     0.086 C 
HETATM   19  C23 UNL     1       2.448  67.243  -6.649  1.00  0.00     0.122 C 
ENDROOT
BRANCH   2  20
HETATM   20  C2  UNL     1       0.130  67.682  -9.632  1.00  0.00     0.118 A 
HETATM   21  N1  UNL     1      -0.463  66.523  -9.987  1.00  0.00    -0.295 N 
HETATM   22  N2  UNL     1      -1.016  66.782 -11.183  1.00  0.00    -0.299 N 
ATOM     23  H1  UNL     1      -0.487  65.647  -9.465  1.00  0.00     0.187 HD
HETATM   24  C3  UNL     1      -0.811  68.056 -11.622  1.00  0.00     0.061 A 
HETATM   25  H1  UNL     1      -1.524  66.038 -11.648  1.00  0.00     0.187 HD
HETATM   26  C8  UNL     1      -0.078  68.671 -10.638  1.00  0.00     0.068 A 
BRANCH  24  27
HETATM   27  C4  UNL     1      -1.318  68.665 -12.959  1.00  0.00    -0.001 A 
HETATM   28  C5  UNL     1      -2.414  68.183 -13.640  1.00  0.00     0.063 A 
HETATM   29  S1  UNL     1      -2.723  69.067 -15.076  1.00  0.00    -0.113 SA
HETATM   30  C6  UNL     1      -1.387  70.095 -14.793  1.00  0.00     0.050 A 
HETATM   31  C7  UNL     1      -0.724  69.775 -13.628  1.00  0.00     0.021 A 
ENDBRANCH  24  27
ENDBRANCH   2  20
TORSDOF 2
ENDMDL
MODEL 9
REMARK minimizedAffinity -6.96252251
REMARK  2 active torsions:
REMARK  status: ('A' for Active; 'I' for Inactive)
REMARK    1  A    between atoms: C1_2  and  C2_3 
REMARK       I    between atoms: C1_2  and  N3_14 
REMARK    2  A    between atoms: C3_7  and  C4_8 
ROOT
HETATM    1  O1  UNL     1      17.139  55.981   3.089  1.00  0.00    -0.266 OA
HETATM    2  C1  UNL     1      16.206  55.741   3.861  1.00  0.00     0.272 C 
HETATM    3  N3  UNL     1      15.208  56.700   4.094  1.00  0.00    -0.338 N 
HETATM    4  C9  UNL     1      14.397  56.723   5.311  1.00  0.00     0.127 C 
HETATM    5  C10 UNL     1      14.262  58.131   5.870  1.00  0.00     0.024 C 
HETATM    6  C11 UNL     1      13.524  59.036   4.897  1.00  0.00     0.037 C 
HETATM    7  C12 UNL     1      13.906  58.773   3.468  1.00  0.00    -0.060 C 
HETATM    8  C13 UNL     1      13.113  59.212   2.432  1.00  0.00    -0.015 C 
HETATM    9  C14 UNL     1      13.507  59.071   0.921  1.00  0.00     0.031 C 
HETATM   10  C15 UNL     1      14.989  58.853   0.984  1.00  0.00     0.019 C 
HETATM   11  C16 UNL     1      14.975  57.513   1.747  1.00  0.00     0.031 C 
HETATM   12  C17 UNL     1      15.139  56.464   0.692  1.00  0.00     0.124 C 
HETATM   13  N4  UNL     1      13.934  56.651  -0.212  1.00  0.00    -0.407 N 
HETATM   14  C18 UNL     1      14.242  56.413  -1.615  1.00  0.00     0.117 C 
HETATM   15  C19 UNL     1      12.966  56.191  -2.425  1.00  0.00     0.019 C 
HETATM   16  C20 UNL     1      11.875  57.223  -2.149  1.00  0.00     0.004 C 
HETATM   17  C21 UNL     1      12.360  58.352  -1.249  1.00  0.00     0.026 C 
HETATM   18  C22 UNL     1      12.968  57.813   0.063  1.00  0.00     0.086 C 
HETATM   19  C23 UNL     1      15.190  57.863   3.208  1.00  0.00     0.122 C 
ENDROOT
BRANCH   2  20
HETATM   20  C2  UNL     1      16.123  54.417   4.518  1.00  0.00     0.118 A 
HETATM   21  N1  UNL     1      14.973  53.786   4.835  1.00  0.00    -0.295 N 
HETATM   22  N2  UNL     1      15.367  52.607   5.342  1.00  0.00    -0.299 N 
ATOM     23  H1  UNL     1      14.019  54.127   4.716  1.00  0.00     0.187 HD
HETATM   24  C3  UNL     1      16.719  52.441   5.369  1.00  0.00     0.061 A 
HETATM   25  H1  UNL     1      14.654  51.956   5.653  1.00  0.00     0.187 HD
HETATM   26  C8  UNL     1      17.242  53.592   4.835  1.00  0.00     0.068 A 
BRANCH  24  27
HETATM   27  C4  UNL     1      17.487  51.195   5.893  1.00  0.00    -0.001 A 
HETATM   28  C5  UNL     1      17.341  49.937   5.352  1.00  0.00     0.063 A 
HETATM   29  S1  UNL     1      18.323  48.776   6.143  1.00  0.00    -0.113 SA
HETATM   30  C6  UNL     1      18.943  49.953   7.216  1.00  0.00     0.050 A 
HETATM   31  C7  UNL     1      18.418  51.204   6.973  1.00  0.00     0.021 A 
ENDBRANCH  24  27
ENDBRANCH   2  20
TORSDOF 2
ENDMDL
