MODEL 1
REMARK minimizedAffinity -9.45638943
REMARK  5 active torsions:
REMARK  status: ('A' for Active; 'I' for Inactive)
REMARK    1  A    between atoms: C2_2  and  C3_3 
REMARK    2  A    between atoms: C4_5  and  C5_6 
REMARK    3  A    between atoms: C5_6  and  C6_7 
REMARK    4  A    between atoms: C6_7  and  C7_8 
REMARK    5  A    between atoms: C7_8  and  C9_10 
ROOT
HETATM    1  C9  UNL     1      -4.199  50.308 -24.809  1.00  0.00    -0.001 C 
HETATM    2  C10 UNL     1      -5.583  49.865 -24.253  1.00  0.00     0.007 C 
HETATM    3  C11 UNL     1      -5.474  49.830 -22.719  1.00  0.00     0.015 C 
HETATM    4  C12 UNL     1      -4.168  50.580 -22.394  1.00  0.00    -0.004 C 
HETATM    5  C13 UNL     1      -4.500  52.103 -22.393  1.00  0.00     0.021 C 
HETATM    6  C14 UNL     1      -3.443  50.327 -21.081  1.00  0.00     0.007 C 
HETATM    7  C15 UNL     1      -2.107  50.506 -20.936  1.00  0.00     0.007 C 
HETATM    8  C16 UNL     1      -1.317  50.899 -22.177  1.00  0.00     0.157 C 
HETATM    9  O2  UNL     1      -0.133  51.221 -22.089  1.00  0.00    -0.293 OA
HETATM   10  C17 UNL     1      -1.976  50.911 -23.552  1.00  0.00     0.094 C 
HETATM   11  C18 UNL     1      -3.263  50.088 -23.580  1.00  0.00    -0.022 C 
HETATM   12  C19 UNL     1      -2.883  48.574 -23.480  1.00  0.00     0.017 C 
HETATM   13  C20 UNL     1      -1.327  50.320 -19.607  1.00  0.00    -0.007 C 
HETATM   14  C21 UNL     1      -0.515  49.010 -19.760  1.00  0.00     0.021 C 
HETATM   15  C22 UNL     1      -0.339  51.500 -19.332  1.00  0.00     0.022 C 
HETATM   16  C23 UNL     1      -0.059  51.817 -17.865  1.00  0.00     0.080 C 
HETATM   17  C24 UNL     1      -0.274  50.619 -16.975  1.00  0.00     0.135 C 
HETATM   18  O3  UNL     1       0.615  50.219 -16.225  1.00  0.00    -0.297 OA
HETATM   19  C25 UNL     1      -1.675  49.997 -16.999  1.00  0.00     0.018 C 
HETATM   20  C26 UNL     1      -1.590  48.505 -16.624  1.00  0.00     0.023 C 
HETATM   21  C27 UNL     1      -2.489  50.705 -15.894  1.00  0.00     0.023 C 
HETATM   22  C28 UNL     1      -2.328  50.272 -18.397  1.00  0.00     0.021 C 
HETATM   23  C29 UNL     1      -3.515  49.361 -18.699  1.00  0.00     0.090 C 
HETATM   24  C30 UNL     1      -4.250  49.895 -19.899  1.00  0.00     0.157 C 
HETATM   25  O4  UNL     1      -5.476  49.946 -19.908  1.00  0.00    -0.293 OA
ENDROOT
BRANCH   1  26
HETATM   26  C7  UNL     1      -3.872  49.619 -26.169  1.00  0.00    -0.014 C 
HETATM   27  C8  UNL     1      -4.578  48.263 -26.305  1.00  0.00     0.010 C 
BRANCH  26  28
HETATM   28  C6  UNL     1      -2.339  49.412 -26.333  1.00  0.00     0.008 C 
BRANCH  28  29
HETATM   29  C5  UNL     1      -1.609  50.586 -27.005  1.00  0.00     0.028 C 
BRANCH  29  30
HETATM   30  C4  UNL     1      -0.263  50.901 -26.421  1.00  0.00    -0.017 C 
HETATM   31  C2  UNL     1       0.795  51.431 -27.066  1.00  0.00    -0.028 C 
HETATM   32  C1  UNL     1       0.851  51.864 -28.495  1.00  0.00     0.051 C 
BRANCH  31  33
HETATM   33  C3  UNL     1       2.052  51.646 -26.284  1.00  0.00     0.265 C 
HETATM   34  O1  UNL     1       3.017  50.893 -26.319  1.00  0.00    -0.302 OA
ENDBRANCH  31  33
ENDBRANCH  29  30
ENDBRANCH  28  29
ENDBRANCH  26  28
ENDBRANCH   1  26
TORSDOF 5
ENDMDL
MODEL 2
REMARK minimizedAffinity -9.21473122
REMARK  5 active torsions:
REMARK  status: ('A' for Active; 'I' for Inactive)
REMARK    1  A    between atoms: C2_2  and  C3_3 
REMARK    2  A    between atoms: C4_5  and  C5_6 
REMARK    3  A    between atoms: C5_6  and  C6_7 
REMARK    4  A    between atoms: C6_7  and  C7_8 
REMARK    5  A    between atoms: C7_8  and  C9_10 
ROOT
HETATM    1  C9  UNL     1      -0.586  49.914 -20.566  1.00  0.00    -0.001 C 
HETATM    2  C10 UNL     1      -0.983  49.075 -19.317  1.00  0.00     0.007 C 
HETATM    3  C11 UNL     1      -2.273  48.311 -19.664  1.00  0.00     0.015 C 
HETATM    4  C12 UNL     1      -2.410  48.434 -21.193  1.00  0.00    -0.004 C 
HETATM    5  C13 UNL     1      -1.516  47.326 -21.826  1.00  0.00     0.021 C 
HETATM    6  C14 UNL     1      -3.769  48.279 -21.857  1.00  0.00     0.007 C 
HETATM    7  C15 UNL     1      -4.077  48.862 -23.042  1.00  0.00     0.007 C 
HETATM    8  C16 UNL     1      -3.023  49.767 -23.668  1.00  0.00     0.157 C 
HETATM    9  O2  UNL     1      -3.175  50.207 -24.807  1.00  0.00    -0.293 OA
HETATM   10  C17 UNL     1      -1.758  50.138 -22.903  1.00  0.00     0.094 C 
HETATM   11  C18 UNL     1      -1.906  49.908 -21.400  1.00  0.00    -0.022 C 
HETATM   12  C19 UNL     1      -2.888  50.982 -20.829  1.00  0.00     0.017 C 
HETATM   13  C20 UNL     1      -5.425  48.690 -23.791  1.00  0.00    -0.007 C 
HETATM   14  C21 UNL     1      -6.183  50.031 -23.634  1.00  0.00     0.021 C 
HETATM   15  C22 UNL     1      -5.221  48.398 -25.314  1.00  0.00     0.022 C 
HETATM   16  C23 UNL     1      -6.302  47.558 -25.990  1.00  0.00     0.080 C 
HETATM   17  C24 UNL     1      -7.629  47.663 -25.281  1.00  0.00     0.135 C 
HETATM   18  O3  UNL     1      -8.645  48.002 -25.884  1.00  0.00    -0.297 OA
HETATM   19  C25 UNL     1      -7.646  47.242 -23.806  1.00  0.00     0.018 C 
HETATM   20  C26 UNL     1      -8.777  47.982 -23.066  1.00  0.00     0.023 C 
HETATM   21  C27 UNL     1      -7.987  45.737 -23.783  1.00  0.00     0.023 C 
HETATM   22  C28 UNL     1      -6.220  47.472 -23.197  1.00  0.00     0.021 C 
HETATM   23  C29 UNL     1      -6.214  47.503 -21.670  1.00  0.00     0.090 C 
HETATM   24  C30 UNL     1      -4.792  47.421 -21.184  1.00  0.00     0.157 C 
HETATM   25  O4  UNL     1      -4.494  46.688 -20.246  1.00  0.00    -0.293 OA
ENDROOT
BRANCH   1  26
HETATM   26  C7  UNL     1       0.076  51.269 -20.169  1.00  0.00    -0.014 C 
HETATM   27  C8  UNL     1      -0.414  51.764 -18.802  1.00  0.00     0.010 C 
BRANCH  26  28
HETATM   28  C6  UNL     1      -0.212  52.362 -21.238  1.00  0.00     0.008 C 
BRANCH  28  29
HETATM   29  C5  UNL     1       0.762  52.358 -22.426  1.00  0.00     0.028 C 
BRANCH  29  30
HETATM   30  C4  UNL     1       0.303  53.154 -23.613  1.00  0.00    -0.017 C 
HETATM   31  C2  UNL     1       0.584  52.911 -24.908  1.00  0.00    -0.028 C 
HETATM   32  C1  UNL     1       1.380  51.771 -25.457  1.00  0.00     0.051 C 
BRANCH  31  33
HETATM   33  C3  UNL     1       0.028  53.851 -25.931  1.00  0.00     0.265 C 
HETATM   34  O1  UNL     1       0.221  55.061 -25.925  1.00  0.00    -0.302 OA
ENDBRANCH  31  33
ENDBRANCH  29  30
ENDBRANCH  28  29
ENDBRANCH  26  28
ENDBRANCH   1  26
TORSDOF 5
ENDMDL
MODEL 3
REMARK minimizedAffinity -9.05936718
REMARK  5 active torsions:
REMARK  status: ('A' for Active; 'I' for Inactive)
REMARK    1  A    between atoms: C2_2  and  C3_3 
REMARK    2  A    between atoms: C4_5  and  C5_6 
REMARK    3  A    between atoms: C5_6  and  C6_7 
REMARK    4  A    between atoms: C6_7  and  C7_8 
REMARK    5  A    between atoms: C7_8  and  C9_10 
ROOT
HETATM    1  C9  UNL     1       0.020  50.887 -21.430  1.00  0.00    -0.001 C 
HETATM    2  C10 UNL     1       0.110  50.916 -19.877  1.00  0.00     0.007 C 
HETATM    3  C11 UNL     1      -1.144  50.213 -19.329  1.00  0.00     0.015 C 
HETATM    4  C12 UNL     1      -1.756  49.485 -20.541  1.00  0.00    -0.004 C 
HETATM    5  C13 UNL     1      -0.996  48.134 -20.698  1.00  0.00     0.021 C 
HETATM    6  C14 UNL     1      -3.232  49.119 -20.552  1.00  0.00     0.007 C 
HETATM    7  C15 UNL     1      -3.943  48.979 -21.699  1.00  0.00     0.007 C 
HETATM    8  C16 UNL     1      -3.225  49.285 -23.007  1.00  0.00     0.157 C 
HETATM    9  O2  UNL     1      -3.761  49.038 -24.086  1.00  0.00    -0.293 OA
HETATM   10  C17 UNL     1      -1.829  49.896 -23.007  1.00  0.00     0.094 C 
HETATM   11  C18 UNL     1      -1.484  50.546 -21.668  1.00  0.00    -0.022 C 
HETATM   12  C19 UNL     1      -2.342  51.844 -21.514  1.00  0.00     0.017 C 
HETATM   13  C20 UNL     1      -5.433  48.550 -21.770  1.00  0.00    -0.007 C 
HETATM   14  C21 UNL     1      -6.232  49.821 -22.153  1.00  0.00     0.021 C 
HETATM   15  C22 UNL     1      -5.679  47.450 -22.854  1.00  0.00     0.022 C 
HETATM   16  C23 UNL     1      -6.830  46.483 -22.584  1.00  0.00     0.080 C 
HETATM   17  C24 UNL     1      -7.877  47.085 -21.682  1.00  0.00     0.135 C 
HETATM   18  O3  UNL     1      -9.058  47.130 -22.024  1.00  0.00    -0.297 OA
HETATM   19  C25 UNL     1      -7.400  47.550 -20.302  1.00  0.00     0.018 C 
HETATM   20  C26 UNL     1      -8.315  48.678 -19.786  1.00  0.00     0.023 C 
HETATM   21  C27 UNL     1      -7.571  46.346 -19.350  1.00  0.00     0.023 C 
HETATM   22  C28 UNL     1      -5.886  47.943 -20.394  1.00  0.00     0.021 C 
HETATM   23  C29 UNL     1      -5.414  48.808 -19.228  1.00  0.00     0.090 C 
HETATM   24  C30 UNL     1      -3.910  48.874 -19.243  1.00  0.00     0.157 C 
HETATM   25  O4  UNL     1      -3.270  48.755 -18.203  1.00  0.00    -0.293 OA
ENDROOT
BRANCH   1  26
HETATM   26  C7  UNL     1       0.639  52.166 -22.072  1.00  0.00    -0.014 C 
HETATM   27  C8  UNL     1       0.695  53.333 -21.076  1.00  0.00     0.010 C 
BRANCH  26  28
HETATM   28  C6  UNL     1      -0.172  52.607 -23.324  1.00  0.00     0.008 C 
BRANCH  28  29
HETATM   29  C5  UNL     1       0.574  52.433 -24.656  1.00  0.00     0.028 C 
BRANCH  29  30
HETATM   30  C4  UNL     1      -0.028  53.176 -25.812  1.00  0.00    -0.017 C 
HETATM   31  C2  UNL     1       0.166  52.930 -27.122  1.00  0.00    -0.028 C 
HETATM   32  C1  UNL     1       0.990  51.835 -27.719  1.00  0.00     0.051 C 
BRANCH  31  33
HETATM   33  C3  UNL     1      -0.528  53.814 -28.109  1.00  0.00     0.265 C 
HETATM   34  O1  UNL     1      -1.706  54.141 -28.026  1.00  0.00    -0.302 OA
ENDBRANCH  31  33
ENDBRANCH  29  30
ENDBRANCH  28  29
ENDBRANCH  26  28
ENDBRANCH   1  26
TORSDOF 5
ENDMDL
MODEL 4
REMARK minimizedAffinity -8.89942455
REMARK  5 active torsions:
REMARK  status: ('A' for Active; 'I' for Inactive)
REMARK    1  A    between atoms: C2_2  and  C3_3 
REMARK    2  A    between atoms: C4_5  and  C5_6 
REMARK    3  A    between atoms: C5_6  and  C6_7 
REMARK    4  A    between atoms: C6_7  and  C7_8 
REMARK    5  A    between atoms: C7_8  and  C9_10 
ROOT
HETATM    1  C9  UNL     1      -2.561  50.612 -21.850  1.00  0.00    -0.001 C 
HETATM    2  C10 UNL     1      -1.824  51.932 -22.217  1.00  0.00     0.007 C 
HETATM    3  C11 UNL     1      -0.843  52.247 -21.074  1.00  0.00     0.015 C 
HETATM    4  C12 UNL     1      -0.765  50.950 -20.246  1.00  0.00    -0.004 C 
HETATM    5  C13 UNL     1       0.265  50.017 -20.950  1.00  0.00     0.021 C 
HETATM    6  C14 UNL     1      -0.336  50.994 -18.788  1.00  0.00     0.007 C 
HETATM    7  C15 UNL     1      -0.725  50.064 -17.881  1.00  0.00     0.007 C 
HETATM    8  C16 UNL     1      -1.696  48.991 -18.356  1.00  0.00     0.157 C 
HETATM    9  O2  UNL     1      -1.973  48.035 -17.632  1.00  0.00    -0.293 OA
HETATM   10  C17 UNL     1      -2.336  49.072 -19.737  1.00  0.00     0.094 C 
HETATM   11  C18 UNL     1      -2.263  50.481 -20.323  1.00  0.00    -0.022 C 
HETATM   12  C19 UNL     1      -3.241  51.401 -19.521  1.00  0.00     0.017 C 
HETATM   13  C20 UNL     1      -0.271  50.028 -16.398  1.00  0.00    -0.007 C 
HETATM   14  C21 UNL     1      -1.494  50.469 -15.558  1.00  0.00     0.021 C 
HETATM   15  C22 UNL     1       0.164  48.594 -15.948  1.00  0.00     0.022 C 
HETATM   16  C23 UNL     1       1.227  48.524 -14.854  1.00  0.00     0.080 C 
HETATM   17  C24 UNL     1       1.237  49.761 -13.992  1.00  0.00     0.135 C 
HETATM   18  O3  UNL     1       1.124  49.683 -12.770  1.00  0.00    -0.297 OA
HETATM   19  C25 UNL     1       1.480  51.091 -14.715  1.00  0.00     0.018 C 
HETATM   20  C26 UNL     1       0.834  52.242 -13.920  1.00  0.00     0.023 C 
HETATM   21  C27 UNL     1       3.007  51.323 -14.704  1.00  0.00     0.023 C 
HETATM   22  C28 UNL     1       0.973  50.966 -16.192  1.00  0.00     0.021 C 
HETATM   23  C29 UNL     1       0.765  52.315 -16.876  1.00  0.00     0.090 C 
HETATM   24  C30 UNL     1       0.580  52.093 -18.353  1.00  0.00     0.157 C 
HETATM   25  O4  UNL     1       1.146  52.814 -19.168  1.00  0.00    -0.293 OA
ENDROOT
BRANCH   1  26
HETATM   26  C7  UNL     1      -4.035  50.609 -22.357  1.00  0.00    -0.014 C 
HETATM   27  C8  UNL     1      -4.371  49.324 -23.126  1.00  0.00     0.010 C 
BRANCH  26  28
HETATM   28  C6  UNL     1      -4.310  51.835 -23.274  1.00  0.00     0.008 C 
BRANCH  28  29
HETATM   29  C5  UNL     1      -4.269  51.524 -24.778  1.00  0.00     0.028 C 
BRANCH  29  30
HETATM   30  C4  UNL     1      -3.223  52.279 -25.544  1.00  0.00    -0.017 C 
HETATM   31  C2  UNL     1      -2.689  51.942 -26.734  1.00  0.00    -0.028 C 
HETATM   32  C1  UNL     1      -3.050  50.762 -27.579  1.00  0.00     0.051 C 
BRANCH  31  33
HETATM   33  C3  UNL     1      -1.641  52.840 -27.309  1.00  0.00     0.265 C 
HETATM   34  O1  UNL     1      -1.884  53.820 -28.003  1.00  0.00    -0.302 OA
ENDBRANCH  31  33
ENDBRANCH  29  30
ENDBRANCH  28  29
ENDBRANCH  26  28
ENDBRANCH   1  26
TORSDOF 5
ENDMDL
MODEL 5
REMARK minimizedAffinity -8.88026428
REMARK  5 active torsions:
REMARK  status: ('A' for Active; 'I' for Inactive)
REMARK    1  A    between atoms: C2_2  and  C3_3 
REMARK    2  A    between atoms: C4_5  and  C5_6 
REMARK    3  A    between atoms: C5_6  and  C6_7 
REMARK    4  A    between atoms: C6_7  and  C7_8 
REMARK    5  A    between atoms: C7_8  and  C9_10 
ROOT
HETATM    1  C9  UNL     1      -4.538  48.295 -20.331  1.00  0.00    -0.001 C 
HETATM    2  C10 UNL     1      -5.195  47.397 -21.419  1.00  0.00     0.007 C 
HETATM    3  C11 UNL     1      -4.578  47.786 -22.774  1.00  0.00     0.015 C 
HETATM    4  C12 UNL     1      -3.342  48.634 -22.421  1.00  0.00    -0.004 C 
HETATM    5  C13 UNL     1      -2.179  47.645 -22.110  1.00  0.00     0.021 C 
HETATM    6  C14 UNL     1      -2.772  49.618 -23.429  1.00  0.00     0.007 C 
HETATM    7  C15 UNL     1      -2.076  50.724 -23.063  1.00  0.00     0.007 C 
HETATM    8  C16 UNL     1      -1.948  51.004 -21.571  1.00  0.00     0.157 C 
HETATM    9  O2  UNL     1      -1.210  51.901 -21.165  1.00  0.00    -0.293 OA
HETATM   10  C17 UNL     1      -2.722  50.176 -20.552  1.00  0.00     0.094 C 
HETATM   11  C18 UNL     1      -3.896  49.433 -21.185  1.00  0.00    -0.022 C 
HETATM   12  C19 UNL     1      -4.994  50.478 -21.569  1.00  0.00     0.017 C 
HETATM   13  C20 UNL     1      -1.424  51.728 -24.050  1.00  0.00    -0.007 C 
HETATM   14  C21 UNL     1      -2.293  53.009 -24.004  1.00  0.00     0.021 C 
HETATM   15  C22 UNL     1       0.041  52.093 -23.638  1.00  0.00     0.022 C 
HETATM   16  C23 UNL     1       0.990  52.456 -24.778  1.00  0.00     0.080 C 
HETATM   17  C24 UNL     1       0.255  52.982 -25.984  1.00  0.00     0.135 C 
HETATM   18  O3  UNL     1       0.538  54.074 -26.472  1.00  0.00    -0.297 OA
HETATM   19  C25 UNL     1      -0.790  52.047 -26.604  1.00  0.00     0.018 C 
HETATM   20  C26 UNL     1      -1.869  52.876 -27.328  1.00  0.00     0.023 C 
HETATM   21  C27 UNL     1      -0.053  51.214 -27.675  1.00  0.00     0.023 C 
HETATM   22  C28 UNL     1      -1.349  51.099 -25.488  1.00  0.00     0.021 C 
HETATM   23  C29 UNL     1      -2.669  50.433 -25.867  1.00  0.00     0.090 C 
HETATM   24  C30 UNL     1      -2.962  49.331 -24.884  1.00  0.00     0.157 C 
HETATM   25  O4  UNL     1      -3.369  48.240 -25.273  1.00  0.00    -0.293 OA
ENDROOT
BRANCH   1  26
HETATM   26  C7  UNL     1      -5.538  48.650 -19.189  1.00  0.00    -0.014 C 
HETATM   27  C8  UNL     1      -5.153  47.977 -17.864  1.00  0.00     0.010 C 
BRANCH  26  28
HETATM   28  C6  UNL     1      -6.987  48.231 -19.568  1.00  0.00     0.008 C 
BRANCH  28  29
HETATM   29  C5  UNL     1      -8.078  49.182 -19.052  1.00  0.00     0.028 C 
BRANCH  29  30
HETATM   30  C4  UNL     1      -8.921  48.622 -17.944  1.00  0.00    -0.017 C 
HETATM   31  C2  UNL     1     -10.141  48.062 -18.059  1.00  0.00    -0.028 C 
HETATM   32  C1  UNL     1     -10.910  47.835 -19.320  1.00  0.00     0.051 C 
BRANCH  31  33
HETATM   33  C3  UNL     1     -10.810  47.583 -16.810  1.00  0.00     0.265 C 
HETATM   34  O1  UNL     1     -12.001  47.307 -16.733  1.00  0.00    -0.302 OA
ENDBRANCH  31  33
ENDBRANCH  29  30
ENDBRANCH  28  29
ENDBRANCH  26  28
ENDBRANCH   1  26
TORSDOF 5
ENDMDL
MODEL 6
REMARK minimizedAffinity -8.84613132
REMARK  5 active torsions:
REMARK  status: ('A' for Active; 'I' for Inactive)
REMARK    1  A    between atoms: C2_2  and  C3_3 
REMARK    2  A    between atoms: C4_5  and  C5_6 
REMARK    3  A    between atoms: C5_6  and  C6_7 
REMARK    4  A    between atoms: C6_7  and  C7_8 
REMARK    5  A    between atoms: C7_8  and  C9_10 
ROOT
HETATM    1  C9  UNL     1      -6.373  48.387 -21.306  1.00  0.00    -0.001 C 
HETATM    2  C10 UNL     1      -6.635  47.523 -22.573  1.00  0.00     0.007 C 
HETATM    3  C11 UNL     1      -5.530  47.850 -23.592  1.00  0.00     0.015 C 
HETATM    4  C12 UNL     1      -4.461  48.615 -22.790  1.00  0.00    -0.004 C 
HETATM    5  C13 UNL     1      -3.570  47.553 -22.079  1.00  0.00     0.021 C 
HETATM    6  C14 UNL     1      -3.488  49.545 -23.498  1.00  0.00     0.007 C 
HETATM    7  C15 UNL     1      -2.906  50.605 -22.883  1.00  0.00     0.007 C 
HETATM    8  C16 UNL     1      -3.328  50.895 -21.449  1.00  0.00     0.157 C 
HETATM    9  O2  UNL     1      -2.736  51.744 -20.783  1.00  0.00    -0.293 OA
HETATM   10  C17 UNL     1      -4.482  50.136 -20.805  1.00  0.00     0.094 C 
HETATM   11  C18 UNL     1      -5.381  49.467 -21.842  1.00  0.00    -0.022 C 
HETATM   12  C19 UNL     1      -6.181  50.580 -22.595  1.00  0.00     0.017 C 
HETATM   13  C20 UNL     1      -1.864  51.548 -23.540  1.00  0.00    -0.007 C 
HETATM   14  C21 UNL     1      -2.597  52.886 -23.806  1.00  0.00     0.021 C 
HETATM   15  C22 UNL     1      -0.639  51.817 -22.605  1.00  0.00     0.022 C 
HETATM   16  C23 UNL     1       0.691  52.098 -23.300  1.00  0.00     0.080 C 
HETATM   17  C24 UNL     1       0.499  52.657 -24.687  1.00  0.00     0.135 C 
HETATM   18  O3  UNL     1       1.019  53.721 -25.019  1.00  0.00    -0.297 OA
HETATM   19  C25 UNL     1      -0.299  51.788 -25.666  1.00  0.00     0.018 C 
HETATM   20  C26 UNL     1      -0.968  52.679 -26.730  1.00  0.00     0.023 C 
HETATM   21  C27 UNL     1       0.727  50.893 -26.394  1.00  0.00     0.023 C 
HETATM   22  C28 UNL     1      -1.299  50.896 -24.853  1.00  0.00     0.021 C 
HETATM   23  C29 UNL     1      -2.424  50.317 -25.709  1.00  0.00     0.090 C 
HETATM   24  C30 UNL     1      -3.138  49.251 -24.922  1.00  0.00     0.157 C 
HETATM   25  O4  UNL     1      -3.445  48.186 -25.450  1.00  0.00    -0.293 OA
ENDROOT
BRANCH   1  26
HETATM   26  C7  UNL     1      -7.701  48.826 -20.617  1.00  0.00    -0.014 C 
HETATM   27  C8  UNL     1      -7.499  49.119 -19.124  1.00  0.00     0.010 C 
BRANCH  26  28
HETATM   28  C6  UNL     1      -8.797  47.732 -20.776  1.00  0.00     0.008 C 
BRANCH  28  29
HETATM   29  C5  UNL     1      -9.730  47.590 -19.563  1.00  0.00     0.028 C 
BRANCH  29  30
HETATM   30  C4  UNL     1     -11.128  48.086 -19.789  1.00  0.00    -0.017 C 
HETATM   31  C2  UNL     1     -12.228  47.759 -19.083  1.00  0.00    -0.028 C 
HETATM   32  C1  UNL     1     -12.294  46.862 -17.889  1.00  0.00     0.051 C 
BRANCH  31  33
HETATM   33  C3  UNL     1     -13.530  48.365 -19.498  1.00  0.00     0.265 C 
HETATM   34  O1  UNL     1     -13.631  49.434 -20.087  1.00  0.00    -0.302 OA
ENDBRANCH  31  33
ENDBRANCH  29  30
ENDBRANCH  28  29
ENDBRANCH  26  28
ENDBRANCH   1  26
TORSDOF 5
ENDMDL
MODEL 7
REMARK minimizedAffinity -8.80360317
REMARK  5 active torsions:
REMARK  status: ('A' for Active; 'I' for Inactive)
REMARK    1  A    between atoms: C2_2  and  C3_3 
REMARK    2  A    between atoms: C4_5  and  C5_6 
REMARK    3  A    between atoms: C5_6  and  C6_7 
REMARK    4  A    between atoms: C6_7  and  C7_8 
REMARK    5  A    between atoms: C7_8  and  C9_10 
ROOT
HETATM    1  C9  UNL     1      -2.902  50.367 -21.768  1.00  0.00    -0.001 C 
HETATM    2  C10 UNL     1      -2.196  51.671 -22.239  1.00  0.00     0.007 C 
HETATM    3  C11 UNL     1      -1.159  52.048 -21.167  1.00  0.00     0.015 C 
HETATM    4  C12 UNL     1      -1.026  50.794 -20.282  1.00  0.00    -0.004 C 
HETATM    5  C13 UNL     1      -0.028  49.832 -20.993  1.00  0.00     0.021 C 
HETATM    6  C14 UNL     1      -0.520  50.913 -18.853  1.00  0.00     0.007 C 
HETATM    7  C15 UNL     1      -0.853  50.026 -17.882  1.00  0.00     0.007 C 
HETATM    8  C16 UNL     1      -1.839  48.926 -18.250  1.00  0.00     0.157 C 
HETATM    9  O2  UNL     1      -2.070  48.006 -17.467  1.00  0.00    -0.293 OA
HETATM   10  C17 UNL     1      -2.553  48.936 -19.597  1.00  0.00     0.094 C 
HETATM   11  C18 UNL     1      -2.522  50.314 -20.255  1.00  0.00    -0.022 C 
HETATM   12  C19 UNL     1      -3.463  51.268 -19.449  1.00  0.00     0.017 C 
HETATM   13  C20 UNL     1      -0.319  50.066 -16.425  1.00  0.00    -0.007 C 
HETATM   14  C21 UNL     1      -1.500  50.542 -15.543  1.00  0.00     0.021 C 
HETATM   15  C22 UNL     1       0.150  48.659 -15.930  1.00  0.00     0.022 C 
HETATM   16  C23 UNL     1       1.270  48.648 -14.892  1.00  0.00     0.080 C 
HETATM   17  C24 UNL     1       1.316  49.926 -14.094  1.00  0.00     0.135 C 
HETATM   18  O3  UNL     1       1.269  49.908 -12.865  1.00  0.00    -0.297 OA
HETATM   19  C25 UNL     1       1.510  51.220 -14.893  1.00  0.00     0.018 C 
HETATM   20  C26 UNL     1       0.899  52.406 -14.123  1.00  0.00     0.023 C 
HETATM   21  C27 UNL     1       3.033  51.460 -14.976  1.00  0.00     0.023 C 
HETATM   22  C28 UNL     1       0.926  51.019 -16.333  1.00  0.00     0.021 C 
HETATM   23  C29 UNL     1       0.671  52.332 -17.070  1.00  0.00     0.090 C 
HETATM   24  C30 UNL     1       0.409  52.036 -18.522  1.00  0.00     0.157 C 
HETATM   25  O4  UNL     1       0.926  52.719 -19.402  1.00  0.00    -0.293 OA
ENDROOT
BRANCH   1  26
HETATM   26  C7  UNL     1      -4.402  50.332 -22.195  1.00  0.00    -0.014 C 
HETATM   27  C8  UNL     1      -5.183  49.245 -21.444  1.00  0.00     0.010 C 
BRANCH  26  28
HETATM   28  C6  UNL     1      -4.538  50.089 -23.726  1.00  0.00     0.008 C 
BRANCH  28  29
HETATM   29  C5  UNL     1      -4.543  48.607 -24.134  1.00  0.00     0.028 C 
BRANCH  29  30
HETATM   30  C4  UNL     1      -4.994  48.348 -25.542  1.00  0.00    -0.017 C 
HETATM   31  C2  UNL     1      -4.251  48.451 -26.661  1.00  0.00    -0.028 C 
HETATM   32  C1  UNL     1      -2.801  48.803 -26.749  1.00  0.00     0.051 C 
BRANCH  31  33
HETATM   33  C3  UNL     1      -4.916  48.159 -27.969  1.00  0.00     0.265 C 
HETATM   34  O1  UNL     1      -4.312  47.965 -29.016  1.00  0.00    -0.302 OA
ENDBRANCH  31  33
ENDBRANCH  29  30
ENDBRANCH  28  29
ENDBRANCH  26  28
ENDBRANCH   1  26
TORSDOF 5
ENDMDL
MODEL 8
REMARK minimizedAffinity -8.76319313
REMARK  5 active torsions:
REMARK  status: ('A' for Active; 'I' for Inactive)
REMARK    1  A    between atoms: C2_2  and  C3_3 
REMARK    2  A    between atoms: C4_5  and  C5_6 
REMARK    3  A    between atoms: C5_6  and  C6_7 
REMARK    4  A    between atoms: C6_7  and  C7_8 
REMARK    5  A    between atoms: C7_8  and  C9_10 
ROOT
HETATM    1  C9  UNL     1      -1.422  48.788 -18.319  1.00  0.00    -0.001 C 
HETATM    2  C10 UNL     1      -2.592  47.826 -18.676  1.00  0.00     0.007 C 
HETATM    3  C11 UNL     1      -2.893  48.002 -20.175  1.00  0.00     0.015 C 
HETATM    4  C12 UNL     1      -1.688  48.782 -20.735  1.00  0.00    -0.004 C 
HETATM    5  C13 UNL     1      -0.563  47.744 -21.024  1.00  0.00     0.021 C 
HETATM    6  C14 UNL     1      -1.825  49.592 -22.015  1.00  0.00     0.007 C 
HETATM    7  C15 UNL     1      -1.051  50.672 -22.285  1.00  0.00     0.007 C 
HETATM    8  C16 UNL     1      -0.069  51.113 -21.208  1.00  0.00     0.157 C 
HETATM    9  O2  UNL     1       0.764  51.987 -21.442  1.00  0.00    -0.293 OA
HETATM   10  C17 UNL     1      -0.091  50.476 -19.823  1.00  0.00     0.094 C 
HETATM   11  C18 UNL     1      -1.410  49.762 -19.538  1.00  0.00    -0.022 C 
HETATM   12  C19 UNL     1      -2.526  50.842 -19.353  1.00  0.00     0.017 C 
HETATM   13  C20 UNL     1      -1.108  51.497 -23.598  1.00  0.00    -0.007 C 
HETATM   14  C21 UNL     1      -1.786  52.841 -23.237  1.00  0.00     0.021 C 
HETATM   15  C22 UNL     1       0.316  51.787 -24.176  1.00  0.00     0.022 C 
HETATM   16  C23 UNL     1       0.411  51.935 -25.693  1.00  0.00     0.080 C 
HETATM   17  C24 UNL     1      -0.896  52.375 -26.303  1.00  0.00     0.135 C 
HETATM   18  O3  UNL     1      -0.958  53.376 -27.014  1.00  0.00    -0.297 OA
HETATM   19  C25 UNL     1      -2.103  51.462 -26.055  1.00  0.00     0.018 C 
HETATM   20  C26 UNL     1      -3.403  52.286 -26.122  1.00  0.00     0.023 C 
HETATM   21  C27 UNL     1      -2.136  50.453 -27.223  1.00  0.00     0.023 C 
HETATM   22  C28 UNL     1      -1.893  50.701 -24.702  1.00  0.00     0.021 C 
HETATM   23  C29 UNL     1      -3.181  50.105 -24.139  1.00  0.00     0.090 C 
HETATM   24  C30 UNL     1      -2.836  49.153 -23.026  1.00  0.00     0.157 C 
HETATM   25  O4  UNL     1      -3.391  48.061 -22.943  1.00  0.00    -0.293 OA
ENDROOT
BRANCH   1  26
HETATM   26  C7  UNL     1      -1.558  49.355 -16.872  1.00  0.00    -0.014 C 
HETATM   27  C8  UNL     1      -2.043  50.811 -16.874  1.00  0.00     0.010 C 
BRANCH  26  28
HETATM   28  C6  UNL     1      -0.202  49.272 -16.114  1.00  0.00     0.008 C 
BRANCH  28  29
HETATM   29  C5  UNL     1       0.083  50.470 -15.194  1.00  0.00     0.028 C 
BRANCH  29  30
HETATM   30  C4  UNL     1       1.497  50.972 -15.243  1.00  0.00    -0.017 C 
HETATM   31  C2  UNL     1       2.021  51.829 -16.140  1.00  0.00    -0.028 C 
HETATM   32  C1  UNL     1       1.303  52.505 -17.263  1.00  0.00     0.051 C 
BRANCH  31  33
HETATM   33  C3  UNL     1       3.469  52.181 -16.006  1.00  0.00     0.265 C 
HETATM   34  O1  UNL     1       3.922  53.302 -16.202  1.00  0.00    -0.302 OA
ENDBRANCH  31  33
ENDBRANCH  29  30
ENDBRANCH  28  29
ENDBRANCH  26  28
ENDBRANCH   1  26
TORSDOF 5
ENDMDL
MODEL 9
REMARK minimizedAffinity -8.61178303
REMARK  5 active torsions:
REMARK  status: ('A' for Active; 'I' for Inactive)
REMARK    1  A    between atoms: C2_2  and  C3_3 
REMARK    2  A    between atoms: C4_5  and  C5_6 
REMARK    3  A    between atoms: C5_6  and  C6_7 
REMARK    4  A    between atoms: C6_7  and  C7_8 
REMARK    5  A    between atoms: C7_8  and  C9_10 
ROOT
HETATM    1  C9  UNL     1      -0.412  51.738 -17.147  1.00  0.00    -0.001 C 
HETATM    2  C10 UNL     1       1.061  52.215 -17.297  1.00  0.00     0.007 C 
HETATM    3  C11 UNL     1       1.301  52.514 -18.787  1.00  0.00     0.015 C 
HETATM    4  C12 UNL     1      -0.104  52.550 -19.418  1.00  0.00    -0.004 C 
HETATM    5  C13 UNL     1      -0.685  53.974 -19.166  1.00  0.00     0.021 C 
HETATM    6  C14 UNL     1      -0.285  52.300 -20.907  1.00  0.00     0.007 C 
HETATM    7  C15 UNL     1      -1.433  51.805 -21.433  1.00  0.00     0.007 C 
HETATM    8  C16 UNL     1      -2.537  51.418 -20.458  1.00  0.00     0.157 C 
HETATM    9  O2  UNL     1      -3.653  51.104 -20.870  1.00  0.00    -0.293 OA
HETATM   10  C17 UNL     1      -2.287  51.420 -18.954  1.00  0.00     0.094 C 
HETATM   11  C18 UNL     1      -0.798  51.388 -18.618  1.00  0.00    -0.022 C 
HETATM   12  C19 UNL     1      -0.241  49.972 -18.979  1.00  0.00     0.017 C 
HETATM   13  C20 UNL     1      -1.691  51.587 -22.947  1.00  0.00    -0.007 C 
HETATM   14  C21 UNL     1      -1.646  50.056 -23.180  1.00  0.00     0.021 C 
HETATM   15  C22 UNL     1      -3.090  52.127 -23.392  1.00  0.00     0.022 C 
HETATM   16  C23 UNL     1      -3.199  52.612 -24.835  1.00  0.00     0.080 C 
HETATM   17  C24 UNL     1      -2.180  51.956 -25.732  1.00  0.00     0.135 C 
HETATM   18  O3  UNL     1      -2.523  51.362 -26.753  1.00  0.00    -0.297 OA
HETATM   19  C25 UNL     1      -0.709  52.149 -25.345  1.00  0.00     0.018 C 
HETATM   20  C26 UNL     1       0.129  50.969 -25.874  1.00  0.00     0.023 C 
HETATM   21  C27 UNL     1      -0.226  53.421 -26.074  1.00  0.00     0.023 C 
HETATM   22  C28 UNL     1      -0.616  52.359 -23.795  1.00  0.00     0.021 C 
HETATM   23  C29 UNL     1       0.788  52.135 -23.238  1.00  0.00     0.090 C 
HETATM   24  C30 UNL     1       0.843  52.649 -21.825  1.00  0.00     0.157 C 
HETATM   25  O4  UNL     1       1.801  53.312 -21.438  1.00  0.00    -0.293 OA
ENDROOT
BRANCH   1  26
HETATM   26  C7  UNL     1      -0.564  50.665 -16.026  1.00  0.00    -0.014 C 
HETATM   27  C8  UNL     1       0.319  49.437 -16.290  1.00  0.00     0.010 C 
BRANCH  26  28
HETATM   28  C6  UNL     1      -2.044  50.206 -15.892  1.00  0.00     0.008 C 
BRANCH  28  29
HETATM   29  C5  UNL     1      -2.530  50.048 -14.443  1.00  0.00     0.028 C 
BRANCH  29  30
HETATM   30  C4  UNL     1      -3.065  51.306 -13.823  1.00  0.00    -0.017 C 
HETATM   31  C2  UNL     1      -2.948  51.687 -12.536  1.00  0.00    -0.028 C 
HETATM   32  C1  UNL     1      -2.223  50.964 -11.447  1.00  0.00     0.051 C 
BRANCH  31  33
HETATM   33  C3  UNL     1      -3.578  52.982 -12.132  1.00  0.00     0.265 C 
HETATM   34  O1  UNL     1      -4.467  53.079 -11.296  1.00  0.00    -0.302 OA
ENDBRANCH  31  33
ENDBRANCH  29  30
ENDBRANCH  28  29
ENDBRANCH  26  28
ENDBRANCH   1  26
TORSDOF 5
ENDMDL
