MODEL 1
REMARK minimizedAffinity -8.88781643
REMARK CNNscore 0.615213692
REMARK CNNaffinity 7.68108606
REMARK  12 active torsions:
REMARK  status: ('A' for Active; 'I' for Inactive)
REMARK    1  A    between atoms: O1_2  and  C2_3 
REMARK    2  A    between atoms: C2_3  and  C5_6 
REMARK    3  A    between atoms: C6_7  and  C7_8 
REMARK    4  A    between atoms: C7_8  and  C8_9 
REMARK    5  A    between atoms: C8_9  and  C10_11 
REMARK    6  A    between atoms: C28_30  and  O3_31 
REMARK    7  A    between atoms: O3_31  and  C29_32 
REMARK    8  A    between atoms: C30_34  and  C31_35 
REMARK    9  A    between atoms: C31_35  and  O5_36 
REMARK   10  A    between atoms: C32_37  and  O6_38 
REMARK   11  A    between atoms: C33_39  and  O7_40 
REMARK   12  A    between atoms: C34_41  and  O8_42 
ROOT
HETATM    1  C10 UNL     1      -2.222   5.522  13.998  1.00  0.00    -0.002 C 
HETATM    2  C11 UNL     1      -0.943   5.536  13.099  1.00  0.00     0.006 C 
HETATM    3  C12 UNL     1      -0.309   6.937  13.202  1.00  0.00     0.011 C 
HETATM    4  C13 UNL     1      -0.998   7.587  14.417  1.00  0.00    -0.029 C 
HETATM    5  C14 UNL     1      -0.257   7.031  15.680  1.00  0.00     0.016 C 
HETATM    6  C15 UNL     1      -1.004   9.150  14.418  1.00  0.00     0.028 C 
HETATM    7  C16 UNL     1       0.391   9.753  14.493  1.00  0.00    -0.021 C 
HETATM    8  C17 UNL     1       0.697  10.727  15.372  1.00  0.00     0.008 C 
HETATM    9  C18 UNL     1      -0.356  11.284  16.326  1.00  0.00     0.092 C 
HETATM   10  O2  UNL     1      -1.232  12.034  15.451  1.00  0.00    -0.374 OA
HETATM   11  C19 UNL     1      -2.346  11.205  15.104  1.00  0.00     0.179 C 
HETATM   12  C20 UNL     1      -1.993   9.756  15.514  1.00  0.00    -0.004 C 
HETATM   13  C21 UNL     1      -3.315   8.959  15.682  1.00  0.00     0.014 C 
HETATM   14  C22 UNL     1      -3.256   7.437  15.506  1.00  0.00     0.011 C 
HETATM   15  C23 UNL     1      -2.469   7.046  14.243  1.00  0.00    -0.032 C 
HETATM   16  C24 UNL     1      -3.211   7.634  12.995  1.00  0.00     0.016 C 
HETATM   17  C25 UNL     1      -1.186  10.056  16.802  1.00  0.00     0.036 C 
HETATM   18  C26 UNL     1      -1.970  10.328  18.082  1.00  0.00     0.011 C 
HETATM   19  C27 UNL     1      -1.044  10.740  19.232  1.00  0.00     0.033 C 
HETATM   20  C28 UNL     1       0.287  11.360  18.780  1.00  0.00     0.136 C 
HETATM   21  C35 UNL     1       0.131  12.222  17.497  1.00  0.00     0.014 C 
HETATM   22  C36 UNL     1      -0.861  13.395  17.750  1.00  0.00     0.021 C 
HETATM   23  C37 UNL     1       1.484  12.906  17.190  1.00  0.00     0.021 C 
ENDROOT
BRANCH  20  24
HETATM   24  O3  UNL     1       0.798  12.171  19.839  1.00  0.00    -0.352 OA
BRANCH  24  25
HETATM   25  C29 UNL     1       2.047  11.742  20.383  1.00  0.00     0.292 C 
HETATM   26  O4  UNL     1       1.815  10.560  21.146  1.00  0.00    -0.348 OA
HETATM   27  C30 UNL     1       3.015  10.005  21.714  1.00  0.00     0.179 C 
HETATM   28  C32 UNL     1       3.911  11.076  22.373  1.00  0.00     0.180 C 
HETATM   29  C33 UNL     1       3.107  12.355  22.618  1.00  0.00     0.183 C 
HETATM   30  C34 UNL     1       2.560  12.895  21.283  1.00  0.00     0.204 C 
BRANCH  27  31
HETATM   31  C31 UNL     1       2.561   8.960  22.738  1.00  0.00     0.198 C 
BRANCH  31  32
HETATM   32  O5  UNL     1       1.859   7.898  22.111  1.00  0.00    -0.398 OA
HETATM   33  H48 UNL     1       1.583   7.281  22.812  1.00  0.00     0.209 HD
ENDBRANCH  31  32
ENDBRANCH  27  31
BRANCH  28  34
HETATM   34  O6  UNL     1       5.000  11.419  21.482  1.00  0.00    -0.390 OA
HETATM   35  H50 UNL     1       5.628  11.902  22.057  1.00  0.00     0.210 HD
ENDBRANCH  28  34
BRANCH  29  36
HETATM   36  O7  UNL     1       3.969  13.332  23.239  1.00  0.00    -0.390 OA
HETATM   37  H52 UNL     1       3.906  14.142  22.693  1.00  0.00     0.210 HD
ENDBRANCH  29  36
BRANCH  30  38
HETATM   38  O8  UNL     1       3.607  13.635  20.605  1.00  0.00    -0.388 OA
HETATM   39  H54 UNL     1       4.367  13.018  20.546  1.00  0.00     0.210 HD
ENDBRANCH  30  38
ENDBRANCH  24  25
ENDBRANCH  20  24
BRANCH   1  40
HETATM   40  C8  UNL     1      -3.357   4.657  13.369  1.00  0.00    -0.010 C 
HETATM   41  C9  UNL     1      -2.871   3.830  12.169  1.00  0.00     0.010 C 
BRANCH  40  42
HETATM   42  C7  UNL     1      -4.555   5.536  12.914  1.00  0.00     0.031 C 
BRANCH  42  43
HETATM   43  C6  UNL     1      -5.799   5.555  13.778  1.00  0.00    -0.027 C 
HETATM   44  C5  UNL     1      -6.695   6.551  13.880  1.00  0.00     0.006 C 
BRANCH  44  45
HETATM   45  C2  UNL     1      -7.969   6.585  14.705  1.00  0.00     0.070 C 
HETATM   46  C3  UNL     1      -8.424   7.977  15.178  1.00  0.00     0.050 C 
HETATM   47  C4  UNL     1      -7.734   5.699  15.944  1.00  0.00     0.050 C 
BRANCH  45  48
HETATM   48  O1  UNL     1      -9.006   5.918  13.965  1.00  0.00    -0.382 OA
HETATM   49  C1  UNL     1      -8.868   5.934  12.549  1.00  0.00     0.202 C 
ENDBRANCH  45  48
ENDBRANCH  44  45
ENDBRANCH  42  43
ENDBRANCH  40  42
ENDBRANCH   1  40
TORSDOF 12
ENDMDL
MODEL 2
REMARK minimizedAffinity -9.12888336
REMARK CNNscore 0.527500331
REMARK CNNaffinity 6.91098213
REMARK  12 active torsions:
REMARK  status: ('A' for Active; 'I' for Inactive)
REMARK    1  A    between atoms: O1_2  and  C2_3 
REMARK    2  A    between atoms: C2_3  and  C5_6 
REMARK    3  A    between atoms: C6_7  and  C7_8 
REMARK    4  A    between atoms: C7_8  and  C8_9 
REMARK    5  A    between atoms: C8_9  and  C10_11 
REMARK    6  A    between atoms: C28_30  and  O3_31 
REMARK    7  A    between atoms: O3_31  and  C29_32 
REMARK    8  A    between atoms: C30_34  and  C31_35 
REMARK    9  A    between atoms: C31_35  and  O5_36 
REMARK   10  A    between atoms: C32_37  and  O6_38 
REMARK   11  A    between atoms: C33_39  and  O7_40 
REMARK   12  A    between atoms: C34_41  and  O8_42 
ROOT
HETATM    1  C10 UNL     1      -1.967  12.714  17.499  1.00  0.00    -0.002 C 
HETATM    2  C11 UNL     1      -0.901  12.169  18.504  1.00  0.00     0.006 C 
HETATM    3  C12 UNL     1      -0.674  10.678  18.188  1.00  0.00     0.011 C 
HETATM    4  C13 UNL     1      -1.318  10.471  16.803  1.00  0.00    -0.029 C 
HETATM    5  C14 UNL     1      -0.262  10.972  15.760  1.00  0.00     0.016 C 
HETATM    6  C15 UNL     1      -1.758   9.005  16.490  1.00  0.00     0.028 C 
HETATM    7  C16 UNL     1      -0.593   8.028  16.439  1.00  0.00    -0.021 C 
HETATM    8  C17 UNL     1      -0.437   7.162  15.418  1.00  0.00     0.008 C 
HETATM    9  C18 UNL     1      -1.440   7.111  14.270  1.00  0.00     0.092 C 
HETATM   10  O2  UNL     1      -2.616   6.531  14.882  1.00  0.00    -0.374 OA
HETATM   11  C19 UNL     1      -3.495   7.592  15.272  1.00  0.00     0.179 C 
HETATM   12  C20 UNL     1      -2.692   8.912  15.198  1.00  0.00    -0.004 C 
HETATM   13  C21 UNL     1      -3.697  10.088  15.059  1.00  0.00     0.014 C 
HETATM   14  C22 UNL     1      -3.244  11.472  15.541  1.00  0.00     0.011 C 
HETATM   15  C23 UNL     1      -2.588  11.397  16.931  1.00  0.00    -0.032 C 
HETATM   16  C24 UNL     1      -3.651  10.869  17.953  1.00  0.00     0.016 C 
HETATM   17  C25 UNL     1      -1.809   8.593  13.966  1.00  0.00     0.036 C 
HETATM   18  C26 UNL     1      -2.427   8.781  12.584  1.00  0.00     0.011 C 
HETATM   19  C27 UNL     1      -1.484   8.298  11.477  1.00  0.00     0.033 C 
HETATM   20  C28 UNL     1      -0.466   7.240  11.930  1.00  0.00     0.136 C 
HETATM   21  C35 UNL     1      -1.056   6.271  12.991  1.00  0.00     0.014 C 
HETATM   22  C36 UNL     1      -2.282   5.511  12.408  1.00  0.00     0.021 C 
HETATM   23  C37 UNL     1      -0.012   5.170  13.293  1.00  0.00     0.021 C 
ENDROOT
BRANCH  20  24
HETATM   24  O3  UNL     1      -0.042   6.494  10.788  1.00  0.00    -0.352 OA
BRANCH  24  25
HETATM   25  C29 UNL     1       1.283   6.777  10.336  1.00  0.00     0.292 C 
HETATM   26  O4  UNL     1       1.829   5.581   9.786  1.00  0.00    -0.348 OA
HETATM   27  C30 UNL     1       3.155   5.753   9.254  1.00  0.00     0.179 C 
HETATM   28  C32 UNL     1       4.077   6.549  10.202  1.00  0.00     0.180 C 
HETATM   29  C33 UNL     1       3.480   6.581  11.611  1.00  0.00     0.183 C 
HETATM   30  C34 UNL     1       2.088   7.240  11.577  1.00  0.00     0.204 C 
BRANCH  27  31
HETATM   31  C31 UNL     1       3.703   4.343   9.007  1.00  0.00     0.198 C 
BRANCH  31  32
HETATM   32  O5  UNL     1       3.101   3.398   9.878  1.00  0.00    -0.398 OA
HETATM   33  H48 UNL     1       3.502   2.532   9.685  1.00  0.00     0.209 HD
ENDBRANCH  31  32
ENDBRANCH  27  31
BRANCH  28  34
HETATM   34  O6  UNL     1       4.178   7.920   9.749  1.00  0.00    -0.390 OA
HETATM   35  H50 UNL     1       4.944   8.273  10.245  1.00  0.00     0.210 HD
ENDBRANCH  28  34
BRANCH  29  36
HETATM   36  O7  UNL     1       4.367   7.326  12.473  1.00  0.00    -0.390 OA
HETATM   37  H52 UNL     1       3.820   8.015  12.902  1.00  0.00     0.210 HD
ENDBRANCH  29  36
BRANCH  30  38
HETATM   38  O8  UNL     1       2.245   8.681  11.567  1.00  0.00    -0.388 OA
HETATM   39  H54 UNL     1       2.837   8.875  10.809  1.00  0.00     0.210 HD
ENDBRANCH  30  38
ENDBRANCH  24  25
ENDBRANCH  20  24
BRANCH   1  40
HETATM   40  C8  UNL     1      -2.901  13.769  18.169  1.00  0.00    -0.010 C 
HETATM   41  C9  UNL     1      -2.332  14.303  19.492  1.00  0.00     0.010 C 
BRANCH  40  42
HETATM   42  C7  UNL     1      -4.317  13.188  18.435  1.00  0.00     0.031 C 
BRANCH  42  43
HETATM   43  C6  UNL     1      -4.962  13.457  19.779  1.00  0.00    -0.027 C 
HETATM   44  C5  UNL     1      -6.277  13.557  20.037  1.00  0.00     0.006 C 
BRANCH  44  45
HETATM   45  C2  UNL     1      -6.954  13.788  21.376  1.00  0.00     0.070 C 
HETATM   46  C3  UNL     1      -6.236  13.194  22.601  1.00  0.00     0.050 C 
HETATM   47  C4  UNL     1      -8.363  13.169  21.286  1.00  0.00     0.050 C 
BRANCH  45  48
HETATM   48  O1  UNL     1      -7.180  15.200  21.533  1.00  0.00    -0.382 OA
HETATM   49  C1  UNL     1      -8.104  15.786  20.624  1.00  0.00     0.202 C 
ENDBRANCH  45  48
ENDBRANCH  44  45
ENDBRANCH  42  43
ENDBRANCH  40  42
ENDBRANCH   1  40
TORSDOF 12
ENDMDL
MODEL 3
REMARK minimizedAffinity -8.96364307
REMARK CNNscore 0.449075848
REMARK CNNaffinity 7.01860428
REMARK  12 active torsions:
REMARK  status: ('A' for Active; 'I' for Inactive)
REMARK    1  A    between atoms: O1_2  and  C2_3 
REMARK    2  A    between atoms: C2_3  and  C5_6 
REMARK    3  A    between atoms: C6_7  and  C7_8 
REMARK    4  A    between atoms: C7_8  and  C8_9 
REMARK    5  A    between atoms: C8_9  and  C10_11 
REMARK    6  A    between atoms: C28_30  and  O3_31 
REMARK    7  A    between atoms: O3_31  and  C29_32 
REMARK    8  A    between atoms: C30_34  and  C31_35 
REMARK    9  A    between atoms: C31_35  and  O5_36 
REMARK   10  A    between atoms: C32_37  and  O6_38 
REMARK   11  A    between atoms: C33_39  and  O7_40 
REMARK   12  A    between atoms: C34_41  and  O8_42 
ROOT
HETATM    1  C10 UNL     1      -1.892   6.314  12.866  1.00  0.00    -0.002 C 
HETATM    2  C11 UNL     1      -1.846   4.892  12.218  1.00  0.00     0.006 C 
HETATM    3  C12 UNL     1      -0.528   4.776  11.428  1.00  0.00     0.011 C 
HETATM    4  C13 UNL     1       0.325   5.962  11.917  1.00  0.00    -0.029 C 
HETATM    5  C14 UNL     1       0.962   5.504  13.273  1.00  0.00     0.016 C 
HETATM    6  C15 UNL     1       1.426   6.443  10.919  1.00  0.00     0.028 C 
HETATM    7  C16 UNL     1       2.489   5.388  10.648  1.00  0.00    -0.021 C 
HETATM    8  C17 UNL     1       3.805   5.673  10.713  1.00  0.00     0.008 C 
HETATM    9  C18 UNL     1       4.288   7.081  11.046  1.00  0.00     0.092 C 
HETATM   10  O2  UNL     1       3.951   7.838   9.859  1.00  0.00    -0.374 OA
HETATM   11  C19 UNL     1       2.694   8.488  10.078  1.00  0.00     0.179 C 
HETATM   12  C20 UNL     1       2.053   7.852  11.333  1.00  0.00    -0.004 C 
HETATM   13  C21 UNL     1       1.022   8.855  11.917  1.00  0.00     0.014 C 
HETATM   14  C22 UNL     1      -0.128   8.285  12.758  1.00  0.00     0.011 C 
HETATM   15  C23 UNL     1      -0.783   7.075  12.069  1.00  0.00    -0.032 C 
HETATM   16  C24 UNL     1      -1.389   7.549  10.705  1.00  0.00     0.016 C 
HETATM   17  C25 UNL     1       3.337   7.601  12.163  1.00  0.00     0.036 C 
HETATM   18  C26 UNL     1       3.918   8.778  12.940  1.00  0.00     0.011 C 
HETATM   19  C27 UNL     1       5.254   8.413  13.598  1.00  0.00     0.033 C 
HETATM   20  C28 UNL     1       6.003   7.261  12.908  1.00  0.00     0.136 C 
HETATM   21  C35 UNL     1       5.821   7.279  11.366  1.00  0.00     0.014 C 
HETATM   22  C36 UNL     1       6.369   8.608  10.770  1.00  0.00     0.021 C 
HETATM   23  C37 UNL     1       6.706   6.171  10.748  1.00  0.00     0.021 C 
ENDROOT
BRANCH  20  24
HETATM   24  O3  UNL     1       7.392   7.365  13.224  1.00  0.00    -0.352 OA
BRANCH  24  25
HETATM   25  C29 UNL     1       7.750   8.490  14.028  1.00  0.00     0.292 C 
HETATM   26  O4  UNL     1       8.795   9.196  13.363  1.00  0.00    -0.348 OA
HETATM   27  C30 UNL     1       9.213  10.383  14.061  1.00  0.00     0.179 C 
HETATM   28  C32 UNL     1       9.407  10.146  15.574  1.00  0.00     0.180 C 
HETATM   29  C33 UNL     1       9.513   8.646  15.861  1.00  0.00     0.183 C 
HETATM   30  C34 UNL     1       8.233   7.930  15.389  1.00  0.00     0.204 C 
BRANCH  27  31
HETATM   31  C31 UNL     1      10.522  10.830  13.399  1.00  0.00     0.198 C 
BRANCH  31  32
HETATM   32  O5  UNL     1      11.270   9.715  12.940  1.00  0.00    -0.398 OA
HETATM   33  H48 UNL     1      12.092  10.062  12.549  1.00  0.00     0.209 HD
ENDBRANCH  31  32
ENDBRANCH  27  31
BRANCH  28  34
HETATM   34  O6  UNL     1       8.256  10.640  16.299  1.00  0.00    -0.390 OA
HETATM   35  H50 UNL     1       8.561  10.670  17.228  1.00  0.00     0.210 HD
ENDBRANCH  28  34
BRANCH  29  36
HETATM   36  O7  UNL     1       9.700   8.458  17.280  1.00  0.00    -0.390 OA
HETATM   37  H52 UNL     1       9.008   7.830  17.568  1.00  0.00     0.210 HD
ENDBRANCH  29  36
BRANCH  30  38
HETATM   38  O8  UNL     1       7.201   8.090  16.395  1.00  0.00    -0.388 OA
HETATM   39  H54 UNL     1       7.129   9.057  16.544  1.00  0.00     0.210 HD
ENDBRANCH  30  38
ENDBRANCH  24  25
ENDBRANCH  20  24
BRANCH   1  40
HETATM   40  C8  UNL     1      -3.342   6.887  12.889  1.00  0.00    -0.010 C 
HETATM   41  C9  UNL     1      -3.522   7.993  13.941  1.00  0.00     0.010 C 
BRANCH  40  42
HETATM   42  C7  UNL     1      -4.391   5.773  13.156  1.00  0.00     0.031 C 
BRANCH  42  43
HETATM   43  C6  UNL     1      -5.546   6.082  14.087  1.00  0.00    -0.027 C 
HETATM   44  C5  UNL     1      -6.797   6.423  13.734  1.00  0.00     0.006 C 
BRANCH  44  45
HETATM   45  C2  UNL     1      -7.983   6.701  14.640  1.00  0.00     0.070 C 
HETATM   46  C3  UNL     1      -8.076   5.832  15.907  1.00  0.00     0.050 C 
HETATM   47  C4  UNL     1      -9.257   6.484  13.802  1.00  0.00     0.050 C 
BRANCH  45  48
HETATM   48  O1  UNL     1      -7.987   8.103  14.964  1.00  0.00    -0.382 OA
HETATM   49  C1  UNL     1      -9.267   8.687  15.178  1.00  0.00     0.202 C 
ENDBRANCH  45  48
ENDBRANCH  44  45
ENDBRANCH  42  43
ENDBRANCH  40  42
ENDBRANCH   1  40
TORSDOF 12
ENDMDL
MODEL 4
REMARK minimizedAffinity -8.53102875
REMARK CNNscore 0.419849098
REMARK CNNaffinity 6.88918877
REMARK  12 active torsions:
REMARK  status: ('A' for Active; 'I' for Inactive)
REMARK    1  A    between atoms: O1_2  and  C2_3 
REMARK    2  A    between atoms: C2_3  and  C5_6 
REMARK    3  A    between atoms: C6_7  and  C7_8 
REMARK    4  A    between atoms: C7_8  and  C8_9 
REMARK    5  A    between atoms: C8_9  and  C10_11 
REMARK    6  A    between atoms: C28_30  and  O3_31 
REMARK    7  A    between atoms: O3_31  and  C29_32 
REMARK    8  A    between atoms: C30_34  and  C31_35 
REMARK    9  A    between atoms: C31_35  and  O5_36 
REMARK   10  A    between atoms: C32_37  and  O6_38 
REMARK   11  A    between atoms: C33_39  and  O7_40 
REMARK   12  A    between atoms: C34_41  and  O8_42 
ROOT
HETATM    1  C10 UNL     1      -2.088   6.547  13.569  1.00  0.00    -0.002 C 
HETATM    2  C11 UNL     1      -2.158   5.123  12.929  1.00  0.00     0.006 C 
HETATM    3  C12 UNL     1      -0.926   4.953  12.020  1.00  0.00     0.011 C 
HETATM    4  C13 UNL     1       0.014   6.107  12.417  1.00  0.00    -0.029 C 
HETATM    5  C14 UNL     1       0.758   5.629  13.710  1.00  0.00     0.016 C 
HETATM    6  C15 UNL     1       1.034   6.541  11.316  1.00  0.00     0.028 C 
HETATM    7  C16 UNL     1       2.025   5.445  10.954  1.00  0.00    -0.021 C 
HETATM    8  C17 UNL     1       3.351   5.679  10.892  1.00  0.00     0.008 C 
HETATM    9  C18 UNL     1       3.917   7.068  11.169  1.00  0.00     0.092 C 
HETATM   10  O2  UNL     1       3.498   7.833  10.013  1.00  0.00    -0.374 OA
HETATM   11  C19 UNL     1       2.294   8.532  10.345  1.00  0.00     0.179 C 
HETATM   12  C20 UNL     1       1.750   7.926  11.660  1.00  0.00    -0.004 C 
HETATM   13  C21 UNL     1       0.818   8.970  12.331  1.00  0.00     0.014 C 
HETATM   14  C22 UNL     1      -0.268   8.448  13.280  1.00  0.00     0.011 C 
HETATM   15  C23 UNL     1      -1.031   7.262  12.666  1.00  0.00    -0.032 C 
HETATM   16  C24 UNL     1      -1.745   7.754  11.361  1.00  0.00     0.016 C 
HETATM   17  C25 UNL     1       3.097   7.629  12.367  1.00  0.00     0.036 C 
HETATM   18  C26 UNL     1       3.793   8.785  13.077  1.00  0.00     0.011 C 
HETATM   19  C27 UNL     1       5.170   8.370  13.608  1.00  0.00     0.033 C 
HETATM   20  C28 UNL     1       5.807   7.188  12.859  1.00  0.00     0.136 C 
HETATM   21  C35 UNL     1       5.480   7.208  11.341  1.00  0.00     0.014 C 
HETATM   22  C36 UNL     1       6.020   8.512  10.687  1.00  0.00     0.021 C 
HETATM   23  C37 UNL     1       6.260   6.064  10.650  1.00  0.00     0.021 C 
ENDROOT
BRANCH  20  24
HETATM   24  O3  UNL     1       7.222   7.239  13.042  1.00  0.00    -0.352 OA
BRANCH  24  25
HETATM   25  C29 UNL     1       7.694   8.332  13.830  1.00  0.00     0.292 C 
HETATM   26  O4  UNL     1       8.833   8.889  13.180  1.00  0.00    -0.348 OA
HETATM   27  C30 UNL     1       9.375  10.034  13.863  1.00  0.00     0.179 C 
HETATM   28  C32 UNL     1       9.501   9.813  15.385  1.00  0.00     0.180 C 
HETATM   29  C33 UNL     1       9.416   8.319  15.708  1.00  0.00     0.183 C 
HETATM   30  C34 UNL     1       8.071   7.751  15.217  1.00  0.00     0.204 C 
BRANCH  27  31
HETATM   31  C31 UNL     1      10.745  10.302  13.229  1.00  0.00     0.198 C 
BRANCH  31  32
HETATM   32  O5  UNL     1      10.616  10.657  11.861  1.00  0.00    -0.398 OA
HETATM   33  H48 UNL     1      11.515  10.796  11.514  1.00  0.00     0.209 HD
ENDBRANCH  31  32
ENDBRANCH  27  31
BRANCH  28  34
HETATM   34  O6  UNL     1       8.400  10.461  16.067  1.00  0.00    -0.390 OA
HETATM   35  H50 UNL     1       8.684  10.477  17.004  1.00  0.00     0.210 HD
ENDBRANCH  28  34
BRANCH  29  36
HETATM   36  O7  UNL     1       9.543   8.146  17.135  1.00  0.00    -0.390 OA
HETATM   37  H52 UNL     1       8.773   7.613  17.418  1.00  0.00     0.210 HD
ENDBRANCH  29  36
BRANCH  30  38
HETATM   38  O8  UNL     1       7.041   8.061  16.190  1.00  0.00    -0.388 OA
HETATM   39  H54 UNL     1       7.084   9.033  16.316  1.00  0.00     0.210 HD
ENDBRANCH  30  38
ENDBRANCH  24  25
ENDBRANCH  20  24
BRANCH   1  40
HETATM   40  C8  UNL     1      -3.506   7.177  13.724  1.00  0.00    -0.010 C 
HETATM   41  C9  UNL     1      -3.670   8.469  12.909  1.00  0.00     0.010 C 
BRANCH  40  42
HETATM   42  C7  UNL     1      -3.833   7.484  15.212  1.00  0.00     0.031 C 
BRANCH  42  43
HETATM   43  C6  UNL     1      -3.043   8.572  15.910  1.00  0.00    -0.027 C 
HETATM   44  C5  UNL     1      -3.540   9.621  16.587  1.00  0.00     0.006 C 
BRANCH  44  45
HETATM   45  C2  UNL     1      -2.777  10.704  17.328  1.00  0.00     0.070 C 
HETATM   46  C3  UNL     1      -1.288  10.417  17.588  1.00  0.00     0.050 C 
HETATM   47  C4  UNL     1      -3.480  10.910  18.684  1.00  0.00     0.050 C 
BRANCH  45  48
HETATM   48  O1  UNL     1      -2.958  11.947  16.626  1.00  0.00    -0.382 OA
HETATM   49  C1  UNL     1      -4.289  12.244  16.221  1.00  0.00     0.202 C 
ENDBRANCH  45  48
ENDBRANCH  44  45
ENDBRANCH  42  43
ENDBRANCH  40  42
ENDBRANCH   1  40
TORSDOF 12
ENDMDL
MODEL 5
REMARK minimizedAffinity -8.1405735
REMARK CNNscore 0.404666275
REMARK CNNaffinity 6.92519903
REMARK  12 active torsions:
REMARK  status: ('A' for Active; 'I' for Inactive)
REMARK    1  A    between atoms: O1_2  and  C2_3 
REMARK    2  A    between atoms: C2_3  and  C5_6 
REMARK    3  A    between atoms: C6_7  and  C7_8 
REMARK    4  A    between atoms: C7_8  and  C8_9 
REMARK    5  A    between atoms: C8_9  and  C10_11 
REMARK    6  A    between atoms: C28_30  and  O3_31 
REMARK    7  A    between atoms: O3_31  and  C29_32 
REMARK    8  A    between atoms: C30_34  and  C31_35 
REMARK    9  A    between atoms: C31_35  and  O5_36 
REMARK   10  A    between atoms: C32_37  and  O6_38 
REMARK   11  A    between atoms: C33_39  and  O7_40 
REMARK   12  A    between atoms: C34_41  and  O8_42 
ROOT
HETATM    1  C10 UNL     1      -1.902  12.831  17.414  1.00  0.00    -0.002 C 
HETATM    2  C11 UNL     1      -0.816  12.313  18.411  1.00  0.00     0.006 C 
HETATM    3  C12 UNL     1      -0.583  10.818  18.121  1.00  0.00     0.011 C 
HETATM    4  C13 UNL     1      -1.248  10.579  16.752  1.00  0.00    -0.029 C 
HETATM    5  C14 UNL     1      -0.214  11.067  15.681  1.00  0.00     0.016 C 
HETATM    6  C15 UNL     1      -1.683   9.104  16.475  1.00  0.00     0.028 C 
HETATM    7  C16 UNL     1      -0.511   8.135  16.423  1.00  0.00    -0.021 C 
HETATM    8  C17 UNL     1      -0.366   7.250  15.417  1.00  0.00     0.008 C 
HETATM    9  C18 UNL     1      -1.388   7.170  14.287  1.00  0.00     0.092 C 
HETATM   10  O2  UNL     1      -2.549   6.593  14.931  1.00  0.00    -0.374 OA
HETATM   11  C19 UNL     1      -3.429   7.655  15.314  1.00  0.00     0.179 C 
HETATM   12  C20 UNL     1      -2.638   8.979  15.201  1.00  0.00    -0.004 C 
HETATM   13  C21 UNL     1      -3.653  10.145  15.056  1.00  0.00     0.014 C 
HETATM   14  C22 UNL     1      -3.202  11.541  15.503  1.00  0.00     0.011 C 
HETATM   15  C23 UNL     1      -2.523  11.498  16.882  1.00  0.00    -0.032 C 
HETATM   16  C24 UNL     1      -3.565  10.983  17.933  1.00  0.00     0.016 C 
HETATM   17  C25 UNL     1      -1.773   8.642  13.961  1.00  0.00     0.036 C 
HETATM   18  C26 UNL     1      -2.416   8.798  12.586  1.00  0.00     0.011 C 
HETATM   19  C27 UNL     1      -1.487   8.301  11.472  1.00  0.00     0.033 C 
HETATM   20  C28 UNL     1      -0.454   7.258  11.929  1.00  0.00     0.136 C 
HETATM   21  C35 UNL     1      -1.019   6.307  13.019  1.00  0.00     0.014 C 
HETATM   22  C36 UNL     1      -2.249   5.526  12.472  1.00  0.00     0.021 C 
HETATM   23  C37 UNL     1       0.038   5.219  13.324  1.00  0.00     0.021 C 
ENDROOT
BRANCH  20  24
HETATM   24  O3  UNL     1      -0.044   6.493  10.795  1.00  0.00    -0.352 OA
BRANCH  24  25
HETATM   25  C29 UNL     1       1.291   6.736  10.350  1.00  0.00     0.292 C 
HETATM   26  O4  UNL     1       1.836   5.502   9.890  1.00  0.00    -0.348 OA
HETATM   27  C30 UNL     1       3.173   5.628   9.372  1.00  0.00     0.179 C 
HETATM   28  C32 UNL     1       4.086   6.478  10.283  1.00  0.00     0.180 C 
HETATM   29  C33 UNL     1       3.464   6.607  11.676  1.00  0.00     0.183 C 
HETATM   30  C34 UNL     1       2.078   7.273  11.573  1.00  0.00     0.204 C 
BRANCH  27  31
HETATM   31  C31 UNL     1       3.713   4.201   9.228  1.00  0.00     0.198 C 
BRANCH  31  32
HETATM   32  O5  UNL     1       3.547   3.721   7.903  1.00  0.00    -0.398 OA
HETATM   33  H48 UNL     1       3.891   2.811   7.882  1.00  0.00     0.209 HD
ENDBRANCH  31  32
ENDBRANCH  27  31
BRANCH  28  34
HETATM   34  O6  UNL     1       4.207   7.816   9.743  1.00  0.00    -0.390 OA
HETATM   35  H50 UNL     1       4.967   8.195  10.230  1.00  0.00     0.210 HD
ENDBRANCH  28  34
BRANCH  29  36
HETATM   36  O7  UNL     1       4.341   7.400  12.503  1.00  0.00    -0.390 OA
HETATM   37  H52 UNL     1       3.793   8.120  12.876  1.00  0.00     0.210 HD
ENDBRANCH  29  36
BRANCH  30  38
HETATM   38  O8  UNL     1       2.248   8.709  11.471  1.00  0.00    -0.388 OA
HETATM   39  H54 UNL     1       2.855   8.848  10.714  1.00  0.00     0.210 HD
ENDBRANCH  30  38
ENDBRANCH  24  25
ENDBRANCH  20  24
BRANCH   1  40
HETATM   40  C8  UNL     1      -2.832  13.892  18.079  1.00  0.00    -0.010 C 
HETATM   41  C9  UNL     1      -2.415  14.220  19.521  1.00  0.00     0.010 C 
BRANCH  40  42
HETATM   42  C7  UNL     1      -4.315  13.426  18.085  1.00  0.00     0.031 C 
BRANCH  42  43
HETATM   43  C6  UNL     1      -5.295  14.141  17.177  1.00  0.00    -0.027 C 
HETATM   44  C5  UNL     1      -6.610  13.893  17.057  1.00  0.00     0.006 C 
BRANCH  44  45
HETATM   45  C2  UNL     1      -7.624  14.615  16.188  1.00  0.00     0.070 C 
HETATM   46  C3  UNL     1      -8.619  13.717  15.432  1.00  0.00     0.050 C 
HETATM   47  C4  UNL     1      -6.833  15.445  15.158  1.00  0.00     0.050 C 
BRANCH  45  48
HETATM   48  O1  UNL     1      -8.306  15.587  17.000  1.00  0.00    -0.382 OA
HETATM   49  C1  UNL     1      -8.118  15.464  18.405  1.00  0.00     0.202 C 
ENDBRANCH  45  48
ENDBRANCH  44  45
ENDBRANCH  42  43
ENDBRANCH  40  42
ENDBRANCH   1  40
TORSDOF 12
ENDMDL
MODEL 6
REMARK minimizedAffinity -9.88375092
REMARK CNNscore 0.335616529
REMARK CNNaffinity 7.22276115
REMARK  12 active torsions:
REMARK  status: ('A' for Active; 'I' for Inactive)
REMARK    1  A    between atoms: O1_2  and  C2_3 
REMARK    2  A    between atoms: C2_3  and  C5_6 
REMARK    3  A    between atoms: C6_7  and  C7_8 
REMARK    4  A    between atoms: C7_8  and  C8_9 
REMARK    5  A    between atoms: C8_9  and  C10_11 
REMARK    6  A    between atoms: C28_30  and  O3_31 
REMARK    7  A    between atoms: O3_31  and  C29_32 
REMARK    8  A    between atoms: C30_34  and  C31_35 
REMARK    9  A    between atoms: C31_35  and  O5_36 
REMARK   10  A    between atoms: C32_37  and  O6_38 
REMARK   11  A    between atoms: C33_39  and  O7_40 
REMARK   12  A    between atoms: C34_41  and  O8_42 
ROOT
HETATM    1  C10 UNL     1      -6.660   6.760  13.816  1.00  0.00    -0.002 C 
HETATM    2  C11 UNL     1      -6.933   8.138  14.500  1.00  0.00     0.006 C 
HETATM    3  C12 UNL     1      -5.580   8.712  14.962  1.00  0.00     0.011 C 
HETATM    4  C13 UNL     1      -4.526   7.859  14.231  1.00  0.00    -0.029 C 
HETATM    5  C14 UNL     1      -4.417   8.455  12.787  1.00  0.00     0.016 C 
HETATM    6  C15 UNL     1      -3.124   7.807  14.919  1.00  0.00     0.028 C 
HETATM    7  C16 UNL     1      -2.437   9.163  14.981  1.00  0.00    -0.021 C 
HETATM    8  C17 UNL     1      -1.156   9.329  14.595  1.00  0.00     0.008 C 
HETATM    9  C18 UNL     1      -0.329   8.150  14.092  1.00  0.00     0.092 C 
HETATM   10  O2  UNL     1      -0.105   7.366  15.289  1.00  0.00    -0.374 OA
HETATM   11  C19 UNL     1      -1.090   6.329  15.342  1.00  0.00     0.179 C 
HETATM   12  C20 UNL     1      -2.185   6.672  14.304  1.00  0.00    -0.004 C 
HETATM   13  C21 UNL     1      -2.934   5.364  13.933  1.00  0.00     0.014 C 
HETATM   14  C22 UNL     1      -4.372   5.490  13.414  1.00  0.00     0.011 C 
HETATM   15  C23 UNL     1      -5.206   6.438  14.293  1.00  0.00    -0.032 C 
HETATM   16  C24 UNL     1      -5.280   5.838  15.738  1.00  0.00     0.016 C 
HETATM   17  C25 UNL     1      -1.291   7.305  13.207  1.00  0.00     0.036 C 
HETATM   18  C26 UNL     1      -0.556   6.360  12.262  1.00  0.00     0.011 C 
HETATM   19  C27 UNL     1       0.388   7.125  11.326  1.00  0.00     0.033 C 
HETATM   20  C28 UNL     1       0.856   8.483  11.872  1.00  0.00     0.136 C 
HETATM   21  C35 UNL     1       1.061   8.460  13.411  1.00  0.00     0.014 C 
HETATM   22  C36 UNL     1       2.142   7.410  13.799  1.00  0.00     0.021 C 
HETATM   23  C37 UNL     1       1.651   9.820  13.855  1.00  0.00     0.021 C 
ENDROOT
BRANCH  20  24
HETATM   24  O3  UNL     1       2.085   8.834  11.234  1.00  0.00    -0.352 OA
BRANCH  24  25
HETATM   25  C29 UNL     1       3.263   8.344  11.874  1.00  0.00     0.292 C 
HETATM   26  O4  UNL     1       4.158   9.439  12.053  1.00  0.00    -0.348 OA
HETATM   27  C30 UNL     1       5.374   9.074  12.732  1.00  0.00     0.179 C 
HETATM   28  C32 UNL     1       5.994   7.771  12.183  1.00  0.00     0.180 C 
HETATM   29  C33 UNL     1       5.397   7.443  10.812  1.00  0.00     0.183 C 
HETATM   30  C34 UNL     1       3.870   7.275  10.929  1.00  0.00     0.204 C 
BRANCH  27  31
HETATM   31  C31 UNL     1       6.333  10.257  12.558  1.00  0.00     0.198 C 
BRANCH  31  32
HETATM   32  O5  UNL     1       5.975  11.046  11.434  1.00  0.00    -0.398 OA
HETATM   33  H48 UNL     1       6.628  11.765  11.368  1.00  0.00     0.209 HD
ENDBRANCH  31  32
ENDBRANCH  27  31
BRANCH  28  34
HETATM   34  O6  UNL     1       5.673   6.667  13.063  1.00  0.00    -0.390 OA
HETATM   35  H50 UNL     1       6.287   5.959  12.781  1.00  0.00     0.210 HD
ENDBRANCH  28  34
BRANCH  29  36
HETATM   36  O7  UNL     1       6.000   6.226  10.324  1.00  0.00    -0.390 OA
HETATM   37  H52 UNL     1       5.263   5.626  10.093  1.00  0.00     0.210 HD
ENDBRANCH  29  36
BRANCH  30  38
HETATM   38  O8  UNL     1       3.576   5.943  11.421  1.00  0.00    -0.388 OA
HETATM   39  H54 UNL     1       4.090   5.851  12.251  1.00  0.00     0.210 HD
ENDBRANCH  30  38
ENDBRANCH  24  25
ENDBRANCH  20  24
BRANCH   1  40
HETATM   40  C8  UNL     1      -7.801   5.737  14.108  1.00  0.00    -0.010 C 
HETATM   41  C9  UNL     1      -7.317   4.280  14.041  1.00  0.00     0.010 C 
BRANCH  40  42
HETATM   42  C7  UNL     1      -8.989   5.912  13.122  1.00  0.00     0.031 C 
BRANCH  42  43
HETATM   43  C6  UNL     1     -10.204   6.685  13.593  1.00  0.00    -0.027 C 
HETATM   44  C5  UNL     1     -11.110   7.311  12.823  1.00  0.00     0.006 C 
BRANCH  44  45
HETATM   45  C2  UNL     1     -12.356   8.059  13.261  1.00  0.00     0.070 C 
HETATM   46  C3  UNL     1     -12.571   9.439  12.616  1.00  0.00     0.050 C 
HETATM   47  C4  UNL     1     -12.265   8.240  14.789  1.00  0.00     0.050 C 
BRANCH  45  48
HETATM   48  O1  UNL     1     -13.493   7.201  13.058  1.00  0.00    -0.382 OA
HETATM   49  C1  UNL     1     -13.726   6.227  14.069  1.00  0.00     0.202 C 
ENDBRANCH  45  48
ENDBRANCH  44  45
ENDBRANCH  42  43
ENDBRANCH  40  42
ENDBRANCH   1  40
TORSDOF 12
ENDMDL
MODEL 7
REMARK minimizedAffinity -9.69964218
REMARK CNNscore 0.27888748
REMARK CNNaffinity 6.90515518
REMARK  12 active torsions:
REMARK  status: ('A' for Active; 'I' for Inactive)
REMARK    1  A    between atoms: O1_2  and  C2_3 
REMARK    2  A    between atoms: C2_3  and  C5_6 
REMARK    3  A    between atoms: C6_7  and  C7_8 
REMARK    4  A    between atoms: C7_8  and  C8_9 
REMARK    5  A    between atoms: C8_9  and  C10_11 
REMARK    6  A    between atoms: C28_30  and  O3_31 
REMARK    7  A    between atoms: O3_31  and  C29_32 
REMARK    8  A    between atoms: C30_34  and  C31_35 
REMARK    9  A    between atoms: C31_35  and  O5_36 
REMARK   10  A    between atoms: C32_37  and  O6_38 
REMARK   11  A    between atoms: C33_39  and  O7_40 
REMARK   12  A    between atoms: C34_41  and  O8_42 
ROOT
HETATM    1  C10 UNL     1      -2.899   6.998  14.784  1.00  0.00    -0.002 C 
HETATM    2  C11 UNL     1      -2.965   5.472  14.451  1.00  0.00     0.006 C 
HETATM    3  C12 UNL     1      -1.862   5.165  13.421  1.00  0.00     0.011 C 
HETATM    4  C13 UNL     1      -0.951   6.407  13.444  1.00  0.00    -0.029 C 
HETATM    5  C14 UNL     1      -0.007   6.225  14.682  1.00  0.00     0.016 C 
HETATM    6  C15 UNL     1      -0.121   6.645  12.142  1.00  0.00     0.028 C 
HETATM    7  C16 UNL     1       0.878   5.533  11.858  1.00  0.00    -0.021 C 
HETATM    8  C17 UNL     1       2.166   5.795  11.558  1.00  0.00     0.008 C 
HETATM    9  C18 UNL     1       2.676   7.230  11.473  1.00  0.00     0.092 C 
HETATM   10  O2  UNL     1       2.056   7.732  10.265  1.00  0.00    -0.374 OA
HETATM   11  C19 UNL     1       0.866   8.441  10.627  1.00  0.00     0.179 C 
HETATM   12  C20 UNL     1       0.547   8.094  12.101  1.00  0.00    -0.004 C 
HETATM   13  C21 UNL     1      -0.348   9.220  12.685  1.00  0.00     0.014 C 
HETATM   14  C22 UNL     1      -1.258   8.863  13.867  1.00  0.00     0.011 C 
HETATM   15  C23 UNL     1      -2.022   7.552  13.613  1.00  0.00    -0.032 C 
HETATM   16  C24 UNL     1      -2.938   7.746  12.358  1.00  0.00     0.016 C 
HETATM   17  C25 UNL     1       1.994   7.992  12.646  1.00  0.00     0.036 C 
HETATM   18  C26 UNL     1       2.707   9.291  13.008  1.00  0.00     0.011 C 
HETATM   19  C27 UNL     1       4.167   9.039  13.401  1.00  0.00     0.033 C 
HETATM   20  C28 UNL     1       4.768   7.753  12.811  1.00  0.00     0.136 C 
HETATM   21  C35 UNL     1       4.236   7.455  11.384  1.00  0.00     0.014 C 
HETATM   22  C36 UNL     1       4.598   8.618  10.415  1.00  0.00     0.021 C 
HETATM   23  C37 UNL     1       4.984   6.223  10.821  1.00  0.00     0.021 C 
ENDROOT
BRANCH  20  24
HETATM   24  O3  UNL     1       6.189   7.889  12.771  1.00  0.00    -0.352 OA
BRANCH  24  25
HETATM   25  C29 UNL     1       6.750   8.716  13.791  1.00  0.00     0.292 C 
HETATM   26  O4  UNL     1       7.848   9.430  13.229  1.00  0.00    -0.348 OA
HETATM   27  C30 UNL     1       8.472  10.336  14.156  1.00  0.00     0.179 C 
HETATM   28  C32 UNL     1       8.712   9.698  15.541  1.00  0.00     0.180 C 
HETATM   29  C33 UNL     1       8.615   8.173  15.440  1.00  0.00     0.183 C 
HETATM   30  C34 UNL     1       7.220   7.770  14.924  1.00  0.00     0.204 C 
BRANCH  27  31
HETATM   31  C31 UNL     1       9.794  10.767  13.510  1.00  0.00     0.198 C 
BRANCH  31  32
HETATM   32  O5  UNL     1      10.504   9.649  13.001  1.00  0.00    -0.398 OA
HETATM   33  H48 UNL     1      11.336   9.985  12.623  1.00  0.00     0.209 HD
ENDBRANCH  31  32
ENDBRANCH  27  31
BRANCH  28  34
HETATM   34  O6  UNL     1       7.686  10.132  16.465  1.00  0.00    -0.390 OA
HETATM   35  H50 UNL     1       8.043   9.884  17.342  1.00  0.00     0.210 HD
ENDBRANCH  28  34
BRANCH  29  36
HETATM   36  O7  UNL     1       8.849   7.607  16.747  1.00  0.00    -0.390 OA
HETATM   37  H52 UNL     1       8.090   7.018  16.933  1.00  0.00     0.210 HD
ENDBRANCH  29  36
BRANCH  30  38
HETATM   38  O8  UNL     1       6.279   7.797  16.027  1.00  0.00    -0.388 OA
HETATM   39  H54 UNL     1       6.357   8.695  16.414  1.00  0.00     0.210 HD
ENDBRANCH  30  38
ENDBRANCH  24  25
ENDBRANCH  20  24
BRANCH   1  40
HETATM   40  C8  UNL     1      -4.319   7.597  15.020  1.00  0.00    -0.010 C 
HETATM   41  C9  UNL     1      -4.287   8.865  15.887  1.00  0.00     0.010 C 
BRANCH  40  42
HETATM   42  C7  UNL     1      -5.269   6.563  15.687  1.00  0.00     0.031 C 
BRANCH  42  43
HETATM   43  C6  UNL     1      -6.317   5.891  14.824  1.00  0.00    -0.027 C 
HETATM   44  C5  UNL     1      -6.114   5.253  13.659  1.00  0.00     0.006 C 
BRANCH  44  45
HETATM   45  C2  UNL     1      -7.134   4.538  12.792  1.00  0.00     0.070 C 
HETATM   46  C3  UNL     1      -8.327   5.389  12.320  1.00  0.00     0.050 C 
HETATM   47  C4  UNL     1      -7.674   3.349  13.611  1.00  0.00     0.050 C 
BRANCH  45  48
HETATM   48  O1  UNL     1      -6.444   3.939  11.681  1.00  0.00    -0.382 OA
HETATM   49  C1  UNL     1      -6.122   2.560  11.819  1.00  0.00     0.202 C 
ENDBRANCH  45  48
ENDBRANCH  44  45
ENDBRANCH  42  43
ENDBRANCH  40  42
ENDBRANCH   1  40
TORSDOF 12
ENDMDL
MODEL 8
REMARK minimizedAffinity -7.45827818
REMARK CNNscore 0.274096936
REMARK CNNaffinity 6.67292356
REMARK  12 active torsions:
REMARK  status: ('A' for Active; 'I' for Inactive)
REMARK    1  A    between atoms: O1_2  and  C2_3 
REMARK    2  A    between atoms: C2_3  and  C5_6 
REMARK    3  A    between atoms: C6_7  and  C7_8 
REMARK    4  A    between atoms: C7_8  and  C8_9 
REMARK    5  A    between atoms: C8_9  and  C10_11 
REMARK    6  A    between atoms: C28_30  and  O3_31 
REMARK    7  A    between atoms: O3_31  and  C29_32 
REMARK    8  A    between atoms: C30_34  and  C31_35 
REMARK    9  A    between atoms: C31_35  and  O5_36 
REMARK   10  A    between atoms: C32_37  and  O6_38 
REMARK   11  A    between atoms: C33_39  and  O7_40 
REMARK   12  A    between atoms: C34_41  and  O8_42 
ROOT
HETATM    1  C10 UNL     1      -9.134  14.271  22.393  1.00  0.00    -0.002 C 
HETATM    2  C11 UNL     1      -9.970  15.170  21.424  1.00  0.00     0.006 C 
HETATM    3  C12 UNL     1      -9.057  15.574  20.250  1.00  0.00     0.011 C 
HETATM    4  C13 UNL     1      -7.845  14.629  20.356  1.00  0.00    -0.029 C 
HETATM    5  C14 UNL     1      -8.292  13.281  19.695  1.00  0.00     0.016 C 
HETATM    6  C15 UNL     1      -6.530  15.161  19.701  1.00  0.00     0.028 C 
HETATM    7  C16 UNL     1      -6.646  15.349  18.195  1.00  0.00    -0.021 C 
HETATM    8  C17 UNL     1      -5.717  14.866  17.346  1.00  0.00     0.008 C 
HETATM    9  C18 UNL     1      -4.491  14.120  17.864  1.00  0.00     0.092 C 
HETATM   10  O2  UNL     1      -3.707  15.165  18.488  1.00  0.00    -0.374 OA
HETATM   11  C19 UNL     1      -3.988  15.165  19.892  1.00  0.00     0.179 C 
HETATM   12  C20 UNL     1      -5.251  14.299  20.114  1.00  0.00    -0.004 C 
HETATM   13  C21 UNL     1      -5.262  13.820  21.590  1.00  0.00     0.014 C 
HETATM   14  C22 UNL     1      -6.618  13.469  22.215  1.00  0.00     0.011 C 
HETATM   15  C23 UNL     1      -7.670  14.552  21.922  1.00  0.00    -0.032 C 
HETATM   16  C24 UNL     1      -7.191  15.896  22.567  1.00  0.00     0.016 C 
HETATM   17  C25 UNL     1      -5.002  13.223  19.028  1.00  0.00     0.036 C 
HETATM   18  C26 UNL     1      -4.046  12.084  19.366  1.00  0.00     0.011 C 
HETATM   19  C27 UNL     1      -3.799  11.179  18.153  1.00  0.00     0.033 C 
HETATM   20  C28 UNL     1      -4.022  11.866  16.796  1.00  0.00     0.136 C 
HETATM   21  C35 UNL     1      -3.593  13.358  16.814  1.00  0.00     0.014 C 
HETATM   22  C36 UNL     1      -2.078  13.483  17.149  1.00  0.00     0.021 C 
HETATM   23  C37 UNL     1      -3.731  13.932  15.384  1.00  0.00     0.021 C 
ENDROOT
BRANCH  20  24
HETATM   24  O3  UNL     1      -3.274  11.167  15.800  1.00  0.00    -0.352 OA
BRANCH  24  25
HETATM   25  C29 UNL     1      -3.048   9.783  16.071  1.00  0.00     0.292 C 
HETATM   26  O4  UNL     1      -1.670   9.505  15.837  1.00  0.00    -0.348 OA
HETATM   27  C30 UNL     1      -1.309   8.141  16.120  1.00  0.00     0.179 C 
HETATM   28  C32 UNL     1      -2.316   7.127  15.537  1.00  0.00     0.180 C 
HETATM   29  C33 UNL     1      -3.186   7.802  14.474  1.00  0.00     0.183 C 
HETATM   30  C34 UNL     1      -3.951   8.986  15.096  1.00  0.00     0.204 C 
BRANCH  27  31
HETATM   31  C31 UNL     1       0.089   7.936  15.524  1.00  0.00     0.198 C 
BRANCH  31  32
HETATM   32  O5  UNL     1       0.878   7.090  16.346  1.00  0.00    -0.398 OA
HETATM   33  H48 UNL     1       1.752   7.014  15.926  1.00  0.00     0.209 HD
ENDBRANCH  31  32
ENDBRANCH  27  31
BRANCH  28  34
HETATM   34  O6  UNL     1      -3.203   6.661  16.582  1.00  0.00    -0.390 OA
HETATM   35  H50 UNL     1      -3.629   5.872  16.190  1.00  0.00     0.210 HD
ENDBRANCH  28  34
BRANCH  29  36
HETATM   36  O7  UNL     1      -4.111   6.829  13.945  1.00  0.00    -0.390 OA
HETATM   37  H52 UNL     1      -5.003   7.222  14.028  1.00  0.00     0.210 HD
ENDBRANCH  29  36
BRANCH  30  38
HETATM   38  O8  UNL     1      -5.121   8.483  15.791  1.00  0.00    -0.388 OA
HETATM   39  H54 UNL     1      -4.783   7.805  16.415  1.00  0.00     0.210 HD
ENDBRANCH  30  38
ENDBRANCH  24  25
ENDBRANCH  20  24
BRANCH   1  40
HETATM   40  C8  UNL     1      -9.517  14.525  23.883  1.00  0.00    -0.010 C 
HETATM   41  C9  UNL     1      -8.289  14.782  24.770  1.00  0.00     0.010 C 
BRANCH  40  42
HETATM   42  C7  UNL     1     -10.317  13.332  24.476  1.00  0.00     0.031 C 
BRANCH  42  43
HETATM   43  C6  UNL     1     -10.320  12.022  23.716  1.00  0.00    -0.027 C 
HETATM   44  C5  UNL     1     -11.397  11.322  23.319  1.00  0.00     0.006 C 
BRANCH  44  45
HETATM   45  C2  UNL     1     -11.434  10.029  22.524  1.00  0.00     0.070 C 
HETATM   46  C3  UNL     1     -11.014  10.139  21.047  1.00  0.00     0.050 C 
HETATM   47  C4  UNL     1     -12.879   9.498  22.585  1.00  0.00     0.050 C 
BRANCH  45  48
HETATM   48  O1  UNL     1     -10.648   9.047  23.221  1.00  0.00    -0.382 OA
HETATM   49  C1  UNL     1     -11.380   8.094  23.984  1.00  0.00     0.202 C 
ENDBRANCH  45  48
ENDBRANCH  44  45
ENDBRANCH  42  43
ENDBRANCH  40  42
ENDBRANCH   1  40
TORSDOF 12
ENDMDL
MODEL 9
REMARK minimizedAffinity -8.89384842
REMARK CNNscore 0.264748335
REMARK CNNaffinity 6.97863245
REMARK  12 active torsions:
REMARK  status: ('A' for Active; 'I' for Inactive)
REMARK    1  A    between atoms: O1_2  and  C2_3 
REMARK    2  A    between atoms: C2_3  and  C5_6 
REMARK    3  A    between atoms: C6_7  and  C7_8 
REMARK    4  A    between atoms: C7_8  and  C8_9 
REMARK    5  A    between atoms: C8_9  and  C10_11 
REMARK    6  A    between atoms: C28_30  and  O3_31 
REMARK    7  A    between atoms: O3_31  and  C29_32 
REMARK    8  A    between atoms: C30_34  and  C31_35 
REMARK    9  A    between atoms: C31_35  and  O5_36 
REMARK   10  A    between atoms: C32_37  and  O6_38 
REMARK   11  A    between atoms: C33_39  and  O7_40 
REMARK   12  A    between atoms: C34_41  and  O8_42 
ROOT
HETATM    1  C10 UNL     1      -3.332   7.374  15.236  1.00  0.00    -0.002 C 
HETATM    2  C11 UNL     1      -3.508   5.844  14.967  1.00  0.00     0.006 C 
HETATM    3  C12 UNL     1      -2.515   5.442  13.860  1.00  0.00     0.011 C 
HETATM    4  C13 UNL     1      -1.541   6.631  13.760  1.00  0.00    -0.029 C 
HETATM    5  C14 UNL     1      -0.505   6.437  14.920  1.00  0.00     0.016 C 
HETATM    6  C15 UNL     1      -0.814   6.780  12.385  1.00  0.00     0.028 C 
HETATM    7  C16 UNL     1       0.096   5.605  12.060  1.00  0.00    -0.021 C 
HETATM    8  C17 UNL     1       1.365   5.784  11.643  1.00  0.00     0.008 C 
HETATM    9  C18 UNL     1       1.942   7.185  11.462  1.00  0.00     0.092 C 
HETATM   10  O2  UNL     1       1.248   7.681  10.293  1.00  0.00    -0.374 OA
HETATM   11  C19 UNL     1       0.133   8.468  10.727  1.00  0.00     0.179 C 
HETATM   12  C20 UNL     1      -0.076   8.187  12.234  1.00  0.00    -0.004 C 
HETATM   13  C21 UNL     1      -0.856   9.379  12.850  1.00  0.00     0.014 C 
HETATM   14  C22 UNL     1      -1.680   9.113  14.116  1.00  0.00     0.011 C 
HETATM   15  C23 UNL     1      -2.531   7.839  13.976  1.00  0.00    -0.032 C 
HETATM   16  C24 UNL     1      -3.540   8.044  12.796  1.00  0.00     0.016 C 
HETATM   17  C25 UNL     1       1.405   8.022  12.659  1.00  0.00     0.036 C 
HETATM   18  C26 UNL     1       2.214   9.289  12.911  1.00  0.00     0.011 C 
HETATM   19  C27 UNL     1       3.687   8.969  13.190  1.00  0.00     0.033 C 
HETATM   20  C28 UNL     1       4.166   7.633  12.600  1.00  0.00     0.136 C 
HETATM   21  C35 UNL     1       3.498   7.319  11.234  1.00  0.00     0.014 C 
HETATM   22  C36 UNL     1       3.837   8.428  10.196  1.00  0.00     0.021 C 
HETATM   23  C37 UNL     1       4.128   6.030  10.657  1.00  0.00     0.021 C 
ENDROOT
BRANCH  20  24
HETATM   24  O3  UNL     1       5.584   7.687  12.435  1.00  0.00    -0.352 OA
BRANCH  24  25
HETATM   25  C29 UNL     1       6.274   8.505  13.380  1.00  0.00     0.292 C 
HETATM   26  O4  UNL     1       7.296   9.218  12.687  1.00  0.00    -0.348 OA
HETATM   27  C30 UNL     1       8.038  10.115  13.533  1.00  0.00     0.179 C 
HETATM   28  C32 UNL     1       8.449   9.466  14.872  1.00  0.00     0.180 C 
HETATM   29  C33 UNL     1       8.331   7.943  14.775  1.00  0.00     0.183 C 
HETATM   30  C34 UNL     1       6.880   7.549  14.438  1.00  0.00     0.204 C 
BRANCH  27  31
HETATM   31  C31 UNL     1       9.269  10.544  12.726  1.00  0.00     0.198 C 
BRANCH  31  32
HETATM   32  O5  UNL     1       8.919  10.866  11.389  1.00  0.00    -0.398 OA
HETATM   33  H48 UNL     1       9.741  11.111  10.928  1.00  0.00     0.209 HD
ENDBRANCH  31  32
ENDBRANCH  27  31
BRANCH  28  34
HETATM   34  O6  UNL     1       7.552   9.899  15.922  1.00  0.00    -0.390 OA
HETATM   35  H50 UNL     1       8.016   9.644  16.745  1.00  0.00     0.210 HD
ENDBRANCH  28  34
BRANCH  29  36
HETATM   36  O7  UNL     1       8.727   7.367  16.038  1.00  0.00    -0.390 OA
HETATM   37  H52 UNL     1       7.995   6.781  16.316  1.00  0.00     0.210 HD
ENDBRANCH  29  36
BRANCH  30  38
HETATM   38  O8  UNL     1       6.087   7.574  15.652  1.00  0.00    -0.388 OA
HETATM   39  H54 UNL     1       6.219   8.469  16.032  1.00  0.00     0.210 HD
ENDBRANCH  30  38
ENDBRANCH  24  25
ENDBRANCH  20  24
BRANCH   1  40
HETATM   40  C8  UNL     1      -4.693   8.059  15.569  1.00  0.00    -0.010 C 
HETATM   41  C9  UNL     1      -5.891   7.315  14.959  1.00  0.00     0.010 C 
BRANCH  40  42
HETATM   42  C7  UNL     1      -4.722   9.533  15.080  1.00  0.00     0.031 C 
BRANCH  42  43
HETATM   43  C6  UNL     1      -4.183  10.606  16.004  1.00  0.00    -0.027 C 
HETATM   44  C5  UNL     1      -3.483  10.418  17.136  1.00  0.00     0.006 C 
BRANCH  44  45
HETATM   45  C2  UNL     1      -2.897  11.470  18.061  1.00  0.00     0.070 C 
HETATM   46  C3  UNL     1      -1.617  11.063  18.812  1.00  0.00     0.050 C 
HETATM   47  C4  UNL     1      -3.982  11.822  19.096  1.00  0.00     0.050 C 
BRANCH  45  48
HETATM   48  O1  UNL     1      -2.701  12.678  17.305  1.00  0.00    -0.382 OA
HETATM   49  C1  UNL     1      -2.190  13.790  18.032  1.00  0.00     0.202 C 
ENDBRANCH  45  48
ENDBRANCH  44  45
ENDBRANCH  42  43
ENDBRANCH  40  42
ENDBRANCH   1  40
TORSDOF 12
ENDMDL
