MODEL 1
REMARK minimizedAffinity -8.76480579
REMARK CNNscore 0.732610941
REMARK CNNaffinity 6.9720273
REMARK  10 active torsions:
REMARK  status: ('A' for Active; 'I' for Inactive)
REMARK    1  A    between atoms: N1_6  and  O1_8 
REMARK    2  A    between atoms: O1_8  and  C6_9 
REMARK    3  A    between atoms: C6_9  and  C7_10 
REMARK       I    between atoms: C7_10  and  N2_12 
REMARK    4  A    between atoms: N2_12  and  C8_13 
REMARK    5  A    between atoms: C8_13  and  C9_14 
REMARK    6  A    between atoms: C20_27  and  O3_28 
REMARK    7  A    between atoms: C27_35  and  O4_36 
REMARK    8  A    between atoms: C27_35  and  C28_37 
REMARK    9  A    between atoms: C28_37  and  C29_39 
REMARK   10  A    between atoms: C29_39  and  O6_40 
ROOT
HETATM    1  C1  UNL     1      -0.931   8.099  15.437  1.00  0.00     0.020 C 
HETATM    2  C2  UNL     1      -1.696   8.129  14.089  1.00  0.00    -0.014 C 
HETATM    3  C3  UNL     1      -2.599   9.398  14.048  1.00  0.00     0.020 C 
HETATM    4  C4  UNL     1      -3.763   9.354  15.024  1.00  0.00     0.060 C 
HETATM    5  C5  UNL     1      -4.606   8.116  14.799  1.00  0.00     0.032 C 
HETATM    6  N1  UNL     1      -5.877   8.219  15.042  1.00  0.00    -0.271 N 
ATOM      7  H1  UNL     1      -6.335   9.084  15.328  1.00  0.00     0.194 HD
HETATM    8  C14 UNL     1      -3.893   6.876  14.374  1.00  0.00     0.030 C 
HETATM    9  C15 UNL     1      -2.576   6.871  14.090  1.00  0.00    -0.069 C 
HETATM   10  C16 UNL     1      -1.902   5.548  13.791  1.00  0.00     0.035 C 
HETATM   11  C17 UNL     1      -0.639   5.673  12.940  1.00  0.00     0.010 C 
HETATM   12  C18 UNL     1      -0.744   6.867  11.989  1.00  0.00    -0.002 C 
HETATM   13  C19 UNL     1      -0.742   8.190  12.803  1.00  0.00     0.031 C 
HETATM   14  C20 UNL     1       0.687   8.704  13.097  1.00  0.00     0.124 C 
HETATM   15  C21 UNL     1       1.576   8.744  11.853  1.00  0.00     0.045 C 
HETATM   16  C22 UNL     1       1.692   7.384  11.121  1.00  0.00     0.001 C 
HETATM   17  C23 UNL     1       2.564   6.439  11.964  1.00  0.00     0.019 C 
HETATM   18  C24 UNL     1       0.286   6.811  10.841  1.00  0.00     0.002 C 
HETATM   19  C25 UNL     1      -0.196   7.603   9.604  1.00  0.00     0.009 C 
HETATM   20  C26 UNL     1       1.055   8.106   8.877  1.00  0.00     0.047 C 
HETATM   21  C27 UNL     1       2.260   7.573   9.674  1.00  0.00     0.128 C 
ENDROOT
BRANCH   6  22
HETATM   22  O1  UNL     1      -6.547   6.998  14.861  1.00  0.00    -0.271 OA
BRANCH  22  23
HETATM   23  C6  UNL     1      -7.773   7.042  15.571  1.00  0.00     0.303 C 
BRANCH  23  24
HETATM   24  C7  UNL     1      -8.968   6.814  14.645  1.00  0.00     0.244 C 
HETATM   25  O2  UNL     1      -8.874   6.507  13.461  1.00  0.00    -0.271 OA
HETATM   26  N2  UNL     1     -10.186   6.982  15.280  1.00  0.00    -0.355 N 
HETATM   27  H10 UNL     1     -10.203   7.387  16.206  1.00  0.00     0.162 HD
BRANCH  26  28
HETATM   28  C8  UNL     1     -11.439   6.881  14.566  1.00  0.00     0.161 C 
BRANCH  28  29
HETATM   29  C9  UNL     1     -11.888   8.230  14.074  1.00  0.00    -0.038 A 
HETATM   30  C10 UNL     1     -12.156   8.436  12.718  1.00  0.00     0.025 A 
HETATM   31  C11 UNL     1     -12.546   9.697  12.299  1.00  0.00     0.088 A 
HETATM   32  N3  UNL     1     -12.680  10.755  13.127  1.00  0.00    -0.375 N 
HETATM   33  C12 UNL     1     -12.407  10.539  14.431  1.00  0.00     0.088 A 
ATOM     34  H3  UNL     1     -12.973  11.670  12.785  1.00  0.00     0.164 HD
HETATM   35  C13 UNL     1     -12.012   9.315  14.948  1.00  0.00     0.025 A 
ENDBRANCH  28  29
ENDBRANCH  26  28
ENDBRANCH  23  24
ENDBRANCH  22  23
ENDBRANCH   6  22
BRANCH  14  36
HETATM   36  O3  UNL     1       0.605  10.040  13.602  1.00  0.00    -0.395 OA
HETATM   37  H25 UNL     1       1.508  10.319  13.840  1.00  0.00     0.210 HD
ENDBRANCH  14  36
BRANCH  21  38
HETATM   38  O4  UNL     1       3.305   8.543   9.665  1.00  0.00    -0.381 OA
HETATM   39  H36 UNL     1       3.358   8.930   8.771  1.00  0.00     0.211 HD
ENDBRANCH  21  38
BRANCH  21  40
HETATM   40  C28 UNL     1       2.767   6.257   9.021  1.00  0.00     0.184 C 
HETATM   41  O5  UNL     1       2.362   5.854   7.925  1.00  0.00    -0.292 OA
BRANCH  40  42
HETATM   42  C29 UNL     1       3.818   5.450   9.781  1.00  0.00     0.245 C 
BRANCH  42  43
HETATM   43  O6  UNL     1       3.483   4.068   9.819  1.00  0.00    -0.393 OA
HETATM   44  H39 UNL     1       2.866   3.915   9.075  1.00  0.00     0.209 HD
ENDBRANCH  42  43
ENDBRANCH  40  42
ENDBRANCH  21  40
TORSDOF 10
ENDMDL
MODEL 2
REMARK minimizedAffinity -8.53945541
REMARK CNNscore 0.709498048
REMARK CNNaffinity 7.03246117
REMARK  10 active torsions:
REMARK  status: ('A' for Active; 'I' for Inactive)
REMARK    1  A    between atoms: N1_6  and  O1_8 
REMARK    2  A    between atoms: O1_8  and  C6_9 
REMARK    3  A    between atoms: C6_9  and  C7_10 
REMARK       I    between atoms: C7_10  and  N2_12 
REMARK    4  A    between atoms: N2_12  and  C8_13 
REMARK    5  A    between atoms: C8_13  and  C9_14 
REMARK    6  A    between atoms: C20_27  and  O3_28 
REMARK    7  A    between atoms: C27_35  and  O4_36 
REMARK    8  A    between atoms: C27_35  and  C28_37 
REMARK    9  A    between atoms: C28_37  and  C29_39 
REMARK   10  A    between atoms: C29_39  and  O6_40 
ROOT
HETATM    1  C1  UNL     1      -2.166   5.507  11.590  1.00  0.00     0.020 C 
HETATM    2  C2  UNL     1      -1.397   6.260  12.706  1.00  0.00    -0.014 C 
HETATM    3  C3  UNL     1      -1.543   5.472  14.042  1.00  0.00     0.020 C 
HETATM    4  C4  UNL     1      -2.951   5.493  14.616  1.00  0.00     0.060 C 
HETATM    5  C5  UNL     1      -3.432   6.917  14.803  1.00  0.00     0.032 C 
HETATM    6  N1  UNL     1      -4.242   7.138  15.794  1.00  0.00    -0.271 N 
ATOM      7  H1  UNL     1      -4.530   6.425  16.464  1.00  0.00     0.194 HD
HETATM    8  C14 UNL     1      -2.979   7.926  13.801  1.00  0.00     0.030 C 
HETATM    9  C15 UNL     1      -2.092   7.622  12.833  1.00  0.00    -0.069 C 
HETATM   10  C16 UNL     1      -1.782   8.665  11.779  1.00  0.00     0.035 C 
HETATM   11  C17 UNL     1      -0.415   8.493  11.118  1.00  0.00     0.010 C 
HETATM   12  C18 UNL     1       0.585   7.876  12.099  1.00  0.00    -0.002 C 
HETATM   13  C19 UNL     1       0.173   6.413  12.421  1.00  0.00     0.031 C 
HETATM   14  C20 UNL     1       0.734   5.398  11.397  1.00  0.00     0.124 C 
HETATM   15  C21 UNL     1       2.232   5.575  11.141  1.00  0.00     0.045 C 
HETATM   16  C22 UNL     1       2.625   6.999  10.676  1.00  0.00     0.001 C 
HETATM   17  C23 UNL     1       2.146   7.199   9.229  1.00  0.00     0.019 C 
HETATM   18  C24 UNL     1       2.051   8.051  11.649  1.00  0.00     0.002 C 
HETATM   19  C25 UNL     1       3.024   8.014  12.849  1.00  0.00     0.009 C 
HETATM   20  C26 UNL     1       4.358   7.472  12.330  1.00  0.00     0.047 C 
HETATM   21  C27 UNL     1       4.167   7.230  10.821  1.00  0.00     0.128 C 
ENDROOT
BRANCH   6  22
HETATM   22  O1  UNL     1      -4.672   8.474  15.833  1.00  0.00    -0.271 OA
BRANCH  22  23
HETATM   23  C6  UNL     1      -5.763   8.627  14.941  1.00  0.00     0.303 C 
BRANCH  23  24
HETATM   24  C7  UNL     1      -6.999   7.870  15.430  1.00  0.00     0.244 C 
HETATM   25  O2  UNL     1      -7.005   6.680  15.729  1.00  0.00    -0.271 OA
HETATM   26  N2  UNL     1      -8.127   8.668  15.511  1.00  0.00    -0.355 N 
HETATM   27  H10 UNL     1      -8.101   9.593  15.104  1.00  0.00     0.162 HD
BRANCH  26  28
HETATM   28  C8  UNL     1      -9.415   8.132  15.884  1.00  0.00     0.161 C 
BRANCH  28  29
HETATM   29  C9  UNL     1     -10.410   8.293  14.767  1.00  0.00    -0.038 A 
HETATM   30  C10 UNL     1     -10.898   7.173  14.087  1.00  0.00     0.025 A 
HETATM   31  C11 UNL     1     -11.796   7.363  13.049  1.00  0.00     0.088 A 
HETATM   32  N3  UNL     1     -12.230   8.575  12.644  1.00  0.00    -0.375 N 
HETATM   33  C12 UNL     1     -11.739   9.644  13.306  1.00  0.00     0.088 A 
ATOM     34  H3  UNL     1     -12.894   8.678  11.877  1.00  0.00     0.164 HD
HETATM   35  C13 UNL     1     -10.839   9.559  14.358  1.00  0.00     0.025 A 
ENDBRANCH  28  29
ENDBRANCH  26  28
ENDBRANCH  23  24
ENDBRANCH  22  23
ENDBRANCH   6  22
BRANCH  14  36
HETATM   36  O3  UNL     1       0.544   4.075  11.905  1.00  0.00    -0.395 OA
HETATM   37  H25 UNL     1       0.845   3.452  11.218  1.00  0.00     0.210 HD
ENDBRANCH  14  36
BRANCH  21  38
HETATM   38  O4  UNL     1       4.891   6.065  10.429  1.00  0.00    -0.381 OA
HETATM   39  H36 UNL     1       5.753   6.070  10.886  1.00  0.00     0.211 HD
ENDBRANCH  21  38
BRANCH  21  40
HETATM   40  C28 UNL     1       4.696   8.459  10.032  1.00  0.00     0.184 C 
HETATM   41  O5  UNL     1       4.165   8.867   8.992  1.00  0.00    -0.292 OA
BRANCH  40  42
HETATM   42  C29 UNL     1       5.919   9.184  10.590  1.00  0.00     0.245 C 
BRANCH  42  43
HETATM   43  O6  UNL     1       5.635  10.553  10.855  1.00  0.00    -0.393 OA
HETATM   44  H39 UNL     1       4.663  10.619  10.946  1.00  0.00     0.209 HD
ENDBRANCH  42  43
ENDBRANCH  40  42
ENDBRANCH  21  40
TORSDOF 10
ENDMDL
MODEL 3
REMARK minimizedAffinity -7.86455727
REMARK CNNscore 0.672332287
REMARK CNNaffinity 7.0668931
REMARK  10 active torsions:
REMARK  status: ('A' for Active; 'I' for Inactive)
REMARK    1  A    between atoms: N1_6  and  O1_8 
REMARK    2  A    between atoms: O1_8  and  C6_9 
REMARK    3  A    between atoms: C6_9  and  C7_10 
REMARK       I    between atoms: C7_10  and  N2_12 
REMARK    4  A    between atoms: N2_12  and  C8_13 
REMARK    5  A    between atoms: C8_13  and  C9_14 
REMARK    6  A    between atoms: C20_27  and  O3_28 
REMARK    7  A    between atoms: C27_35  and  O4_36 
REMARK    8  A    between atoms: C27_35  and  C28_37 
REMARK    9  A    between atoms: C28_37  and  C29_39 
REMARK   10  A    between atoms: C29_39  and  O6_40 
ROOT
HETATM    1  C1  UNL     1      -2.585   6.452  13.698  1.00  0.00     0.020 C 
HETATM    2  C2  UNL     1      -1.532   7.445  14.254  1.00  0.00    -0.014 C 
HETATM    3  C3  UNL     1      -1.333   7.173  15.775  1.00  0.00     0.020 C 
HETATM    4  C4  UNL     1      -2.537   7.543  16.627  1.00  0.00     0.060 C 
HETATM    5  C5  UNL     1      -2.922   8.991  16.409  1.00  0.00     0.032 C 
HETATM    6  N1  UNL     1      -3.435   9.621  17.423  1.00  0.00    -0.271 N 
ATOM      7  H1  UNL     1      -3.549   9.212  18.350  1.00  0.00     0.194 HD
HETATM    8  C14 UNL     1      -2.732   9.548  15.038  1.00  0.00     0.030 C 
HETATM    9  C15 UNL     1      -2.140   8.840  14.056  1.00  0.00    -0.069 C 
HETATM   10  C16 UNL     1      -2.101   9.427  12.661  1.00  0.00     0.035 C 
HETATM   11  C17 UNL     1      -0.963   8.891  11.793  1.00  0.00     0.010 C 
HETATM   12  C18 UNL     1       0.249   8.531  12.655  1.00  0.00    -0.002 C 
HETATM   13  C19 UNL     1      -0.092   7.317  13.563  1.00  0.00     0.031 C 
HETATM   14  C20 UNL     1       0.157   5.962  12.860  1.00  0.00     0.124 C 
HETATM   15  C21 UNL     1       1.536   5.873  12.204  1.00  0.00     0.045 C 
HETATM   16  C22 UNL     1       1.820   7.005  11.186  1.00  0.00     0.001 C 
HETATM   17  C23 UNL     1       0.977   6.761   9.923  1.00  0.00     0.019 C 
HETATM   18  C24 UNL     1       1.546   8.380  11.832  1.00  0.00     0.002 C 
HETATM   19  C25 UNL     1       2.803   8.639  12.694  1.00  0.00     0.009 C 
HETATM   20  C26 UNL     1       3.940   7.808  12.094  1.00  0.00     0.047 C 
HETATM   21  C27 UNL     1       3.349   7.097  10.862  1.00  0.00     0.128 C 
ENDROOT
BRANCH   6  22
HETATM   22  O1  UNL     1      -3.813  10.932  17.090  1.00  0.00    -0.271 OA
BRANCH  22  23
HETATM   23  C6  UNL     1      -3.397  11.802  18.128  1.00  0.00     0.303 C 
BRANCH  23  24
HETATM   24  C7  UNL     1      -1.981  12.329  17.888  1.00  0.00     0.244 C 
HETATM   25  O2  UNL     1      -1.403  12.282  16.807  1.00  0.00    -0.271 OA
HETATM   26  N2  UNL     1      -1.407  12.878  19.021  1.00  0.00    -0.355 N 
HETATM   27  H10 UNL     1      -1.865  12.746  19.914  1.00  0.00     0.162 HD
BRANCH  26  28
HETATM   28  C8  UNL     1      -0.048  13.369  19.026  1.00  0.00     0.161 C 
BRANCH  28  29
HETATM   29  C9  UNL     1       0.807  12.575  19.975  1.00  0.00    -0.038 A 
HETATM   30  C10 UNL     1       1.679  13.224  20.855  1.00  0.00     0.025 A 
HETATM   31  C11 UNL     1       2.467  12.459  21.699  1.00  0.00     0.088 A 
HETATM   32  N3  UNL     1       2.450  11.109  21.723  1.00  0.00    -0.375 N 
HETATM   33  C12 UNL     1       1.609  10.501  20.859  1.00  0.00     0.088 A 
ATOM     34  H3  UNL     1       3.042  10.577  22.360  1.00  0.00     0.164 HD
HETATM   35  C13 UNL     1       0.780  11.177  19.977  1.00  0.00     0.025 A 
ENDBRANCH  28  29
ENDBRANCH  26  28
ENDBRANCH  23  24
ENDBRANCH  22  23
ENDBRANCH   6  22
BRANCH  14  36
HETATM   36  O3  UNL     1       0.083   4.915  13.832  1.00  0.00    -0.395 OA
HETATM   37  H25 UNL     1       0.178   4.069  13.359  1.00  0.00     0.210 HD
ENDBRANCH  14  36
BRANCH  21  38
HETATM   38  O4  UNL     1       3.919   5.795  10.744  1.00  0.00    -0.381 OA
HETATM   39  H36 UNL     1       4.872   5.857  10.946  1.00  0.00     0.211 HD
ENDBRANCH  21  38
BRANCH  21  40
HETATM   40  C28 UNL     1       3.673   7.923   9.587  1.00  0.00     0.184 C 
HETATM   41  O5  UNL     1       4.440   8.893   9.594  1.00  0.00    -0.292 OA
BRANCH  40  42
HETATM   42  C29 UNL     1       3.012   7.493   8.279  1.00  0.00     0.245 C 
BRANCH  42  43
HETATM   43  O6  UNL     1       2.723   8.613   7.450  1.00  0.00    -0.393 OA
HETATM   44  H39 UNL     1       3.314   9.334   7.748  1.00  0.00     0.209 HD
ENDBRANCH  42  43
ENDBRANCH  40  42
ENDBRANCH  21  40
TORSDOF 10
ENDMDL
MODEL 4
REMARK minimizedAffinity -6.81372452
REMARK CNNscore 0.637732208
REMARK CNNaffinity 7.192801
REMARK  10 active torsions:
REMARK  status: ('A' for Active; 'I' for Inactive)
REMARK    1  A    between atoms: N1_6  and  O1_8 
REMARK    2  A    between atoms: O1_8  and  C6_9 
REMARK    3  A    between atoms: C6_9  and  C7_10 
REMARK       I    between atoms: C7_10  and  N2_12 
REMARK    4  A    between atoms: N2_12  and  C8_13 
REMARK    5  A    between atoms: C8_13  and  C9_14 
REMARK    6  A    between atoms: C20_27  and  O3_28 
REMARK    7  A    between atoms: C27_35  and  O4_36 
REMARK    8  A    between atoms: C27_35  and  C28_37 
REMARK    9  A    between atoms: C28_37  and  C29_39 
REMARK   10  A    between atoms: C29_39  and  O6_40 
ROOT
HETATM    1  C1  UNL     1     -12.907   8.533  15.134  1.00  0.00     0.020 C 
HETATM    2  C2  UNL     1     -11.553   9.048  14.582  1.00  0.00    -0.014 C 
HETATM    3  C3  UNL     1     -11.312   8.430  13.173  1.00  0.00     0.020 C 
HETATM    4  C4  UNL     1     -11.048   6.933  13.196  1.00  0.00     0.060 C 
HETATM    5  C5  UNL     1      -9.882   6.608  14.106  1.00  0.00     0.032 C 
HETATM    6  N1  UNL     1      -9.148   5.588  13.779  1.00  0.00    -0.271 N 
ATOM      7  H1  UNL     1      -9.287   5.032  12.936  1.00  0.00     0.194 HD
HETATM    8  C14 UNL     1      -9.714   7.453  15.325  1.00  0.00     0.030 C 
HETATM    9  C15 UNL     1     -10.489   8.530  15.560  1.00  0.00    -0.069 C 
HETATM   10  C16 UNL     1     -10.341   9.257  16.880  1.00  0.00     0.035 C 
HETATM   11  C17 UNL     1     -10.779  10.720  16.835  1.00  0.00     0.010 C 
HETATM   12  C18 UNL     1     -10.538  11.314  15.445  1.00  0.00    -0.002 C 
HETATM   13  C19 UNL     1     -11.484  10.640  14.414  1.00  0.00     0.031 C 
HETATM   14  C20 UNL     1     -12.867  11.330  14.336  1.00  0.00     0.124 C 
HETATM   15  C21 UNL     1     -12.768  12.849  14.184  1.00  0.00     0.045 C 
HETATM   16  C22 UNL     1     -11.944  13.540  15.299  1.00  0.00     0.001 C 
HETATM   17  C23 UNL     1     -12.758  13.518  16.604  1.00  0.00     0.019 C 
HETATM   18  C24 UNL     1     -10.567  12.857  15.440  1.00  0.00     0.002 C 
HETATM   19  C25 UNL     1      -9.745  13.439  14.268  1.00  0.00     0.009 C 
HETATM   20  C26 UNL     1     -10.378  14.783  13.898  1.00  0.00     0.047 C 
HETATM   21  C27 UNL     1     -11.545  14.995  14.881  1.00  0.00     0.128 C 
ENDROOT
BRANCH   6  22
HETATM   22  O1  UNL     1      -8.139   5.342  14.725  1.00  0.00    -0.271 OA
BRANCH  22  23
HETATM   23  C6  UNL     1      -7.373   4.230  14.294  1.00  0.00     0.303 C 
BRANCH  23  24
HETATM   24  C7  UNL     1      -6.446   4.600  13.135  1.00  0.00     0.244 C 
HETATM   25  O2  UNL     1      -6.734   4.460  11.951  1.00  0.00    -0.271 OA
HETATM   26  N2  UNL     1      -5.235   5.123  13.555  1.00  0.00    -0.355 N 
HETATM   27  H10 UNL     1      -4.992   5.067  14.535  1.00  0.00     0.162 HD
BRANCH  26  28
HETATM   28  C8  UNL     1      -4.190   5.471  12.620  1.00  0.00     0.161 C 
BRANCH  28  29
HETATM   29  C9  UNL     1      -3.584   4.237  12.007  1.00  0.00    -0.038 A 
HETATM   30  C10 UNL     1      -2.811   4.331  10.846  1.00  0.00     0.025 A 
HETATM   31  C11 UNL     1      -2.287   3.171  10.298  1.00  0.00     0.088 A 
HETATM   32  N3  UNL     1      -2.484   1.941  10.818  1.00  0.00    -0.375 N 
HETATM   33  C12 UNL     1      -3.241   1.871  11.933  1.00  0.00     0.088 A 
ATOM     34  H3  UNL     1      -2.081   1.108  10.389  1.00  0.00     0.164 HD
HETATM   35  C13 UNL     1      -3.807   2.972  12.556  1.00  0.00     0.025 A 
ENDBRANCH  28  29
ENDBRANCH  26  28
ENDBRANCH  23  24
ENDBRANCH  22  23
ENDBRANCH   6  22
BRANCH  14  36
HETATM   36  O3  UNL     1     -13.569  10.834  13.194  1.00  0.00    -0.395 OA
HETATM   37  H25 UNL     1     -14.458  11.232  13.201  1.00  0.00     0.210 HD
ENDBRANCH  14  36
BRANCH  21  38
HETATM   38  O4  UNL     1     -12.623  15.641  14.209  1.00  0.00    -0.381 OA
HETATM   39  H36 UNL     1     -12.254  16.333  13.628  1.00  0.00     0.211 HD
ENDBRANCH  21  38
BRANCH  21  40
HETATM   40  C28 UNL     1     -11.066  15.880  16.064  1.00  0.00     0.184 C 
HETATM   41  O5  UNL     1      -9.980  15.709  16.632  1.00  0.00    -0.292 OA
BRANCH  40  42
HETATM   42  C29 UNL     1     -11.988  17.008  16.522  1.00  0.00     0.245 C 
BRANCH  42  43
HETATM   43  O6  UNL     1     -11.466  18.282  16.163  1.00  0.00    -0.393 OA
HETATM   44  H39 UNL     1     -10.841  18.126  15.427  1.00  0.00     0.209 HD
ENDBRANCH  42  43
ENDBRANCH  40  42
ENDBRANCH  21  40
TORSDOF 10
ENDMDL
MODEL 5
REMARK minimizedAffinity -6.84527063
REMARK CNNscore 0.601114929
REMARK CNNaffinity 7.11652803
REMARK  10 active torsions:
REMARK  status: ('A' for Active; 'I' for Inactive)
REMARK    1  A    between atoms: N1_6  and  O1_8 
REMARK    2  A    between atoms: O1_8  and  C6_9 
REMARK    3  A    between atoms: C6_9  and  C7_10 
REMARK       I    between atoms: C7_10  and  N2_12 
REMARK    4  A    between atoms: N2_12  and  C8_13 
REMARK    5  A    between atoms: C8_13  and  C9_14 
REMARK    6  A    between atoms: C20_27  and  O3_28 
REMARK    7  A    between atoms: C27_35  and  O4_36 
REMARK    8  A    between atoms: C27_35  and  C28_37 
REMARK    9  A    between atoms: C28_37  and  C29_39 
REMARK   10  A    between atoms: C29_39  and  O6_40 
ROOT
HETATM    1  C1  UNL     1     -11.809   6.589  14.391  1.00  0.00     0.020 C 
HETATM    2  C2  UNL     1     -10.653   7.519  13.942  1.00  0.00    -0.014 C 
HETATM    3  C3  UNL     1     -10.439   7.354  12.407  1.00  0.00     0.020 C 
HETATM    4  C4  UNL     1      -9.874   6.001  12.008  1.00  0.00     0.060 C 
HETATM    5  C5  UNL     1      -8.578   5.723  12.741  1.00  0.00     0.032 C 
HETATM    6  N1  UNL     1      -7.690   5.013  12.114  1.00  0.00    -0.271 N 
ATOM      7  H1  UNL     1      -7.799   4.676  11.158  1.00  0.00     0.194 HD
HETATM    8  C14 UNL     1      -8.461   6.241  14.135  1.00  0.00     0.030 C 
HETATM    9  C15 UNL     1      -9.411   7.018  14.691  1.00  0.00    -0.069 C 
HETATM   10  C16 UNL     1      -9.278   7.395  16.152  1.00  0.00     0.035 C 
HETATM   11  C17 UNL     1     -10.008   8.683  16.529  1.00  0.00     0.010 C 
HETATM   12  C18 UNL     1     -10.038   9.653  15.346  1.00  0.00    -0.002 C 
HETATM   13  C19 UNL     1     -10.929   9.074  14.213  1.00  0.00     0.031 C 
HETATM   14  C20 UNL     1     -12.423   9.432  14.389  1.00  0.00     0.124 C 
HETATM   15  C21 UNL     1     -12.653  10.921  14.655  1.00  0.00     0.045 C 
HETATM   16  C22 UNL     1     -11.876  11.468  15.878  1.00  0.00     0.001 C 
HETATM   17  C23 UNL     1     -12.529  10.929  17.162  1.00  0.00     0.019 C 
HETATM   18  C24 UNL     1     -10.382  11.099  15.765  1.00  0.00     0.002 C 
HETATM   19  C25 UNL     1      -9.821  12.132  14.762  1.00  0.00     0.009 C 
HETATM   20  C26 UNL     1     -10.750  13.348  14.802  1.00  0.00     0.047 C 
HETATM   21  C27 UNL     1     -11.827  13.033  15.857  1.00  0.00     0.128 C 
ENDROOT
BRANCH   6  22
HETATM   22  O1  UNL     1      -6.559   4.765  12.910  1.00  0.00    -0.271 OA
BRANCH  22  23
HETATM   23  C6  UNL     1      -6.008   3.513  12.539  1.00  0.00     0.303 C 
BRANCH  23  24
HETATM   24  C7  UNL     1      -4.488   3.592  12.382  1.00  0.00     0.244 C 
HETATM   25  O2  UNL     1      -3.773   2.632  12.113  1.00  0.00    -0.271 OA
HETATM   26  N2  UNL     1      -3.989   4.870  12.566  1.00  0.00    -0.355 N 
HETATM   27  H10 UNL     1      -4.601   5.584  12.938  1.00  0.00     0.162 HD
BRANCH  26  28
HETATM   28  C8  UNL     1      -2.572   5.147  12.530  1.00  0.00     0.161 C 
BRANCH  28  29
HETATM   29  C9  UNL     1      -2.229   6.314  13.416  1.00  0.00    -0.038 A 
HETATM   30  C10 UNL     1      -2.480   6.257  14.790  1.00  0.00     0.025 A 
HETATM   31  C11 UNL     1      -2.171   7.359  15.571  1.00  0.00     0.088 A 
HETATM   32  N3  UNL     1      -1.642   8.500  15.081  1.00  0.00    -0.375 N 
HETATM   33  C12 UNL     1      -1.417   8.540  13.751  1.00  0.00     0.088 A 
ATOM     34  H3  UNL     1      -1.424   9.292  15.686  1.00  0.00     0.164 HD
HETATM   35  C13 UNL     1      -1.690   7.490  12.887  1.00  0.00     0.025 A 
ENDBRANCH  28  29
ENDBRANCH  26  28
ENDBRANCH  23  24
ENDBRANCH  22  23
ENDBRANCH   6  22
BRANCH  14  36
HETATM   36  O3  UNL     1     -13.124   9.103  13.188  1.00  0.00    -0.395 OA
HETATM   37  H25 UNL     1     -14.070   9.276  13.344  1.00  0.00     0.210 HD
ENDBRANCH  14  36
BRANCH  21  38
HETATM   38  O4  UNL     1     -13.079  13.571  15.437  1.00  0.00    -0.381 OA
HETATM   39  H36 UNL     1     -12.921  14.454  15.052  1.00  0.00     0.211 HD
ENDBRANCH  21  38
BRANCH  21  40
HETATM   40  C28 UNL     1     -11.419  13.667  17.215  1.00  0.00     0.184 C 
HETATM   41  O5  UNL     1     -10.270  13.598  17.668  1.00  0.00    -0.292 OA
BRANCH  40  42
HETATM   42  C29 UNL     1     -12.497  14.410  18.001  1.00  0.00     0.245 C 
BRANCH  42  43
HETATM   43  O6  UNL     1     -11.930  15.394  18.858  1.00  0.00    -0.393 OA
HETATM   44  H39 UNL     1     -11.045  15.597  18.494  1.00  0.00     0.209 HD
ENDBRANCH  42  43
ENDBRANCH  40  42
ENDBRANCH  21  40
TORSDOF 10
ENDMDL
MODEL 6
REMARK minimizedAffinity -7.48654842
REMARK CNNscore 0.565322578
REMARK CNNaffinity 6.0000515
REMARK  10 active torsions:
REMARK  status: ('A' for Active; 'I' for Inactive)
REMARK    1  A    between atoms: N1_6  and  O1_8 
REMARK    2  A    between atoms: O1_8  and  C6_9 
REMARK    3  A    between atoms: C6_9  and  C7_10 
REMARK       I    between atoms: C7_10  and  N2_12 
REMARK    4  A    between atoms: N2_12  and  C8_13 
REMARK    5  A    between atoms: C8_13  and  C9_14 
REMARK    6  A    between atoms: C20_27  and  O3_28 
REMARK    7  A    between atoms: C27_35  and  O4_36 
REMARK    8  A    between atoms: C27_35  and  C28_37 
REMARK    9  A    between atoms: C28_37  and  C29_39 
REMARK   10  A    between atoms: C29_39  and  O6_40 
ROOT
HETATM    1  C1  UNL     1     -12.302  16.354   1.541  1.00  0.00     0.020 C 
HETATM    2  C2  UNL     1     -11.538  15.005   1.519  1.00  0.00    -0.014 C 
HETATM    3  C3  UNL     1     -10.994  14.708   2.948  1.00  0.00     0.020 C 
HETATM    4  C4  UNL     1      -9.882  15.647   3.388  1.00  0.00     0.060 C 
HETATM    5  C5  UNL     1      -8.743  15.633   2.391  1.00  0.00     0.032 C 
HETATM    6  N1  UNL     1      -7.547  15.821   2.862  1.00  0.00    -0.271 N 
ATOM      7  H1  UNL     1      -7.336  15.932   3.854  1.00  0.00     0.194 HD
HETATM    8  C14 UNL     1      -9.099  15.461   0.952  1.00  0.00     0.030 C 
HETATM    9  C15 UNL     1     -10.363  15.215   0.554  1.00  0.00    -0.069 C 
HETATM   10  C16 UNL     1     -10.664  15.183  -0.929  1.00  0.00     0.035 C 
HETATM   11  C17 UNL     1     -11.895  14.355  -1.295  1.00  0.00     0.010 C 
HETATM   12  C18 UNL     1     -12.080  13.197  -0.311  1.00  0.00    -0.002 C 
HETATM   13  C19 UNL     1     -12.445  13.754   1.093  1.00  0.00     0.031 C 
HETATM   14  C20 UNL     1     -13.965  13.984   1.265  1.00  0.00     0.124 C 
HETATM   15  C21 UNL     1     -14.802  12.775   0.843  1.00  0.00     0.045 C 
HETATM   16  C22 UNL     1     -14.545  12.310  -0.612  1.00  0.00     0.001 C 
HETATM   17  C23 UNL     1     -15.163  13.334  -1.578  1.00  0.00     0.019 C 
HETATM   18  C24 UNL     1     -13.032  12.105  -0.842  1.00  0.00     0.002 C 
HETATM   19  C25 UNL     1     -12.743  10.732  -0.195  1.00  0.00     0.009 C 
HETATM   20  C26 UNL     1     -14.062   9.956  -0.176  1.00  0.00     0.047 C 
HETATM   21  C27 UNL     1     -15.107  10.867  -0.847  1.00  0.00     0.128 C 
ENDROOT
BRANCH   6  22
HETATM   22  O1  UNL     1      -6.580  15.852   1.844  1.00  0.00    -0.271 OA
BRANCH  22  23
HETATM   23  C6  UNL     1      -5.348  16.276   2.401  1.00  0.00     0.303 C 
BRANCH  23  24
HETATM   24  C7  UNL     1      -4.178  15.436   1.884  1.00  0.00     0.244 C 
HETATM   25  O2  UNL     1      -4.044  15.088   0.715  1.00  0.00    -0.271 OA
HETATM   26  N2  UNL     1      -3.268  15.108   2.873  1.00  0.00    -0.355 N 
HETATM   27  H10 UNL     1      -3.510  15.285   3.838  1.00  0.00     0.162 HD
BRANCH  26  28
HETATM   28  C8  UNL     1      -2.127  14.261   2.608  1.00  0.00     0.161 C 
BRANCH  28  29
HETATM   29  C9  UNL     1      -1.102  14.382   3.702  1.00  0.00    -0.038 A 
HETATM   30  C10 UNL     1      -1.427  15.003   4.912  1.00  0.00     0.025 A 
HETATM   31  C11 UNL     1      -0.450  15.115   5.888  1.00  0.00     0.088 A 
HETATM   32  N3  UNL     1       0.813  14.662   5.740  1.00  0.00    -0.375 N 
HETATM   33  C12 UNL     1       1.110  14.075   4.562  1.00  0.00     0.088 A 
ATOM     34  H3  UNL     1       1.507  14.759   6.481  1.00  0.00     0.164 HD
HETATM   35  C13 UNL     1       0.204  13.913   3.526  1.00  0.00     0.025 A 
ENDBRANCH  28  29
ENDBRANCH  26  28
ENDBRANCH  23  24
ENDBRANCH  22  23
ENDBRANCH   6  22
BRANCH  14  36
HETATM   36  O3  UNL     1     -14.243  14.231   2.645  1.00  0.00    -0.395 OA
HETATM   37  H25 UNL     1     -15.193  14.436   2.720  1.00  0.00     0.210 HD
ENDBRANCH  14  36
BRANCH  21  38
HETATM   38  O4  UNL     1     -16.367  10.705  -0.199  1.00  0.00    -0.381 OA
HETATM   39  H36 UNL     1     -16.497   9.757  -0.011  1.00  0.00     0.211 HD
ENDBRANCH  21  38
BRANCH  21  40
HETATM   40  C28 UNL     1     -15.241  10.481  -2.345  1.00  0.00     0.184 C 
HETATM   41  O5  UNL     1     -15.825  11.192  -3.171  1.00  0.00    -0.292 OA
BRANCH  40  42
HETATM   42  C29 UNL     1     -14.606   9.167  -2.796  1.00  0.00     0.245 C 
BRANCH  42  43
HETATM   43  O6  UNL     1     -13.307   9.376  -3.338  1.00  0.00    -0.393 OA
HETATM   44  H39 UNL     1     -12.997  10.234  -2.983  1.00  0.00     0.209 HD
ENDBRANCH  42  43
ENDBRANCH  40  42
ENDBRANCH  21  40
TORSDOF 10
ENDMDL
MODEL 7
REMARK minimizedAffinity -7.14003897
REMARK CNNscore 0.559001327
REMARK CNNaffinity 7.03557634
REMARK  10 active torsions:
REMARK  status: ('A' for Active; 'I' for Inactive)
REMARK    1  A    between atoms: N1_6  and  O1_8 
REMARK    2  A    between atoms: O1_8  and  C6_9 
REMARK    3  A    between atoms: C6_9  and  C7_10 
REMARK       I    between atoms: C7_10  and  N2_12 
REMARK    4  A    between atoms: N2_12  and  C8_13 
REMARK    5  A    between atoms: C8_13  and  C9_14 
REMARK    6  A    between atoms: C20_27  and  O3_28 
REMARK    7  A    between atoms: C27_35  and  O4_36 
REMARK    8  A    between atoms: C27_35  and  C28_37 
REMARK    9  A    between atoms: C28_37  and  C29_39 
REMARK   10  A    between atoms: C29_39  and  O6_40 
ROOT
HETATM    1  C1  UNL     1     -12.736   8.475  14.873  1.00  0.00     0.020 C 
HETATM    2  C2  UNL     1     -11.431   9.034  14.253  1.00  0.00    -0.014 C 
HETATM    3  C3  UNL     1     -11.361   8.612  12.755  1.00  0.00     0.020 C 
HETATM    4  C4  UNL     1     -11.147   7.121  12.547  1.00  0.00     0.060 C 
HETATM    5  C5  UNL     1      -9.904   6.651  13.272  1.00  0.00     0.032 C 
HETATM    6  N1  UNL     1      -9.244   5.672  12.732  1.00  0.00    -0.271 N 
ATOM      7  H1  UNL     1      -9.491   5.240  11.842  1.00  0.00     0.194 HD
HETATM    8  C14 UNL     1      -9.580   7.316  14.568  1.00  0.00     0.030 C 
HETATM    9  C15 UNL     1     -10.288   8.365  15.029  1.00  0.00    -0.069 C 
HETATM   10  C16 UNL     1      -9.977   8.900  16.411  1.00  0.00     0.035 C 
HETATM   11  C17 UNL     1     -10.368  10.364  16.613  1.00  0.00     0.010 C 
HETATM   12  C18 UNL     1     -10.254  11.139  15.298  1.00  0.00    -0.002 C 
HETATM   13  C19 UNL     1     -11.326  10.633  14.294  1.00  0.00     0.031 C 
HETATM   14  C20 UNL     1     -12.684  11.354  14.462  1.00  0.00     0.124 C 
HETATM   15  C21 UNL     1     -12.550  12.877  14.506  1.00  0.00     0.045 C 
HETATM   16  C22 UNL     1     -11.590  13.391  15.608  1.00  0.00     0.001 C 
HETATM   17  C23 UNL     1     -12.263  13.205  16.978  1.00  0.00     0.019 C 
HETATM   18  C24 UNL     1     -10.230  12.669  15.504  1.00  0.00     0.002 C 
HETATM   19  C25 UNL     1      -9.516  13.391  14.339  1.00  0.00     0.009 C 
HETATM   20  C26 UNL     1     -10.138  14.785  14.225  1.00  0.00     0.047 C 
HETATM   21  C27 UNL     1     -11.187  14.882  15.349  1.00  0.00     0.128 C 
ENDROOT
BRANCH   6  22
HETATM   22  O1  UNL     1      -8.150   5.278  13.520  1.00  0.00    -0.271 OA
BRANCH  22  23
HETATM   23  C6  UNL     1      -7.831   3.931  13.216  1.00  0.00     0.303 C 
BRANCH  23  24
HETATM   24  C7  UNL     1      -6.356   3.772  12.843  1.00  0.00     0.244 C 
HETATM   25  O2  UNL     1      -5.907   2.833  12.194  1.00  0.00    -0.271 OA
HETATM   26  N2  UNL     1      -5.565   4.808  13.308  1.00  0.00    -0.355 N 
HETATM   27  H10 UNL     1      -5.959   5.466  13.967  1.00  0.00     0.162 HD
BRANCH  26  28
HETATM   28  C8  UNL     1      -4.132   4.813  13.125  1.00  0.00     0.161 C 
BRANCH  28  29
HETATM   29  C9  UNL     1      -3.606   6.220  13.038  1.00  0.00    -0.038 A 
HETATM   30  C10 UNL     1      -2.244   6.455  12.827  1.00  0.00     0.025 A 
HETATM   31  C11 UNL     1      -1.793   7.764  12.775  1.00  0.00     0.088 A 
HETATM   32  N3  UNL     1      -2.594   8.840  12.922  1.00  0.00    -0.375 N 
HETATM   33  C12 UNL     1      -3.904   8.592  13.135  1.00  0.00     0.088 A 
ATOM     34  H3  UNL     1      -2.229   9.791  12.875  1.00  0.00     0.164 HD
HETATM   35  C13 UNL     1      -4.452   7.321  13.202  1.00  0.00     0.025 A 
ENDBRANCH  28  29
ENDBRANCH  26  28
ENDBRANCH  23  24
ENDBRANCH  22  23
ENDBRANCH   6  22
BRANCH  14  36
HETATM   36  O3  UNL     1     -13.519  11.034  13.346  1.00  0.00    -0.395 OA
HETATM   37  H25 UNL     1     -14.388  11.445  13.504  1.00  0.00     0.210 HD
ENDBRANCH  14  36
BRANCH  21  38
HETATM   38  O4  UNL     1     -12.308  15.636  14.892  1.00  0.00    -0.381 OA
HETATM   39  H36 UNL     1     -11.978  16.393  14.373  1.00  0.00     0.211 HD
ENDBRANCH  21  38
BRANCH  21  40
HETATM   40  C28 UNL     1     -10.556  15.586  16.581  1.00  0.00     0.184 C 
HETATM   41  O5  UNL     1     -11.222  15.953  17.557  1.00  0.00    -0.292 OA
BRANCH  40  42
HETATM   42  C29 UNL     1      -9.046  15.814  16.569  1.00  0.00     0.245 C 
BRANCH  42  43
HETATM   43  O6  UNL     1      -8.387  14.987  17.521  1.00  0.00    -0.393 OA
HETATM   44  H39 UNL     1      -8.995  14.242  17.704  1.00  0.00     0.209 HD
ENDBRANCH  42  43
ENDBRANCH  40  42
ENDBRANCH  21  40
TORSDOF 10
ENDMDL
MODEL 8
REMARK minimizedAffinity -9.71853065
REMARK CNNscore 0.537281215
REMARK CNNaffinity 6.95293999
REMARK  10 active torsions:
REMARK  status: ('A' for Active; 'I' for Inactive)
REMARK    1  A    between atoms: N1_6  and  O1_8 
REMARK    2  A    between atoms: O1_8  and  C6_9 
REMARK    3  A    between atoms: C6_9  and  C7_10 
REMARK       I    between atoms: C7_10  and  N2_12 
REMARK    4  A    between atoms: N2_12  and  C8_13 
REMARK    5  A    between atoms: C8_13  and  C9_14 
REMARK    6  A    between atoms: C20_27  and  O3_28 
REMARK    7  A    between atoms: C27_35  and  O4_36 
REMARK    8  A    between atoms: C27_35  and  C28_37 
REMARK    9  A    between atoms: C28_37  and  C29_39 
REMARK   10  A    between atoms: C29_39  and  O6_40 
ROOT
HETATM    1  C1  UNL     1      -1.890   7.797  14.890  1.00  0.00     0.020 C 
HETATM    2  C2  UNL     1      -2.231   7.549  13.398  1.00  0.00    -0.014 C 
HETATM    3  C3  UNL     1      -3.342   8.549  12.960  1.00  0.00     0.020 C 
HETATM    4  C4  UNL     1      -4.695   8.282  13.598  1.00  0.00     0.060 C 
HETATM    5  C5  UNL     1      -5.145   6.861  13.326  1.00  0.00     0.032 C 
HETATM    6  N1  UNL     1      -6.423   6.662  13.216  1.00  0.00    -0.271 N 
ATOM      7  H1  UNL     1      -7.122   7.403  13.260  1.00  0.00     0.194 HD
HETATM    8  C14 UNL     1      -4.086   5.812  13.265  1.00  0.00     0.030 C 
HETATM    9  C15 UNL     1      -2.775   6.115  13.335  1.00  0.00    -0.069 C 
HETATM   10  C16 UNL     1      -1.770   4.984  13.395  1.00  0.00     0.035 C 
HETATM   11  C17 UNL     1      -0.378   5.363  12.892  1.00  0.00     0.010 C 
HETATM   12  C18 UNL     1      -0.471   6.430  11.798  1.00  0.00    -0.002 C 
HETATM   13  C19 UNL     1      -0.990   7.762  12.406  1.00  0.00     0.031 C 
HETATM   14  C20 UNL     1       0.148   8.632  12.990  1.00  0.00     0.124 C 
HETATM   15  C21 UNL     1       1.320   8.810  12.024  1.00  0.00     0.045 C 
HETATM   16  C22 UNL     1       1.935   7.476  11.530  1.00  0.00     0.001 C 
HETATM   17  C23 UNL     1       2.719   6.834  12.686  1.00  0.00     0.019 C 
HETATM   18  C24 UNL     1       0.827   6.557  10.973  1.00  0.00     0.002 C 
HETATM   19  C25 UNL     1       0.553   7.123   9.561  1.00  0.00     0.009 C 
HETATM   20  C26 UNL     1       1.814   7.871   9.124  1.00  0.00     0.047 C 
HETATM   21  C27 UNL     1       2.832   7.706  10.268  1.00  0.00     0.128 C 
ENDROOT
BRANCH   6  22
HETATM   22  O1  UNL     1      -6.728   5.303  13.029  1.00  0.00    -0.271 OA
BRANCH  22  23
HETATM   23  C6  UNL     1      -7.262   4.787  14.236  1.00  0.00     0.303 C 
BRANCH  23  24
HETATM   24  C7  UNL     1      -7.844   5.896  15.114  1.00  0.00     0.244 C 
HETATM   25  O2  UNL     1      -7.235   6.442  16.028  1.00  0.00    -0.271 OA
HETATM   26  N2  UNL     1      -9.141   6.236  14.770  1.00  0.00    -0.355 N 
HETATM   27  H10 UNL     1      -9.643   5.649  14.119  1.00  0.00     0.162 HD
BRANCH  26  28
HETATM   28  C8  UNL     1      -9.897   7.213  15.520  1.00  0.00     0.161 C 
BRANCH  28  29
HETATM   29  C9  UNL     1     -10.592   8.178  14.598  1.00  0.00    -0.038 A 
HETATM   30  C10 UNL     1     -11.129   7.736  13.385  1.00  0.00     0.025 A 
HETATM   31  C11 UNL     1     -11.743   8.658  12.553  1.00  0.00     0.088 A 
HETATM   32  N3  UNL     1     -11.852   9.973  12.840  1.00  0.00    -0.375 N 
HETATM   33  C12 UNL     1     -11.318  10.381  14.011  1.00  0.00     0.088 A 
ATOM     34  H3  UNL     1     -12.313  10.624  12.205  1.00  0.00     0.164 HD
HETATM   35  C13 UNL     1     -10.686   9.537  14.911  1.00  0.00     0.025 A 
ENDBRANCH  28  29
ENDBRANCH  26  28
ENDBRANCH  23  24
ENDBRANCH  22  23
ENDBRANCH   6  22
BRANCH  14  36
HETATM   36  O3  UNL     1      -0.366   9.935  13.278  1.00  0.00    -0.395 OA
HETATM   37  H25 UNL     1       0.348  10.444  13.703  1.00  0.00     0.210 HD
ENDBRANCH  14  36
BRANCH  21  38
HETATM   38  O4  UNL     1       3.596   8.902  10.403  1.00  0.00    -0.381 OA
HETATM   39  H36 UNL     1       3.813   9.232   9.510  1.00  0.00     0.211 HD
ENDBRANCH  21  38
BRANCH  21  40
HETATM   40  C28 UNL     1       3.780   6.518   9.946  1.00  0.00     0.184 C 
HETATM   41  O5  UNL     1       3.545   5.698   9.050  1.00  0.00    -0.292 OA
BRANCH  40  42
HETATM   42  C29 UNL     1       5.053   6.384  10.778  1.00  0.00     0.245 C 
BRANCH  42  43
HETATM   43  O6  UNL     1       5.736   5.170  10.490  1.00  0.00    -0.393 OA
HETATM   44  H39 UNL     1       5.427   4.884   9.607  1.00  0.00     0.209 HD
ENDBRANCH  42  43
ENDBRANCH  40  42
ENDBRANCH  21  40
TORSDOF 10
ENDMDL
MODEL 9
REMARK minimizedAffinity -10.6201744
REMARK CNNscore 0.461472452
REMARK CNNaffinity 6.98561621
REMARK  10 active torsions:
REMARK  status: ('A' for Active; 'I' for Inactive)
REMARK    1  A    between atoms: N1_6  and  O1_8 
REMARK    2  A    between atoms: O1_8  and  C6_9 
REMARK    3  A    between atoms: C6_9  and  C7_10 
REMARK       I    between atoms: C7_10  and  N2_12 
REMARK    4  A    between atoms: N2_12  and  C8_13 
REMARK    5  A    between atoms: C8_13  and  C9_14 
REMARK    6  A    between atoms: C20_27  and  O3_28 
REMARK    7  A    between atoms: C27_35  and  O4_36 
REMARK    8  A    between atoms: C27_35  and  C28_37 
REMARK    9  A    between atoms: C28_37  and  C29_39 
REMARK   10  A    between atoms: C29_39  and  O6_40 
ROOT
HETATM    1  C1  UNL     1      -0.546   7.995  14.831  1.00  0.00     0.020 C 
HETATM    2  C2  UNL     1      -1.286   8.321  13.508  1.00  0.00    -0.014 C 
HETATM    3  C3  UNL     1      -1.926   9.737  13.623  1.00  0.00     0.020 C 
HETATM    4  C4  UNL     1      -3.081   9.810  14.609  1.00  0.00     0.060 C 
HETATM    5  C5  UNL     1      -4.146   8.790  14.264  1.00  0.00     0.032 C 
HETATM    6  N1  UNL     1      -5.374   9.108  14.540  1.00  0.00    -0.271 N 
ATOM      7  H1  UNL     1      -5.658  10.008  14.928  1.00  0.00     0.194 HD
HETATM    8  C14 UNL     1      -3.685   7.491  13.693  1.00  0.00     0.030 C 
HETATM    9  C15 UNL     1      -2.392   7.264  13.387  1.00  0.00    -0.069 C 
HETATM   10  C16 UNL     1      -1.986   5.878  12.933  1.00  0.00     0.035 C 
HETATM   11  C17 UNL     1      -0.720   5.850  12.079  1.00  0.00     0.010 C 
HETATM   12  C18 UNL     1      -0.588   7.141  11.266  1.00  0.00    -0.002 C 
HETATM   13  C19 UNL     1      -0.333   8.340  12.220  1.00  0.00     0.031 C 
HETATM   14  C20 UNL     1       1.167   8.533  12.543  1.00  0.00     0.124 C 
HETATM   15  C21 UNL     1       2.051   8.539  11.295  1.00  0.00     0.045 C 
HETATM   16  C22 UNL     1       1.904   7.271  10.416  1.00  0.00     0.001 C 
HETATM   17  C23 UNL     1       2.575   6.088  11.135  1.00  0.00     0.019 C 
HETATM   18  C24 UNL     1       0.416   7.015  10.100  1.00  0.00     0.002 C 
HETATM   19  C25 UNL     1       0.101   8.017   8.966  1.00  0.00     0.009 C 
HETATM   20  C26 UNL     1       1.427   8.347   8.277  1.00  0.00     0.047 C 
HETATM   21  C27 UNL     1       2.504   7.507   8.989  1.00  0.00     0.128 C 
ENDROOT
BRANCH   6  22
HETATM   22  O1  UNL     1      -6.267   8.066  14.238  1.00  0.00    -0.271 OA
BRANCH  22  23
HETATM   23  C6  UNL     1      -6.586   7.380  15.437  1.00  0.00     0.303 C 
BRANCH  23  24
HETATM   24  C7  UNL     1      -7.295   6.054  15.154  1.00  0.00     0.244 C 
HETATM   25  O2  UNL     1      -7.982   5.453  15.973  1.00  0.00    -0.271 OA
HETATM   26  N2  UNL     1      -7.091   5.594  13.865  1.00  0.00    -0.355 N 
HETATM   27  H10 UNL     1      -6.393   6.045  13.290  1.00  0.00     0.162 HD
BRANCH  26  28
HETATM   28  C8  UNL     1      -7.616   4.324  13.417  1.00  0.00     0.161 C 
BRANCH  28  29
HETATM   29  C9  UNL     1      -6.580   3.556  12.643  1.00  0.00    -0.038 A 
HETATM   30  C10 UNL     1      -6.874   2.289  12.131  1.00  0.00     0.025 A 
HETATM   31  C11 UNL     1      -5.887   1.603  11.443  1.00  0.00     0.088 A 
HETATM   32  N3  UNL     1      -4.642   2.084  11.237  1.00  0.00    -0.375 N 
HETATM   33  C12 UNL     1      -4.375   3.304  11.748  1.00  0.00     0.088 A 
ATOM     34  H3  UNL     1      -3.941   1.552  10.722  1.00  0.00     0.164 HD
HETATM   35  C13 UNL     1      -5.294   4.069  12.449  1.00  0.00     0.025 A 
ENDBRANCH  28  29
ENDBRANCH  26  28
ENDBRANCH  23  24
ENDBRANCH  22  23
ENDBRANCH   6  22
BRANCH  14  36
HETATM   36  O3  UNL     1       1.343   9.795  13.192  1.00  0.00    -0.395 OA
HETATM   37  H25 UNL     1       2.281   9.867  13.443  1.00  0.00     0.210 HD
ENDBRANCH  14  36
BRANCH  21  38
HETATM   38  O4  UNL     1       3.717   8.252   9.067  1.00  0.00    -0.381 OA
HETATM   39  H36 UNL     1       3.847   8.719   8.220  1.00  0.00     0.211 HD
ENDBRANCH  21  38
BRANCH  21  40
HETATM   40  C28 UNL     1       2.750   6.199   8.187  1.00  0.00     0.184 C 
HETATM   41  O5  UNL     1       2.332   6.031   7.035  1.00  0.00    -0.292 OA
BRANCH  40  42
HETATM   42  C29 UNL     1       3.552   5.092   8.868  1.00  0.00     0.245 C 
BRANCH  42  43
HETATM   43  O6  UNL     1       3.502   3.881   8.124  1.00  0.00    -0.393 OA
HETATM   44  H39 UNL     1       3.267   4.132   7.207  1.00  0.00     0.209 HD
ENDBRANCH  42  43
ENDBRANCH  40  42
ENDBRANCH  21  40
TORSDOF 10
ENDMDL
