MODEL 1
REMARK minimizedAffinity -8.75393867
REMARK  11 active torsions:
REMARK  status: ('A' for Active; 'I' for Inactive)
REMARK    1  A    between atoms: C2_2  and  O1_3 
REMARK    2  A    between atoms: C2_2  and  C3_4 
REMARK    3  A    between atoms: C4_5  and  C5_6 
REMARK    4  A    between atoms: C5_6  and  O2_7 
REMARK    5  A    between atoms: C9_11  and  O3_12 
REMARK    6  A    between atoms: O3_12  and  C10_13 
REMARK    7  A    between atoms: C11_15  and  C12_16 
REMARK    8  A    between atoms: C12_16  and  O5_17 
REMARK    9  A    between atoms: C13_18  and  O6_19 
REMARK   10  A    between atoms: C14_20  and  O7_21 
REMARK   11  A    between atoms: C15_22  and  O8_23 
ROOT
HETATM    1  C5  UNL     1      -3.418  49.619 -23.478  1.00  0.00     0.086 C 
HETATM    2  C6  UNL     1      -3.380  48.712 -24.750  1.00  0.00     0.023 C 
HETATM    3  C7  UNL     1      -4.677  48.661 -25.569  1.00  0.00     0.013 C 
HETATM    4  C8  UNL     1      -2.195  49.089 -25.673  1.00  0.00     0.039 C 
HETATM    5  C9  UNL     1      -1.728  50.546 -25.547  1.00  0.00     0.126 C 
HETATM    6  C16 UNL     1      -2.894  51.474 -25.220  1.00  0.00     0.044 C 
HETATM    7  C17 UNL     1      -3.566  51.158 -23.850  1.00  0.00    -0.010 C 
HETATM    8  C18 UNL     1      -2.887  52.058 -22.782  1.00  0.00     0.018 C 
HETATM    9  C19 UNL     1      -5.041  51.613 -23.931  1.00  0.00     0.018 C 
ENDROOT
BRANCH   5  10
HETATM   10  O3  UNL     1      -1.177  50.935 -26.813  1.00  0.00    -0.353 OA
BRANCH  10  11
HETATM   11  C10 UNL     1       0.256  50.987 -26.794  1.00  0.00     0.292 C 
HETATM   12  O4  UNL     1       0.705  51.523 -25.544  1.00  0.00    -0.348 OA
HETATM   13  C11 UNL     1       0.922  52.948 -25.521  1.00  0.00     0.179 C 
HETATM   14  C13 UNL     1      -0.029  53.693 -26.459  1.00  0.00     0.180 C 
HETATM   15  C14 UNL     1       0.239  53.258 -27.913  1.00  0.00     0.183 C 
HETATM   16  C15 UNL     1       0.709  51.798 -28.026  1.00  0.00     0.204 C 
BRANCH  13  17
HETATM   17  C12 UNL     1       0.764  53.403 -24.063  1.00  0.00     0.198 C 
BRANCH  17  18
HETATM   18  O5  UNL     1       1.384  54.680 -23.881  1.00  0.00    -0.398 OA
HETATM   19  H20 UNL     1       2.244  54.616 -24.344  1.00  0.00     0.209 HD
ENDBRANCH  17  18
ENDBRANCH  13  17
BRANCH  14  20
HETATM   20  O6  UNL     1       0.111  55.112 -26.357  1.00  0.00    -0.390 OA
HETATM   21  H22 UNL     1      -0.449  55.496 -27.058  1.00  0.00     0.210 HD
ENDBRANCH  14  20
BRANCH  15  22
HETATM   22  O7  UNL     1      -0.960  53.469 -28.680  1.00  0.00    -0.390 OA
HETATM   23  H24 UNL     1      -1.628  52.845 -28.335  1.00  0.00     0.210 HD
ENDBRANCH  15  22
BRANCH  16  24
HETATM   24  O8  UNL     1       2.137  51.747 -28.151  1.00  0.00    -0.388 OA
HETATM   25  H26 UNL     1       2.369  52.148 -29.008  1.00  0.00     0.210 HD
ENDBRANCH  16  24
ENDBRANCH  10  11
ENDBRANCH   5  10
BRANCH   1  26
HETATM   26  C4  UNL     1      -4.358  49.184 -22.364  1.00  0.00     0.010 C 
HETATM   27  C3  UNL     1      -5.221  49.933 -21.656  1.00  0.00     0.003 C 
BRANCH  27  28
HETATM   28  C2  UNL     1      -6.130  49.391 -20.594  1.00  0.00     0.136 C 
HETATM   29  C1  UNL     1      -5.350  48.901 -19.384  1.00  0.00     0.043 C 
BRANCH  28  30
HETATM   30  O1  UNL     1      -6.981  50.454 -20.184  1.00  0.00    -0.392 OA
HETATM   31  H5  UNL     1      -7.493  50.717 -20.968  1.00  0.00     0.210 HD
ENDBRANCH  28  30
ENDBRANCH  27  28
ENDBRANCH   1  26
BRANCH   1  32
HETATM   32  O2  UNL     1      -2.118  49.445 -22.872  1.00  0.00    -0.385 OA
HETATM   33  H8  UNL     1      -2.066  48.525 -22.557  1.00  0.00     0.211 HD
ENDBRANCH   1  32
TORSDOF 11
ENDMDL
MODEL 2
REMARK minimizedAffinity -8.53829193
REMARK  11 active torsions:
REMARK  status: ('A' for Active; 'I' for Inactive)
REMARK    1  A    between atoms: C2_2  and  O1_3 
REMARK    2  A    between atoms: C2_2  and  C3_4 
REMARK    3  A    between atoms: C4_5  and  C5_6 
REMARK    4  A    between atoms: C5_6  and  O2_7 
REMARK    5  A    between atoms: C9_11  and  O3_12 
REMARK    6  A    between atoms: O3_12  and  C10_13 
REMARK    7  A    between atoms: C11_15  and  C12_16 
REMARK    8  A    between atoms: C12_16  and  O5_17 
REMARK    9  A    between atoms: C13_18  and  O6_19 
REMARK   10  A    between atoms: C14_20  and  O7_21 
REMARK   11  A    between atoms: C15_22  and  O8_23 
ROOT
HETATM    1  C5  UNL     1      -3.603  49.035 -23.752  1.00  0.00     0.086 C 
HETATM    2  C6  UNL     1      -3.511  48.423 -25.187  1.00  0.00     0.023 C 
HETATM    3  C7  UNL     1      -4.796  48.493 -26.023  1.00  0.00     0.013 C 
HETATM    4  C8  UNL     1      -2.334  49.039 -25.985  1.00  0.00     0.039 C 
HETATM    5  C9  UNL     1      -1.937  50.454 -25.544  1.00  0.00     0.126 C 
HETATM    6  C16 UNL     1      -3.148  51.241 -25.049  1.00  0.00     0.044 C 
HETATM    7  C17 UNL     1      -3.817  50.611 -23.791  1.00  0.00    -0.010 C 
HETATM    8  C18 UNL     1      -3.191  51.291 -22.543  1.00  0.00     0.018 C 
HETATM    9  C19 UNL     1      -5.311  51.010 -23.802  1.00  0.00     0.018 C 
ENDROOT
BRANCH   5  10
HETATM   10  O3  UNL     1      -1.392  51.127 -26.686  1.00  0.00    -0.353 OA
BRANCH  10  11
HETATM   11  C10 UNL     1       0.042  51.100 -26.707  1.00  0.00     0.292 C 
HETATM   12  O4  UNL     1       0.554  51.653 -25.489  1.00  0.00    -0.348 OA
HETATM   13  C11 UNL     1       0.849  53.064 -25.523  1.00  0.00     0.179 C 
HETATM   14  C13 UNL     1      -0.085  53.827 -26.463  1.00  0.00     0.180 C 
HETATM   15  C14 UNL     1       0.118  53.328 -27.907  1.00  0.00     0.183 C 
HETATM   16  C15 UNL     1       0.505  51.841 -27.979  1.00  0.00     0.204 C 
BRANCH  13  17
HETATM   17  C12 UNL     1       0.757  53.578 -24.079  1.00  0.00     0.198 C 
BRANCH  17  18
HETATM   18  O5  UNL     1       1.468  54.814 -23.955  1.00  0.00    -0.398 OA
HETATM   19  H20 UNL     1       2.311  54.673 -24.433  1.00  0.00     0.209 HD
ENDBRANCH  17  18
ENDBRANCH  13  17
BRANCH  14  20
HETATM   20  O6  UNL     1       0.136  55.239 -26.417  1.00  0.00    -0.390 OA
HETATM   21  H22 UNL     1      -0.422  55.629 -27.117  1.00  0.00     0.210 HD
ENDBRANCH  14  20
BRANCH  15  22
HETATM   22  O7  UNL     1      -1.088  53.578 -28.650  1.00  0.00    -0.390 OA
HETATM   23  H24 UNL     1      -1.779  53.005 -28.265  1.00  0.00     0.210 HD
ENDBRANCH  15  22
BRANCH  16  24
HETATM   24  O8  UNL     1       1.924  51.706 -28.138  1.00  0.00    -0.388 OA
HETATM   25  H26 UNL     1       2.153  52.063 -29.015  1.00  0.00     0.210 HD
ENDBRANCH  16  24
ENDBRANCH  10  11
ENDBRANCH   5  10
BRANCH   1  26
HETATM   26  C4  UNL     1      -4.534  48.334 -22.775  1.00  0.00     0.010 C 
HETATM   27  C3  UNL     1      -5.720  47.751 -23.019  1.00  0.00     0.003 C 
BRANCH  27  28
HETATM   28  C2  UNL     1      -6.545  47.055 -21.978  1.00  0.00     0.136 C 
HETATM   29  C1  UNL     1      -5.756  45.961 -21.276  1.00  0.00     0.043 C 
BRANCH  28  30
HETATM   30  O1  UNL     1      -6.922  48.030 -21.016  1.00  0.00    -0.392 OA
HETATM   31  H5  UNL     1      -7.457  48.692 -21.488  1.00  0.00     0.210 HD
ENDBRANCH  28  30
ENDBRANCH  27  28
ENDBRANCH   1  26
BRANCH   1  32
HETATM   32  O2  UNL     1      -2.302  48.793 -23.171  1.00  0.00    -0.385 OA
HETATM   33  H8  UNL     1      -2.211  47.830 -23.058  1.00  0.00     0.211 HD
ENDBRANCH   1  32
TORSDOF 11
ENDMDL
MODEL 3
REMARK minimizedAffinity -8.36226845
REMARK  11 active torsions:
REMARK  status: ('A' for Active; 'I' for Inactive)
REMARK    1  A    between atoms: C2_2  and  O1_3 
REMARK    2  A    between atoms: C2_2  and  C3_4 
REMARK    3  A    between atoms: C4_5  and  C5_6 
REMARK    4  A    between atoms: C5_6  and  O2_7 
REMARK    5  A    between atoms: C9_11  and  O3_12 
REMARK    6  A    between atoms: O3_12  and  C10_13 
REMARK    7  A    between atoms: C11_15  and  C12_16 
REMARK    8  A    between atoms: C12_16  and  O5_17 
REMARK    9  A    between atoms: C13_18  and  O6_19 
REMARK   10  A    between atoms: C14_20  and  O7_21 
REMARK   11  A    between atoms: C15_22  and  O8_23 
ROOT
HETATM    1  C5  UNL     1       5.383  65.524 -36.814  1.00  0.00     0.086 C 
HETATM    2  C6  UNL     1       6.720  66.069 -37.412  1.00  0.00     0.023 C 
HETATM    3  C7  UNL     1       6.961  67.575 -37.237  1.00  0.00     0.013 C 
HETATM    4  C8  UNL     1       7.939  65.280 -36.873  1.00  0.00     0.039 C 
HETATM    5  C9  UNL     1       7.722  64.635 -35.497  1.00  0.00     0.126 C 
HETATM    6  C16 UNL     1       6.791  65.479 -34.631  1.00  0.00     0.044 C 
HETATM    7  C17 UNL     1       5.358  65.621 -35.227  1.00  0.00    -0.010 C 
HETATM    8  C18 UNL     1       4.486  64.493 -34.612  1.00  0.00     0.018 C 
HETATM    9  C19 UNL     1       4.766  66.956 -34.720  1.00  0.00     0.018 C 
ENDROOT
BRANCH   5  10
HETATM   10  O3  UNL     1       8.999  64.556 -34.850  1.00  0.00    -0.353 OA
BRANCH  10  11
HETATM   11  C10 UNL     1       9.816  63.500 -35.374  1.00  0.00     0.292 C 
HETATM   12  O4  UNL     1       9.023  62.321 -35.558  1.00  0.00    -0.348 OA
HETATM   13  C11 UNL     1       9.014  61.399 -34.450  1.00  0.00     0.179 C 
HETATM   14  C13 UNL     1       9.157  62.112 -33.104  1.00  0.00     0.180 C 
HETATM   15  C14 UNL     1      10.524  62.821 -33.040  1.00  0.00     0.183 C 
HETATM   16  C15 UNL     1      11.010  63.313 -34.414  1.00  0.00     0.204 C 
BRANCH  13  17
HETATM   17  C12 UNL     1       7.706  60.600 -34.541  1.00  0.00     0.198 C 
BRANCH  17  18
HETATM   18  O5  UNL     1       7.737  59.743 -35.687  1.00  0.00    -0.398 OA
HETATM   19  H20 UNL     1       8.090  60.298 -36.412  1.00  0.00     0.209 HD
ENDBRANCH  17  18
ENDBRANCH  13  17
BRANCH  14  20
HETATM   20  O6  UNL     1       9.040  61.212 -32.000  1.00  0.00    -0.390 OA
HETATM   21  H22 UNL     1       9.249  61.729 -31.199  1.00  0.00     0.210 HD
ENDBRANCH  14  20
BRANCH  15  22
HETATM   22  O7  UNL     1      10.429  63.914 -32.111  1.00  0.00    -0.390 OA
HETATM   23  H24 UNL     1       9.811  64.562 -32.503  1.00  0.00     0.210 HD
ENDBRANCH  15  22
BRANCH  16  24
HETATM   24  O8  UNL     1      11.947  62.381 -34.971  1.00  0.00    -0.388 OA
HETATM   25  H26 UNL     1      12.741  62.397 -34.408  1.00  0.00     0.210 HD
ENDBRANCH  16  24
ENDBRANCH  10  11
ENDBRANCH   5  10
BRANCH   1  26
HETATM   26  C4  UNL     1       4.099  66.023 -37.459  1.00  0.00     0.010 C 
HETATM   27  C3  UNL     1       2.986  66.483 -36.864  1.00  0.00     0.003 C 
BRANCH  27  28
HETATM   28  C2  UNL     1       1.781  66.984 -37.603  1.00  0.00     0.136 C 
HETATM   29  C1  UNL     1       1.426  66.080 -38.773  1.00  0.00     0.043 C 
BRANCH  28  30
HETATM   30  O1  UNL     1       0.695  66.986 -36.687  1.00  0.00    -0.392 OA
HETATM   31  H5  UNL     1       0.935  67.601 -35.973  1.00  0.00     0.210 HD
ENDBRANCH  28  30
ENDBRANCH  27  28
ENDBRANCH   1  26
BRANCH   1  32
HETATM   32  O2  UNL     1       5.378  64.121 -37.160  1.00  0.00    -0.385 OA
HETATM   33  H8  UNL     1       5.296  64.061 -38.128  1.00  0.00     0.211 HD
ENDBRANCH   1  32
TORSDOF 11
ENDMDL
MODEL 4
REMARK minimizedAffinity -8.27072334
REMARK  11 active torsions:
REMARK  status: ('A' for Active; 'I' for Inactive)
REMARK    1  A    between atoms: C2_2  and  O1_3 
REMARK    2  A    between atoms: C2_2  and  C3_4 
REMARK    3  A    between atoms: C4_5  and  C5_6 
REMARK    4  A    between atoms: C5_6  and  O2_7 
REMARK    5  A    between atoms: C9_11  and  O3_12 
REMARK    6  A    between atoms: O3_12  and  C10_13 
REMARK    7  A    between atoms: C11_15  and  C12_16 
REMARK    8  A    between atoms: C12_16  and  O5_17 
REMARK    9  A    between atoms: C13_18  and  O6_19 
REMARK   10  A    between atoms: C14_20  and  O7_21 
REMARK   11  A    between atoms: C15_22  and  O8_23 
ROOT
HETATM    1  C5  UNL     1      -5.125  50.072 -23.414  1.00  0.00     0.086 C 
HETATM    2  C6  UNL     1      -4.570  51.441 -22.904  1.00  0.00     0.023 C 
HETATM    3  C7  UNL     1      -3.439  51.356 -21.869  1.00  0.00     0.013 C 
HETATM    4  C8  UNL     1      -4.131  52.343 -24.084  1.00  0.00     0.039 C 
HETATM    5  C9  UNL     1      -3.721  51.580 -25.350  1.00  0.00     0.126 C 
HETATM    6  C16 UNL     1      -3.079  50.239 -25.006  1.00  0.00     0.044 C 
HETATM    7  C17 UNL     1      -4.043  49.270 -24.259  1.00  0.00    -0.010 C 
HETATM    8  C18 UNL     1      -4.723  48.375 -25.331  1.00  0.00     0.018 C 
HETATM    9  C19 UNL     1      -3.182  48.328 -23.385  1.00  0.00     0.018 C 
ENDROOT
BRANCH   5  10
HETATM   10  O3  UNL     1      -2.757  52.381 -26.047  1.00  0.00    -0.353 OA
BRANCH  10  11
HETATM   11  C10 UNL     1      -1.487  51.727 -26.172  1.00  0.00     0.292 C 
HETATM   12  O4  UNL     1      -0.633  52.114 -25.088  1.00  0.00    -0.348 OA
HETATM   13  C11 UNL     1       0.227  53.242 -25.348  1.00  0.00     0.179 C 
HETATM   14  C13 UNL     1      -0.409  54.243 -26.314  1.00  0.00     0.180 C 
HETATM   15  C14 UNL     1      -0.629  53.568 -27.683  1.00  0.00     0.183 C 
HETATM   16  C15 UNL     1      -0.924  52.063 -27.569  1.00  0.00     0.204 C 
BRANCH  13  17
HETATM   17  C12 UNL     1       0.552  53.880 -23.991  1.00  0.00     0.198 C 
BRANCH  17  18
HETATM   18  O5  UNL     1       1.561  54.883 -24.153  1.00  0.00    -0.398 OA
HETATM   19  H20 UNL     1       2.230  54.479 -24.742  1.00  0.00     0.209 HD
ENDBRANCH  17  18
ENDBRANCH  13  17
BRANCH  14  20
HETATM   20  O6  UNL     1       0.395  55.412 -26.489  1.00  0.00    -0.390 OA
HETATM   21  H22 UNL     1      -0.030  55.937 -27.193  1.00  0.00     0.210 HD
ENDBRANCH  14  20
BRANCH  15  22
HETATM   22  O7  UNL     1      -1.700  54.248 -28.360  1.00  0.00    -0.390 OA
HETATM   23  H24 UNL     1      -2.512  54.076 -27.845  1.00  0.00     0.210 HD
ENDBRANCH  15  22
BRANCH  16  24
HETATM   24  O8  UNL     1       0.268  51.304 -27.815  1.00  0.00    -0.388 OA
HETATM   25  H26 UNL     1       0.511  51.438 -28.748  1.00  0.00     0.210 HD
ENDBRANCH  16  24
ENDBRANCH  10  11
ENDBRANCH   5  10
BRANCH   1  26
HETATM   26  C4  UNL     1      -5.838  49.206 -22.387  1.00  0.00     0.010 C 
HETATM   27  C3  UNL     1      -6.840  49.543 -21.557  1.00  0.00     0.003 C 
BRANCH  27  28
HETATM   28  C2  UNL     1      -7.496  48.593 -20.599  1.00  0.00     0.136 C 
HETATM   29  C1  UNL     1      -7.817  49.266 -19.274  1.00  0.00     0.043 C 
BRANCH  28  30
HETATM   30  O1  UNL     1      -8.712  48.164 -21.196  1.00  0.00    -0.392 OA
HETATM   31  H5  UNL     1      -8.470  47.704 -22.019  1.00  0.00     0.210 HD
ENDBRANCH  28  30
ENDBRANCH  27  28
ENDBRANCH   1  26
BRANCH   1  32
HETATM   32  O2  UNL     1      -6.196  50.430 -24.315  1.00  0.00    -0.385 OA
HETATM   33  H8  UNL     1      -6.902  50.836 -23.780  1.00  0.00     0.211 HD
ENDBRANCH   1  32
TORSDOF 11
ENDMDL
MODEL 5
REMARK minimizedAffinity -7.86098051
REMARK  11 active torsions:
REMARK  status: ('A' for Active; 'I' for Inactive)
REMARK    1  A    between atoms: C2_2  and  O1_3 
REMARK    2  A    between atoms: C2_2  and  C3_4 
REMARK    3  A    between atoms: C4_5  and  C5_6 
REMARK    4  A    between atoms: C5_6  and  O2_7 
REMARK    5  A    between atoms: C9_11  and  O3_12 
REMARK    6  A    between atoms: O3_12  and  C10_13 
REMARK    7  A    between atoms: C11_15  and  C12_16 
REMARK    8  A    between atoms: C12_16  and  O5_17 
REMARK    9  A    between atoms: C13_18  and  O6_19 
REMARK   10  A    between atoms: C14_20  and  O7_21 
REMARK   11  A    between atoms: C15_22  and  O8_23 
ROOT
HETATM    1  C5  UNL     1      -2.858  50.126 -21.144  1.00  0.00     0.086 C 
HETATM    2  C6  UNL     1      -1.587  50.904 -20.674  1.00  0.00     0.023 C 
HETATM    3  C7  UNL     1      -0.415  50.035 -20.195  1.00  0.00     0.013 C 
HETATM    4  C8  UNL     1      -1.095  51.887 -21.765  1.00  0.00     0.039 C 
HETATM    5  C9  UNL     1      -1.472  51.488 -23.198  1.00  0.00     0.126 C 
HETATM    6  C16 UNL     1      -1.509  49.971 -23.360  1.00  0.00     0.044 C 
HETATM    7  C17 UNL     1      -2.585  49.285 -22.466  1.00  0.00    -0.010 C 
HETATM    8  C18 UNL     1      -3.876  49.147 -23.317  1.00  0.00     0.018 C 
HETATM    9  C19 UNL     1      -2.103  47.846 -22.168  1.00  0.00     0.018 C 
ENDROOT
BRANCH   5  10
HETATM   10  O3  UNL     1      -0.465  52.015 -24.074  1.00  0.00    -0.353 OA
BRANCH  10  11
HETATM   11  C10 UNL     1      -0.884  53.220 -24.729  1.00  0.00     0.292 C 
HETATM   12  O4  UNL     1      -2.017  52.949 -25.563  1.00  0.00    -0.348 OA
HETATM   13  C11 UNL     1      -1.714  52.629 -26.936  1.00  0.00     0.179 C 
HETATM   14  C13 UNL     1      -0.375  51.903 -27.078  1.00  0.00     0.180 C 
HETATM   15  C14 UNL     1       0.764  52.831 -26.611  1.00  0.00     0.183 C 
HETATM   16  C15 UNL     1       0.335  53.788 -25.486  1.00  0.00     0.204 C 
BRANCH  13  17
HETATM   17  C12 UNL     1      -2.883  51.788 -27.468  1.00  0.00     0.198 C 
BRANCH  17  18
HETATM   18  O5  UNL     1      -2.394  50.787 -28.368  1.00  0.00    -0.398 OA
HETATM   19  H20 UNL     1      -1.749  51.251 -28.939  1.00  0.00     0.209 HD
ENDBRANCH  17  18
ENDBRANCH  13  17
BRANCH  14  20
HETATM   20  O6  UNL     1      -0.125  51.489 -28.423  1.00  0.00    -0.390 OA
HETATM   21  H22 UNL     1       0.786  51.136 -28.439  1.00  0.00     0.210 HD
ENDBRANCH  14  20
BRANCH  15  22
HETATM   22  O7  UNL     1       1.873  52.016 -26.192  1.00  0.00    -0.390 OA
HETATM   23  H24 UNL     1       1.581  51.531 -25.396  1.00  0.00     0.210 HD
ENDBRANCH  15  22
BRANCH  16  24
HETATM   24  O8  UNL     1       0.022  55.078 -26.027  1.00  0.00    -0.388 OA
HETATM   25  H26 UNL     1       0.849  55.458 -26.372  1.00  0.00     0.210 HD
ENDBRANCH  16  24
ENDBRANCH  10  11
ENDBRANCH   5  10
BRANCH   1  26
HETATM   26  C4  UNL     1      -3.600  49.334 -20.079  1.00  0.00     0.010 C 
HETATM   27  C3  UNL     1      -3.721  49.602 -18.767  1.00  0.00     0.003 C 
BRANCH  27  28
HETATM   28  C2  UNL     1      -4.508  48.763 -17.806  1.00  0.00     0.136 C 
HETATM   29  C1  UNL     1      -4.532  47.301 -18.225  1.00  0.00     0.043 C 
BRANCH  28  30
HETATM   30  O1  UNL     1      -3.870  48.860 -16.540  1.00  0.00    -0.392 OA
HETATM   31  H5  UNL     1      -3.906  49.798 -16.282  1.00  0.00     0.210 HD
ENDBRANCH  28  30
ENDBRANCH  27  28
ENDBRANCH   1  26
BRANCH   1  32
HETATM   32  O2  UNL     1      -3.810  51.160 -21.481  1.00  0.00    -0.385 OA
HETATM   33  H8  UNL     1      -4.050  51.613 -20.654  1.00  0.00     0.211 HD
ENDBRANCH   1  32
TORSDOF 11
ENDMDL
MODEL 6
REMARK minimizedAffinity -7.6774435
REMARK  11 active torsions:
REMARK  status: ('A' for Active; 'I' for Inactive)
REMARK    1  A    between atoms: C2_2  and  O1_3 
REMARK    2  A    between atoms: C2_2  and  C3_4 
REMARK    3  A    between atoms: C4_5  and  C5_6 
REMARK    4  A    between atoms: C5_6  and  O2_7 
REMARK    5  A    between atoms: C9_11  and  O3_12 
REMARK    6  A    between atoms: O3_12  and  C10_13 
REMARK    7  A    between atoms: C11_15  and  C12_16 
REMARK    8  A    between atoms: C12_16  and  O5_17 
REMARK    9  A    between atoms: C13_18  and  O6_19 
REMARK   10  A    between atoms: C14_20  and  O7_21 
REMARK   11  A    between atoms: C15_22  and  O8_23 
ROOT
HETATM    1  C5  UNL     1      -3.196  49.990 -21.151  1.00  0.00     0.086 C 
HETATM    2  C6  UNL     1      -2.207  51.198 -21.220  1.00  0.00     0.023 C 
HETATM    3  C7  UNL     1      -0.730  50.864 -20.965  1.00  0.00     0.013 C 
HETATM    4  C8  UNL     1      -2.346  51.962 -22.560  1.00  0.00     0.039 C 
HETATM    5  C9  UNL     1      -2.867  51.112 -23.727  1.00  0.00     0.126 C 
HETATM    6  C16 UNL     1      -2.405  49.662 -23.605  1.00  0.00     0.044 C 
HETATM    7  C17 UNL     1      -2.946  48.950 -22.328  1.00  0.00    -0.010 C 
HETATM    8  C18 UNL     1      -4.261  48.226 -22.723  1.00  0.00     0.018 C 
HETATM    9  C19 UNL     1      -1.937  47.843 -21.942  1.00  0.00     0.018 C 
ENDROOT
BRANCH   5  10
HETATM   10  O3  UNL     1      -2.329  51.661 -24.937  1.00  0.00    -0.353 OA
BRANCH  10  11
HETATM   11  C10 UNL     1      -1.001  51.193 -25.210  1.00  0.00     0.292 C 
HETATM   12  O4  UNL     1      -0.074  51.821 -24.317  1.00  0.00    -0.348 OA
HETATM   13  C11 UNL     1       0.541  53.028 -24.808  1.00  0.00     0.179 C 
HETATM   14  C13 UNL     1      -0.385  53.810 -25.742  1.00  0.00     0.180 C 
HETATM   15  C14 UNL     1      -0.688  52.962 -26.993  1.00  0.00     0.183 C 
HETATM   16  C15 UNL     1      -0.712  51.452 -26.703  1.00  0.00     0.204 C 
BRANCH  13  17
HETATM   17  C12 UNL     1       0.952  53.855 -23.581  1.00  0.00     0.198 C 
BRANCH  17  18
HETATM   18  O5  UNL     1       1.765  54.961 -23.989  1.00  0.00    -0.398 OA
HETATM   19  H20 UNL     1       2.399  54.588 -24.634  1.00  0.00     0.209 HD
ENDBRANCH  17  18
ENDBRANCH  13  17
BRANCH  14  20
HETATM   20  O6  UNL     1       0.182  55.059 -26.144  1.00  0.00    -0.390 OA
HETATM   21  H22 UNL     1      -0.423  55.434 -26.813  1.00  0.00     0.210 HD
ENDBRANCH  14  20
BRANCH  15  22
HETATM   22  O7  UNL     1      -1.944  53.396 -27.544  1.00  0.00    -0.390 OA
HETATM   23  H24 UNL     1      -2.632  53.163 -26.892  1.00  0.00     0.210 HD
ENDBRANCH  15  22
BRANCH  16  24
HETATM   24  O8  UNL     1       0.540  50.857 -27.073  1.00  0.00    -0.388 OA
HETATM   25  H26 UNL     1       0.618  50.922 -28.041  1.00  0.00     0.210 HD
ENDBRANCH  16  24
ENDBRANCH  10  11
ENDBRANCH   5  10
BRANCH   1  26
HETATM   26  C4  UNL     1      -3.357  49.323 -19.794  1.00  0.00     0.010 C 
HETATM   27  C3  UNL     1      -2.492  48.528 -19.143  1.00  0.00     0.003 C 
BRANCH  27  28
HETATM   28  C2  UNL     1      -2.742  47.945 -17.784  1.00  0.00     0.136 C 
HETATM   29  C1  UNL     1      -1.776  48.500 -16.749  1.00  0.00     0.043 C 
BRANCH  28  30
HETATM   30  O1  UNL     1      -4.064  48.305 -17.408  1.00  0.00    -0.392 OA
HETATM   31  H5  UNL     1      -4.659  47.903 -18.065  1.00  0.00     0.210 HD
ENDBRANCH  28  30
ENDBRANCH  27  28
ENDBRANCH   1  26
BRANCH   1  32
HETATM   32  O2  UNL     1      -4.498  50.577 -21.366  1.00  0.00    -0.385 OA
HETATM   33  H8  UNL     1      -4.693  51.141 -20.595  1.00  0.00     0.211 HD
ENDBRANCH   1  32
TORSDOF 11
ENDMDL
MODEL 7
REMARK minimizedAffinity -7.60555887
REMARK  11 active torsions:
REMARK  status: ('A' for Active; 'I' for Inactive)
REMARK    1  A    between atoms: C2_2  and  O1_3 
REMARK    2  A    between atoms: C2_2  and  C3_4 
REMARK    3  A    between atoms: C4_5  and  C5_6 
REMARK    4  A    between atoms: C5_6  and  O2_7 
REMARK    5  A    between atoms: C9_11  and  O3_12 
REMARK    6  A    between atoms: O3_12  and  C10_13 
REMARK    7  A    between atoms: C11_15  and  C12_16 
REMARK    8  A    between atoms: C12_16  and  O5_17 
REMARK    9  A    between atoms: C13_18  and  O6_19 
REMARK   10  A    between atoms: C14_20  and  O7_21 
REMARK   11  A    between atoms: C15_22  and  O8_23 
ROOT
HETATM    1  C5  UNL     1      -3.242  49.771 -21.236  1.00  0.00     0.086 C 
HETATM    2  C6  UNL     1      -2.044  50.752 -21.023  1.00  0.00     0.023 C 
HETATM    3  C7  UNL     1      -0.776  50.132 -20.419  1.00  0.00     0.013 C 
HETATM    4  C8  UNL     1      -1.688  51.496 -22.335  1.00  0.00     0.039 C 
HETATM    5  C9  UNL     1      -2.063  50.740 -23.617  1.00  0.00     0.126 C 
HETATM    6  C16 UNL     1      -1.949  49.230 -23.424  1.00  0.00     0.044 C 
HETATM    7  C17 UNL     1      -2.922  48.674 -22.342  1.00  0.00    -0.010 C 
HETATM    8  C18 UNL     1      -4.217  48.222 -23.070  1.00  0.00     0.018 C 
HETATM    9  C19 UNL     1      -2.286  47.396 -21.748  1.00  0.00     0.018 C 
ENDROOT
BRANCH   5  10
HETATM   10  O3  UNL     1      -1.142  51.140 -24.641  1.00  0.00    -0.353 OA
BRANCH  10  11
HETATM   11  C10 UNL     1      -1.263  50.344 -25.828  1.00  0.00     0.292 C 
HETATM   12  O4  UNL     1      -0.127  50.561 -26.674  1.00  0.00    -0.348 OA
HETATM   13  C11 UNL     1      -0.284  51.589 -27.672  1.00  0.00     0.179 C 
HETATM   14  C13 UNL     1      -1.207  52.715 -27.203  1.00  0.00     0.180 C 
HETATM   15  C14 UNL     1      -2.623  52.152 -26.964  1.00  0.00     0.183 C 
HETATM   16  C15 UNL     1      -2.615  50.690 -26.486  1.00  0.00     0.204 C 
BRANCH  13  17
HETATM   17  C12 UNL     1       1.122  52.104 -28.012  1.00  0.00     0.198 C 
BRANCH  17  18
HETATM   18  O5  UNL     1       2.084  51.510 -27.133  1.00  0.00    -0.398 OA
HETATM   19  H20 UNL     1       1.683  51.564 -26.242  1.00  0.00     0.209 HD
ENDBRANCH  17  18
ENDBRANCH  13  17
BRANCH  14  20
HETATM   20  O6  UNL     1      -1.278  53.786 -28.147  1.00  0.00    -0.390 OA
HETATM   21  H22 UNL     1      -1.963  54.399 -27.818  1.00  0.00     0.210 HD
ENDBRANCH  14  20
BRANCH  15  22
HETATM   22  O7  UNL     1      -3.294  52.996 -26.011  1.00  0.00    -0.390 OA
HETATM   23  H24 UNL     1      -2.820  52.894 -25.163  1.00  0.00     0.210 HD
ENDBRANCH  15  22
BRANCH  16  24
HETATM   24  O8  UNL     1      -2.865  49.808 -27.589  1.00  0.00    -0.388 OA
HETATM   25  H26 UNL     1      -3.779  49.967 -27.887  1.00  0.00     0.210 HD
ENDBRANCH  16  24
ENDBRANCH  10  11
ENDBRANCH   5  10
BRANCH   1  26
HETATM   26  C4  UNL     1      -3.867  49.184 -19.980  1.00  0.00     0.010 C 
HETATM   27  C3  UNL     1      -5.148  49.234 -19.579  1.00  0.00     0.003 C 
BRANCH  27  28
HETATM   28  C2  UNL     1      -5.666  48.588 -18.329  1.00  0.00     0.136 C 
HETATM   29  C1  UNL     1      -5.862  47.091 -18.511  1.00  0.00     0.043 C 
BRANCH  28  30
HETATM   30  O1  UNL     1      -4.694  48.797 -17.313  1.00  0.00    -0.392 OA
HETATM   31  H5  UNL     1      -4.621  49.759 -17.193  1.00  0.00     0.210 HD
ENDBRANCH  28  30
ENDBRANCH  27  28
ENDBRANCH   1  26
BRANCH   1  32
HETATM   32  O2  UNL     1      -4.304  50.604 -21.750  1.00  0.00    -0.385 OA
HETATM   33  H8  UNL     1      -4.566  51.214 -21.037  1.00  0.00     0.211 HD
ENDBRANCH   1  32
TORSDOF 11
ENDMDL
MODEL 8
REMARK minimizedAffinity -7.56653595
REMARK  11 active torsions:
REMARK  status: ('A' for Active; 'I' for Inactive)
REMARK    1  A    between atoms: C2_2  and  O1_3 
REMARK    2  A    between atoms: C2_2  and  C3_4 
REMARK    3  A    between atoms: C4_5  and  C5_6 
REMARK    4  A    between atoms: C5_6  and  O2_7 
REMARK    5  A    between atoms: C9_11  and  O3_12 
REMARK    6  A    between atoms: O3_12  and  C10_13 
REMARK    7  A    between atoms: C11_15  and  C12_16 
REMARK    8  A    between atoms: C12_16  and  O5_17 
REMARK    9  A    between atoms: C13_18  and  O6_19 
REMARK   10  A    between atoms: C14_20  and  O7_21 
REMARK   11  A    between atoms: C15_22  and  O8_23 
ROOT
HETATM    1  C5  UNL     1       2.319  68.430 -37.636  1.00  0.00     0.086 C 
HETATM    2  C6  UNL     1       1.458  67.150 -37.388  1.00  0.00     0.023 C 
HETATM    3  C7  UNL     1       1.271  66.229 -38.602  1.00  0.00     0.013 C 
HETATM    4  C8  UNL     1       2.001  66.331 -36.190  1.00  0.00     0.039 C 
HETATM    5  C9  UNL     1       3.500  66.518 -35.919  1.00  0.00     0.126 C 
HETATM    6  C16 UNL     1       4.271  66.768 -37.213  1.00  0.00     0.044 C 
HETATM    7  C17 UNL     1       3.838  68.074 -37.944  1.00  0.00    -0.010 C 
HETATM    8  C18 UNL     1       4.785  69.208 -37.466  1.00  0.00     0.018 C 
HETATM    9  C19 UNL     1       4.112  67.883 -39.453  1.00  0.00     0.018 C 
ENDROOT
BRANCH   5  10
HETATM   10  O3  UNL     1       3.988  65.308 -35.324  1.00  0.00    -0.353 OA
BRANCH  10  11
HETATM   11  C10 UNL     1       4.872  65.555 -34.222  1.00  0.00     0.292 C 
HETATM   12  O4  UNL     1       6.213  65.212 -34.591  1.00  0.00    -0.348 OA
HETATM   13  C11 UNL     1       6.621  63.867 -34.265  1.00  0.00     0.179 C 
HETATM   14  C13 UNL     1       5.455  62.879 -34.326  1.00  0.00     0.180 C 
HETATM   15  C14 UNL     1       4.403  63.260 -33.264  1.00  0.00     0.183 C 
HETATM   16  C15 UNL     1       4.332  64.774 -33.006  1.00  0.00     0.204 C 
BRANCH  13  17
HETATM   17  C12 UNL     1       7.745  63.491 -35.241  1.00  0.00     0.198 C 
BRANCH  17  18
HETATM   18  O5  UNL     1       7.341  63.778 -36.584  1.00  0.00    -0.398 OA
HETATM   19  H20 UNL     1       6.423  63.444 -36.652  1.00  0.00     0.209 HD
ENDBRANCH  17  18
ENDBRANCH  13  17
BRANCH  14  20
HETATM   20  O6  UNL     1       5.877  61.531 -34.110  1.00  0.00    -0.390 OA
HETATM   21  H22 UNL     1       5.064  60.992 -34.059  1.00  0.00     0.210 HD
ENDBRANCH  14  20
BRANCH  15  22
HETATM   22  O7  UNL     1       3.125  62.753 -33.687  1.00  0.00    -0.390 OA
HETATM   23  H24 UNL     1       2.880  63.247 -34.493  1.00  0.00     0.210 HD
ENDBRANCH  15  22
BRANCH  16  24
HETATM   24  O8  UNL     1       5.082  65.112 -31.832  1.00  0.00    -0.388 OA
HETATM   25  H26 UNL     1       4.627  64.710 -31.070  1.00  0.00     0.210 HD
ENDBRANCH  16  24
ENDBRANCH  10  11
ENDBRANCH   5  10
BRANCH   1  26
HETATM   26  C4  UNL     1       1.743  69.457 -38.598  1.00  0.00     0.010 C 
HETATM   27  C3  UNL     1       1.012  69.250 -39.707  1.00  0.00     0.003 C 
BRANCH  27  28
HETATM   28  C2  UNL     1       0.464  70.346 -40.571  1.00  0.00     0.136 C 
HETATM   29  C1  UNL     1       1.377  70.637 -41.753  1.00  0.00     0.043 C 
BRANCH  28  30
HETATM   30  O1  UNL     1      -0.792  69.904 -41.068  1.00  0.00    -0.392 OA
HETATM   31  H5  UNL     1      -1.363  69.765 -40.292  1.00  0.00     0.210 HD
ENDBRANCH  28  30
ENDBRANCH  27  28
ENDBRANCH   1  26
BRANCH   1  32
HETATM   32  O2  UNL     1       2.289  69.135 -36.375  1.00  0.00    -0.385 OA
HETATM   33  H8  UNL     1       1.374  69.437 -36.233  1.00  0.00     0.211 HD
ENDBRANCH   1  32
TORSDOF 11
ENDMDL
MODEL 9
REMARK minimizedAffinity -7.43867302
REMARK  11 active torsions:
REMARK  status: ('A' for Active; 'I' for Inactive)
REMARK    1  A    between atoms: C2_2  and  O1_3 
REMARK    2  A    between atoms: C2_2  and  C3_4 
REMARK    3  A    between atoms: C4_5  and  C5_6 
REMARK    4  A    between atoms: C5_6  and  O2_7 
REMARK    5  A    between atoms: C9_11  and  O3_12 
REMARK    6  A    between atoms: O3_12  and  C10_13 
REMARK    7  A    between atoms: C11_15  and  C12_16 
REMARK    8  A    between atoms: C12_16  and  O5_17 
REMARK    9  A    between atoms: C13_18  and  O6_19 
REMARK   10  A    between atoms: C14_20  and  O7_21 
REMARK   11  A    between atoms: C15_22  and  O8_23 
ROOT
HETATM    1  C5  UNL     1      -2.670  50.234 -24.630  1.00  0.00     0.086 C 
HETATM    2  C6  UNL     1      -1.379  51.114 -24.596  1.00  0.00     0.023 C 
HETATM    3  C7  UNL     1      -1.532  52.541 -25.141  1.00  0.00     0.013 C 
HETATM    4  C8  UNL     1      -0.768  51.161 -23.173  1.00  0.00     0.039 C 
HETATM    5  C9  UNL     1      -1.779  50.937 -22.040  1.00  0.00     0.126 C 
HETATM    6  C16 UNL     1      -3.154  51.489 -22.406  1.00  0.00     0.044 C 
HETATM    7  C17 UNL     1      -3.789  50.784 -23.642  1.00  0.00    -0.010 C 
HETATM    8  C18 UNL     1      -4.680  49.629 -23.110  1.00  0.00     0.018 C 
HETATM    9  C19 UNL     1      -4.742  51.793 -24.323  1.00  0.00     0.018 C 
ENDROOT
BRANCH   5  10
HETATM   10  O3  UNL     1      -1.298  51.641 -20.886  1.00  0.00    -0.353 OA
BRANCH  10  11
HETATM   11  C10 UNL     1      -0.385  50.857 -20.106  1.00  0.00     0.292 C 
HETATM   12  O4  UNL     1      -0.552  49.468 -20.417  1.00  0.00    -0.348 OA
HETATM   13  C11 UNL     1      -1.470  48.748 -19.571  1.00  0.00     0.179 C 
HETATM   14  C13 UNL     1      -2.608  49.636 -19.066  1.00  0.00     0.180 C 
HETATM   15  C14 UNL     1      -2.030  50.760 -18.184  1.00  0.00     0.183 C 
HETATM   16  C15 UNL     1      -0.624  51.203 -18.621  1.00  0.00     0.204 C 
BRANCH  13  17
HETATM   17  C12 UNL     1      -1.990  47.555 -20.386  1.00  0.00     0.198 C 
BRANCH  17  18
HETATM   18  O5  UNL     1      -0.979  47.108 -21.295  1.00  0.00    -0.398 OA
HETATM   19  H20 UNL     1      -0.614  47.924 -21.693  1.00  0.00     0.209 HD
ENDBRANCH  17  18
ENDBRANCH  13  17
BRANCH  14  20
HETATM   20  O6  UNL     1      -3.578  48.900 -18.316  1.00  0.00    -0.390 OA
HETATM   21  H22 UNL     1      -4.200  49.556 -17.949  1.00  0.00     0.210 HD
ENDBRANCH  14  20
BRANCH  15  22
HETATM   22  O7  UNL     1      -2.944  51.871 -18.204  1.00  0.00    -0.390 OA
HETATM   23  H24 UNL     1      -2.941  52.221 -19.116  1.00  0.00     0.210 HD
ENDBRANCH  15  22
BRANCH  16  24
HETATM   24  O8  UNL     1       0.371  50.571 -17.803  1.00  0.00    -0.388 OA
HETATM   25  H26 UNL     1       0.270  50.922 -16.900  1.00  0.00     0.210 HD
ENDBRANCH  16  24
ENDBRANCH  10  11
ENDBRANCH   5  10
BRANCH   1  26
HETATM   26  C4  UNL     1      -3.214  49.882 -26.006  1.00  0.00     0.010 C 
HETATM   27  C3  UNL     1      -3.441  48.666 -26.531  1.00  0.00     0.003 C 
BRANCH  27  28
HETATM   28  C2  UNL     1      -4.013  48.433 -27.897  1.00  0.00     0.136 C 
HETATM   29  C1  UNL     1      -5.457  47.959 -27.827  1.00  0.00     0.043 C 
BRANCH  28  30
HETATM   30  O1  UNL     1      -3.977  49.674 -28.587  1.00  0.00    -0.392 OA
HETATM   31  H5  UNL     1      -3.041  49.929 -28.650  1.00  0.00     0.210 HD
ENDBRANCH  28  30
ENDBRANCH  27  28
ENDBRANCH   1  26
BRANCH   1  32
HETATM   32  O2  UNL     1      -2.244  48.949 -24.126  1.00  0.00    -0.385 OA
HETATM   33  H8  UNL     1      -1.631  48.570 -24.780  1.00  0.00     0.211 HD
ENDBRANCH   1  32
TORSDOF 11
ENDMDL
