MODEL 1
REMARK minimizedAffinity -8.58700371
REMARK  14 active torsions:
REMARK  status: ('A' for Active; 'I' for Inactive)
REMARK    1  A    between atoms: C2_2  and  C30_34 
REMARK    2  A    between atoms: C3_3  and  C4_4 
REMARK    3  A    between atoms: C4_4  and  C5_5 
REMARK    4  A    between atoms: C5_5  and  C6_6 
REMARK    5  A    between atoms: C6_6  and  C8_8 
REMARK    6  A    between atoms: C16_16  and  C17_17 
REMARK    7  A    between atoms: C17_17  and  O1_19 
REMARK    8  A    between atoms: C17_17  and  C19_20 
REMARK    9  A    between atoms: C19_20  and  O2_21 
REMARK   10  A    between atoms: C20_22  and  C21_23 
REMARK   11  A    between atoms: C21_23  and  C22_24 
REMARK   12  A    between atoms: C22_24  and  C23_25 
REMARK   13  A    between atoms: C23_25  and  O4_27 
REMARK   14  A    between atoms: C30_34  and  O5_35 
ROOT
HETATM    1  C8  UNL     1      -2.969   7.232  14.099  1.00  0.00    -0.002 C 
HETATM    2  C9  UNL     1      -3.640   8.361  13.309  1.00  0.00     0.006 C 
HETATM    3  C10 UNL     1      -2.550   8.772  12.337  1.00  0.00     0.011 C 
HETATM    4  C11 UNL     1      -1.267   8.862  13.206  1.00  0.00    -0.032 C 
HETATM    5  C12 UNL     1      -1.221  10.312  13.763  1.00  0.00     0.016 C 
HETATM    6  C13 UNL     1      -0.010   8.644  12.299  1.00  0.00     0.004 C 
HETATM    7  C14 UNL     1       1.356   8.948  13.018  1.00  0.00     0.007 C 
HETATM    8  C15 UNL     1       2.662   8.339  12.421  1.00  0.00     0.009 C 
HETATM    9  C16 UNL     1       2.481   7.045  11.566  1.00  0.00     0.031 C 
HETATM   10  C20 UNL     1       1.268   7.314  10.666  1.00  0.00    -0.025 A 
HETATM   11  C24 UNL     1      -0.022   6.632  10.355  1.00  0.00     0.021 A 
HETATM   12  C25 UNL     1       0.065   7.245  11.716  1.00  0.00    -0.027 A 
HETATM   13  C26 UNL     1      -0.276   6.126  12.706  1.00  0.00     0.011 C 
HETATM   14  C27 UNL     1      -0.477   6.571  14.147  1.00  0.00     0.011 C 
HETATM   15  C28 UNL     1      -1.484   7.741  14.331  1.00  0.00    -0.032 C 
HETATM   16  C29 UNL     1      -1.249   8.286  15.751  1.00  0.00     0.016 C 
ENDROOT
BRANCH   1  17
HETATM   17  C6  UNL     1      -3.885   6.685  15.238  1.00  0.00    -0.014 C 
HETATM   18  C7  UNL     1      -3.330   5.509  16.050  1.00  0.00     0.010 C 
BRANCH  17  19
HETATM   19  C5  UNL     1      -5.335   6.369  14.808  1.00  0.00     0.008 C 
BRANCH  19  20
HETATM   20  C4  UNL     1      -5.444   5.724  13.421  1.00  0.00     0.028 C 
BRANCH  20  21
HETATM   21  C3  UNL     1      -6.442   4.599  13.429  1.00  0.00    -0.022 C 
HETATM   22  C2  UNL     1      -6.456   3.489  12.662  1.00  0.00    -0.064 C 
HETATM   23  C1  UNL     1      -5.455   3.166  11.584  1.00  0.00     0.045 C 
BRANCH  22  24
HETATM   24  C30 UNL     1      -7.552   2.464  12.816  1.00  0.00     0.197 C 
BRANCH  24  25
HETATM   25  O5  UNL     1      -8.791   3.137  12.982  1.00  0.00    -0.397 OA
HETATM   26  H50 UNL     1      -8.875   3.743  12.225  1.00  0.00     0.209 HD
ENDBRANCH  24  25
ENDBRANCH  22  24
ENDBRANCH  20  21
ENDBRANCH  19  20
ENDBRANCH  17  19
ENDBRANCH   1  17
BRANCH  10  27
HETATM   27  C21 UNL     1       1.464   8.463   9.635  1.00  0.00     0.021 C 
BRANCH  27  28
HETATM   28  C22 UNL     1       0.847   8.165   8.263  1.00  0.00     0.111 C 
BRANCH  28  29
HETATM   29  C23 UNL     1       1.908   7.816   7.257  1.00  0.00     0.139 C 
HETATM   30  O3  UNL     1       1.920   6.878   6.477  1.00  0.00    -0.650 OA
BRANCH  29  31
HETATM   31  O4  UNL     1       2.949   8.671   7.309  1.00  0.00    -0.776 OA
HETATM   32  H38 UNL     1       3.569   8.338   6.628  1.00  0.00     0.167 HD
ENDBRANCH  29  31
ENDBRANCH  28  29
ENDBRANCH  27  28
ENDBRANCH  10  27
BRANCH   9  33
HETATM   33  C17 UNL     1       3.777   6.547  10.859  1.00  0.00     0.080 C 
HETATM   34  C18 UNL     1       4.484   7.723  10.162  1.00  0.00     0.048 C 
BRANCH  33  35
HETATM   35  O1  UNL     1       4.679   5.961  11.806  1.00  0.00    -0.388 OA
HETATM   36  H30 UNL     1       5.505   5.734  11.344  1.00  0.00     0.210 HD
ENDBRANCH  33  35
BRANCH  33  37
HETATM   37  C19 UNL     1       3.460   5.454   9.802  1.00  0.00     0.201 C 
BRANCH  37  38
HETATM   38  O2  UNL     1       2.775   4.329  10.336  1.00  0.00    -0.398 OA
HETATM   39  H33 UNL     1       1.855   4.590  10.509  1.00  0.00     0.209 HD
ENDBRANCH  37  38
ENDBRANCH  33  37
ENDBRANCH   9  33
TORSDOF 14
ENDMDL
MODEL 2
REMARK minimizedAffinity -8.44459629
REMARK  14 active torsions:
REMARK  status: ('A' for Active; 'I' for Inactive)
REMARK    1  A    between atoms: C2_2  and  C30_34 
REMARK    2  A    between atoms: C3_3  and  C4_4 
REMARK    3  A    between atoms: C4_4  and  C5_5 
REMARK    4  A    between atoms: C5_5  and  C6_6 
REMARK    5  A    between atoms: C6_6  and  C8_8 
REMARK    6  A    between atoms: C16_16  and  C17_17 
REMARK    7  A    between atoms: C17_17  and  O1_19 
REMARK    8  A    between atoms: C17_17  and  C19_20 
REMARK    9  A    between atoms: C19_20  and  O2_21 
REMARK   10  A    between atoms: C20_22  and  C21_23 
REMARK   11  A    between atoms: C21_23  and  C22_24 
REMARK   12  A    between atoms: C22_24  and  C23_25 
REMARK   13  A    between atoms: C23_25  and  O4_27 
REMARK   14  A    between atoms: C30_34  and  O5_35 
ROOT
HETATM    1  C8  UNL     1      -2.594   8.483  14.080  1.00  0.00    -0.002 C 
HETATM    2  C9  UNL     1      -2.035   8.247  15.486  1.00  0.00     0.006 C 
HETATM    3  C10 UNL     1      -0.601   7.839  15.204  1.00  0.00     0.011 C 
HETATM    4  C11 UNL     1      -0.710   6.810  14.047  1.00  0.00    -0.032 C 
HETATM    5  C12 UNL     1      -0.900   5.420  14.719  1.00  0.00     0.016 C 
HETATM    6  C13 UNL     1       0.634   6.788  13.245  1.00  0.00     0.004 C 
HETATM    7  C14 UNL     1       0.732   5.617  12.198  1.00  0.00     0.007 C 
HETATM    8  C15 UNL     1       1.763   5.746  11.035  1.00  0.00     0.009 C 
HETATM    9  C16 UNL     1       2.171   7.201  10.645  1.00  0.00     0.031 C 
HETATM   10  C20 UNL     1       2.406   7.932  11.973  1.00  0.00    -0.025 A 
HETATM   11  C24 UNL     1       1.925   9.189  12.617  1.00  0.00     0.021 A 
HETATM   12  C25 UNL     1       0.913   8.091  12.521  1.00  0.00    -0.027 A 
HETATM   13  C26 UNL     1      -0.303   8.700  11.816  1.00  0.00     0.011 C 
HETATM   14  C27 UNL     1      -1.553   7.833  11.811  1.00  0.00     0.011 C 
HETATM   15  C28 UNL     1      -1.983   7.305  13.209  1.00  0.00    -0.032 C 
HETATM   16  C29 UNL     1      -2.987   6.168  12.945  1.00  0.00     0.016 C 
ENDROOT
BRANCH   1  17
HETATM   17  C6  UNL     1      -4.111   8.846  14.102  1.00  0.00    -0.014 C 
HETATM   18  C7  UNL     1      -4.749   9.016  15.487  1.00  0.00     0.010 C 
BRANCH  17  19
HETATM   19  C5  UNL     1      -5.009   7.933  13.236  1.00  0.00     0.008 C 
BRANCH  19  20
HETATM   20  C4  UNL     1      -6.282   7.460  13.950  1.00  0.00     0.028 C 
BRANCH  20  21
HETATM   21  C3  UNL     1      -6.603   6.036  13.587  1.00  0.00    -0.022 C 
HETATM   22  C2  UNL     1      -7.134   5.074  14.369  1.00  0.00    -0.064 C 
HETATM   23  C1  UNL     1      -7.489   5.235  15.823  1.00  0.00     0.045 C 
BRANCH  22  24
HETATM   24  C30 UNL     1      -7.386   3.691  13.820  1.00  0.00     0.197 C 
BRANCH  24  25
HETATM   25  O5  UNL     1      -8.667   3.664  13.212  1.00  0.00    -0.397 OA
HETATM   26  H50 UNL     1      -8.676   4.389  12.563  1.00  0.00     0.209 HD
ENDBRANCH  24  25
ENDBRANCH  22  24
ENDBRANCH  20  21
ENDBRANCH  19  20
ENDBRANCH  17  19
ENDBRANCH   1  17
BRANCH  10  27
HETATM   27  C21 UNL     1       3.594   7.383  12.816  1.00  0.00     0.021 C 
BRANCH  27  28
HETATM   28  C22 UNL     1       4.202   8.425  13.763  1.00  0.00     0.111 C 
BRANCH  28  29
HETATM   29  C23 UNL     1       4.080   7.990  15.198  1.00  0.00     0.139 C 
HETATM   30  O3  UNL     1       3.280   8.379  16.032  1.00  0.00    -0.650 OA
BRANCH  29  31
HETATM   31  O4  UNL     1       5.024   7.087  15.529  1.00  0.00    -0.776 OA
HETATM   32  H38 UNL     1       4.852   6.893  16.474  1.00  0.00     0.167 HD
ENDBRANCH  29  31
ENDBRANCH  28  29
ENDBRANCH  27  28
ENDBRANCH  10  27
BRANCH   9  33
HETATM   33  C17 UNL     1       3.311   7.295   9.586  1.00  0.00     0.080 C 
HETATM   34  C18 UNL     1       4.229   8.489   9.903  1.00  0.00     0.048 C 
BRANCH  33  35
HETATM   35  O1  UNL     1       4.097   6.098   9.579  1.00  0.00    -0.388 OA
HETATM   36  H30 UNL     1       4.842   6.222   8.965  1.00  0.00     0.210 HD
ENDBRANCH  33  35
BRANCH  33  37
HETATM   37  C19 UNL     1       2.739   7.468   8.153  1.00  0.00     0.201 C 
BRANCH  37  38
HETATM   38  O2  UNL     1       2.861   8.791   7.648  1.00  0.00    -0.398 OA
HETATM   39  H33 UNL     1       3.792   8.941   7.416  1.00  0.00     0.209 HD
ENDBRANCH  37  38
ENDBRANCH  33  37
ENDBRANCH   9  33
TORSDOF 14
ENDMDL
MODEL 3
REMARK minimizedAffinity -8.3853035
REMARK  14 active torsions:
REMARK  status: ('A' for Active; 'I' for Inactive)
REMARK    1  A    between atoms: C2_2  and  C30_34 
REMARK    2  A    between atoms: C3_3  and  C4_4 
REMARK    3  A    between atoms: C4_4  and  C5_5 
REMARK    4  A    between atoms: C5_5  and  C6_6 
REMARK    5  A    between atoms: C6_6  and  C8_8 
REMARK    6  A    between atoms: C16_16  and  C17_17 
REMARK    7  A    between atoms: C17_17  and  O1_19 
REMARK    8  A    between atoms: C17_17  and  C19_20 
REMARK    9  A    between atoms: C19_20  and  O2_21 
REMARK   10  A    between atoms: C20_22  and  C21_23 
REMARK   11  A    between atoms: C21_23  and  C22_24 
REMARK   12  A    between atoms: C22_24  and  C23_25 
REMARK   13  A    between atoms: C23_25  and  O4_27 
REMARK   14  A    between atoms: C30_34  and  O5_35 
ROOT
HETATM    1  C8  UNL     1      -2.004   7.244  12.465  1.00  0.00    -0.002 C 
HETATM    2  C9  UNL     1      -1.683   5.753  12.318  1.00  0.00     0.006 C 
HETATM    3  C10 UNL     1      -2.946   5.094  12.840  1.00  0.00     0.011 C 
HETATM    4  C11 UNL     1      -3.275   5.864  14.147  1.00  0.00    -0.032 C 
HETATM    5  C12 UNL     1      -2.506   5.134  15.285  1.00  0.00     0.016 C 
HETATM    6  C13 UNL     1      -4.808   5.754  14.441  1.00  0.00     0.004 C 
HETATM    7  C14 UNL     1      -5.225   6.289  15.861  1.00  0.00     0.007 C 
HETATM    8  C15 UNL     1      -6.717   6.677  16.100  1.00  0.00     0.009 C 
HETATM    9  C16 UNL     1      -7.530   7.073  14.827  1.00  0.00     0.031 C 
HETATM   10  C20 UNL     1      -7.160   6.032  13.763  1.00  0.00    -0.025 A 
HETATM   11  C24 UNL     1      -6.654   6.051  12.360  1.00  0.00     0.021 A 
HETATM   12  C25 UNL     1      -5.662   6.457  13.403  1.00  0.00    -0.027 A 
HETATM   13  C26 UNL     1      -5.137   7.831  12.972  1.00  0.00     0.011 C 
HETATM   14  C27 UNL     1      -3.942   8.346  13.761  1.00  0.00     0.011 C 
HETATM   15  C28 UNL     1      -2.752   7.351  13.861  1.00  0.00    -0.032 C 
HETATM   16  C29 UNL     1      -1.848   7.880  14.989  1.00  0.00     0.016 C 
ENDROOT
BRANCH   1  17
HETATM   17  C6  UNL     1      -0.800   8.149  12.056  1.00  0.00    -0.014 C 
HETATM   18  C7  UNL     1      -1.009   9.044  10.828  1.00  0.00     0.010 C 
BRANCH  17  19
HETATM   19  C5  UNL     1       0.551   7.410  11.925  1.00  0.00     0.008 C 
BRANCH  19  20
HETATM   20  C4  UNL     1       1.464   7.979  10.831  1.00  0.00     0.028 C 
BRANCH  20  21
HETATM   21  C3  UNL     1       1.815   6.920   9.822  1.00  0.00    -0.022 C 
HETATM   22  C2  UNL     1       2.398   7.078   8.615  1.00  0.00    -0.064 C 
HETATM   23  C1  UNL     1       2.791   8.397   8.007  1.00  0.00     0.045 C 
BRANCH  22  24
HETATM   24  C30 UNL     1       2.673   5.884   7.735  1.00  0.00     0.197 C 
BRANCH  24  25
HETATM   25  O5  UNL     1       3.407   4.923   8.478  1.00  0.00    -0.397 OA
HETATM   26  H50 UNL     1       2.891   4.750   9.285  1.00  0.00     0.209 HD
ENDBRANCH  24  25
ENDBRANCH  22  24
ENDBRANCH  20  21
ENDBRANCH  19  20
ENDBRANCH  17  19
ENDBRANCH   1  17
BRANCH  10  27
HETATM   27  C21 UNL     1      -7.600   4.576  14.096  1.00  0.00     0.021 C 
BRANCH  27  28
HETATM   28  C22 UNL     1      -8.095   3.794  12.874  1.00  0.00     0.111 C 
BRANCH  28  29
HETATM   29  C23 UNL     1      -7.199   2.623  12.580  1.00  0.00     0.139 C 
HETATM   30  O3  UNL     1      -6.026   2.643  12.248  1.00  0.00    -0.650 OA
BRANCH  29  31
HETATM   31  O4  UNL     1      -7.855   1.450  12.687  1.00  0.00    -0.776 OA
HETATM   32  H38 UNL     1      -7.182   0.775  12.464  1.00  0.00     0.167 HD
ENDBRANCH  29  31
ENDBRANCH  28  29
ENDBRANCH  27  28
ENDBRANCH  10  27
BRANCH   9  33
HETATM   33  C17 UNL     1      -9.051   7.307  15.075  1.00  0.00     0.080 C 
HETATM   34  C18 UNL     1      -9.859   6.882  13.836  1.00  0.00     0.048 C 
BRANCH  33  35
HETATM   35  O1  UNL     1      -9.504   6.551  16.204  1.00  0.00    -0.388 OA
HETATM   36  H30 UNL     1     -10.468   6.660  16.280  1.00  0.00     0.210 HD
ENDBRANCH  33  35
BRANCH  33  37
HETATM   37  C19 UNL     1      -9.350   8.800  15.382  1.00  0.00     0.201 C 
BRANCH  37  38
HETATM   38  O2  UNL     1      -8.241   9.659  15.155  1.00  0.00    -0.398 OA
HETATM   39  H33 UNL     1      -8.131   9.762  14.195  1.00  0.00     0.209 HD
ENDBRANCH  37  38
ENDBRANCH  33  37
ENDBRANCH   9  33
TORSDOF 14
ENDMDL
MODEL 4
REMARK minimizedAffinity -8.38414955
REMARK  14 active torsions:
REMARK  status: ('A' for Active; 'I' for Inactive)
REMARK    1  A    between atoms: C2_2  and  C30_34 
REMARK    2  A    between atoms: C3_3  and  C4_4 
REMARK    3  A    between atoms: C4_4  and  C5_5 
REMARK    4  A    between atoms: C5_5  and  C6_6 
REMARK    5  A    between atoms: C6_6  and  C8_8 
REMARK    6  A    between atoms: C16_16  and  C17_17 
REMARK    7  A    between atoms: C17_17  and  O1_19 
REMARK    8  A    between atoms: C17_17  and  C19_20 
REMARK    9  A    between atoms: C19_20  and  O2_21 
REMARK   10  A    between atoms: C20_22  and  C21_23 
REMARK   11  A    between atoms: C21_23  and  C22_24 
REMARK   12  A    between atoms: C22_24  and  C23_25 
REMARK   13  A    between atoms: C23_25  and  O4_27 
REMARK   14  A    between atoms: C30_34  and  O5_35 
ROOT
HETATM    1  C8  UNL     1      -2.494   8.614  13.893  1.00  0.00    -0.002 C 
HETATM    2  C9  UNL     1      -1.898   8.514  15.302  1.00  0.00     0.006 C 
HETATM    3  C10 UNL     1      -0.483   8.044  15.026  1.00  0.00     0.011 C 
HETATM    4  C11 UNL     1      -0.646   6.902  13.987  1.00  0.00    -0.032 C 
HETATM    5  C12 UNL     1      -0.846   5.596  14.807  1.00  0.00     0.016 C 
HETATM    6  C13 UNL     1       0.673   6.764  13.157  1.00  0.00     0.004 C 
HETATM    7  C14 UNL     1       0.716   5.488  12.237  1.00  0.00     0.007 C 
HETATM    8  C15 UNL     1       1.715   5.469  11.040  1.00  0.00     0.009 C 
HETATM    9  C16 UNL     1       2.142   6.865  10.487  1.00  0.00     0.031 C 
HETATM   10  C20 UNL     1       2.430   7.725  11.724  1.00  0.00    -0.025 A 
HETATM   11  C24 UNL     1       1.995   9.054  12.245  1.00  0.00     0.021 A 
HETATM   12  C25 UNL     1       0.958   7.977  12.292  1.00  0.00    -0.027 A 
HETATM   13  C26 UNL     1      -0.265   8.538  11.560  1.00  0.00     0.011 C 
HETATM   14  C27 UNL     1      -1.533   7.704  11.680  1.00  0.00     0.011 C 
HETATM   15  C28 UNL     1      -1.932   7.337  13.136  1.00  0.00    -0.032 C 
HETATM   16  C29 UNL     1      -2.968   6.203  13.021  1.00  0.00     0.016 C 
ENDROOT
BRANCH   1  17
HETATM   17  C6  UNL     1      -4.001   9.013  13.918  1.00  0.00    -0.014 C 
HETATM   18  C7  UNL     1      -4.562   9.469  15.271  1.00  0.00     0.010 C 
BRANCH  17  19
HETATM   19  C5  UNL     1      -4.958   7.972  13.295  1.00  0.00     0.008 C 
BRANCH  19  20
HETATM   20  C4  UNL     1      -5.837   7.246  14.321  1.00  0.00     0.028 C 
BRANCH  20  21
HETATM   21  C3  UNL     1      -6.991   6.555  13.647  1.00  0.00    -0.022 C 
HETATM   22  C2  UNL     1      -7.059   5.283  13.204  1.00  0.00    -0.064 C 
HETATM   23  C1  UNL     1      -5.938   4.280  13.267  1.00  0.00     0.045 C 
BRANCH  22  24
HETATM   24  C30 UNL     1      -8.315   4.767  12.547  1.00  0.00     0.197 C 
BRANCH  24  25
HETATM   25  O5  UNL     1      -8.688   3.544  13.164  1.00  0.00    -0.397 OA
HETATM   26  H50 UNL     1      -8.749   3.729  14.118  1.00  0.00     0.209 HD
ENDBRANCH  24  25
ENDBRANCH  22  24
ENDBRANCH  20  21
ENDBRANCH  19  20
ENDBRANCH  17  19
ENDBRANCH   1  17
BRANCH  10  27
HETATM   27  C21 UNL     1       3.631   7.240  12.589  1.00  0.00     0.021 C 
BRANCH  27  28
HETATM   28  C22 UNL     1       4.771   8.262  12.678  1.00  0.00     0.111 C 
BRANCH  28  29
HETATM   29  C23 UNL     1       6.111   7.592  12.547  1.00  0.00     0.139 C 
HETATM   30  O3  UNL     1       7.009   7.860  11.767  1.00  0.00    -0.650 OA
BRANCH  29  31
HETATM   31  O4  UNL     1       6.241   6.561  13.406  1.00  0.00    -0.776 OA
HETATM   32  H38 UNL     1       7.133   6.203  13.220  1.00  0.00     0.167 HD
ENDBRANCH  29  31
ENDBRANCH  28  29
ENDBRANCH  27  28
ENDBRANCH  10  27
BRANCH   9  33
HETATM   33  C17 UNL     1       3.253   6.820   9.395  1.00  0.00     0.080 C 
HETATM   34  C18 UNL     1       3.702   8.248   9.039  1.00  0.00     0.048 C 
BRANCH  33  35
HETATM   35  O1  UNL     1       4.389   6.079   9.856  1.00  0.00    -0.388 OA
HETATM   36  H30 UNL     1       5.089   6.138   9.182  1.00  0.00     0.210 HD
ENDBRANCH  33  35
BRANCH  33  37
HETATM   37  C19 UNL     1       2.748   6.116   8.105  1.00  0.00     0.201 C 
BRANCH  37  38
HETATM   38  O2  UNL     1       3.381   4.869   7.854  1.00  0.00    -0.398 OA
HETATM   39  H33 UNL     1       3.027   4.218   8.483  1.00  0.00     0.209 HD
ENDBRANCH  37  38
ENDBRANCH  33  37
ENDBRANCH   9  33
TORSDOF 14
ENDMDL
MODEL 5
REMARK minimizedAffinity -8.18972492
REMARK  14 active torsions:
REMARK  status: ('A' for Active; 'I' for Inactive)
REMARK    1  A    between atoms: C2_2  and  C30_34 
REMARK    2  A    between atoms: C3_3  and  C4_4 
REMARK    3  A    between atoms: C4_4  and  C5_5 
REMARK    4  A    between atoms: C5_5  and  C6_6 
REMARK    5  A    between atoms: C6_6  and  C8_8 
REMARK    6  A    between atoms: C16_16  and  C17_17 
REMARK    7  A    between atoms: C17_17  and  O1_19 
REMARK    8  A    between atoms: C17_17  and  C19_20 
REMARK    9  A    between atoms: C19_20  and  O2_21 
REMARK   10  A    between atoms: C20_22  and  C21_23 
REMARK   11  A    between atoms: C21_23  and  C22_24 
REMARK   12  A    between atoms: C22_24  and  C23_25 
REMARK   13  A    between atoms: C23_25  and  O4_27 
REMARK   14  A    between atoms: C30_34  and  O5_35 
ROOT
HETATM    1  C8  UNL     1      -3.740   6.881  13.031  1.00  0.00    -0.002 C 
HETATM    2  C9  UNL     1      -3.710   8.388  13.310  1.00  0.00     0.006 C 
HETATM    3  C10 UNL     1      -2.302   8.769  12.896  1.00  0.00     0.011 C 
HETATM    4  C11 UNL     1      -1.400   7.675  13.529  1.00  0.00    -0.032 C 
HETATM    5  C12 UNL     1      -1.043   8.178  14.956  1.00  0.00     0.016 C 
HETATM    6  C13 UNL     1      -0.075   7.555  12.704  1.00  0.00     0.004 C 
HETATM    7  C14 UNL     1       1.018   6.650  13.383  1.00  0.00     0.007 C 
HETATM    8  C15 UNL     1       2.159   6.068  12.493  1.00  0.00     0.009 C 
HETATM    9  C16 UNL     1       1.827   5.915  10.975  1.00  0.00     0.031 C 
HETATM   10  C20 UNL     1       1.118   7.216  10.576  1.00  0.00    -0.025 A 
HETATM   11  C24 UNL     1      -0.162   7.591   9.908  1.00  0.00     0.021 A 
HETATM   12  C25 UNL     1      -0.299   7.044  11.293  1.00  0.00    -0.027 A 
HETATM   13  C26 UNL     1      -1.287   5.877  11.190  1.00  0.00     0.011 C 
HETATM   14  C27 UNL     1      -1.762   5.308  12.518  1.00  0.00     0.011 C 
HETATM   15  C28 UNL     1      -2.320   6.363  13.514  1.00  0.00    -0.032 C 
HETATM   16  C29 UNL     1      -2.368   5.668  14.888  1.00  0.00     0.016 C 
ENDROOT
BRANCH   1  17
HETATM   17  C6  UNL     1      -5.091   6.230  13.459  1.00  0.00    -0.014 C 
HETATM   18  C7  UNL     1      -5.496   6.405  14.928  1.00  0.00     0.010 C 
BRANCH  17  19
HETATM   19  C5  UNL     1      -5.250   4.745  13.061  1.00  0.00     0.008 C 
BRANCH  19  20
HETATM   20  C4  UNL     1      -6.662   4.378  12.588  1.00  0.00     0.028 C 
BRANCH  20  21
HETATM   21  C3  UNL     1      -7.697   5.217  13.286  1.00  0.00    -0.022 C 
HETATM   22  C2  UNL     1      -8.741   5.876  12.744  1.00  0.00    -0.064 C 
HETATM   23  C1  UNL     1      -9.066   5.931  11.275  1.00  0.00     0.045 C 
BRANCH  22  24
HETATM   24  C30 UNL     1      -9.680   6.675  13.615  1.00  0.00     0.197 C 
BRANCH  24  25
HETATM   25  O5  UNL     1      -9.623   6.167  14.939  1.00  0.00    -0.397 OA
HETATM   26  H50 UNL     1      -8.684   6.181  15.196  1.00  0.00     0.209 HD
ENDBRANCH  24  25
ENDBRANCH  22  24
ENDBRANCH  20  21
ENDBRANCH  19  20
ENDBRANCH  17  19
ENDBRANCH   1  17
BRANCH  10  27
HETATM   27  C21 UNL     1       2.000   8.495  10.677  1.00  0.00     0.021 C 
BRANCH  27  28
HETATM   28  C22 UNL     1       2.093   9.062  12.099  1.00  0.00     0.111 C 
BRANCH  28  29
HETATM   29  C23 UNL     1       3.519   9.351  12.475  1.00  0.00     0.139 C 
HETATM   30  O3  UNL     1       4.446   9.633  11.735  1.00  0.00    -0.650 OA
BRANCH  29  31
HETATM   31  O4  UNL     1       3.721   9.230  13.803  1.00  0.00    -0.776 OA
HETATM   32  H38 UNL     1       4.673   9.427  13.921  1.00  0.00     0.167 HD
ENDBRANCH  29  31
ENDBRANCH  28  29
ENDBRANCH  27  28
ENDBRANCH  10  27
BRANCH   9  33
HETATM   33  C17 UNL     1       3.030   5.476  10.087  1.00  0.00     0.080 C 
HETATM   34  C18 UNL     1       4.336   6.082  10.631  1.00  0.00     0.048 C 
BRANCH  33  35
HETATM   35  O1  UNL     1       3.155   4.049  10.071  1.00  0.00    -0.388 OA
HETATM   36  H30 UNL     1       3.959   3.816   9.574  1.00  0.00     0.210 HD
ENDBRANCH  33  35
BRANCH  33  37
HETATM   37  C19 UNL     1       2.841   5.930   8.614  1.00  0.00     0.201 C 
BRANCH  37  38
HETATM   38  O2  UNL     1       3.248   4.956   7.663  1.00  0.00    -0.398 OA
HETATM   39  H33 UNL     1       2.582   4.249   7.650  1.00  0.00     0.209 HD
ENDBRANCH  37  38
ENDBRANCH  33  37
ENDBRANCH   9  33
TORSDOF 14
ENDMDL
MODEL 6
REMARK minimizedAffinity -8.16315174
REMARK  14 active torsions:
REMARK  status: ('A' for Active; 'I' for Inactive)
REMARK    1  A    between atoms: C2_2  and  C30_34 
REMARK    2  A    between atoms: C3_3  and  C4_4 
REMARK    3  A    between atoms: C4_4  and  C5_5 
REMARK    4  A    between atoms: C5_5  and  C6_6 
REMARK    5  A    between atoms: C6_6  and  C8_8 
REMARK    6  A    between atoms: C16_16  and  C17_17 
REMARK    7  A    between atoms: C17_17  and  O1_19 
REMARK    8  A    between atoms: C17_17  and  C19_20 
REMARK    9  A    between atoms: C19_20  and  O2_21 
REMARK   10  A    between atoms: C20_22  and  C21_23 
REMARK   11  A    between atoms: C21_23  and  C22_24 
REMARK   12  A    between atoms: C22_24  and  C23_25 
REMARK   13  A    between atoms: C23_25  and  O4_27 
REMARK   14  A    between atoms: C30_34  and  O5_35 
ROOT
HETATM    1  C8  UNL     1      -2.112   8.554  16.046  1.00  0.00    -0.002 C 
HETATM    2  C9  UNL     1      -3.424   7.795  15.819  1.00  0.00     0.006 C 
HETATM    3  C10 UNL     1      -3.120   6.980  14.576  1.00  0.00     0.011 C 
HETATM    4  C11 UNL     1      -2.431   7.982  13.611  1.00  0.00    -0.032 C 
HETATM    5  C12 UNL     1      -3.573   8.661  12.803  1.00  0.00     0.016 C 
HETATM    6  C13 UNL     1      -1.520   7.196  12.610  1.00  0.00     0.004 C 
HETATM    7  C14 UNL     1      -0.957   8.077  11.434  1.00  0.00     0.007 C 
HETATM    8  C15 UNL     1       0.300   7.570  10.664  1.00  0.00     0.009 C 
HETATM    9  C16 UNL     1       1.234   6.596  11.449  1.00  0.00     0.031 C 
HETATM   10  C20 UNL     1       0.297   5.600  12.145  1.00  0.00    -0.025 A 
HETATM   11  C24 UNL     1       0.086   5.100  13.535  1.00  0.00     0.021 A 
HETATM   12  C25 UNL     1      -0.349   6.510  13.288  1.00  0.00    -0.027 A 
HETATM   13  C26 UNL     1       0.360   7.361  14.346  1.00  0.00     0.011 C 
HETATM   14  C27 UNL     1      -0.109   8.806  14.440  1.00  0.00     0.011 C 
HETATM   15  C28 UNL     1      -1.647   8.981  14.589  1.00  0.00    -0.032 C 
HETATM   16  C29 UNL     1      -1.940  10.459  14.273  1.00  0.00     0.016 C 
ENDROOT
BRANCH   1  17
HETATM   17  C6  UNL     1      -2.202   9.541  17.249  1.00  0.00    -0.014 C 
HETATM   18  C7  UNL     1      -3.493  10.362  17.359  1.00  0.00     0.010 C 
BRANCH  17  19
HETATM   19  C5  UNL     1      -0.986  10.480  17.411  1.00  0.00     0.008 C 
BRANCH  19  20
HETATM   20  C4  UNL     1      -0.942  11.211  18.759  1.00  0.00     0.028 C 
BRANCH  20  21
HETATM   21  C3  UNL     1       0.089  10.601  19.668  1.00  0.00    -0.022 C 
HETATM   22  C2  UNL     1       1.076  11.221  20.347  1.00  0.00    -0.064 C 
HETATM   23  C1  UNL     1       1.370  12.696  20.296  1.00  0.00     0.045 C 
BRANCH  22  24
HETATM   24  C30 UNL     1       2.022  10.431  21.217  1.00  0.00     0.197 C 
BRANCH  24  25
HETATM   25  O5  UNL     1       2.774   9.549  20.397  1.00  0.00    -0.397 OA
HETATM   26  H50 UNL     1       3.185  10.102  19.710  1.00  0.00     0.209 HD
ENDBRANCH  24  25
ENDBRANCH  22  24
ENDBRANCH  20  21
ENDBRANCH  19  20
ENDBRANCH  17  19
ENDBRANCH   1  17
BRANCH  10  27
HETATM   27  C21 UNL     1      -0.523   4.695  11.179  1.00  0.00     0.021 C 
BRANCH  27  28
HETATM   28  C22 UNL     1      -0.659   3.248  11.667  1.00  0.00     0.111 C 
BRANCH  28  29
HETATM   29  C23 UNL     1      -1.944   2.632  11.186  1.00  0.00     0.139 C 
HETATM   30  O3  UNL     1      -2.900   2.277  11.854  1.00  0.00    -0.650 OA
BRANCH  29  31
HETATM   31  O4  UNL     1      -1.944   2.455   9.849  1.00  0.00    -0.776 OA
HETATM   32  H38 UNL     1      -2.812   2.044   9.660  1.00  0.00     0.167 HD
ENDBRANCH  29  31
ENDBRANCH  28  29
ENDBRANCH  27  28
ENDBRANCH  10  27
BRANCH   9  33
HETATM   33  C17 UNL     1       2.396   5.989  10.607  1.00  0.00     0.080 C 
HETATM   34  C18 UNL     1       3.748   6.527  11.108  1.00  0.00     0.048 C 
BRANCH  33  35
HETATM   35  O1  UNL     1       2.402   4.560  10.706  1.00  0.00    -0.388 OA
HETATM   36  H30 UNL     1       3.184   4.222  10.233  1.00  0.00     0.210 HD
ENDBRANCH  33  35
BRANCH  33  37
HETATM   37  C19 UNL     1       2.244   6.337   9.101  1.00  0.00     0.201 C 
BRANCH  37  38
HETATM   38  O2  UNL     1       2.811   5.365   8.233  1.00  0.00    -0.398 OA
HETATM   39  H33 UNL     1       2.229   4.587   8.228  1.00  0.00     0.209 HD
ENDBRANCH  37  38
ENDBRANCH  33  37
ENDBRANCH   9  33
TORSDOF 14
ENDMDL
MODEL 7
REMARK minimizedAffinity -7.85780239
REMARK  14 active torsions:
REMARK  status: ('A' for Active; 'I' for Inactive)
REMARK    1  A    between atoms: C2_2  and  C30_34 
REMARK    2  A    between atoms: C3_3  and  C4_4 
REMARK    3  A    between atoms: C4_4  and  C5_5 
REMARK    4  A    between atoms: C5_5  and  C6_6 
REMARK    5  A    between atoms: C6_6  and  C8_8 
REMARK    6  A    between atoms: C16_16  and  C17_17 
REMARK    7  A    between atoms: C17_17  and  O1_19 
REMARK    8  A    between atoms: C17_17  and  C19_20 
REMARK    9  A    between atoms: C19_20  and  O2_21 
REMARK   10  A    between atoms: C20_22  and  C21_23 
REMARK   11  A    between atoms: C21_23  and  C22_24 
REMARK   12  A    between atoms: C22_24  and  C23_25 
REMARK   13  A    between atoms: C23_25  and  O4_27 
REMARK   14  A    between atoms: C30_34  and  O5_35 
ROOT
HETATM    1  C8  UNL     1      -1.703   7.110  13.373  1.00  0.00    -0.002 C 
HETATM    2  C9  UNL     1      -2.091   8.251  12.426  1.00  0.00     0.006 C 
HETATM    3  C10 UNL     1      -0.759   8.927  12.165  1.00  0.00     0.011 C 
HETATM    4  C11 UNL     1      -0.101   9.046  13.566  1.00  0.00    -0.032 C 
HETATM    5  C12 UNL     1      -0.591  10.396  14.162  1.00  0.00     0.016 C 
HETATM    6  C13 UNL     1       1.454   9.116  13.405  1.00  0.00     0.004 C 
HETATM    7  C14 UNL     1       2.218   9.477  14.732  1.00  0.00     0.007 C 
HETATM    8  C15 UNL     1       3.733   9.124  14.837  1.00  0.00     0.009 C 
HETATM    9  C16 UNL     1       4.225   7.954  13.927  1.00  0.00     0.031 C 
HETATM   10  C20 UNL     1       3.578   8.200  12.558  1.00  0.00    -0.025 A 
HETATM   11  C24 UNL     1       2.748   7.418  11.596  1.00  0.00     0.021 A 
HETATM   12  C25 UNL     1       2.051   7.835  12.852  1.00  0.00    -0.027 A 
HETATM   13  C26 UNL     1       1.475   6.552  13.461  1.00  0.00     0.011 C 
HETATM   14  C27 UNL     1       0.522   6.757  14.629  1.00  0.00     0.011 C 
HETATM   15  C28 UNL     1      -0.636   7.757  14.354  1.00  0.00    -0.032 C 
HETATM   16  C29 UNL     1      -1.224   8.117  15.731  1.00  0.00     0.016 C 
ENDROOT
BRANCH   1  17
HETATM   17  C6  UNL     1      -2.944   6.298  13.857  1.00  0.00    -0.014 C 
HETATM   18  C7  UNL     1      -3.256   6.364  15.357  1.00  0.00     0.010 C 
BRANCH  17  19
HETATM   19  C5  UNL     1      -2.975   4.824  13.395  1.00  0.00     0.008 C 
BRANCH  19  20
HETATM   20  C4  UNL     1      -3.912   4.567  12.208  1.00  0.00     0.028 C 
BRANCH  20  21
HETATM   21  C3  UNL     1      -5.304   4.251  12.681  1.00  0.00    -0.022 C 
HETATM   22  C2  UNL     1      -6.079   3.197  12.352  1.00  0.00    -0.064 C 
HETATM   23  C1  UNL     1      -5.700   2.110  11.382  1.00  0.00     0.045 C 
BRANCH  22  24
HETATM   24  C30 UNL     1      -7.463   3.051  12.935  1.00  0.00     0.197 C 
BRANCH  24  25
HETATM   25  O5  UNL     1      -7.961   1.760  12.620  1.00  0.00    -0.397 OA
HETATM   26  H50 UNL     1      -7.294   1.126  12.938  1.00  0.00     0.209 HD
ENDBRANCH  24  25
ENDBRANCH  22  24
ENDBRANCH  20  21
ENDBRANCH  19  20
ENDBRANCH  17  19
ENDBRANCH   1  17
BRANCH  10  27
HETATM   27  C21 UNL     1       4.045   9.501  11.842  1.00  0.00     0.021 C 
BRANCH  27  28
HETATM   28  C22 UNL     1       4.916   9.240  10.608  1.00  0.00     0.111 C 
BRANCH  28  29
HETATM   29  C23 UNL     1       6.150  10.100  10.624  1.00  0.00     0.139 C 
HETATM   30  O3  UNL     1       7.238   9.856  10.130  1.00  0.00    -0.650 OA
BRANCH  29  31
HETATM   31  O4  UNL     1       5.956  11.242  11.314  1.00  0.00    -0.776 OA
HETATM   32  H38 UNL     1       6.818  11.703  11.264  1.00  0.00     0.167 HD
ENDBRANCH  29  31
ENDBRANCH  28  29
ENDBRANCH  27  28
ENDBRANCH  10  27
BRANCH   9  33
HETATM   33  C17 UNL     1       5.766   7.724  13.940  1.00  0.00     0.080 C 
HETATM   34  C18 UNL     1       6.495   9.053  14.207  1.00  0.00     0.048 C 
BRANCH  33  35
HETATM   35  O1  UNL     1       6.130   6.784  14.958  1.00  0.00    -0.388 OA
HETATM   36  H30 UNL     1       7.102   6.725  14.989  1.00  0.00     0.210 HD
ENDBRANCH  33  35
BRANCH  33  37
HETATM   37  C19 UNL     1       6.261   7.141  12.589  1.00  0.00     0.201 C 
BRANCH  37  38
HETATM   38  O2  UNL     1       6.103   5.733  12.486  1.00  0.00    -0.398 OA
HETATM   39  H33 UNL     1       5.160   5.544  12.350  1.00  0.00     0.209 HD
ENDBRANCH  37  38
ENDBRANCH  33  37
ENDBRANCH   9  33
TORSDOF 14
ENDMDL
MODEL 8
REMARK minimizedAffinity -7.68918037
REMARK  14 active torsions:
REMARK  status: ('A' for Active; 'I' for Inactive)
REMARK    1  A    between atoms: C2_2  and  C30_34 
REMARK    2  A    between atoms: C3_3  and  C4_4 
REMARK    3  A    between atoms: C4_4  and  C5_5 
REMARK    4  A    between atoms: C5_5  and  C6_6 
REMARK    5  A    between atoms: C6_6  and  C8_8 
REMARK    6  A    between atoms: C16_16  and  C17_17 
REMARK    7  A    between atoms: C17_17  and  O1_19 
REMARK    8  A    between atoms: C17_17  and  C19_20 
REMARK    9  A    between atoms: C19_20  and  O2_21 
REMARK   10  A    between atoms: C20_22  and  C21_23 
REMARK   11  A    between atoms: C21_23  and  C22_24 
REMARK   12  A    between atoms: C22_24  and  C23_25 
REMARK   13  A    between atoms: C23_25  and  O4_27 
REMARK   14  A    between atoms: C30_34  and  O5_35 
ROOT
HETATM    1  C8  UNL     1      -3.872   7.442  13.272  1.00  0.00    -0.002 C 
HETATM    2  C9  UNL     1      -3.809   8.861  13.846  1.00  0.00     0.006 C 
HETATM    3  C10 UNL     1      -2.352   9.232  13.641  1.00  0.00     0.011 C 
HETATM    4  C11 UNL     1      -1.561   7.985  14.118  1.00  0.00    -0.032 C 
HETATM    5  C12 UNL     1      -1.324   8.180  15.643  1.00  0.00     0.016 C 
HETATM    6  C13 UNL     1      -0.169   7.950  13.405  1.00  0.00     0.004 C 
HETATM    7  C14 UNL     1       0.817   6.869  13.983  1.00  0.00     0.007 C 
HETATM    8  C15 UNL     1       2.014   6.405  13.097  1.00  0.00     0.009 C 
HETATM    9  C16 UNL     1       1.824   6.570  11.556  1.00  0.00     0.031 C 
HETATM   10  C20 UNL     1       1.210   7.962  11.364  1.00  0.00    -0.025 A 
HETATM   11  C24 UNL     1       0.017   8.534  10.675  1.00  0.00     0.021 A 
HETATM   12  C25 UNL     1      -0.275   7.737  11.907  1.00  0.00    -0.027 A 
HETATM   13  C26 UNL     1      -1.295   6.673  11.487  1.00  0.00     0.011 C 
HETATM   14  C27 UNL     1      -1.918   5.885  12.630  1.00  0.00     0.011 C 
HETATM   15  C28 UNL     1      -2.527   6.757  13.764  1.00  0.00    -0.032 C 
HETATM   16  C29 UNL     1      -2.736   5.813  14.962  1.00  0.00     0.016 C 
ENDROOT
BRANCH   1  17
HETATM   17  C6  UNL     1      -5.283   6.799  13.442  1.00  0.00    -0.014 C 
HETATM   18  C7  UNL     1      -6.111   7.286  14.638  1.00  0.00     0.010 C 
BRANCH  17  19
HETATM   19  C5  UNL     1      -5.301   5.254  13.404  1.00  0.00     0.008 C 
BRANCH  19  20
HETATM   20  C4  UNL     1      -6.596   4.664  12.832  1.00  0.00     0.028 C 
BRANCH  20  21
HETATM   21  C3  UNL     1      -6.401   3.227  12.433  1.00  0.00    -0.022 C 
HETATM   22  C2  UNL     1      -5.486   2.712  11.587  1.00  0.00    -0.064 C 
HETATM   23  C1  UNL     1      -4.467   3.510  10.819  1.00  0.00     0.045 C 
BRANCH  22  24
HETATM   24  C30 UNL     1      -5.447   1.229  11.310  1.00  0.00     0.197 C 
BRANCH  24  25
HETATM   25  O5  UNL     1      -6.774   0.759  11.131  1.00  0.00    -0.397 OA
HETATM   26  H50 UNL     1      -7.168   1.314  10.435  1.00  0.00     0.209 HD
ENDBRANCH  24  25
ENDBRANCH  22  24
ENDBRANCH  20  21
ENDBRANCH  19  20
ENDBRANCH  17  19
ENDBRANCH   1  17
BRANCH  10  27
HETATM   27  C21 UNL     1       2.129   9.143  11.793  1.00  0.00     0.021 C 
BRANCH  27  28
HETATM   28  C22 UNL     1       3.056   8.800  12.966  1.00  0.00     0.111 C 
BRANCH  28  29
HETATM   29  C23 UNL     1       4.419   9.406  12.774  1.00  0.00     0.139 C 
HETATM   30  O3  UNL     1       4.697  10.577  12.579  1.00  0.00    -0.650 OA
BRANCH  29  31
HETATM   31  O4  UNL     1       5.391   8.471  12.802  1.00  0.00    -0.776 OA
HETATM   32  H38 UNL     1       6.216   8.977  12.657  1.00  0.00     0.167 HD
ENDBRANCH  29  31
ENDBRANCH  28  29
ENDBRANCH  27  28
ENDBRANCH  10  27
BRANCH   9  33
HETATM   33  C17 UNL     1       3.089   6.241  10.707  1.00  0.00     0.080 C 
HETATM   34  C18 UNL     1       3.312   7.335   9.647  1.00  0.00     0.048 C 
BRANCH  33  35
HETATM   35  O1  UNL     1       4.252   6.160  11.539  1.00  0.00    -0.388 OA
HETATM   36  H30 UNL     1       5.031   6.032  10.968  1.00  0.00     0.210 HD
ENDBRANCH  33  35
BRANCH  33  37
HETATM   37  C19 UNL     1       2.949   4.870   9.991  1.00  0.00     0.201 C 
BRANCH  37  38
HETATM   38  O2  UNL     1       3.383   4.888   8.638  1.00  0.00    -0.398 OA
HETATM   39  H33 UNL     1       4.354   4.919   8.633  1.00  0.00     0.209 HD
ENDBRANCH  37  38
ENDBRANCH  33  37
ENDBRANCH   9  33
TORSDOF 14
ENDMDL
MODEL 9
REMARK minimizedAffinity -7.61515951
REMARK  14 active torsions:
REMARK  status: ('A' for Active; 'I' for Inactive)
REMARK    1  A    between atoms: C2_2  and  C30_34 
REMARK    2  A    between atoms: C3_3  and  C4_4 
REMARK    3  A    between atoms: C4_4  and  C5_5 
REMARK    4  A    between atoms: C5_5  and  C6_6 
REMARK    5  A    between atoms: C6_6  and  C8_8 
REMARK    6  A    between atoms: C16_16  and  C17_17 
REMARK    7  A    between atoms: C17_17  and  O1_19 
REMARK    8  A    between atoms: C17_17  and  C19_20 
REMARK    9  A    between atoms: C19_20  and  O2_21 
REMARK   10  A    between atoms: C20_22  and  C21_23 
REMARK   11  A    between atoms: C21_23  and  C22_24 
REMARK   12  A    between atoms: C22_24  and  C23_25 
REMARK   13  A    between atoms: C23_25  and  O4_27 
REMARK   14  A    between atoms: C30_34  and  O5_35 
ROOT
HETATM    1  C8  UNL     1      -2.107   7.527  12.642  1.00  0.00    -0.002 C 
HETATM    2  C9  UNL     1      -1.743   6.055  12.424  1.00  0.00     0.006 C 
HETATM    3  C10 UNL     1      -2.989   5.334  12.903  1.00  0.00     0.011 C 
HETATM    4  C11 UNL     1      -3.349   6.028  14.244  1.00  0.00    -0.032 C 
HETATM    5  C12 UNL     1      -2.567   5.266  15.351  1.00  0.00     0.016 C 
HETATM    6  C13 UNL     1      -4.881   5.860  14.519  1.00  0.00     0.004 C 
HETATM    7  C14 UNL     1      -5.323   6.312  15.960  1.00  0.00     0.007 C 
HETATM    8  C15 UNL     1      -6.827   6.644  16.206  1.00  0.00     0.009 C 
HETATM    9  C16 UNL     1      -7.643   7.079  14.948  1.00  0.00     0.031 C 
HETATM   10  C20 UNL     1      -7.235   6.103  13.836  1.00  0.00    -0.025 A 
HETATM   11  C24 UNL     1      -6.720   6.206  12.440  1.00  0.00     0.021 A 
HETATM   12  C25 UNL     1      -5.748   6.589  13.510  1.00  0.00    -0.027 A 
HETATM   13  C26 UNL     1      -5.260   7.997  13.152  1.00  0.00     0.011 C 
HETATM   14  C27 UNL     1      -4.086   8.507  13.975  1.00  0.00     0.011 C 
HETATM   15  C28 UNL     1      -2.868   7.543  14.036  1.00  0.00    -0.032 C 
HETATM   16  C29 UNL     1      -1.987   8.041  15.196  1.00  0.00     0.016 C 
ENDROOT
BRANCH   1  17
HETATM   17  C6  UNL     1      -0.928   8.485  12.289  1.00  0.00    -0.014 C 
HETATM   18  C7  UNL     1      -0.829   8.929  10.824  1.00  0.00     0.010 C 
BRANCH  17  19
HETATM   19  C5  UNL     1       0.460   8.010  12.772  1.00  0.00     0.008 C 
BRANCH  19  20
HETATM   20  C4  UNL     1       1.630   8.792  12.162  1.00  0.00     0.028 C 
BRANCH  20  21
HETATM   21  C3  UNL     1       2.884   8.602  12.970  1.00  0.00    -0.022 C 
HETATM   22  C2  UNL     1       3.138   9.019  14.228  1.00  0.00    -0.064 C 
HETATM   23  C1  UNL     1       2.193   9.817  15.086  1.00  0.00     0.045 C 
BRANCH  22  24
HETATM   24  C30 UNL     1       4.469   8.730  14.876  1.00  0.00     0.197 C 
BRANCH  24  25
HETATM   25  O5  UNL     1       4.629   7.325  14.994  1.00  0.00    -0.397 OA
HETATM   26  H50 UNL     1       4.501   6.961  14.100  1.00  0.00     0.209 HD
ENDBRANCH  24  25
ENDBRANCH  22  24
ENDBRANCH  20  21
ENDBRANCH  19  20
ENDBRANCH  17  19
ENDBRANCH   1  17
BRANCH  10  27
HETATM   27  C21 UNL     1      -7.634   4.621  14.093  1.00  0.00     0.021 C 
BRANCH  27  28
HETATM   28  C22 UNL     1      -8.125   3.894  12.835  1.00  0.00     0.111 C 
BRANCH  28  29
HETATM   29  C23 UNL     1      -7.246   2.718  12.511  1.00  0.00     0.139 C 
HETATM   30  O3  UNL     1      -6.083   2.731  12.146  1.00  0.00    -0.650 OA
BRANCH  29  31
HETATM   31  O4  UNL     1      -7.908   1.549  12.634  1.00  0.00    -0.776 OA
HETATM   32  H38 UNL     1      -7.246   0.870  12.389  1.00  0.00     0.167 HD
ENDBRANCH  29  31
ENDBRANCH  28  29
ENDBRANCH  27  28
ENDBRANCH  10  27
BRANCH   9  33
HETATM   33  C17 UNL     1      -9.171   7.257  15.194  1.00  0.00     0.080 C 
HETATM   34  C18 UNL     1      -9.917   7.326  13.850  1.00  0.00     0.048 C 
BRANCH  33  35
HETATM   35  O1  UNL     1      -9.693   6.163  15.957  1.00  0.00    -0.388 OA
HETATM   36  H30 UNL     1     -10.659   6.267  16.024  1.00  0.00     0.210 HD
ENDBRANCH  33  35
BRANCH  33  37
HETATM   37  C19 UNL     1      -9.467   8.551  16.000  1.00  0.00     0.201 C 
BRANCH  37  38
HETATM   38  O2  UNL     1     -10.074   8.308  17.262  1.00  0.00    -0.398 OA
HETATM   39  H33 UNL     1      -9.395   7.955  17.861  1.00  0.00     0.209 HD
ENDBRANCH  37  38
ENDBRANCH  33  37
ENDBRANCH   9  33
TORSDOF 14
ENDMDL
