MODEL 1
REMARK minimizedAffinity -9.58527088
REMARK CNNscore 0.655089796
REMARK CNNaffinity 7.65104818
REMARK  14 active torsions:
REMARK  status: ('A' for Active; 'I' for Inactive)
REMARK    1  A    between atoms: C2_2  and  O2_4 
REMARK    2  A    between atoms: O2_4  and  C3_5 
REMARK    3  A    between atoms: C3_5  and  C4_6 
REMARK    4  A    between atoms: C4_6  and  C5_8 
REMARK    5  A    between atoms: C5_8  and  O4_9 
REMARK    6  A    between atoms: O4_9  and  C6_10 
REMARK    7  A    between atoms: C6_10  and  C7_12 
REMARK    8  A    between atoms: C7_12  and  C8_13 
REMARK    9  A    between atoms: C8_13  and  C9_14 
REMARK       I    between atoms: C9_14  and  N1_16 
REMARK   10  A    between atoms: N1_16  and  C10_17 
REMARK   11  A    between atoms: C10_17  and  C11_18 
REMARK   12  A    between atoms: C10_17  and  C18_25 
REMARK   13  A    between atoms: C11_18  and  C12_19 
REMARK   14  A    between atoms: C18_25  and  O8_27 
ROOT
HETATM    1  C3  UNL     1      -0.714   8.658  13.417  1.00  0.00     0.140 C 
HETATM    2  C19 UNL     1       0.334   7.484  13.251  1.00  0.00     0.048 C 
HETATM    3  C20 UNL     1      -0.436   6.149  13.397  1.00  0.00     0.009 C 
HETATM    4  C21 UNL     1      -1.882   6.602  13.353  1.00  0.00     0.002 C 
HETATM    5  C22 UNL     1      -3.070   5.724  13.745  1.00  0.00    -0.004 C 
HETATM    6  C23 UNL     1      -2.949   4.225  13.451  1.00  0.00     0.010 C 
HETATM    7  C24 UNL     1      -4.092   3.650  12.615  1.00  0.00     0.035 C 
HETATM    8  C25 UNL     1      -5.477   4.168  12.944  1.00  0.00    -0.068 C 
HETATM    9  C26 UNL     1      -6.542   3.398  12.656  1.00  0.00     0.053 C 
HETATM   10  C27 UNL     1      -7.925   3.919  12.749  1.00  0.00     0.149 C 
HETATM   11  O9  UNL     1      -8.867   3.133  12.671  1.00  0.00    -0.293 OA
HETATM   12  C28 UNL     1      -8.139   5.403  12.927  1.00  0.00     0.084 C 
HETATM   13  C29 UNL     1      -6.861   6.220  12.726  1.00  0.00     0.022 C 
HETATM   14  C30 UNL     1      -5.625   5.612  13.441  1.00  0.00    -0.016 C 
HETATM   15  C31 UNL     1      -5.857   5.616  14.971  1.00  0.00     0.020 C 
HETATM   16  C32 UNL     1      -4.315   6.382  13.073  1.00  0.00     0.002 C 
HETATM   17  C33 UNL     1      -4.319   7.930  13.243  1.00  0.00     0.007 C 
HETATM   18  C34 UNL     1      -3.296   8.515  14.229  1.00  0.00     0.013 C 
HETATM   19  C35 UNL     1      -1.863   7.922  14.191  1.00  0.00    -0.001 C 
HETATM   20  C36 UNL     1      -1.447   7.649  15.675  1.00  0.00     0.019 C 
ENDROOT
BRANCH   1  21
HETATM   21  O2  UNL     1      -1.125   8.957  12.045  1.00  0.00    -0.301 OA
BRANCH  21  22
HETATM   22  C2  UNL     1      -0.238   8.828  11.026  1.00  0.00     0.256 C 
HETATM   23  C1  UNL     1      -0.962   8.700   9.722  1.00  0.00     0.126 C 
HETATM   24  O1  UNL     1       0.978   8.857  11.140  1.00  0.00    -0.266 OA
ENDBRANCH  21  22
ENDBRANCH   1  21
BRANCH   1  25
HETATM   25  C4  UNL     1       0.071   9.871  13.984  1.00  0.00     0.186 C 
HETATM   26  O3  UNL     1      -0.534  10.929  14.215  1.00  0.00    -0.292 OA
BRANCH  25  27
HETATM   27  C5  UNL     1       1.548   9.727  14.331  1.00  0.00     0.260 C 
BRANCH  27  28
HETATM   28  O4  UNL     1       1.746   8.844  15.442  1.00  0.00    -0.314 OA
BRANCH  28  29
HETATM   29  C6  UNL     1       2.769   9.192  16.269  1.00  0.00     0.259 C 
HETATM   30  O5  UNL     1       2.709   9.188  17.491  1.00  0.00    -0.265 OA
BRANCH  29  31
HETATM   31  C7  UNL     1       4.011   9.523  15.478  1.00  0.00     0.120 C 
BRANCH  31  32
HETATM   32  C8  UNL     1       4.777   8.281  15.035  1.00  0.00     0.112 C 
BRANCH  32  33
HETATM   33  C9  UNL     1       5.069   8.297  13.549  1.00  0.00     0.218 C 
HETATM   34  O6  UNL     1       5.381   9.309  12.932  1.00  0.00    -0.274 OA
HETATM   35  N1  UNL     1       4.988   7.062  12.962  1.00  0.00    -0.346 N 
HETATM   36  H10 UNL     1       4.666   6.256  13.488  1.00  0.00     0.163 HD
BRANCH  35  37
HETATM   37  C10 UNL     1       5.236   6.853  11.533  1.00  0.00     0.186 C 
BRANCH  37  38
HETATM   38  C11 UNL     1       4.699   8.004  10.664  1.00  0.00     0.074 C 
BRANCH  38  39
HETATM   39  C12 UNL     1       3.806   7.557   9.524  1.00  0.00    -0.056 A 
HETATM   40  C13 UNL     1       3.308   8.492   8.606  1.00  0.00     0.007 A 
HETATM   41  C14 UNL     1       2.509   8.080   7.538  1.00  0.00     0.001 A 
HETATM   42  C15 UNL     1       2.199   6.730   7.378  1.00  0.00     0.000 A 
HETATM   43  C16 UNL     1       2.684   5.792   8.288  1.00  0.00     0.001 A 
HETATM   44  C17 UNL     1       3.479   6.203   9.360  1.00  0.00     0.007 A 
ENDBRANCH  38  39
ENDBRANCH  37  38
BRANCH  37  45
HETATM   45  C18 UNL     1       6.723   6.616  11.261  1.00  0.00     0.163 C 
HETATM   46  O7  UNL     1       7.656   7.209  11.779  1.00  0.00    -0.648 OA
BRANCH  45  47
HETATM   47  O8  UNL     1       6.964   5.637  10.356  1.00  0.00    -0.775 OA
HETATM   48  H19 UNL     1       7.942   5.598  10.311  1.00  0.00     0.167 HD
ENDBRANCH  45  47
ENDBRANCH  37  45
ENDBRANCH  35  37
ENDBRANCH  32  33
ENDBRANCH  31  32
ENDBRANCH  29  31
ENDBRANCH  28  29
ENDBRANCH  27  28
ENDBRANCH  25  27
ENDBRANCH   1  25
TORSDOF 14
ENDMDL
MODEL 2
REMARK minimizedAffinity -10.1659746
REMARK CNNscore 0.498834789
REMARK CNNaffinity 7.6028862
REMARK  14 active torsions:
REMARK  status: ('A' for Active; 'I' for Inactive)
REMARK    1  A    between atoms: C2_2  and  O2_4 
REMARK    2  A    between atoms: O2_4  and  C3_5 
REMARK    3  A    between atoms: C3_5  and  C4_6 
REMARK    4  A    between atoms: C4_6  and  C5_8 
REMARK    5  A    between atoms: C5_8  and  O4_9 
REMARK    6  A    between atoms: O4_9  and  C6_10 
REMARK    7  A    between atoms: C6_10  and  C7_12 
REMARK    8  A    between atoms: C7_12  and  C8_13 
REMARK    9  A    between atoms: C8_13  and  C9_14 
REMARK       I    between atoms: C9_14  and  N1_16 
REMARK   10  A    between atoms: N1_16  and  C10_17 
REMARK   11  A    between atoms: C10_17  and  C11_18 
REMARK   12  A    between atoms: C10_17  and  C18_25 
REMARK   13  A    between atoms: C11_18  and  C12_19 
REMARK   14  A    between atoms: C18_25  and  O8_27 
ROOT
HETATM    1  C3  UNL     1      -2.124   6.653  13.336  1.00  0.00     0.140 C 
HETATM    2  C19 UNL     1      -2.254   5.395  12.386  1.00  0.00     0.048 C 
HETATM    3  C20 UNL     1      -3.700   4.858  12.520  1.00  0.00     0.009 C 
HETATM    4  C21 UNL     1      -4.388   5.968  13.291  1.00  0.00     0.002 C 
HETATM    5  C22 UNL     1      -5.759   5.833  13.950  1.00  0.00    -0.004 C 
HETATM    6  C23 UNL     1      -6.780   4.931  13.247  1.00  0.00     0.010 C 
HETATM    7  C24 UNL     1      -8.114   5.609  12.937  1.00  0.00     0.035 C 
HETATM    8  C25 UNL     1      -8.651   6.535  14.009  1.00  0.00    -0.068 C 
HETATM    9  C26 UNL     1      -9.977   6.756  14.069  1.00  0.00     0.053 C 
HETATM   10  C27 UNL     1     -10.550   7.805  14.944  1.00  0.00     0.149 C 
HETATM   11  O9  UNL     1     -11.766   7.841  15.117  1.00  0.00    -0.293 OA
HETATM   12  C28 UNL     1      -9.623   8.807  15.590  1.00  0.00     0.084 C 
HETATM   13  C29 UNL     1      -8.201   8.754  15.032  1.00  0.00     0.022 C 
HETATM   14  C30 UNL     1      -7.654   7.309  14.881  1.00  0.00    -0.016 C 
HETATM   15  C31 UNL     1      -7.554   6.645  16.275  1.00  0.00     0.020 C 
HETATM   16  C32 UNL     1      -6.270   7.294  14.154  1.00  0.00     0.002 C 
HETATM   17  C33 UNL     1      -5.155   8.227  14.711  1.00  0.00     0.007 C 
HETATM   18  C34 UNL     1      -3.871   7.545  15.207  1.00  0.00     0.013 C 
HETATM   19  C35 UNL     1      -3.305   6.393  14.336  1.00  0.00    -0.001 C 
HETATM   20  C36 UNL     1      -2.960   5.217  15.309  1.00  0.00     0.019 C 
ENDROOT
BRANCH   1  21
HETATM   21  O2  UNL     1      -2.429   7.786  12.461  1.00  0.00    -0.301 OA
BRANCH  21  22
HETATM   22  C2  UNL     1      -1.594   8.854  12.418  1.00  0.00     0.256 C 
HETATM   23  C1  UNL     1      -0.634   8.715  11.276  1.00  0.00     0.126 C 
HETATM   24  O1  UNL     1      -1.638   9.818  13.166  1.00  0.00    -0.266 OA
ENDBRANCH  21  22
ENDBRANCH   1  21
BRANCH   1  25
HETATM   25  C4  UNL     1      -0.634   6.731  13.762  1.00  0.00     0.186 C 
HETATM   26  O3  UNL     1       0.243   6.345  12.973  1.00  0.00    -0.292 OA
BRANCH  25  27
HETATM   27  C5  UNL     1      -0.256   7.355  15.100  1.00  0.00     0.260 C 
BRANCH  27  28
HETATM   28  O4  UNL     1       0.766   8.349  14.949  1.00  0.00    -0.314 OA
BRANCH  28  29
HETATM   29  C6  UNL     1       1.658   8.406  15.976  1.00  0.00     0.259 C 
HETATM   30  O5  UNL     1       1.497   9.052  17.003  1.00  0.00    -0.265 OA
BRANCH  29  31
HETATM   31  C7  UNL     1       2.845   7.514  15.708  1.00  0.00     0.120 C 
BRANCH  31  32
HETATM   32  C8  UNL     1       3.941   8.213  14.911  1.00  0.00     0.112 C 
BRANCH  32  33
HETATM   33  C9  UNL     1       3.858   7.895  13.433  1.00  0.00     0.218 C 
HETATM   34  O6  UNL     1       2.887   8.167  12.737  1.00  0.00    -0.274 OA
HETATM   35  N1  UNL     1       4.989   7.304  12.936  1.00  0.00    -0.346 N 
HETATM   36  H10 UNL     1       5.750   7.034  13.552  1.00  0.00     0.163 HD
BRANCH  35  37
HETATM   37  C10 UNL     1       5.120   6.916  11.529  1.00  0.00     0.186 C 
BRANCH  37  38
HETATM   38  C11 UNL     1       4.885   8.093  10.565  1.00  0.00     0.074 C 
BRANCH  38  39
HETATM   39  C12 UNL     1       3.899   7.798   9.453  1.00  0.00    -0.056 A 
HETATM   40  C13 UNL     1       3.332   6.522   9.330  1.00  0.00     0.007 A 
HETATM   41  C14 UNL     1       2.401   6.255   8.324  1.00  0.00     0.001 A 
HETATM   42  C15 UNL     1       2.030   7.260   7.431  1.00  0.00     0.000 A 
HETATM   43  C16 UNL     1       2.591   8.530   7.541  1.00  0.00     0.001 A 
HETATM   44  C17 UNL     1       3.526   8.798   8.543  1.00  0.00     0.007 A 
ENDBRANCH  38  39
ENDBRANCH  37  38
BRANCH  37  45
HETATM   45  C18 UNL     1       6.476   6.260  11.262  1.00  0.00     0.163 C 
HETATM   46  O7  UNL     1       7.572   6.748  11.489  1.00  0.00    -0.648 OA
BRANCH  45  47
HETATM   47  O8  UNL     1       6.386   5.016  10.733  1.00  0.00    -0.775 OA
HETATM   48  H19 UNL     1       7.321   4.734  10.644  1.00  0.00     0.167 HD
ENDBRANCH  45  47
ENDBRANCH  37  45
ENDBRANCH  35  37
ENDBRANCH  32  33
ENDBRANCH  31  32
ENDBRANCH  29  31
ENDBRANCH  28  29
ENDBRANCH  27  28
ENDBRANCH  25  27
ENDBRANCH   1  25
TORSDOF 14
ENDMDL
MODEL 3
REMARK minimizedAffinity -8.20879173
REMARK CNNscore 0.441266268
REMARK CNNaffinity 7.06071663
REMARK  14 active torsions:
REMARK  status: ('A' for Active; 'I' for Inactive)
REMARK    1  A    between atoms: C2_2  and  O2_4 
REMARK    2  A    between atoms: O2_4  and  C3_5 
REMARK    3  A    between atoms: C3_5  and  C4_6 
REMARK    4  A    between atoms: C4_6  and  C5_8 
REMARK    5  A    between atoms: C5_8  and  O4_9 
REMARK    6  A    between atoms: O4_9  and  C6_10 
REMARK    7  A    between atoms: C6_10  and  C7_12 
REMARK    8  A    between atoms: C7_12  and  C8_13 
REMARK    9  A    between atoms: C8_13  and  C9_14 
REMARK       I    between atoms: C9_14  and  N1_16 
REMARK   10  A    between atoms: N1_16  and  C10_17 
REMARK   11  A    between atoms: C10_17  and  C11_18 
REMARK   12  A    between atoms: C10_17  and  C18_25 
REMARK   13  A    between atoms: C11_18  and  C12_19 
REMARK   14  A    between atoms: C18_25  and  O8_27 
ROOT
HETATM    1  C3  UNL     1       0.829   7.028  11.617  1.00  0.00     0.140 C 
HETATM    2  C19 UNL     1       0.976   5.567  11.029  1.00  0.00     0.048 C 
HETATM    3  C20 UNL     1      -0.235   4.741  11.526  1.00  0.00     0.009 C 
HETATM    4  C21 UNL     1      -1.136   5.808  12.115  1.00  0.00     0.002 C 
HETATM    5  C22 UNL     1      -2.341   5.518  13.008  1.00  0.00    -0.004 C 
HETATM    6  C23 UNL     1      -3.121   4.231  12.720  1.00  0.00     0.010 C 
HETATM    7  C24 UNL     1      -4.617   4.438  12.486  1.00  0.00     0.035 C 
HETATM    8  C25 UNL     1      -5.293   5.455  13.383  1.00  0.00    -0.068 C 
HETATM    9  C26 UNL     1      -6.614   5.342  13.609  1.00  0.00     0.053 C 
HETATM   10  C27 UNL     1      -7.378   6.411  14.293  1.00  0.00     0.149 C 
HETATM   11  O9  UNL     1      -8.531   6.184  14.654  1.00  0.00    -0.293 OA
HETATM   12  C28 UNL     1      -6.722   7.752  14.519  1.00  0.00     0.084 C 
HETATM   13  C29 UNL     1      -5.404   7.908  13.759  1.00  0.00     0.022 C 
HETATM   14  C30 UNL     1      -4.482   6.664  13.866  1.00  0.00    -0.016 C 
HETATM   15  C31 UNL     1      -4.063   6.456  15.341  1.00  0.00     0.020 C 
HETATM   16  C32 UNL     1      -3.228   6.800  12.942  1.00  0.00     0.002 C 
HETATM   17  C33 UNL     1      -2.381   8.101  13.067  1.00  0.00     0.007 C 
HETATM   18  C34 UNL     1      -0.914   7.928  13.488  1.00  0.00     0.013 C 
HETATM   19  C35 UNL     1      -0.126   6.763  12.834  1.00  0.00    -0.001 C 
HETATM   20  C36 UNL     1       0.634   6.026  13.986  1.00  0.00     0.019 C 
ENDROOT
BRANCH   1  21
HETATM   21  O2  UNL     1       0.129   7.762  10.563  1.00  0.00    -0.301 OA
BRANCH  21  22
HETATM   22  C2  UNL     1       0.591   7.723   9.287  1.00  0.00     0.256 C 
HETATM   23  C1  UNL     1      -0.314   8.504   8.384  1.00  0.00     0.126 C 
HETATM   24  O1  UNL     1       1.619   7.174   8.924  1.00  0.00    -0.266 OA
ENDBRANCH  21  22
ENDBRANCH   1  21
BRANCH   1  25
HETATM   25  C4  UNL     1       2.268   7.594  11.756  1.00  0.00     0.186 C 
HETATM   26  O3  UNL     1       2.423   8.778  12.092  1.00  0.00    -0.292 OA
BRANCH  25  27
HETATM   27  C5  UNL     1       3.468   6.675  11.566  1.00  0.00     0.260 C 
BRANCH  27  28
HETATM   28  O4  UNL     1       4.587   7.376  11.008  1.00  0.00    -0.314 OA
BRANCH  28  29
HETATM   29  C6  UNL     1       5.759   6.685  11.031  1.00  0.00     0.259 C 
HETATM   30  O5  UNL     1       5.935   5.594  10.507  1.00  0.00    -0.265 OA
BRANCH  29  31
HETATM   31  C7  UNL     1       6.835   7.474  11.738  1.00  0.00     0.120 C 
BRANCH  31  32
HETATM   32  C8  UNL     1       6.354   8.845  12.199  1.00  0.00     0.112 C 
BRANCH  32  33
HETATM   33  C9  UNL     1       6.894   9.958  11.325  1.00  0.00     0.218 C 
HETATM   34  O6  UNL     1       6.417  10.253  10.235  1.00  0.00    -0.274 OA
HETATM   35  N1  UNL     1       7.946  10.632  11.885  1.00  0.00    -0.346 N 
HETATM   36  H10 UNL     1       8.357  10.322  12.760  1.00  0.00     0.163 HD
BRANCH  35  37
HETATM   37  C10 UNL     1       8.616  11.747  11.208  1.00  0.00     0.186 C 
BRANCH  37  38
HETATM   38  C11 UNL     1       8.926  12.916  12.159  1.00  0.00     0.074 C 
BRANCH  38  39
HETATM   39  C12 UNL     1       8.526  14.276  11.623  1.00  0.00    -0.056 A 
HETATM   40  C13 UNL     1       7.291  14.840  11.972  1.00  0.00     0.007 A 
HETATM   41  C14 UNL     1       6.932  16.105  11.502  1.00  0.00     0.001 A 
HETATM   42  C15 UNL     1       7.803  16.817  10.679  1.00  0.00     0.000 A 
HETATM   43  C16 UNL     1       9.031  16.264  10.321  1.00  0.00     0.001 A 
HETATM   44  C17 UNL     1       9.389  14.997  10.784  1.00  0.00     0.007 A 
ENDBRANCH  38  39
ENDBRANCH  37  38
BRANCH  37  45
HETATM   45  C18 UNL     1       9.885  11.276  10.495  1.00  0.00     0.163 C 
HETATM   46  O7  UNL     1      10.019  11.112   9.293  1.00  0.00    -0.648 OA
BRANCH  45  47
HETATM   47  O8  UNL     1      10.926  11.045  11.329  1.00  0.00    -0.775 OA
HETATM   48  H19 UNL     1      11.651  10.776  10.727  1.00  0.00     0.167 HD
ENDBRANCH  45  47
ENDBRANCH  37  45
ENDBRANCH  35  37
ENDBRANCH  32  33
ENDBRANCH  31  32
ENDBRANCH  29  31
ENDBRANCH  28  29
ENDBRANCH  27  28
ENDBRANCH  25  27
ENDBRANCH   1  25
TORSDOF 14
ENDMDL
MODEL 4
REMARK minimizedAffinity -8.32372665
REMARK CNNscore 0.362312019
REMARK CNNaffinity 6.98567438
REMARK  14 active torsions:
REMARK  status: ('A' for Active; 'I' for Inactive)
REMARK    1  A    between atoms: C2_2  and  O2_4 
REMARK    2  A    between atoms: O2_4  and  C3_5 
REMARK    3  A    between atoms: C3_5  and  C4_6 
REMARK    4  A    between atoms: C4_6  and  C5_8 
REMARK    5  A    between atoms: C5_8  and  O4_9 
REMARK    6  A    between atoms: O4_9  and  C6_10 
REMARK    7  A    between atoms: C6_10  and  C7_12 
REMARK    8  A    between atoms: C7_12  and  C8_13 
REMARK    9  A    between atoms: C8_13  and  C9_14 
REMARK       I    between atoms: C9_14  and  N1_16 
REMARK   10  A    between atoms: N1_16  and  C10_17 
REMARK   11  A    between atoms: C10_17  and  C11_18 
REMARK   12  A    between atoms: C10_17  and  C18_25 
REMARK   13  A    between atoms: C11_18  and  C12_19 
REMARK   14  A    between atoms: C18_25  and  O8_27 
ROOT
HETATM    1  C3  UNL     1      -2.309  12.030  16.161  1.00  0.00     0.140 C 
HETATM    2  C19 UNL     1      -0.777  11.953  15.775  1.00  0.00     0.048 C 
HETATM    3  C20 UNL     1      -0.487  10.505  15.309  1.00  0.00     0.009 C 
HETATM    4  C21 UNL     1      -1.880   9.921  15.179  1.00  0.00     0.002 C 
HETATM    5  C22 UNL     1      -2.176   8.430  15.028  1.00  0.00    -0.004 C 
HETATM    6  C23 UNL     1      -1.150   7.597  14.251  1.00  0.00     0.010 C 
HETATM    7  C24 UNL     1      -1.735   6.802  13.084  1.00  0.00     0.035 C 
HETATM    8  C25 UNL     1      -3.085   6.160  13.331  1.00  0.00    -0.068 C 
HETATM    9  C26 UNL     1      -3.427   5.075  12.613  1.00  0.00     0.053 C 
HETATM   10  C27 UNL     1      -4.802   4.525  12.645  1.00  0.00     0.149 C 
HETATM   11  O9  UNL     1      -5.019   3.427  12.136  1.00  0.00    -0.293 OA
HETATM   12  C28 UNL     1      -5.900   5.333  13.294  1.00  0.00     0.084 C 
HETATM   13  C29 UNL     1      -5.477   6.767  13.615  1.00  0.00     0.022 C 
HETATM   14  C30 UNL     1      -4.073   6.861  14.271  1.00  0.00    -0.016 C 
HETATM   15  C31 UNL     1      -4.093   6.142  15.641  1.00  0.00     0.020 C 
HETATM   16  C32 UNL     1      -3.613   8.348  14.427  1.00  0.00     0.002 C 
HETATM   17  C33 UNL     1      -4.594   9.334  15.128  1.00  0.00     0.007 C 
HETATM   18  C34 UNL     1      -4.091  10.004  16.416  1.00  0.00     0.013 C 
HETATM   19  C35 UNL     1      -2.627  10.515  16.418  1.00  0.00    -0.001 C 
HETATM   20  C36 UNL     1      -1.981  10.032  17.759  1.00  0.00     0.019 C 
ENDROOT
BRANCH   1  21
HETATM   21  O2  UNL     1      -2.957  12.492  14.933  1.00  0.00    -0.301 OA
BRANCH  21  22
HETATM   22  C2  UNL     1      -3.191  13.815  14.745  1.00  0.00     0.256 C 
HETATM   23  C1  UNL     1      -4.627  14.132  15.030  1.00  0.00     0.126 C 
HETATM   24  O1  UNL     1      -2.351  14.645  14.434  1.00  0.00    -0.266 OA
ENDBRANCH  21  22
ENDBRANCH   1  21
BRANCH   1  25
HETATM   25  C4  UNL     1      -2.435  13.135  17.244  1.00  0.00     0.186 C 
HETATM   26  O3  UNL     1      -3.460  13.187  17.939  1.00  0.00    -0.292 OA
BRANCH  25  27
HETATM   27  C5  UNL     1      -1.271  14.084  17.501  1.00  0.00     0.260 C 
BRANCH  27  28
HETATM   28  O4  UNL     1      -0.822  14.014  18.860  1.00  0.00    -0.314 OA
BRANCH  28  29
HETATM   29  C6  UNL     1       0.426  13.493  19.020  1.00  0.00     0.259 C 
HETATM   30  O5  UNL     1       1.464  14.075  18.738  1.00  0.00    -0.265 OA
BRANCH  29  31
HETATM   31  C7  UNL     1       0.361  12.124  19.652  1.00  0.00     0.120 C 
BRANCH  31  32
HETATM   32  C8  UNL     1       1.304  11.124  18.992  1.00  0.00     0.112 C 
BRANCH  32  33
HETATM   33  C9  UNL     1       2.383  10.650  19.943  1.00  0.00     0.218 C 
HETATM   34  O6  UNL     1       3.568  10.576  19.638  1.00  0.00    -0.274 OA
HETATM   35  N1  UNL     1       1.915  10.344  21.193  1.00  0.00    -0.346 N 
HETATM   36  H10 UNL     1       0.920  10.355  21.394  1.00  0.00     0.163 HD
BRANCH  35  37
HETATM   37  C10 UNL     1       2.792   9.869  22.267  1.00  0.00     0.186 C 
BRANCH  37  38
HETATM   38  C11 UNL     1       3.038  10.938  23.347  1.00  0.00     0.074 C 
BRANCH  38  39
HETATM   39  C12 UNL     1       4.271  11.786  23.112  1.00  0.00    -0.056 A 
HETATM   40  C13 UNL     1       4.155  13.172  22.938  1.00  0.00     0.007 A 
HETATM   41  C14 UNL     1       5.293  13.960  22.750  1.00  0.00     0.001 A 
HETATM   42  C15 UNL     1       6.556  13.370  22.732  1.00  0.00     0.000 A 
HETATM   43  C16 UNL     1       6.683  11.993  22.897  1.00  0.00     0.001 A 
HETATM   44  C17 UNL     1       5.547  11.202  23.080  1.00  0.00     0.007 A 
ENDBRANCH  38  39
ENDBRANCH  37  38
BRANCH  37  45
HETATM   45  C18 UNL     1       2.251   8.582  22.891  1.00  0.00     0.163 C 
HETATM   46  O7  UNL     1       1.800   7.620  22.288  1.00  0.00    -0.648 OA
BRANCH  45  47
HETATM   47  O8  UNL     1       2.313   8.563  24.244  1.00  0.00    -0.775 OA
HETATM   48  H19 UNL     1       1.954   7.681  24.480  1.00  0.00     0.167 HD
ENDBRANCH  45  47
ENDBRANCH  37  45
ENDBRANCH  35  37
ENDBRANCH  32  33
ENDBRANCH  31  32
ENDBRANCH  29  31
ENDBRANCH  28  29
ENDBRANCH  27  28
ENDBRANCH  25  27
ENDBRANCH   1  25
TORSDOF 14
ENDMDL
MODEL 5
REMARK minimizedAffinity -10.1884012
REMARK CNNscore 0.361999512
REMARK CNNaffinity 7.24285078
REMARK  14 active torsions:
REMARK  status: ('A' for Active; 'I' for Inactive)
REMARK    1  A    between atoms: C2_2  and  O2_4 
REMARK    2  A    between atoms: O2_4  and  C3_5 
REMARK    3  A    between atoms: C3_5  and  C4_6 
REMARK    4  A    between atoms: C4_6  and  C5_8 
REMARK    5  A    between atoms: C5_8  and  O4_9 
REMARK    6  A    between atoms: O4_9  and  C6_10 
REMARK    7  A    between atoms: C6_10  and  C7_12 
REMARK    8  A    between atoms: C7_12  and  C8_13 
REMARK    9  A    between atoms: C8_13  and  C9_14 
REMARK       I    between atoms: C9_14  and  N1_16 
REMARK   10  A    between atoms: N1_16  and  C10_17 
REMARK   11  A    between atoms: C10_17  and  C11_18 
REMARK   12  A    between atoms: C10_17  and  C18_25 
REMARK   13  A    between atoms: C11_18  and  C12_19 
REMARK   14  A    between atoms: C18_25  and  O8_27 
ROOT
HETATM    1  C3  UNL     1      -2.069   7.034  13.590  1.00  0.00     0.140 C 
HETATM    2  C19 UNL     1      -2.038   5.835  12.558  1.00  0.00     0.048 C 
HETATM    3  C20 UNL     1      -3.440   5.178  12.566  1.00  0.00     0.009 C 
HETATM    4  C21 UNL     1      -4.261   6.176  13.359  1.00  0.00     0.002 C 
HETATM    5  C22 UNL     1      -5.653   5.890  13.920  1.00  0.00    -0.004 C 
HETATM    6  C23 UNL     1      -6.552   4.959  13.100  1.00  0.00     0.010 C 
HETATM    7  C24 UNL     1      -7.918   5.548  12.748  1.00  0.00     0.035 C 
HETATM    8  C25 UNL     1      -8.592   6.355  13.838  1.00  0.00    -0.068 C 
HETATM    9  C26 UNL     1      -9.932   6.467  13.827  1.00  0.00     0.053 C 
HETATM   10  C27 UNL     1     -10.640   7.407  14.726  1.00  0.00     0.149 C 
HETATM   11  O9  UNL     1     -11.863   7.335  14.824  1.00  0.00    -0.293 OA
HETATM   12  C28 UNL     1      -9.840   8.434  15.490  1.00  0.00     0.084 C 
HETATM   13  C29 UNL     1      -8.387   8.530  15.021  1.00  0.00     0.022 C 
HETATM   14  C30 UNL     1      -7.715   7.146  14.817  1.00  0.00    -0.016 C 
HETATM   15  C31 UNL     1      -7.642   6.402  16.172  1.00  0.00     0.020 C 
HETATM   16  C32 UNL     1      -6.294   7.289  14.180  1.00  0.00     0.002 C 
HETATM   17  C33 UNL     1      -5.295   8.269  14.863  1.00  0.00     0.007 C 
HETATM   18  C34 UNL     1      -3.990   7.658  15.397  1.00  0.00     0.013 C 
HETATM   19  C35 UNL     1      -3.280   6.615  14.495  1.00  0.00    -0.001 C 
HETATM   20  C36 UNL     1      -2.896   5.409  15.414  1.00  0.00     0.019 C 
ENDROOT
BRANCH   1  21
HETATM   21  O2  UNL     1      -2.415   8.194  12.768  1.00  0.00    -0.301 OA
BRANCH  21  22
HETATM   22  C2  UNL     1      -1.480   9.141  12.502  1.00  0.00     0.256 C 
HETATM   23  C1  UNL     1      -0.734   8.795  11.251  1.00  0.00     0.126 C 
HETATM   24  O1  UNL     1      -1.296  10.156  13.156  1.00  0.00    -0.266 OA
ENDBRANCH  21  22
ENDBRANCH   1  21
BRANCH   1  25
HETATM   25  C4  UNL     1      -0.617   7.201  14.113  1.00  0.00     0.186 C 
HETATM   26  O3  UNL     1       0.329   6.820  13.407  1.00  0.00    -0.292 OA
BRANCH  25  27
HETATM   27  C5  UNL     1      -0.363   7.904  15.442  1.00  0.00     0.260 C 
BRANCH  27  28
HETATM   28  O4  UNL     1       0.689   8.870  15.335  1.00  0.00    -0.314 OA
BRANCH  28  29
HETATM   29  C6  UNL     1       1.541   8.901  16.397  1.00  0.00     0.259 C 
HETATM   30  O5  UNL     1       2.093   7.920  16.875  1.00  0.00    -0.265 OA
BRANCH  29  31
HETATM   31  C7  UNL     1       1.764  10.318  16.867  1.00  0.00     0.120 C 
BRANCH  31  32
HETATM   32  C8  UNL     1       1.230  10.564  18.274  1.00  0.00     0.112 C 
BRANCH  32  33
HETATM   33  C9  UNL     1       2.321  10.459  19.319  1.00  0.00     0.218 C 
HETATM   34  O6  UNL     1       3.510  10.631  19.075  1.00  0.00    -0.274 OA
HETATM   35  N1  UNL     1       1.850  10.190  20.576  1.00  0.00    -0.346 N 
HETATM   36  H10 UNL     1       0.867   9.990  20.733  1.00  0.00     0.163 HD
BRANCH  35  37
HETATM   37  C10 UNL     1       2.737  10.050  21.735  1.00  0.00     0.186 C 
BRANCH  37  38
HETATM   38  C11 UNL     1       2.740  11.301  22.632  1.00  0.00     0.074 C 
BRANCH  38  39
HETATM   39  C12 UNL     1       4.095  11.968  22.763  1.00  0.00    -0.056 A 
HETATM   40  C13 UNL     1       4.197  13.365  22.788  1.00  0.00     0.007 A 
HETATM   41  C14 UNL     1       5.440  13.982  22.937  1.00  0.00     0.001 A 
HETATM   42  C15 UNL     1       6.593  13.208  23.062  1.00  0.00     0.000 A 
HETATM   43  C16 UNL     1       6.505  11.818  23.032  1.00  0.00     0.001 A 
HETATM   44  C17 UNL     1       5.263  11.199  22.877  1.00  0.00     0.007 A 
ENDBRANCH  38  39
ENDBRANCH  37  38
BRANCH  37  45
HETATM   45  C18 UNL     1       2.389   8.801  22.547  1.00  0.00     0.163 C 
HETATM   46  O7  UNL     1       1.900   7.770  22.114  1.00  0.00    -0.648 OA
BRANCH  45  47
HETATM   47  O8  UNL     1       2.685   8.907  23.865  1.00  0.00    -0.775 OA
HETATM   48  H19 UNL     1       2.426   8.035  24.232  1.00  0.00     0.167 HD
ENDBRANCH  45  47
ENDBRANCH  37  45
ENDBRANCH  35  37
ENDBRANCH  32  33
ENDBRANCH  31  32
ENDBRANCH  29  31
ENDBRANCH  28  29
ENDBRANCH  27  28
ENDBRANCH  25  27
ENDBRANCH   1  25
TORSDOF 14
ENDMDL
MODEL 6
REMARK minimizedAffinity -8.09817314
REMARK CNNscore 0.326845229
REMARK CNNaffinity 6.71076918
REMARK  14 active torsions:
REMARK  status: ('A' for Active; 'I' for Inactive)
REMARK    1  A    between atoms: C2_2  and  O2_4 
REMARK    2  A    between atoms: O2_4  and  C3_5 
REMARK    3  A    between atoms: C3_5  and  C4_6 
REMARK    4  A    between atoms: C4_6  and  C5_8 
REMARK    5  A    between atoms: C5_8  and  O4_9 
REMARK    6  A    between atoms: O4_9  and  C6_10 
REMARK    7  A    between atoms: C6_10  and  C7_12 
REMARK    8  A    between atoms: C7_12  and  C8_13 
REMARK    9  A    between atoms: C8_13  and  C9_14 
REMARK       I    between atoms: C9_14  and  N1_16 
REMARK   10  A    between atoms: N1_16  and  C10_17 
REMARK   11  A    between atoms: C10_17  and  C11_18 
REMARK   12  A    between atoms: C10_17  and  C18_25 
REMARK   13  A    between atoms: C11_18  and  C12_19 
REMARK   14  A    between atoms: C18_25  and  O8_27 
ROOT
HETATM    1  C3  UNL     1      -1.025   9.380  15.064  1.00  0.00     0.140 C 
HETATM    2  C19 UNL     1       0.085   8.254  15.021  1.00  0.00     0.048 C 
HETATM    3  C20 UNL     1      -0.641   6.887  14.964  1.00  0.00     0.009 C 
HETATM    4  C21 UNL     1      -2.076   7.293  14.695  1.00  0.00     0.002 C 
HETATM    5  C22 UNL     1      -3.275   6.356  14.831  1.00  0.00    -0.004 C 
HETATM    6  C23 UNL     1      -3.041   4.881  14.485  1.00  0.00     0.010 C 
HETATM    7  C24 UNL     1      -4.000   4.318  13.437  1.00  0.00     0.035 C 
HETATM    8  C25 UNL     1      -5.442   4.770  13.549  1.00  0.00    -0.068 C 
HETATM    9  C26 UNL     1      -6.409   3.982  13.043  1.00  0.00     0.053 C 
HETATM   10  C27 UNL     1      -7.808   4.451  12.923  1.00  0.00     0.149 C 
HETATM   11  O9  UNL     1      -8.689   3.640  12.644  1.00  0.00    -0.293 OA
HETATM   12  C28 UNL     1      -8.113   5.914  13.138  1.00  0.00     0.084 C 
HETATM   13  C29 UNL     1      -6.856   6.783  13.202  1.00  0.00     0.022 C 
HETATM   14  C30 UNL     1      -5.734   6.176  14.087  1.00  0.00    -0.016 C 
HETATM   15  C31 UNL     1      -6.223   6.084  15.552  1.00  0.00     0.020 C 
HETATM   16  C32 UNL     1      -4.415   7.009  13.989  1.00  0.00     0.002 C 
HETATM   17  C33 UNL     1      -4.514   8.544  14.236  1.00  0.00     0.007 C 
HETATM   18  C34 UNL     1      -3.699   9.104  15.412  1.00  0.00     0.013 C 
HETATM   19  C35 UNL     1      -2.256   8.563  15.591  1.00  0.00    -0.001 C 
HETATM   20  C36 UNL     1      -2.087   8.218  17.108  1.00  0.00     0.019 C 
ENDROOT
BRANCH   1  21
HETATM   21  O2  UNL     1      -1.210   9.744  13.660  1.00  0.00    -0.301 OA
BRANCH  21  22
HETATM   22  C2  UNL     1      -0.337   9.297  12.722  1.00  0.00     0.256 C 
HETATM   23  C1  UNL     1      -1.079   8.780  11.528  1.00  0.00     0.126 C 
HETATM   24  O1  UNL     1       0.880   9.347  12.808  1.00  0.00    -0.266 OA
ENDBRANCH  21  22
ENDBRANCH   1  21
BRANCH   1  25
HETATM   25  C4  UNL     1      -0.401  10.584  15.820  1.00  0.00     0.186 C 
HETATM   26  O3  UNL     1      -1.070  11.617  15.971  1.00  0.00    -0.292 OA
BRANCH  25  27
HETATM   27  C5  UNL     1       0.986  10.457  16.441  1.00  0.00     0.260 C 
BRANCH  27  28
HETATM   28  O4  UNL     1       1.057  11.115  17.712  1.00  0.00    -0.314 OA
BRANCH  28  29
HETATM   29  C6  UNL     1       2.140  10.777  18.465  1.00  0.00     0.259 C 
HETATM   30  O5  UNL     1       2.359   9.658  18.908  1.00  0.00    -0.265 OA
BRANCH  29  31
HETATM   31  C7  UNL     1       3.069  11.955  18.629  1.00  0.00     0.120 C 
BRANCH  31  32
HETATM   32  C8  UNL     1       4.539  11.550  18.638  1.00  0.00     0.112 C 
BRANCH  32  33
HETATM   33  C9  UNL     1       5.394  12.538  19.405  1.00  0.00     0.218 C 
HETATM   34  O6  UNL     1       5.289  13.753  19.291  1.00  0.00    -0.274 OA
HETATM   35  N1  UNL     1       6.275  11.943  20.269  1.00  0.00    -0.346 N 
HETATM   36  H10 UNL     1       6.381  10.934  20.293  1.00  0.00     0.163 HD
BRANCH  35  37
HETATM   37  C10 UNL     1       7.194  12.716  21.110  1.00  0.00     0.186 C 
BRANCH  37  38
HETATM   38  C11 UNL     1       6.801  12.686  22.598  1.00  0.00     0.074 C 
BRANCH  38  39
HETATM   39  C12 UNL     1       5.451  12.056  22.871  1.00  0.00    -0.056 A 
HETATM   40  C13 UNL     1       4.294  12.846  22.904  1.00  0.00     0.007 A 
HETATM   41  C14 UNL     1       3.044  12.264  23.127  1.00  0.00     0.001 A 
HETATM   42  C15 UNL     1       2.940  10.887  23.320  1.00  0.00     0.000 A 
HETATM   43  C16 UNL     1       4.083  10.092  23.295  1.00  0.00     0.001 A 
HETATM   44  C17 UNL     1       5.334  10.673  23.078  1.00  0.00     0.007 A 
ENDBRANCH  38  39
ENDBRANCH  37  38
BRANCH  37  45
HETATM   45  C18 UNL     1       8.638  12.249  20.921  1.00  0.00     0.163 C 
HETATM   46  O7  UNL     1       9.565  12.438  21.692  1.00  0.00    -0.648 OA
BRANCH  45  47
HETATM   47  O8  UNL     1       8.843  11.559  19.774  1.00  0.00    -0.775 OA
HETATM   48  H19 UNL     1       9.793  11.320  19.813  1.00  0.00     0.167 HD
ENDBRANCH  45  47
ENDBRANCH  37  45
ENDBRANCH  35  37
ENDBRANCH  32  33
ENDBRANCH  31  32
ENDBRANCH  29  31
ENDBRANCH  28  29
ENDBRANCH  27  28
ENDBRANCH  25  27
ENDBRANCH   1  25
TORSDOF 14
ENDMDL
MODEL 7
REMARK minimizedAffinity -8.16928864
REMARK CNNscore 0.32312721
REMARK CNNaffinity 7.19104719
REMARK  14 active torsions:
REMARK  status: ('A' for Active; 'I' for Inactive)
REMARK    1  A    between atoms: C2_2  and  O2_4 
REMARK    2  A    between atoms: O2_4  and  C3_5 
REMARK    3  A    between atoms: C3_5  and  C4_6 
REMARK    4  A    between atoms: C4_6  and  C5_8 
REMARK    5  A    between atoms: C5_8  and  O4_9 
REMARK    6  A    between atoms: O4_9  and  C6_10 
REMARK    7  A    between atoms: C6_10  and  C7_12 
REMARK    8  A    between atoms: C7_12  and  C8_13 
REMARK    9  A    between atoms: C8_13  and  C9_14 
REMARK       I    between atoms: C9_14  and  N1_16 
REMARK   10  A    between atoms: N1_16  and  C10_17 
REMARK   11  A    between atoms: C10_17  and  C11_18 
REMARK   12  A    between atoms: C10_17  and  C18_25 
REMARK   13  A    between atoms: C11_18  and  C12_19 
REMARK   14  A    between atoms: C18_25  and  O8_27 
ROOT
HETATM    1  C3  UNL     1      -2.072   6.761  13.575  1.00  0.00     0.140 C 
HETATM    2  C19 UNL     1      -2.145   5.582  12.523  1.00  0.00     0.048 C 
HETATM    3  C20 UNL     1      -3.591   5.029  12.545  1.00  0.00     0.009 C 
HETATM    4  C21 UNL     1      -4.325   6.070  13.368  1.00  0.00     0.002 C 
HETATM    5  C22 UNL     1      -5.724   5.876  13.948  1.00  0.00    -0.004 C 
HETATM    6  C23 UNL     1      -6.702   5.027  13.128  1.00  0.00     0.010 C 
HETATM    7  C24 UNL     1      -8.026   5.720  12.809  1.00  0.00     0.035 C 
HETATM    8  C25 UNL     1      -8.622   6.555  13.925  1.00  0.00    -0.068 C 
HETATM    9  C26 UNL     1      -9.951   6.764  13.939  1.00  0.00     0.053 C 
HETATM   10  C27 UNL     1     -10.574   7.737  14.865  1.00  0.00     0.149 C 
HETATM   11  O9  UNL     1     -11.797   7.752  14.983  1.00  0.00    -0.293 OA
HETATM   12  C28 UNL     1      -9.688   8.689  15.633  1.00  0.00     0.084 C 
HETATM   13  C29 UNL     1      -8.240   8.688  15.140  1.00  0.00     0.022 C 
HETATM   14  C30 UNL     1      -7.674   7.262  14.902  1.00  0.00    -0.016 C 
HETATM   15  C31 UNL     1      -7.634   6.490  16.242  1.00  0.00     0.020 C 
HETATM   16  C32 UNL     1      -6.257   7.312  14.243  1.00  0.00     0.002 C 
HETATM   17  C33 UNL     1      -5.179   8.205  14.925  1.00  0.00     0.007 C 
HETATM   18  C34 UNL     1      -3.913   7.491  15.425  1.00  0.00     0.013 C 
HETATM   19  C35 UNL     1      -3.296   6.416  14.494  1.00  0.00    -0.001 C 
HETATM   20  C36 UNL     1      -2.987   5.168  15.386  1.00  0.00     0.019 C 
ENDROOT
BRANCH   1  21
HETATM   21  O2  UNL     1      -2.346   7.958  12.779  1.00  0.00    -0.301 OA
BRANCH  21  22
HETATM   22  C2  UNL     1      -1.384   8.902  12.619  1.00  0.00     0.256 C 
HETATM   23  C1  UNL     1      -1.557   9.995  13.628  1.00  0.00     0.126 C 
HETATM   24  O1  UNL     1      -0.475   8.854  11.804  1.00  0.00    -0.266 OA
ENDBRANCH  21  22
ENDBRANCH   1  21
BRANCH   1  25
HETATM   25  C4  UNL     1      -0.604   6.813  14.076  1.00  0.00     0.186 C 
HETATM   26  O3  UNL     1       0.288   6.284  13.395  1.00  0.00    -0.292 OA
BRANCH  25  27
HETATM   27  C5  UNL     1      -0.260   7.582  15.346  1.00  0.00     0.260 C 
BRANCH  27  28
HETATM   28  O4  UNL     1       0.926   7.071  15.968  1.00  0.00    -0.314 OA
BRANCH  28  29
HETATM   29  C6  UNL     1       1.931   7.980  16.107  1.00  0.00     0.259 C 
HETATM   30  O5  UNL     1       2.110   8.673  17.099  1.00  0.00    -0.265 OA
BRANCH  29  31
HETATM   31  C7  UNL     1       2.834   7.973  14.897  1.00  0.00     0.120 C 
BRANCH  31  32
HETATM   32  C8  UNL     1       2.807   9.292  14.133  1.00  0.00     0.112 C 
BRANCH  32  33
HETATM   33  C9  UNL     1       4.186   9.906  14.013  1.00  0.00     0.218 C 
HETATM   34  O6  UNL     1       4.438  11.066  14.318  1.00  0.00    -0.274 OA
HETATM   35  N1  UNL     1       5.138   9.029  13.566  1.00  0.00    -0.346 N 
HETATM   36  H10 UNL     1       4.884   8.094  13.263  1.00  0.00     0.163 HD
BRANCH  35  37
HETATM   37  C10 UNL     1       6.540   9.417  13.381  1.00  0.00     0.186 C 
BRANCH  37  38
HETATM   38  C11 UNL     1       7.456   8.869  14.490  1.00  0.00     0.074 C 
BRANCH  38  39
HETATM   39  C12 UNL     1       8.929   9.153  14.274  1.00  0.00    -0.056 A 
HETATM   40  C13 UNL     1       9.412  10.467  14.324  1.00  0.00     0.007 A 
HETATM   41  C14 UNL     1      10.773  10.729  14.154  1.00  0.00     0.001 A 
HETATM   42  C15 UNL     1      11.664   9.679  13.932  1.00  0.00     0.000 A 
HETATM   43  C16 UNL     1      11.194   8.369  13.874  1.00  0.00     0.001 A 
HETATM   44  C17 UNL     1       9.833   8.106  14.038  1.00  0.00     0.007 A 
ENDBRANCH  38  39
ENDBRANCH  37  38
BRANCH  37  45
HETATM   45  C18 UNL     1       7.049   8.999  12.001  1.00  0.00     0.163 C 
HETATM   46  O7  UNL     1       7.481   9.743  11.134  1.00  0.00    -0.648 OA
BRANCH  45  47
HETATM   47  O8  UNL     1       7.000   7.664  11.781  1.00  0.00    -0.775 OA
HETATM   48  H19 UNL     1       7.372   7.563  10.880  1.00  0.00     0.167 HD
ENDBRANCH  45  47
ENDBRANCH  37  45
ENDBRANCH  35  37
ENDBRANCH  32  33
ENDBRANCH  31  32
ENDBRANCH  29  31
ENDBRANCH  28  29
ENDBRANCH  27  28
ENDBRANCH  25  27
ENDBRANCH   1  25
TORSDOF 14
ENDMDL
MODEL 8
REMARK minimizedAffinity -9.31240082
REMARK CNNscore 0.306277454
REMARK CNNaffinity 7.24784422
REMARK  14 active torsions:
REMARK  status: ('A' for Active; 'I' for Inactive)
REMARK    1  A    between atoms: C2_2  and  O2_4 
REMARK    2  A    between atoms: O2_4  and  C3_5 
REMARK    3  A    between atoms: C3_5  and  C4_6 
REMARK    4  A    between atoms: C4_6  and  C5_8 
REMARK    5  A    between atoms: C5_8  and  O4_9 
REMARK    6  A    between atoms: O4_9  and  C6_10 
REMARK    7  A    between atoms: C6_10  and  C7_12 
REMARK    8  A    between atoms: C7_12  and  C8_13 
REMARK    9  A    between atoms: C8_13  and  C9_14 
REMARK       I    between atoms: C9_14  and  N1_16 
REMARK   10  A    between atoms: N1_16  and  C10_17 
REMARK   11  A    between atoms: C10_17  and  C11_18 
REMARK   12  A    between atoms: C10_17  and  C18_25 
REMARK   13  A    between atoms: C11_18  and  C12_19 
REMARK   14  A    between atoms: C18_25  and  O8_27 
ROOT
HETATM    1  C3  UNL     1      -2.053   6.390  13.219  1.00  0.00     0.140 C 
HETATM    2  C19 UNL     1      -2.270   5.139  12.275  1.00  0.00     0.048 C 
HETATM    3  C20 UNL     1      -3.739   4.678  12.444  1.00  0.00     0.009 C 
HETATM    4  C21 UNL     1      -4.350   5.821  13.230  1.00  0.00     0.002 C 
HETATM    5  C22 UNL     1      -5.710   5.757  13.922  1.00  0.00    -0.004 C 
HETATM    6  C23 UNL     1      -6.792   4.909  13.245  1.00  0.00     0.010 C 
HETATM    7  C24 UNL     1      -8.097   5.653  12.966  1.00  0.00     0.035 C 
HETATM    8  C25 UNL     1      -8.560   6.606  14.050  1.00  0.00    -0.068 C 
HETATM    9  C26 UNL     1      -9.870   6.895  14.141  1.00  0.00     0.053 C 
HETATM   10  C27 UNL     1     -10.367   7.972  15.027  1.00  0.00     0.149 C 
HETATM   11  O9  UNL     1     -11.576   8.070  15.230  1.00  0.00    -0.293 OA
HETATM   12  C28 UNL     1      -9.376   8.926  15.650  1.00  0.00     0.084 C 
HETATM   13  C29 UNL     1      -7.971   8.799  15.058  1.00  0.00     0.022 C 
HETATM   14  C30 UNL     1      -7.504   7.328  14.896  1.00  0.00    -0.016 C 
HETATM   15  C31 UNL     1      -7.404   6.661  16.288  1.00  0.00     0.020 C 
HETATM   16  C32 UNL     1      -6.140   7.242  14.136  1.00  0.00     0.002 C 
HETATM   17  C33 UNL     1      -4.966   8.117  14.665  1.00  0.00     0.007 C 
HETATM   18  C34 UNL     1      -3.706   7.370  15.130  1.00  0.00     0.013 C 
HETATM   19  C35 UNL     1      -3.221   6.190  14.248  1.00  0.00    -0.001 C 
HETATM   20  C36 UNL     1      -2.914   4.999  15.215  1.00  0.00     0.019 C 
ENDROOT
BRANCH   1  21
HETATM   21  O2  UNL     1      -2.321   7.536  12.351  1.00  0.00    -0.301 OA
BRANCH  21  22
HETATM   22  C2  UNL     1      -1.429   8.556  12.278  1.00  0.00     0.256 C 
HETATM   23  C1  UNL     1      -1.778   9.621  13.271  1.00  0.00     0.126 C 
HETATM   24  O1  UNL     1      -0.452   8.590  11.546  1.00  0.00    -0.266 OA
ENDBRANCH  21  22
ENDBRANCH   1  21
BRANCH   1  25
HETATM   25  C4  UNL     1      -0.551   6.391  13.609  1.00  0.00     0.186 C 
HETATM   26  O3  UNL     1      -0.167   7.115  14.540  1.00  0.00    -0.292 OA
BRANCH  25  27
HETATM   27  C5  UNL     1       0.418   5.447  12.908  1.00  0.00     0.260 C 
BRANCH  27  28
HETATM   28  O4  UNL     1       1.585   6.137  12.443  1.00  0.00    -0.314 OA
BRANCH  28  29
HETATM   29  C6  UNL     1       2.081   5.681  11.260  1.00  0.00     0.259 C 
HETATM   30  O5  UNL     1       1.808   4.598  10.762  1.00  0.00    -0.265 OA
BRANCH  29  31
HETATM   31  C7  UNL     1       2.965   6.719  10.612  1.00  0.00     0.120 C 
BRANCH  31  32
HETATM   32  C8  UNL     1       4.443   6.514  10.925  1.00  0.00     0.112 C 
BRANCH  32  33
HETATM   33  C9  UNL     1       4.935   7.472  11.990  1.00  0.00     0.218 C 
HETATM   34  O6  UNL     1       4.583   8.644  12.059  1.00  0.00    -0.274 OA
HETATM   35  N1  UNL     1       5.784   6.894  12.895  1.00  0.00    -0.346 N 
HETATM   36  H10 UNL     1       6.105   5.939  12.773  1.00  0.00     0.163 HD
BRANCH  35  37
HETATM   37  C10 UNL     1       6.374   7.643  14.010  1.00  0.00     0.186 C 
BRANCH  37  38
HETATM   38  C11 UNL     1       6.977   8.988  13.565  1.00  0.00     0.074 C 
BRANCH  38  39
HETATM   39  C12 UNL     1       8.487   9.052  13.660  1.00  0.00    -0.056 A 
HETATM   40  C13 UNL     1       9.156  10.273  13.496  1.00  0.00     0.007 A 
HETATM   41  C14 UNL     1      10.546  10.340  13.611  1.00  0.00     0.001 A 
HETATM   42  C15 UNL     1      11.280   9.188  13.889  1.00  0.00     0.000 A 
HETATM   43  C16 UNL     1      10.627   7.968  14.047  1.00  0.00     0.001 A 
HETATM   44  C17 UNL     1       9.238   7.897  13.927  1.00  0.00     0.007 A 
ENDBRANCH  38  39
ENDBRANCH  37  38
BRANCH  37  45
HETATM   45  C18 UNL     1       5.357   7.849  15.133  1.00  0.00     0.163 C 
HETATM   46  O7  UNL     1       4.851   8.910  15.465  1.00  0.00    -0.648 OA
BRANCH  45  47
HETATM   47  O8  UNL     1       5.018   6.708  15.779  1.00  0.00    -0.775 OA
HETATM   48  H19 UNL     1       4.358   7.004  16.442  1.00  0.00     0.167 HD
ENDBRANCH  45  47
ENDBRANCH  37  45
ENDBRANCH  35  37
ENDBRANCH  32  33
ENDBRANCH  31  32
ENDBRANCH  29  31
ENDBRANCH  28  29
ENDBRANCH  27  28
ENDBRANCH  25  27
ENDBRANCH   1  25
TORSDOF 14
ENDMDL
MODEL 9
REMARK minimizedAffinity -9.28192043
REMARK CNNscore 0.277507126
REMARK CNNaffinity 6.61362648
REMARK  14 active torsions:
REMARK  status: ('A' for Active; 'I' for Inactive)
REMARK    1  A    between atoms: C2_2  and  O2_4 
REMARK    2  A    between atoms: O2_4  and  C3_5 
REMARK    3  A    between atoms: C3_5  and  C4_6 
REMARK    4  A    between atoms: C4_6  and  C5_8 
REMARK    5  A    between atoms: C5_8  and  O4_9 
REMARK    6  A    between atoms: O4_9  and  C6_10 
REMARK    7  A    between atoms: C6_10  and  C7_12 
REMARK    8  A    between atoms: C7_12  and  C8_13 
REMARK    9  A    between atoms: C8_13  and  C9_14 
REMARK       I    between atoms: C9_14  and  N1_16 
REMARK   10  A    between atoms: N1_16  and  C10_17 
REMARK   11  A    between atoms: C10_17  and  C11_18 
REMARK   12  A    between atoms: C10_17  and  C18_25 
REMARK   13  A    between atoms: C11_18  and  C12_19 
REMARK   14  A    between atoms: C18_25  and  O8_27 
ROOT
HETATM    1  C3  UNL     1      -1.234   9.018  13.631  1.00  0.00     0.140 C 
HETATM    2  C19 UNL     1      -0.100   7.916  13.577  1.00  0.00     0.048 C 
HETATM    3  C20 UNL     1      -0.784   6.536  13.730  1.00  0.00     0.009 C 
HETATM    4  C21 UNL     1      -2.252   6.883  13.581  1.00  0.00     0.002 C 
HETATM    5  C22 UNL     1      -3.399   5.938  13.936  1.00  0.00    -0.004 C 
HETATM    6  C23 UNL     1      -3.157   4.441  13.711  1.00  0.00     0.010 C 
HETATM    7  C24 UNL     1      -4.203   3.757  12.832  1.00  0.00     0.035 C 
HETATM    8  C25 UNL     1      -5.639   4.187  13.055  1.00  0.00    -0.068 C 
HETATM    9  C26 UNL     1      -6.628   3.332  12.735  1.00  0.00     0.053 C 
HETATM   10  C27 UNL     1      -8.046   3.757  12.724  1.00  0.00     0.149 C 
HETATM   11  O9  UNL     1      -8.925   2.904  12.622  1.00  0.00    -0.293 OA
HETATM   12  C28 UNL     1      -8.373   5.228  12.829  1.00  0.00     0.084 C 
HETATM   13  C29 UNL     1      -7.144   6.126  12.672  1.00  0.00     0.022 C 
HETATM   14  C30 UNL     1      -5.916   5.633  13.484  1.00  0.00    -0.016 C 
HETATM   15  C31 UNL     1      -6.244   5.676  14.996  1.00  0.00     0.020 C 
HETATM   16  C32 UNL     1      -4.642   6.480  13.164  1.00  0.00     0.002 C 
HETATM   17  C33 UNL     1      -4.763   8.029  13.272  1.00  0.00     0.007 C 
HETATM   18  C34 UNL     1      -3.846   8.721  14.292  1.00  0.00     0.013 C 
HETATM   19  C35 UNL     1      -2.377   8.230  14.365  1.00  0.00    -0.001 C 
HETATM   20  C36 UNL     1      -2.037   8.042  15.881  1.00  0.00     0.019 C 
ENDROOT
BRANCH   1  21
HETATM   21  O2  UNL     1      -1.579   9.237  12.227  1.00  0.00    -0.301 OA
BRANCH  21  22
HETATM   22  C2  UNL     1      -0.679   8.945  11.254  1.00  0.00     0.256 C 
HETATM   23  C1  UNL     1       0.714   9.016  11.799  1.00  0.00     0.126 C 
HETATM   24  O1  UNL     1      -0.955   8.625  10.108  1.00  0.00    -0.266 OA
ENDBRANCH  21  22
ENDBRANCH   1  21
BRANCH   1  25
HETATM   25  C4  UNL     1      -0.572  10.303  14.196  1.00  0.00     0.186 C 
HETATM   26  O3  UNL     1      -1.125  11.399  14.015  1.00  0.00    -0.292 OA
BRANCH  25  27
HETATM   27  C5  UNL     1       0.696  10.201  15.034  1.00  0.00     0.260 C 
BRANCH  27  28
HETATM   28  O4  UNL     1       0.475  10.636  16.381  1.00  0.00    -0.314 OA
BRANCH  28  29
HETATM   29  C6  UNL     1       1.300  10.069  17.304  1.00  0.00     0.259 C 
HETATM   30  O5  UNL     1       2.100   9.175  17.066  1.00  0.00    -0.265 OA
BRANCH  29  31
HETATM   31  C7  UNL     1       1.140  10.734  18.650  1.00  0.00     0.120 C 
BRANCH  31  32
HETATM   32  C8  UNL     1       2.451  11.296  19.189  1.00  0.00     0.112 C 
BRANCH  32  33
HETATM   33  C9  UNL     1       2.575  11.109  20.687  1.00  0.00     0.218 C 
HETATM   34  O6  UNL     1       1.918  11.744  21.503  1.00  0.00    -0.274 OA
HETATM   35  N1  UNL     1       3.465  10.132  21.044  1.00  0.00    -0.346 N 
HETATM   36  H10 UNL     1       4.039   9.669  20.346  1.00  0.00     0.163 HD
BRANCH  35  37
HETATM   37  C10 UNL     1       3.734   9.787  22.444  1.00  0.00     0.186 C 
BRANCH  37  38
HETATM   38  C11 UNL     1       3.840  11.027  23.349  1.00  0.00     0.074 C 
BRANCH  38  39
HETATM   39  C12 UNL     1       5.063  11.883  23.089  1.00  0.00    -0.056 A 
HETATM   40  C13 UNL     1       4.921  13.225  22.712  1.00  0.00     0.007 A 
HETATM   41  C14 UNL     1       6.046  14.025  22.500  1.00  0.00     0.001 A 
HETATM   42  C15 UNL     1       7.323  13.490  22.662  1.00  0.00     0.000 A 
HETATM   43  C16 UNL     1       7.476  12.156  23.031  1.00  0.00     0.001 A 
HETATM   44  C17 UNL     1       6.353  11.353  23.238  1.00  0.00     0.007 A 
ENDBRANCH  38  39
ENDBRANCH  37  38
BRANCH  37  45
HETATM   45  C18 UNL     1       2.687   8.811  22.981  1.00  0.00     0.163 C 
HETATM   46  O7  UNL     1       2.367   8.665  24.150  1.00  0.00    -0.648 OA
BRANCH  45  47
HETATM   47  O8  UNL     1       2.085   8.071  22.019  1.00  0.00    -0.775 OA
HETATM   48  H19 UNL     1       1.441   7.523  22.516  1.00  0.00     0.167 HD
ENDBRANCH  45  47
ENDBRANCH  37  45
ENDBRANCH  35  37
ENDBRANCH  32  33
ENDBRANCH  31  32
ENDBRANCH  29  31
ENDBRANCH  28  29
ENDBRANCH  27  28
ENDBRANCH  25  27
ENDBRANCH   1  25
TORSDOF 14
ENDMDL
