MODEL 1
REMARK minimizedAffinity -7.34945154
REMARK CNNscore 0.786685944
REMARK CNNaffinity 7.29736853
REMARK  6 active torsions:
REMARK  status: ('A' for Active; 'I' for Inactive)
REMARK    1  A    between atoms: C2_2  and  C30_31 
REMARK    2  A    between atoms: C3_3  and  C4_4 
REMARK    3  A    between atoms: C4_4  and  C5_5 
REMARK    4  A    between atoms: C5_5  and  C6_6 
REMARK    5  A    between atoms: C6_6  and  C8_8 
REMARK    6  A    between atoms: C30_31  and  O3_33 
ROOT
HETATM    1  C8  UNL     1       4.924  54.912  -8.783  1.00  0.00    -0.002 C 
HETATM    2  C9  UNL     1       4.397  56.326  -8.429  1.00  0.00     0.007 C 
HETATM    3  C10 UNL     1       2.900  56.345  -8.805  1.00  0.00     0.015 C 
HETATM    4  C11 UNL     1       2.679  55.072  -9.657  1.00  0.00    -0.013 C 
HETATM    5  C12 UNL     1       3.081  55.455 -11.113  1.00  0.00     0.021 C 
HETATM    6  C13 UNL     1       1.287  54.476  -9.736  1.00  0.00    -0.070 C 
HETATM    7  C14 UNL     1       0.167  55.131  -9.398  1.00  0.00    -0.022 C 
HETATM    8  C15 UNL     1      -1.161  54.452  -9.461  1.00  0.00     0.034 C 
HETATM    9  C16 UNL     1      -1.327  53.646 -10.773  1.00  0.00     0.013 C 
HETATM   10  C17 UNL     1      -2.732  52.938 -10.862  1.00  0.00     0.018 C 
HETATM   11  C18 UNL     1      -3.116  52.604 -12.317  1.00  0.00     0.023 C 
HETATM   12  C19 UNL     1      -3.865  53.839 -10.317  1.00  0.00     0.023 C 
HETATM   13  C20 UNL     1      -2.732  51.634 -10.057  1.00  0.00     0.135 C 
HETATM   14  O1  UNL     1      -3.770  51.147  -9.603  1.00  0.00    -0.297 OA
HETATM   15  C21 UNL     1      -1.412  50.943  -9.816  1.00  0.00     0.080 C 
HETATM   16  C22 UNL     1      -0.447  51.206 -10.959  1.00  0.00     0.017 C 
HETATM   17  C23 UNL     1      -0.066  52.710 -11.080  1.00  0.00    -0.031 C 
HETATM   18  C24 UNL     1       0.362  52.972 -12.549  1.00  0.00     0.016 C 
HETATM   19  C25 UNL     1       1.165  52.999 -10.102  1.00  0.00     0.024 C 
HETATM   20  C26 UNL     1       2.513  52.341 -10.527  1.00  0.00     0.010 C 
HETATM   21  C27 UNL     1       3.793  52.786  -9.781  1.00  0.00     0.011 C 
HETATM   22  C28 UNL     1       3.627  54.057  -8.929  1.00  0.00    -0.029 C 
HETATM   23  C29 UNL     1       3.108  53.617  -7.529  1.00  0.00     0.016 C 
ENDROOT
BRANCH   1  24
HETATM   24  C6  UNL     1       6.093  54.362  -7.909  1.00  0.00    -0.014 C 
HETATM   25  C7  UNL     1       6.013  55.033  -6.524  1.00  0.00     0.010 C 
BRANCH  24  26
HETATM   26  C5  UNL     1       6.120  52.821  -7.747  1.00  0.00     0.008 C 
BRANCH  26  27
HETATM   27  C4  UNL     1       7.020  52.073  -8.744  1.00  0.00     0.028 C 
BRANCH  27  28
HETATM   28  C3  UNL     1       7.475  50.711  -8.300  1.00  0.00    -0.013 C 
HETATM   29  C2  UNL     1       7.627  49.594  -9.041  1.00  0.00     0.008 C 
HETATM   30  C1  UNL     1       8.081  48.306  -8.410  1.00  0.00     0.055 C 
BRANCH  29  31
HETATM   31  C30 UNL     1       7.333  49.564 -10.499  1.00  0.00     0.171 C 
HETATM   32  O2  UNL     1       6.286  49.843 -11.055  1.00  0.00    -0.646 OA
BRANCH  31  33
HETATM   33  O3  UNL     1       8.399  49.171 -11.220  1.00  0.00    -0.773 OA
HETATM   34  H46 UNL     1       8.066  49.189 -12.141  1.00  0.00     0.167 HD
ENDBRANCH  31  33
ENDBRANCH  29  31
ENDBRANCH  27  28
ENDBRANCH  26  27
ENDBRANCH  24  26
ENDBRANCH   1  24
TORSDOF 6
ENDMDL
MODEL 2
REMARK minimizedAffinity -7.6159749
REMARK CNNscore 0.715345681
REMARK CNNaffinity 6.98636627
REMARK  6 active torsions:
REMARK  status: ('A' for Active; 'I' for Inactive)
REMARK    1  A    between atoms: C2_2  and  C30_31 
REMARK    2  A    between atoms: C3_3  and  C4_4 
REMARK    3  A    between atoms: C4_4  and  C5_5 
REMARK    4  A    between atoms: C5_5  and  C6_6 
REMARK    5  A    between atoms: C6_6  and  C8_8 
REMARK    6  A    between atoms: C30_31  and  O3_33 
ROOT
HETATM    1  C8  UNL     1      -1.812  52.173 -10.214  1.00  0.00    -0.002 C 
HETATM    2  C9  UNL     1      -1.457  50.836  -9.516  1.00  0.00     0.007 C 
HETATM    3  C10 UNL     1       0.006  50.964  -9.038  1.00  0.00     0.015 C 
HETATM    4  C11 UNL     1       0.557  52.223  -9.749  1.00  0.00    -0.013 C 
HETATM    5  C12 UNL     1       1.025  51.750 -11.158  1.00  0.00     0.021 C 
HETATM    6  C13 UNL     1       1.728  52.961  -9.130  1.00  0.00    -0.070 C 
HETATM    7  C14 UNL     1       2.536  52.441  -8.196  1.00  0.00    -0.022 C 
HETATM    8  C15 UNL     1       3.639  53.254  -7.603  1.00  0.00     0.034 C 
HETATM    9  C16 UNL     1       4.424  54.028  -8.691  1.00  0.00     0.013 C 
HETATM   10  C17 UNL     1       5.603  54.878  -8.083  1.00  0.00     0.018 C 
HETATM   11  C18 UNL     1       6.681  55.201  -9.136  1.00  0.00     0.023 C 
HETATM   12  C19 UNL     1       6.329  54.122  -6.946  1.00  0.00     0.023 C 
HETATM   13  C20 UNL     1       5.078  56.201  -7.515  1.00  0.00     0.135 C 
HETATM   14  O1  UNL     1       5.674  56.811  -6.624  1.00  0.00    -0.297 OA
HETATM   15  C21 UNL     1       3.789  56.756  -8.070  1.00  0.00     0.080 C 
HETATM   16  C22 UNL     1       3.608  56.352  -9.523  1.00  0.00     0.017 C 
HETATM   17  C23 UNL     1       3.460  54.814  -9.699  1.00  0.00    -0.031 C 
HETATM   18  C24 UNL     1       3.905  54.458 -11.142  1.00  0.00     0.016 C 
HETATM   19  C25 UNL     1       1.921  54.429  -9.500  1.00  0.00     0.024 C 
HETATM   20  C26 UNL     1       0.966  54.925 -10.629  1.00  0.00     0.010 C 
HETATM   21  C27 UNL     1      -0.478  54.372 -10.639  1.00  0.00     0.011 C 
HETATM   22  C28 UNL     1      -0.703  53.156  -9.724  1.00  0.00    -0.029 C 
HETATM   23  C29 UNL     1      -1.048  53.696  -8.305  1.00  0.00     0.016 C 
ENDROOT
BRANCH   1  24
HETATM   24  C6  UNL     1      -3.303  52.626 -10.142  1.00  0.00    -0.014 C 
HETATM   25  C7  UNL     1      -3.392  54.070 -10.671  1.00  0.00     0.010 C 
BRANCH  24  26
HETATM   26  C5  UNL     1      -4.300  51.721 -10.909  1.00  0.00     0.008 C 
BRANCH  26  27
HETATM   27  C4  UNL     1      -5.038  50.681 -10.049  1.00  0.00     0.028 C 
BRANCH  27  28
HETATM   28  C3  UNL     1      -5.403  49.407 -10.757  1.00  0.00    -0.013 C 
HETATM   29  C2  UNL     1      -6.628  48.875 -10.949  1.00  0.00     0.008 C 
HETATM   30  C1  UNL     1      -6.796  47.567 -11.673  1.00  0.00     0.055 C 
BRANCH  29  31
HETATM   31  C30 UNL     1      -7.864  49.528 -10.440  1.00  0.00     0.171 C 
HETATM   32  O2  UNL     1      -8.057  50.000  -9.333  1.00  0.00    -0.646 OA
BRANCH  31  33
HETATM   33  O3  UNL     1      -8.837  49.560 -11.369  1.00  0.00    -0.773 OA
HETATM   34  H46 UNL     1      -9.577  50.000 -10.903  1.00  0.00     0.167 HD
ENDBRANCH  31  33
ENDBRANCH  29  31
ENDBRANCH  27  28
ENDBRANCH  26  27
ENDBRANCH  24  26
ENDBRANCH   1  24
TORSDOF 6
ENDMDL
MODEL 3
REMARK minimizedAffinity -7.46774673
REMARK CNNscore 0.548120379
REMARK CNNaffinity 6.26296616
REMARK  6 active torsions:
REMARK  status: ('A' for Active; 'I' for Inactive)
REMARK    1  A    between atoms: C2_2  and  C30_31 
REMARK    2  A    between atoms: C3_3  and  C4_4 
REMARK    3  A    between atoms: C4_4  and  C5_5 
REMARK    4  A    between atoms: C5_5  and  C6_6 
REMARK    5  A    between atoms: C6_6  and  C8_8 
REMARK    6  A    between atoms: C30_31  and  O3_33 
ROOT
HETATM    1  C8  UNL     1     -12.756  44.259 -29.057  1.00  0.00    -0.002 C 
HETATM    2  C9  UNL     1     -12.069  42.881 -28.892  1.00  0.00     0.007 C 
HETATM    3  C10 UNL     1     -10.651  43.020 -29.488  1.00  0.00     0.015 C 
HETATM    4  C11 UNL     1     -10.669  44.357 -30.267  1.00  0.00    -0.013 C 
HETATM    5  C12 UNL     1     -11.261  44.028 -31.671  1.00  0.00     0.021 C 
HETATM    6  C13 UNL     1      -9.359  45.081 -30.511  1.00  0.00    -0.070 C 
HETATM    7  C14 UNL     1      -8.152  44.511 -30.394  1.00  0.00    -0.022 C 
HETATM    8  C15 UNL     1      -6.908  45.310 -30.605  1.00  0.00     0.034 C 
HETATM    9  C16 UNL     1      -7.014  46.205 -31.865  1.00  0.00     0.013 C 
HETATM   10  C17 UNL     1      -5.701  47.041 -32.111  1.00  0.00     0.018 C 
HETATM   11  C18 UNL     1      -5.578  47.496 -33.579  1.00  0.00     0.023 C 
HETATM   12  C19 UNL     1      -4.429  46.216 -31.811  1.00  0.00     0.023 C 
HETATM   13  C20 UNL     1      -5.681  48.289 -31.222  1.00  0.00     0.135 C 
HETATM   14  O1  UNL     1      -4.627  48.840 -30.894  1.00  0.00    -0.297 OA
HETATM   15  C21 UNL     1      -6.999  48.842 -30.735  1.00  0.00     0.080 C 
HETATM   16  C22 UNL     1      -8.106  48.562 -31.737  1.00  0.00     0.017 C 
HETATM   17  C23 UNL     1      -8.379  47.040 -31.910  1.00  0.00    -0.031 C 
HETATM   18  C24 UNL     1      -9.008  46.829 -33.313  1.00  0.00     0.016 C 
HETATM   19  C25 UNL     1      -9.415  46.582 -30.782  1.00  0.00     0.024 C 
HETATM   20  C26 UNL     1     -10.861  47.139 -30.950  1.00  0.00     0.010 C 
HETATM   21  C27 UNL     1     -11.969  46.535 -30.054  1.00  0.00     0.011 C 
HETATM   22  C28 UNL     1     -11.571  45.236 -29.333  1.00  0.00    -0.029 C 
HETATM   23  C29 UNL     1     -10.877  45.636 -27.999  1.00  0.00     0.016 C 
ENDROOT
BRANCH   1  24
HETATM   24  C6  UNL     1     -13.814  44.648 -27.979  1.00  0.00    -0.014 C 
HETATM   25  C7  UNL     1     -14.273  46.093 -28.256  1.00  0.00     0.010 C 
BRANCH  24  26
HETATM   26  C5  UNL     1     -15.046  43.710 -27.901  1.00  0.00     0.008 C 
BRANCH  26  27
HETATM   27  C4  UNL     1     -16.303  44.219 -28.625  1.00  0.00     0.028 C 
BRANCH  27  28
HETATM   28  C3  UNL     1     -17.587  43.546 -28.228  1.00  0.00    -0.013 C 
HETATM   29  C2  UNL     1     -18.463  43.909 -27.268  1.00  0.00     0.008 C 
HETATM   30  C1  UNL     1     -19.698  43.091 -27.001  1.00  0.00     0.055 C 
BRANCH  29  31
HETATM   31  C30 UNL     1     -18.250  45.107 -26.413  1.00  0.00     0.171 C 
HETATM   32  O2  UNL     1     -17.205  45.495 -25.921  1.00  0.00    -0.646 OA
BRANCH  31  33
HETATM   33  O3  UNL     1     -19.392  45.787 -26.203  1.00  0.00    -0.773 OA
HETATM   34  H46 UNL     1     -19.109  46.529 -25.631  1.00  0.00     0.167 HD
ENDBRANCH  31  33
ENDBRANCH  29  31
ENDBRANCH  27  28
ENDBRANCH  26  27
ENDBRANCH  24  26
ENDBRANCH   1  24
TORSDOF 6
ENDMDL
MODEL 4
REMARK minimizedAffinity -7.41709471
REMARK CNNscore 0.298732936
REMARK CNNaffinity 6.00376081
REMARK  6 active torsions:
REMARK  status: ('A' for Active; 'I' for Inactive)
REMARK    1  A    between atoms: C2_2  and  C30_31 
REMARK    2  A    between atoms: C3_3  and  C4_4 
REMARK    3  A    between atoms: C4_4  and  C5_5 
REMARK    4  A    between atoms: C5_5  and  C6_6 
REMARK    5  A    between atoms: C6_6  and  C8_8 
REMARK    6  A    between atoms: C30_31  and  O3_33 
ROOT
HETATM    1  C8  UNL     1       1.730  55.490  -9.264  1.00  0.00    -0.002 C 
HETATM    2  C9  UNL     1       2.626  55.606 -10.523  1.00  0.00     0.007 C 
HETATM    3  C10 UNL     1       4.062  55.869 -10.019  1.00  0.00     0.015 C 
HETATM    4  C11 UNL     1       3.907  56.222  -8.520  1.00  0.00    -0.013 C 
HETATM    5  C12 UNL     1       3.576  57.744  -8.469  1.00  0.00     0.021 C 
HETATM    6  C13 UNL     1       5.086  56.006  -7.591  1.00  0.00    -0.070 C 
HETATM    7  C14 UNL     1       6.350  55.840  -8.006  1.00  0.00    -0.022 C 
HETATM    8  C15 UNL     1       7.446  55.584  -7.025  1.00  0.00     0.034 C 
HETATM    9  C16 UNL     1       7.349  56.531  -5.803  1.00  0.00     0.013 C 
HETATM   10  C17 UNL     1       8.511  56.285  -4.767  1.00  0.00     0.018 C 
HETATM   11  C18 UNL     1       8.745  57.512  -3.864  1.00  0.00     0.023 C 
HETATM   12  C19 UNL     1       9.860  56.008  -5.470  1.00  0.00     0.023 C 
HETATM   13  C20 UNL     1       8.187  55.086  -3.868  1.00  0.00     0.135 C 
HETATM   14  O1  UNL     1       9.072  54.429  -3.314  1.00  0.00    -0.297 OA
HETATM   15  C21 UNL     1       6.739  54.708  -3.673  1.00  0.00     0.080 C 
HETATM   16  C22 UNL     1       5.844  55.932  -3.769  1.00  0.00     0.017 C 
HETATM   17  C23 UNL     1       5.875  56.581  -5.182  1.00  0.00    -0.031 C 
HETATM   18  C24 UNL     1       5.487  58.075  -5.025  1.00  0.00     0.016 C 
HETATM   19  C25 UNL     1       4.798  55.840  -6.102  1.00  0.00     0.024 C 
HETATM   20  C26 UNL     1       3.310  56.100  -5.715  1.00  0.00     0.010 C 
HETATM   21  C27 UNL     1       2.220  55.632  -6.708  1.00  0.00     0.011 C 
HETATM   22  C28 UNL     1       2.746  55.255  -8.103  1.00  0.00    -0.029 C 
HETATM   23  C29 UNL     1       3.173  53.759  -8.053  1.00  0.00     0.016 C 
ENDROOT
BRANCH   1  24
HETATM   24  C6  UNL     1       0.485  54.557  -9.374  1.00  0.00    -0.014 C 
HETATM   25  C7  UNL     1      -0.763  55.442  -9.557  1.00  0.00     0.010 C 
BRANCH  24  26
HETATM   26  C5  UNL     1       0.555  53.503 -10.508  1.00  0.00     0.008 C 
BRANCH  26  27
HETATM   27  C4  UNL     1      -0.674  53.452 -11.432  1.00  0.00     0.028 C 
BRANCH  27  28
HETATM   28  C3  UNL     1      -1.549  52.242 -11.268  1.00  0.00    -0.013 C 
HETATM   29  C2  UNL     1      -2.895  52.184 -11.191  1.00  0.00     0.008 C 
HETATM   30  C1  UNL     1      -3.601  50.868 -11.007  1.00  0.00     0.055 C 
BRANCH  29  31
HETATM   31  C30 UNL     1      -3.746  53.402 -11.256  1.00  0.00     0.171 C 
HETATM   32  O2  UNL     1      -4.116  54.104 -10.332  1.00  0.00    -0.646 OA
BRANCH  31  33
HETATM   33  O3  UNL     1      -4.109  53.696 -12.519  1.00  0.00    -0.773 OA
HETATM   34  H46 UNL     1      -4.660  54.498 -12.412  1.00  0.00     0.167 HD
ENDBRANCH  31  33
ENDBRANCH  29  31
ENDBRANCH  27  28
ENDBRANCH  26  27
ENDBRANCH  24  26
ENDBRANCH   1  24
TORSDOF 6
ENDMDL
MODEL 5
REMARK minimizedAffinity -7.77603245
REMARK CNNscore 0.234770045
REMARK CNNaffinity 5.41266108
REMARK  6 active torsions:
REMARK  status: ('A' for Active; 'I' for Inactive)
REMARK    1  A    between atoms: C2_2  and  C30_31 
REMARK    2  A    between atoms: C3_3  and  C4_4 
REMARK    3  A    between atoms: C4_4  and  C5_5 
REMARK    4  A    between atoms: C5_5  and  C6_6 
REMARK    5  A    between atoms: C6_6  and  C8_8 
REMARK    6  A    between atoms: C30_31  and  O3_33 
ROOT
HETATM    1  C8  UNL     1       5.788  67.545 -36.608  1.00  0.00    -0.002 C 
HETATM    2  C9  UNL     1       5.045  68.077 -35.357  1.00  0.00     0.007 C 
HETATM    3  C10 UNL     1       3.707  68.665 -35.854  1.00  0.00     0.015 C 
HETATM    4  C11 UNL     1       3.851  68.754 -37.393  1.00  0.00    -0.013 C 
HETATM    5  C12 UNL     1       4.584  70.100 -37.678  1.00  0.00     0.021 C 
HETATM    6  C13 UNL     1       2.598  68.756 -38.247  1.00  0.00    -0.070 C 
HETATM    7  C14 UNL     1       1.369  69.011 -37.779  1.00  0.00    -0.022 C 
HETATM    8  C15 UNL     1       0.181  68.945 -38.681  1.00  0.00     0.034 C 
HETATM    9  C16 UNL     1       0.451  69.652 -40.032  1.00  0.00     0.013 C 
HETATM   10  C17 UNL     1      -0.800  69.606 -40.988  1.00  0.00     0.018 C 
HETATM   11  C18 UNL     1      -0.748  70.717 -42.055  1.00  0.00     0.023 C 
HETATM   12  C19 UNL     1      -2.123  69.818 -40.214  1.00  0.00     0.023 C 
HETATM   13  C20 UNL     1      -0.881  68.255 -41.707  1.00  0.00     0.135 C 
HETATM   14  O1  UNL     1      -1.947  67.806 -42.134  1.00  0.00    -0.297 OA
HETATM   15  C21 UNL     1       0.391  67.462 -41.884  1.00  0.00     0.080 C 
HETATM   16  C22 UNL     1       1.593  68.385 -41.994  1.00  0.00     0.017 C 
HETATM   17  C23 UNL     1       1.837  69.200 -40.692  1.00  0.00    -0.031 C 
HETATM   18  C24 UNL     1       2.610  70.489 -41.080  1.00  0.00     0.016 C 
HETATM   19  C25 UNL     1       2.728  68.316 -39.703  1.00  0.00     0.024 C 
HETATM   20  C26 UNL     1       4.201  68.092 -40.164  1.00  0.00     0.010 C 
HETATM   21  C27 UNL     1       5.185  67.474 -39.143  1.00  0.00     0.011 C 
HETATM   22  C28 UNL     1       4.671  67.452 -37.693  1.00  0.00    -0.029 C 
HETATM   23  C29 UNL     1       3.846  66.144 -37.509  1.00  0.00     0.016 C 
ENDROOT
BRANCH   1  24
HETATM   24  C6  UNL     1       6.733  66.322 -36.394  1.00  0.00    -0.014 C 
HETATM   25  C7  UNL     1       8.082  66.634 -37.070  1.00  0.00     0.010 C 
BRANCH  24  26
HETATM   26  C5  UNL     1       6.964  65.924 -34.915  1.00  0.00     0.008 C 
BRANCH  26  27
HETATM   27  C4  UNL     1       6.932  64.413 -34.630  1.00  0.00     0.028 C 
BRANCH  27  28
HETATM   28  C3  UNL     1       7.933  63.595 -35.397  1.00  0.00    -0.013 C 
HETATM   29  C2  UNL     1       8.866  62.746 -34.918  1.00  0.00     0.008 C 
HETATM   30  C1  UNL     1       9.800  62.022 -35.849  1.00  0.00     0.055 C 
BRANCH  29  31
HETATM   31  C30 UNL     1       9.039  62.499 -33.462  1.00  0.00     0.171 C 
HETATM   32  O2  UNL     1       9.752  63.106 -32.682  1.00  0.00    -0.646 OA
BRANCH  31  33
HETATM   33  O3  UNL     1       8.290  61.467 -33.032  1.00  0.00    -0.773 OA
HETATM   34  H46 UNL     1       8.506  61.415 -32.079  1.00  0.00     0.167 HD
ENDBRANCH  31  33
ENDBRANCH  29  31
ENDBRANCH  27  28
ENDBRANCH  26  27
ENDBRANCH  24  26
ENDBRANCH   1  24
TORSDOF 6
ENDMDL
MODEL 6
REMARK minimizedAffinity -7.42040014
REMARK CNNscore 0.191477299
REMARK CNNaffinity 6.14539957
REMARK  6 active torsions:
REMARK  status: ('A' for Active; 'I' for Inactive)
REMARK    1  A    between atoms: C2_2  and  C30_31 
REMARK    2  A    between atoms: C3_3  and  C4_4 
REMARK    3  A    between atoms: C4_4  and  C5_5 
REMARK    4  A    between atoms: C5_5  and  C6_6 
REMARK    5  A    between atoms: C6_6  and  C8_8 
REMARK    6  A    between atoms: C30_31  and  O3_33 
ROOT
HETATM    1  C8  UNL     1      -3.761  47.613 -19.820  1.00  0.00    -0.002 C 
HETATM    2  C9  UNL     1      -4.862  46.843 -20.592  1.00  0.00     0.007 C 
HETATM    3  C10 UNL     1      -4.872  47.408 -22.029  1.00  0.00     0.015 C 
HETATM    4  C11 UNL     1      -4.017  48.696 -21.963  1.00  0.00    -0.013 C 
HETATM    5  C12 UNL     1      -4.977  49.824 -21.480  1.00  0.00     0.021 C 
HETATM    6  C13 UNL     1      -3.359  49.204 -23.231  1.00  0.00    -0.070 C 
HETATM    7  C14 UNL     1      -3.711  48.822 -24.467  1.00  0.00    -0.022 C 
HETATM    8  C15 UNL     1      -2.977  49.335 -25.662  1.00  0.00     0.034 C 
HETATM    9  C16 UNL     1      -2.734  50.862 -25.568  1.00  0.00     0.013 C 
HETATM   10  C17 UNL     1      -1.977  51.422 -26.831  1.00  0.00     0.018 C 
HETATM   11  C18 UNL     1      -2.200  52.937 -27.009  1.00  0.00     0.023 C 
HETATM   12  C19 UNL     1      -2.471  50.760 -28.138  1.00  0.00     0.023 C 
HETATM   13  C20 UNL     1      -0.470  51.172 -26.711  1.00  0.00     0.135 C 
HETATM   14  O1  UNL     1       0.260  51.097 -27.703  1.00  0.00    -0.297 OA
HETATM   15  C21 UNL     1       0.121  51.008 -25.332  1.00  0.00     0.080 C 
HETATM   16  C22 UNL     1      -0.666  51.808 -24.308  1.00  0.00     0.017 C 
HETATM   17  C23 UNL     1      -2.128  51.300 -24.153  1.00  0.00    -0.031 C 
HETATM   18  C24 UNL     1      -2.985  52.481 -23.625  1.00  0.00     0.016 C 
HETATM   19  C25 UNL     1      -2.138  50.109 -23.087  1.00  0.00     0.024 C 
HETATM   20  C26 UNL     1      -1.841  50.537 -21.617  1.00  0.00     0.010 C 
HETATM   21  C27 UNL     1      -2.089  49.493 -20.504  1.00  0.00     0.011 C 
HETATM   22  C28 UNL     1      -2.902  48.265 -20.949  1.00  0.00    -0.029 C 
HETATM   23  C29 UNL     1      -1.900  47.227 -21.533  1.00  0.00     0.016 C 
ENDROOT
BRANCH   1  24
HETATM   24  C6  UNL     1      -3.037  46.840 -18.676  1.00  0.00    -0.014 C 
HETATM   25  C7  UNL     1      -2.547  47.868 -17.637  1.00  0.00     0.010 C 
BRANCH  24  26
HETATM   26  C5  UNL     1      -3.891  45.752 -17.977  1.00  0.00     0.008 C 
BRANCH  26  27
HETATM   27  C4  UNL     1      -3.546  44.303 -18.359  1.00  0.00     0.028 C 
BRANCH  27  28
HETATM   28  C3  UNL     1      -4.709  43.467 -18.817  1.00  0.00    -0.013 C 
HETATM   29  C2  UNL     1      -4.821  42.123 -18.830  1.00  0.00     0.008 C 
HETATM   30  C1  UNL     1      -6.069  41.459 -19.347  1.00  0.00     0.055 C 
BRANCH  29  31
HETATM   31  C30 UNL     1      -3.726  41.231 -18.364  1.00  0.00     0.171 C 
HETATM   32  O2  UNL     1      -3.577  40.749 -17.256  1.00  0.00    -0.646 OA
BRANCH  31  33
HETATM   33  O3  UNL     1      -2.834  40.977 -19.340  1.00  0.00    -0.773 OA
HETATM   34  H46 UNL     1      -2.179  40.398 -18.899  1.00  0.00     0.167 HD
ENDBRANCH  31  33
ENDBRANCH  29  31
ENDBRANCH  27  28
ENDBRANCH  26  27
ENDBRANCH  24  26
ENDBRANCH   1  24
TORSDOF 6
ENDMDL
MODEL 7
REMARK minimizedAffinity -7.41302061
REMARK CNNscore 0.187281385
REMARK CNNaffinity 5.80237818
REMARK  6 active torsions:
REMARK  status: ('A' for Active; 'I' for Inactive)
REMARK    1  A    between atoms: C2_2  and  C30_31 
REMARK    2  A    between atoms: C3_3  and  C4_4 
REMARK    3  A    between atoms: C4_4  and  C5_5 
REMARK    4  A    between atoms: C5_5  and  C6_6 
REMARK    5  A    between atoms: C6_6  and  C8_8 
REMARK    6  A    between atoms: C30_31  and  O3_33 
ROOT
HETATM    1  C8  UNL     1      -7.550  47.662 -21.334  1.00  0.00    -0.002 C 
HETATM    2  C9  UNL     1      -6.802  47.745 -19.980  1.00  0.00     0.007 C 
HETATM    3  C10 UNL     1      -5.414  48.350 -20.280  1.00  0.00     0.015 C 
HETATM    4  C11 UNL     1      -5.272  48.296 -21.820  1.00  0.00    -0.013 C 
HETATM    5  C12 UNL     1      -4.755  46.864 -22.153  1.00  0.00     0.021 C 
HETATM    6  C13 UNL     1      -4.327  49.265 -22.503  1.00  0.00    -0.070 C 
HETATM    7  C14 UNL     1      -3.363  49.949 -21.870  1.00  0.00    -0.022 C 
HETATM    8  C15 UNL     1      -2.506  50.921 -22.611  1.00  0.00     0.034 C 
HETATM    9  C16 UNL     1      -2.021  50.339 -23.962  1.00  0.00     0.013 C 
HETATM   10  C17 UNL     1      -1.101  51.347 -24.748  1.00  0.00     0.018 C 
HETATM   11  C18 UNL     1      -0.206  50.627 -25.776  1.00  0.00     0.023 C 
HETATM   12  C19 UNL     1      -0.140  52.105 -23.803  1.00  0.00     0.023 C 
HETATM   13  C20 UNL     1      -1.948  52.382 -25.495  1.00  0.00     0.135 C 
HETATM   14  O1  UNL     1      -1.507  53.495 -25.794  1.00  0.00    -0.297 OA
HETATM   15  C21 UNL     1      -3.366  52.016 -25.862  1.00  0.00     0.080 C 
HETATM   16  C22 UNL     1      -3.494  50.520 -26.098  1.00  0.00     0.017 C 
HETATM   17  C23 UNL     1      -3.212  49.691 -24.812  1.00  0.00    -0.031 C 
HETATM   18  C24 UNL     1      -2.753  48.276 -25.255  1.00  0.00     0.016 C 
HETATM   19  C25 UNL     1      -4.570  49.577 -23.977  1.00  0.00     0.024 C 
HETATM   20  C26 UNL     1      -5.677  48.696 -24.634  1.00  0.00     0.010 C 
HETATM   21  C27 UNL     1      -6.908  48.332 -23.770  1.00  0.00     0.011 C 
HETATM   22  C28 UNL     1      -6.740  48.615 -22.267  1.00  0.00    -0.029 C 
HETATM   23  C29 UNL     1      -7.156  50.095 -22.021  1.00  0.00     0.016 C 
ENDROOT
BRANCH   1  24
HETATM   24  C6  UNL     1      -9.103  47.798 -21.286  1.00  0.00    -0.014 C 
HETATM   25  C7  UNL     1      -9.714  46.602 -22.041  1.00  0.00     0.010 C 
BRANCH  24  26
HETATM   26  C5  UNL     1      -9.709  47.887 -19.863  1.00  0.00     0.008 C 
BRANCH  26  27
HETATM   27  C4  UNL     1     -10.943  47.002 -19.619  1.00  0.00     0.028 C 
BRANCH  27  28
HETATM   28  C3  UNL     1     -12.267  47.706 -19.719  1.00  0.00    -0.013 C 
HETATM   29  C2  UNL     1     -13.169  47.939 -18.743  1.00  0.00     0.008 C 
HETATM   30  C1  UNL     1     -14.460  48.652 -19.041  1.00  0.00     0.055 C 
BRANCH  29  31
HETATM   31  C30 UNL     1     -12.955  47.488 -17.342  1.00  0.00     0.171 C 
HETATM   32  O2  UNL     1     -13.791  47.347 -16.468  1.00  0.00    -0.646 OA
BRANCH  31  33
HETATM   33  O3  UNL     1     -11.659  47.227 -17.088  1.00  0.00    -0.773 OA
HETATM   34  H46 UNL     1     -11.665  46.955 -16.148  1.00  0.00     0.167 HD
ENDBRANCH  31  33
ENDBRANCH  29  31
ENDBRANCH  27  28
ENDBRANCH  26  27
ENDBRANCH  24  26
ENDBRANCH   1  24
TORSDOF 6
ENDMDL
MODEL 8
REMARK minimizedAffinity -7.78051853
REMARK CNNscore 0.175792694
REMARK CNNaffinity 5.78190851
REMARK  6 active torsions:
REMARK  status: ('A' for Active; 'I' for Inactive)
REMARK    1  A    between atoms: C2_2  and  C30_31 
REMARK    2  A    between atoms: C3_3  and  C4_4 
REMARK    3  A    between atoms: C4_4  and  C5_5 
REMARK    4  A    between atoms: C5_5  and  C6_6 
REMARK    5  A    between atoms: C6_6  and  C8_8 
REMARK    6  A    between atoms: C30_31  and  O3_33 
ROOT
HETATM    1  C8  UNL     1      -7.405  47.703 -20.721  1.00  0.00    -0.002 C 
HETATM    2  C9  UNL     1      -7.536  46.578 -21.779  1.00  0.00     0.007 C 
HETATM    3  C10 UNL     1      -6.635  46.983 -22.966  1.00  0.00     0.015 C 
HETATM    4  C11 UNL     1      -6.269  48.465 -22.711  1.00  0.00    -0.013 C 
HETATM    5  C12 UNL     1      -7.451  49.304 -23.282  1.00  0.00     0.021 C 
HETATM    6  C13 UNL     1      -5.004  49.024 -23.332  1.00  0.00    -0.070 C 
HETATM    7  C14 UNL     1      -4.342  48.445 -24.343  1.00  0.00    -0.022 C 
HETATM    8  C15 UNL     1      -3.075  49.039 -24.864  1.00  0.00     0.034 C 
HETATM    9  C16 UNL     1      -3.197  50.572 -25.046  1.00  0.00     0.013 C 
HETATM   10  C17 UNL     1      -1.873  51.211 -25.613  1.00  0.00     0.018 C 
HETATM   11  C18 UNL     1      -2.135  52.572 -26.287  1.00  0.00     0.023 C 
HETATM   12  C19 UNL     1      -1.221  50.318 -26.694  1.00  0.00     0.023 C 
HETATM   13  C20 UNL     1      -0.852  51.422 -24.490  1.00  0.00     0.135 C 
HETATM   14  O1  UNL     1       0.361  51.473 -24.712  1.00  0.00    -0.297 OA
HETATM   15  C21 UNL     1      -1.362  51.563 -23.077  1.00  0.00     0.080 C 
HETATM   16  C22 UNL     1      -2.746  52.190 -23.062  1.00  0.00     0.017 C 
HETATM   17  C23 UNL     1      -3.811  51.294 -23.757  1.00  0.00    -0.031 C 
HETATM   18  C24 UNL     1      -4.960  52.218 -24.243  1.00  0.00     0.016 C 
HETATM   19  C25 UNL     1      -4.375  50.254 -22.682  1.00  0.00     0.024 C 
HETATM   20  C26 UNL     1      -5.245  50.883 -21.550  1.00  0.00     0.010 C 
HETATM   21  C27 UNL     1      -6.032  49.917 -20.633  1.00  0.00     0.011 C 
HETATM   22  C28 UNL     1      -6.116  48.470 -21.151  1.00  0.00    -0.029 C 
HETATM   23  C29 UNL     1      -4.848  47.720 -20.649  1.00  0.00     0.016 C 
ENDROOT
BRANCH   1  24
HETATM   24  C6  UNL     1      -7.567  47.281 -19.228  1.00  0.00    -0.014 C 
HETATM   25  C7  UNL     1      -6.170  47.277 -18.577  1.00  0.00     0.010 C 
BRANCH  24  26
HETATM   26  C5  UNL     1      -8.532  48.166 -18.399  1.00  0.00     0.008 C 
BRANCH  26  27
HETATM   27  C4  UNL     1      -9.929  47.568 -18.163  1.00  0.00     0.028 C 
BRANCH  27  28
HETATM   28  C3  UNL     1     -10.996  48.040 -19.111  1.00  0.00    -0.013 C 
HETATM   29  C2  UNL     1     -12.334  47.907 -19.001  1.00  0.00     0.008 C 
HETATM   30  C1  UNL     1     -13.252  48.434 -20.071  1.00  0.00     0.055 C 
BRANCH  29  31
HETATM   31  C30 UNL     1     -12.970  47.217 -17.847  1.00  0.00     0.171 C 
HETATM   32  O2  UNL     1     -13.363  47.714 -16.806  1.00  0.00    -0.646 OA
BRANCH  31  33
HETATM   33  O3  UNL     1     -13.087  45.892 -18.052  1.00  0.00    -0.773 OA
HETATM   34  H46 UNL     1     -13.505  45.574 -17.226  1.00  0.00     0.167 HD
ENDBRANCH  31  33
ENDBRANCH  29  31
ENDBRANCH  27  28
ENDBRANCH  26  27
ENDBRANCH  24  26
ENDBRANCH   1  24
TORSDOF 6
ENDMDL
MODEL 9
REMARK minimizedAffinity -7.90582418
REMARK CNNscore 0.1737196
REMARK CNNaffinity 5.92885971
REMARK  6 active torsions:
REMARK  status: ('A' for Active; 'I' for Inactive)
REMARK    1  A    between atoms: C2_2  and  C30_31 
REMARK    2  A    between atoms: C3_3  and  C4_4 
REMARK    3  A    between atoms: C4_4  and  C5_5 
REMARK    4  A    between atoms: C5_5  and  C6_6 
REMARK    5  A    between atoms: C6_6  and  C8_8 
REMARK    6  A    between atoms: C30_31  and  O3_33 
ROOT
HETATM    1  C8  UNL     1      -7.966  47.586 -22.991  1.00  0.00    -0.002 C 
HETATM    2  C9  UNL     1      -8.572  47.853 -21.590  1.00  0.00     0.007 C 
HETATM    3  C10 UNL     1      -7.446  48.473 -20.734  1.00  0.00     0.015 C 
HETATM    4  C11 UNL     1      -6.148  48.249 -21.547  1.00  0.00    -0.013 C 
HETATM    5  C12 UNL     1      -5.666  46.809 -21.195  1.00  0.00     0.021 C 
HETATM    6  C13 UNL     1      -4.967  49.169 -21.310  1.00  0.00    -0.070 C 
HETATM    7  C14 UNL     1      -4.831  49.957 -20.234  1.00  0.00    -0.022 C 
HETATM    8  C15 UNL     1      -3.658  50.871 -20.102  1.00  0.00     0.034 C 
HETATM    9  C16 UNL     1      -2.335  50.157 -20.476  1.00  0.00     0.013 C 
HETATM   10  C17 UNL     1      -1.085  51.104 -20.324  1.00  0.00     0.018 C 
HETATM   11  C18 UNL     1       0.224  50.306 -20.166  1.00  0.00     0.023 C 
HETATM   12  C19 UNL     1      -1.192  52.002 -19.069  1.00  0.00     0.023 C 
HETATM   13  C20 UNL     1      -0.944  52.013 -21.550  1.00  0.00     0.135 C 
HETATM   14  O1  UNL     1      -0.364  53.101 -21.492  1.00  0.00    -0.297 OA
HETATM   15  C21 UNL     1      -1.546  51.553 -22.855  1.00  0.00     0.080 C 
HETATM   16  C22 UNL     1      -1.538  50.036 -22.948  1.00  0.00     0.017 C 
HETATM   17  C23 UNL     1      -2.436  49.370 -21.866  1.00  0.00    -0.031 C 
HETATM   18  C24 UNL     1      -1.901  47.933 -21.628  1.00  0.00     0.016 C 
HETATM   19  C25 UNL     1      -3.932  49.301 -22.424  1.00  0.00     0.024 C 
HETATM   20  C26 UNL     1      -4.150  48.309 -23.607  1.00  0.00     0.010 C 
HETATM   21  C27 UNL     1      -5.607  47.998 -24.021  1.00  0.00     0.011 C 
HETATM   22  C28 UNL     1      -6.671  48.457 -23.009  1.00  0.00    -0.029 C 
HETATM   23  C29 UNL     1      -7.020  49.938 -23.338  1.00  0.00     0.016 C 
ENDROOT
BRANCH   1  24
HETATM   24  C6  UNL     1      -8.944  47.667 -24.203  1.00  0.00    -0.014 C 
HETATM   25  C7  UNL     1      -8.735  49.027 -24.898  1.00  0.00     0.010 C 
BRANCH  24  26
HETATM   26  C5  UNL     1      -8.803  46.521 -25.237  1.00  0.00     0.008 C 
BRANCH  26  27
HETATM   27  C4  UNL     1     -10.109  46.101 -25.932  1.00  0.00     0.028 C 
BRANCH  27  28
HETATM   28  C3  UNL     1     -10.209  46.473 -27.384  1.00  0.00    -0.013 C 
HETATM   29  C2  UNL     1     -11.044  47.358 -27.968  1.00  0.00     0.008 C 
HETATM   30  C1  UNL     1     -11.009  47.585 -29.455  1.00  0.00     0.055 C 
BRANCH  29  31
HETATM   31  C30 UNL     1     -12.049  48.131 -27.190  1.00  0.00     0.171 C 
HETATM   32  O2  UNL     1     -13.224  47.862 -27.016  1.00  0.00    -0.646 OA
BRANCH  31  33
HETATM   33  O3  UNL     1     -11.521  49.245 -26.650  1.00  0.00    -0.773 OA
HETATM   34  H46 UNL     1     -12.281  49.650 -26.185  1.00  0.00     0.167 HD
ENDBRANCH  31  33
ENDBRANCH  29  31
ENDBRANCH  27  28
ENDBRANCH  26  27
ENDBRANCH  24  26
ENDBRANCH   1  24
TORSDOF 6
ENDMDL
