MODEL 1
REMARK minimizedAffinity -9.73003292
REMARK  12 active torsions:
REMARK  status: ('A' for Active; 'I' for Inactive)
REMARK    1  A    between atoms: C2_2  and  C3_3 
REMARK    2  A    between atoms: C2_2  and  C26_31 
REMARK    3  A    between atoms: C3_3  and  C4_4 
REMARK    4  A    between atoms: C4_4  and  C5_5 
REMARK    5  A    between atoms: C5_5  and  C7_7 
REMARK    6  A    between atoms: C8_8  and  O1_9 
REMARK    7  A    between atoms: C9_10  and  O2_11 
REMARK    8  A    between atoms: C11_13  and  O3_14 
REMARK    9  A    between atoms: C13_16  and  O4_17 
REMARK   10  A    between atoms: C16_20  and  O5_21 
REMARK   11  A    between atoms: C26_31  and  C28_33 
REMARK   12  A    between atoms: C28_33  and  O6_34 
ROOT
HETATM    1  C7  UNL     1      -1.431   7.409  13.713  1.00  0.00     0.029 C 
HETATM    2  C8  UNL     1      -0.303   6.417  14.034  1.00  0.00     0.152 C 
HETATM    3  C9  UNL     1       0.220   5.976  12.663  1.00  0.00     0.155 C 
HETATM    4  C10 UNL     1       0.002   7.184  11.718  1.00  0.00     0.060 C 
HETATM    5  C11 UNL     1       1.183   7.694  10.849  1.00  0.00     0.071 C 
HETATM    6  C12 UNL     1       1.790   6.607   9.948  1.00  0.00     0.071 C 
HETATM    7  C13 UNL     1       3.005   7.130   9.184  1.00  0.00     0.126 C 
HETATM    8  C14 UNL     1       4.176   7.403  10.137  1.00  0.00     0.025 C 
HETATM    9  C15 UNL     1       4.901   6.070  10.441  1.00  0.00     0.039 C 
HETATM   10  C16 UNL     1       6.124   6.260  11.328  1.00  0.00     0.118 C 
HETATM   11  C17 UNL     1       5.813   7.043  12.598  1.00  0.00     0.032 C 
HETATM   12  C18 UNL     1       4.352   7.479  12.698  1.00  0.00     0.012 C 
HETATM   13  C19 UNL     1       3.793   8.211  11.438  1.00  0.00    -0.031 C 
HETATM   14  C20 UNL     1       4.541   9.581  11.352  1.00  0.00     0.016 C 
HETATM   15  C21 UNL     1       2.235   8.575  11.593  1.00  0.00     0.029 C 
HETATM   16  C22 UNL     1       1.820   8.847  13.057  1.00  0.00     0.009 C 
HETATM   17  C23 UNL     1       0.356   9.257  13.223  1.00  0.00     0.011 C 
HETATM   18  C24 UNL     1      -0.698   8.286  12.601  1.00  0.00    -0.029 C 
HETATM   19  C25 UNL     1      -1.676   9.176  11.802  1.00  0.00     0.016 C 
ENDROOT
BRANCH   1  20
HETATM   20  C5  UNL     1      -2.827   6.816  13.261  1.00  0.00    -0.011 C 
HETATM   21  C6  UNL     1      -3.898   7.922  13.335  1.00  0.00     0.010 C 
BRANCH  20  22
HETATM   22  C4  UNL     1      -3.332   5.567  14.022  1.00  0.00     0.009 C 
BRANCH  22  23
HETATM   23  C3  UNL     1      -4.209   4.621  13.177  1.00  0.00     0.034 C 
BRANCH  23  24
HETATM   24  C2  UNL     1      -5.717   4.727  13.382  1.00  0.00    -0.083 C 
HETATM   25  C1  UNL     1      -6.278   5.542  14.295  1.00  0.00     0.015 C 
BRANCH  24  26
HETATM   26  C26 UNL     1      -6.541   3.800  12.470  1.00  0.00     0.033 C 
HETATM   27  C27 UNL     1      -5.706   2.851  11.598  1.00  0.00     0.017 C 
BRANCH  26  28
HETATM   28  C28 UNL     1      -7.595   3.005  13.261  1.00  0.00     0.172 C 
BRANCH  28  29
HETATM   29  O6  UNL     1      -7.927   1.776  12.625  1.00  0.00    -0.400 OA
HETATM   30  H48 UNL     1      -7.096   1.276  12.531  1.00  0.00     0.209 HD
ENDBRANCH  28  29
ENDBRANCH  26  28
ENDBRANCH  24  26
ENDBRANCH  23  24
ENDBRANCH  22  23
ENDBRANCH  20  22
ENDBRANCH   1  20
BRANCH   2  31
HETATM   31  O1  UNL     1      -0.649   5.319  14.862  1.00  0.00    -0.393 OA
HETATM   32  H13 UNL     1       0.154   5.070  15.355  1.00  0.00     0.210 HD
ENDBRANCH   2  31
BRANCH   3  33
HETATM   33  O2  UNL     1       1.558   5.527  12.784  1.00  0.00    -0.392 OA
HETATM   34  H15 UNL     1       1.508   4.636  13.176  1.00  0.00     0.210 HD
ENDBRANCH   3  33
BRANCH   5  35
HETATM   35  O3  UNL     1       0.519   8.603   9.920  1.00  0.00    -0.389 OA
HETATM   36  H17 UNL     1       1.149   8.755   9.183  1.00  0.00     0.210 HD
ENDBRANCH   5  35
BRANCH   7  37
HETATM   37  O4  UNL     1       2.645   8.318   8.480  1.00  0.00    -0.395 OA
HETATM   38  H21 UNL     1       3.456   8.827   8.264  1.00  0.00     0.210 HD
ENDBRANCH   7  37
BRANCH  10  39
HETATM   39  O5  UNL     1       7.141   6.949  10.605  1.00  0.00    -0.396 OA
HETATM   40  H26 UNL     1       7.394   6.391   9.848  1.00  0.00     0.210 HD
ENDBRANCH  10  39
TORSDOF 12
ENDMDL
MODEL 2
REMARK minimizedAffinity -9.47121239
REMARK  12 active torsions:
REMARK  status: ('A' for Active; 'I' for Inactive)
REMARK    1  A    between atoms: C2_2  and  C3_3 
REMARK    2  A    between atoms: C2_2  and  C26_31 
REMARK    3  A    between atoms: C3_3  and  C4_4 
REMARK    4  A    between atoms: C4_4  and  C5_5 
REMARK    5  A    between atoms: C5_5  and  C7_7 
REMARK    6  A    between atoms: C8_8  and  O1_9 
REMARK    7  A    between atoms: C9_10  and  O2_11 
REMARK    8  A    between atoms: C11_13  and  O3_14 
REMARK    9  A    between atoms: C13_16  and  O4_17 
REMARK   10  A    between atoms: C16_20  and  O5_21 
REMARK   11  A    between atoms: C26_31  and  C28_33 
REMARK   12  A    between atoms: C28_33  and  O6_34 
ROOT
HETATM    1  C7  UNL     1      -1.312   7.515  14.074  1.00  0.00     0.029 C 
HETATM    2  C8  UNL     1      -0.181   6.511  14.337  1.00  0.00     0.152 C 
HETATM    3  C9  UNL     1       0.265   6.062  12.942  1.00  0.00     0.155 C 
HETATM    4  C10 UNL     1       0.011   7.271  12.006  1.00  0.00     0.060 C 
HETATM    5  C11 UNL     1       1.150   7.766  11.076  1.00  0.00     0.071 C 
HETATM    6  C12 UNL     1       1.697   6.671  10.147  1.00  0.00     0.071 C 
HETATM    7  C13 UNL     1       2.876   7.179   9.319  1.00  0.00     0.126 C 
HETATM    8  C14 UNL     1       4.098   7.441  10.208  1.00  0.00     0.025 C 
HETATM    9  C15 UNL     1       4.823   6.100  10.477  1.00  0.00     0.039 C 
HETATM   10  C16 UNL     1       6.093   6.278  11.298  1.00  0.00     0.118 C 
HETATM   11  C17 UNL     1       5.858   7.066  12.580  1.00  0.00     0.032 C 
HETATM   12  C18 UNL     1       4.409   7.519  12.756  1.00  0.00     0.012 C 
HETATM   13  C19 UNL     1       3.793   8.255  11.526  1.00  0.00    -0.031 C 
HETATM   14  C20 UNL     1       4.551   9.616  11.398  1.00  0.00     0.016 C 
HETATM   15  C21 UNL     1       2.249   8.637  11.762  1.00  0.00     0.029 C 
HETATM   16  C22 UNL     1       1.915   8.916  13.245  1.00  0.00     0.009 C 
HETATM   17  C23 UNL     1       0.467   9.342  13.486  1.00  0.00     0.011 C 
HETATM   18  C24 UNL     1      -0.630   8.382  12.923  1.00  0.00    -0.029 C 
HETATM   19  C25 UNL     1      -1.638   9.281  12.174  1.00  0.00     0.016 C 
ENDROOT
BRANCH   1  20
HETATM   20  C5  UNL     1      -2.737   6.937  13.696  1.00  0.00    -0.011 C 
HETATM   21  C6  UNL     1      -3.545   6.694  14.986  1.00  0.00     0.010 C 
BRANCH  20  22
HETATM   22  C4  UNL     1      -2.759   5.653  12.833  1.00  0.00     0.009 C 
BRANCH  22  23
HETATM   23  C3  UNL     1      -3.570   4.492  13.444  1.00  0.00     0.034 C 
BRANCH  23  24
HETATM   24  C2  UNL     1      -4.794   4.029  12.659  1.00  0.00    -0.083 C 
HETATM   25  C1  UNL     1      -6.051   4.394  12.978  1.00  0.00     0.015 C 
BRANCH  24  26
HETATM   26  C26 UNL     1      -4.468   3.089  11.485  1.00  0.00     0.033 C 
HETATM   27  C27 UNL     1      -3.343   2.082  11.764  1.00  0.00     0.017 C 
BRANCH  26  28
HETATM   28  C28 UNL     1      -5.721   2.356  10.971  1.00  0.00     0.172 C 
BRANCH  28  29
HETATM   29  O6  UNL     1      -5.587   0.942  11.059  1.00  0.00    -0.400 OA
HETATM   30  H48 UNL     1      -5.409   0.735  11.994  1.00  0.00     0.209 HD
ENDBRANCH  28  29
ENDBRANCH  26  28
ENDBRANCH  24  26
ENDBRANCH  23  24
ENDBRANCH  22  23
ENDBRANCH  20  22
ENDBRANCH   1  20
BRANCH   2  31
HETATM   31  O1  UNL     1      -0.494   5.418  15.184  1.00  0.00    -0.393 OA
HETATM   32  H13 UNL     1       0.330   5.161  15.635  1.00  0.00     0.210 HD
ENDBRANCH   2  31
BRANCH   3  33
HETATM   33  O2  UNL     1       1.603   5.598  12.993  1.00  0.00    -0.392 OA
HETATM   34  H15 UNL     1       1.563   4.709  13.389  1.00  0.00     0.210 HD
ENDBRANCH   3  33
BRANCH   5  35
HETATM   35  O3  UNL     1       0.449   8.681  10.181  1.00  0.00    -0.389 OA
HETATM   36  H17 UNL     1       1.041   8.825   9.411  1.00  0.00     0.210 HD
ENDBRANCH   5  35
BRANCH   7  37
HETATM   37  O4  UNL     1       2.492   8.370   8.632  1.00  0.00    -0.395 OA
HETATM   38  H21 UNL     1       3.297   8.870   8.373  1.00  0.00     0.210 HD
ENDBRANCH   7  37
BRANCH  10  39
HETATM   39  O5  UNL     1       7.078   6.955  10.521  1.00  0.00    -0.396 OA
HETATM   40  H26 UNL     1       7.285   6.393   9.753  1.00  0.00     0.210 HD
ENDBRANCH  10  39
TORSDOF 12
ENDMDL
MODEL 3
REMARK minimizedAffinity -9.05976486
REMARK  12 active torsions:
REMARK  status: ('A' for Active; 'I' for Inactive)
REMARK    1  A    between atoms: C2_2  and  C3_3 
REMARK    2  A    between atoms: C2_2  and  C26_31 
REMARK    3  A    between atoms: C3_3  and  C4_4 
REMARK    4  A    between atoms: C4_4  and  C5_5 
REMARK    5  A    between atoms: C5_5  and  C7_7 
REMARK    6  A    between atoms: C8_8  and  O1_9 
REMARK    7  A    between atoms: C9_10  and  O2_11 
REMARK    8  A    between atoms: C11_13  and  O3_14 
REMARK    9  A    between atoms: C13_16  and  O4_17 
REMARK   10  A    between atoms: C16_20  and  O5_21 
REMARK   11  A    between atoms: C26_31  and  C28_33 
REMARK   12  A    between atoms: C28_33  and  O6_34 
ROOT
HETATM    1  C7  UNL     1      -1.418   7.478  13.737  1.00  0.00     0.029 C 
HETATM    2  C8  UNL     1      -0.305   6.469  14.053  1.00  0.00     0.152 C 
HETATM    3  C9  UNL     1       0.202   6.017  12.680  1.00  0.00     0.155 C 
HETATM    4  C10 UNL     1      -0.002   7.226  11.733  1.00  0.00     0.060 C 
HETATM    5  C11 UNL     1       1.182   7.715  10.857  1.00  0.00     0.071 C 
HETATM    6  C12 UNL     1       1.766   6.617   9.954  1.00  0.00     0.071 C 
HETATM    7  C13 UNL     1       2.984   7.119   9.181  1.00  0.00     0.126 C 
HETATM    8  C14 UNL     1       4.165   7.376  10.126  1.00  0.00     0.025 C 
HETATM    9  C15 UNL     1       4.870   6.031  10.429  1.00  0.00     0.039 C 
HETATM   10  C16 UNL     1       6.102   6.204  11.308  1.00  0.00     0.118 C 
HETATM   11  C17 UNL     1       5.811   6.994  12.578  1.00  0.00     0.032 C 
HETATM   12  C18 UNL     1       4.358   7.453  12.686  1.00  0.00     0.012 C 
HETATM   13  C19 UNL     1       3.803   8.192  11.428  1.00  0.00    -0.031 C 
HETATM   14  C20 UNL     1       4.572   9.549  11.335  1.00  0.00     0.016 C 
HETATM   15  C21 UNL     1       2.252   8.581  11.592  1.00  0.00     0.029 C 
HETATM   16  C22 UNL     1       1.850   8.863  13.058  1.00  0.00     0.009 C 
HETATM   17  C23 UNL     1       0.395   9.296  13.231  1.00  0.00     0.011 C 
HETATM   18  C24 UNL     1      -0.679   8.341  12.619  1.00  0.00    -0.029 C 
HETATM   19  C25 UNL     1      -1.647   9.244  11.824  1.00  0.00     0.016 C 
ENDROOT
BRANCH   1  20
HETATM   20  C5  UNL     1      -2.827   6.906  13.295  1.00  0.00    -0.011 C 
HETATM   21  C6  UNL     1      -3.796   8.079  13.043  1.00  0.00     0.010 C 
BRANCH  20  22
HETATM   22  C4  UNL     1      -3.496   5.889  14.250  1.00  0.00     0.009 C 
BRANCH  22  23
HETATM   23  C3  UNL     1      -4.491   4.933  13.561  1.00  0.00     0.034 C 
BRANCH  23  24
HETATM   24  C2  UNL     1      -5.973   5.256  13.730  1.00  0.00    -0.083 C 
HETATM   25  C1  UNL     1      -6.928   4.757  12.922  1.00  0.00     0.015 C 
BRANCH  24  26
HETATM   26  C26 UNL     1      -6.276   6.222  14.888  1.00  0.00     0.033 C 
HETATM   27  C27 UNL     1      -7.260   7.349  14.542  1.00  0.00     0.017 C 
BRANCH  26  28
HETATM   28  C28 UNL     1      -6.747   5.476  16.150  1.00  0.00     0.172 C 
BRANCH  28  29
HETATM   29  O6  UNL     1      -8.072   4.974  16.012  1.00  0.00    -0.400 OA
HETATM   30  H48 UNL     1      -8.070   4.392  15.231  1.00  0.00     0.209 HD
ENDBRANCH  28  29
ENDBRANCH  26  28
ENDBRANCH  24  26
ENDBRANCH  23  24
ENDBRANCH  22  23
ENDBRANCH  20  22
ENDBRANCH   1  20
BRANCH   2  31
HETATM   31  O1  UNL     1      -0.663   5.378  14.886  1.00  0.00    -0.393 OA
HETATM   32  H13 UNL     1       0.139   5.117  15.375  1.00  0.00     0.210 HD
ENDBRANCH   2  31
BRANCH   3  33
HETATM   33  O2  UNL     1       1.535   5.546  12.794  1.00  0.00    -0.392 OA
HETATM   34  H15 UNL     1       1.472   4.658  13.188  1.00  0.00     0.210 HD
ENDBRANCH   3  33
BRANCH   5  35
HETATM   35  O3  UNL     1       0.527   8.632   9.930  1.00  0.00    -0.389 OA
HETATM   36  H17 UNL     1       1.154   8.773   9.188  1.00  0.00     0.210 HD
ENDBRANCH   5  35
BRANCH   7  37
HETATM   37  O4  UNL     1       2.638   8.311   8.476  1.00  0.00    -0.395 OA
HETATM   38  H21 UNL     1       3.456   8.807   8.255  1.00  0.00     0.210 HD
ENDBRANCH   7  37
BRANCH  10  39
HETATM   39  O5  UNL     1       7.125   6.875  10.577  1.00  0.00    -0.396 OA
HETATM   40  H26 UNL     1       7.364   6.311   9.820  1.00  0.00     0.210 HD
ENDBRANCH  10  39
TORSDOF 12
ENDMDL
MODEL 4
REMARK minimizedAffinity -8.90962315
REMARK  12 active torsions:
REMARK  status: ('A' for Active; 'I' for Inactive)
REMARK    1  A    between atoms: C2_2  and  C3_3 
REMARK    2  A    between atoms: C2_2  and  C26_31 
REMARK    3  A    between atoms: C3_3  and  C4_4 
REMARK    4  A    between atoms: C4_4  and  C5_5 
REMARK    5  A    between atoms: C5_5  and  C7_7 
REMARK    6  A    between atoms: C8_8  and  O1_9 
REMARK    7  A    between atoms: C9_10  and  O2_11 
REMARK    8  A    between atoms: C11_13  and  O3_14 
REMARK    9  A    between atoms: C13_16  and  O4_17 
REMARK   10  A    between atoms: C16_20  and  O5_21 
REMARK   11  A    between atoms: C26_31  and  C28_33 
REMARK   12  A    between atoms: C28_33  and  O6_34 
ROOT
HETATM    1  C7  UNL     1      -1.327   6.965  12.355  1.00  0.00     0.029 C 
HETATM    2  C8  UNL     1      -0.730   8.235  11.731  1.00  0.00     0.152 C 
HETATM    3  C9  UNL     1       0.210   8.785  12.808  1.00  0.00     0.155 C 
HETATM    4  C10 UNL     1       0.725   7.552  13.592  1.00  0.00     0.060 C 
HETATM    5  C11 UNL     1       2.250   7.378  13.820  1.00  0.00     0.071 C 
HETATM    6  C12 UNL     1       2.902   8.579  14.524  1.00  0.00     0.071 C 
HETATM    7  C13 UNL     1       4.415   8.403  14.643  1.00  0.00     0.126 C 
HETATM    8  C14 UNL     1       5.085   8.476  13.265  1.00  0.00     0.025 C 
HETATM    9  C15 UNL     1       5.257   9.962  12.866  1.00  0.00     0.039 C 
HETATM   10  C16 UNL     1       5.980  10.129  11.537  1.00  0.00     0.118 C 
HETATM   11  C17 UNL     1       5.352   9.307  10.418  1.00  0.00     0.032 C 
HETATM   12  C18 UNL     1       4.147   8.485  10.875  1.00  0.00     0.012 C 
HETATM   13  C19 UNL     1       4.386   7.611  12.144  1.00  0.00    -0.031 C 
HETATM   14  C20 UNL     1       5.407   6.501  11.734  1.00  0.00     0.016 C 
HETATM   15  C21 UNL     1       3.056   6.832  12.600  1.00  0.00     0.029 C 
HETATM   16  C22 UNL     1       2.129   6.474  11.417  1.00  0.00     0.009 C 
HETATM   17  C23 UNL     1       0.887   5.678  11.818  1.00  0.00     0.011 C 
HETATM   18  C24 UNL     1       0.004   6.311  12.941  1.00  0.00    -0.029 C 
HETATM   19  C25 UNL     1      -0.281   5.176  13.948  1.00  0.00     0.016 C 
ENDROOT
BRANCH   1  20
HETATM   20  C5  UNL     1      -2.487   7.143  13.417  1.00  0.00    -0.011 C 
HETATM   21  C6  UNL     1      -2.128   6.365  14.699  1.00  0.00     0.010 C 
BRANCH  20  22
HETATM   22  C4  UNL     1      -3.912   6.746  12.964  1.00  0.00     0.009 C 
BRANCH  22  23
HETATM   23  C3  UNL     1      -4.210   5.235  13.061  1.00  0.00     0.034 C 
BRANCH  23  24
HETATM   24  C2  UNL     1      -5.675   4.839  13.223  1.00  0.00    -0.083 C 
HETATM   25  C1  UNL     1      -6.595   5.647  13.784  1.00  0.00     0.015 C 
BRANCH  24  26
HETATM   26  C26 UNL     1      -6.003   3.426  12.711  1.00  0.00     0.033 C 
HETATM   27  C27 UNL     1      -7.478   3.023  12.840  1.00  0.00     0.017 C 
BRANCH  26  28
HETATM   28  C28 UNL     1      -5.519   3.213  11.264  1.00  0.00     0.172 C 
BRANCH  28  29
HETATM   29  O6  UNL     1      -5.270   1.841  10.980  1.00  0.00    -0.400 OA
HETATM   30  H48 UNL     1      -6.100   1.363  11.155  1.00  0.00     0.209 HD
ENDBRANCH  28  29
ENDBRANCH  26  28
ENDBRANCH  24  26
ENDBRANCH  23  24
ENDBRANCH  22  23
ENDBRANCH  20  22
ENDBRANCH   1  20
BRANCH   2  31
HETATM   31  O1  UNL     1      -1.656   9.205  11.271  1.00  0.00    -0.393 OA
HETATM   32  H13 UNL     1      -1.234   9.673  10.527  1.00  0.00     0.210 HD
ENDBRANCH   2  31
BRANCH   3  33
HETATM   33  O2  UNL     1       1.210   9.589  12.205  1.00  0.00    -0.392 OA
HETATM   34  H15 UNL     1       0.779  10.436  11.990  1.00  0.00     0.210 HD
ENDBRANCH   3  33
BRANCH   5  35
HETATM   35  O3  UNL     1       2.298   6.310  14.813  1.00  0.00    -0.389 OA
HETATM   36  H17 UNL     1       3.201   6.328  15.198  1.00  0.00     0.210 HD
ENDBRANCH   5  35
BRANCH   7  37
HETATM   37  O4  UNL     1       4.697   7.152  15.271  1.00  0.00    -0.395 OA
HETATM   38  H21 UNL     1       5.618   6.885  15.064  1.00  0.00     0.210 HD
ENDBRANCH   7  37
BRANCH  10  39
HETATM   39  O5  UNL     1       7.344   9.739  11.679  1.00  0.00    -0.396 OA
HETATM   40  H26 UNL     1       7.755  10.335  12.330  1.00  0.00     0.210 HD
ENDBRANCH  10  39
TORSDOF 12
ENDMDL
MODEL 5
REMARK minimizedAffinity -8.72090816
REMARK  12 active torsions:
REMARK  status: ('A' for Active; 'I' for Inactive)
REMARK    1  A    between atoms: C2_2  and  C3_3 
REMARK    2  A    between atoms: C2_2  and  C26_31 
REMARK    3  A    between atoms: C3_3  and  C4_4 
REMARK    4  A    between atoms: C4_4  and  C5_5 
REMARK    5  A    between atoms: C5_5  and  C7_7 
REMARK    6  A    between atoms: C8_8  and  O1_9 
REMARK    7  A    between atoms: C9_10  and  O2_11 
REMARK    8  A    between atoms: C11_13  and  O3_14 
REMARK    9  A    between atoms: C13_16  and  O4_17 
REMARK   10  A    between atoms: C16_20  and  O5_21 
REMARK   11  A    between atoms: C26_31  and  C28_33 
REMARK   12  A    between atoms: C28_33  and  O6_34 
ROOT
HETATM    1  C7  UNL     1       0.420   7.153  12.896  1.00  0.00     0.029 C 
HETATM    2  C8  UNL     1       0.350   8.682  12.777  1.00  0.00     0.152 C 
HETATM    3  C9  UNL     1      -1.149   8.998  12.777  1.00  0.00     0.155 C 
HETATM    4  C10 UNL     1      -1.815   7.892  13.634  1.00  0.00     0.060 C 
HETATM    5  C11 UNL     1      -2.787   8.294  14.775  1.00  0.00     0.071 C 
HETATM    6  C12 UNL     1      -3.958   9.167  14.299  1.00  0.00     0.071 C 
HETATM    7  C13 UNL     1      -4.833   9.614  15.468  1.00  0.00     0.126 C 
HETATM    8  C14 UNL     1      -4.082  10.603  16.368  1.00  0.00     0.025 C 
HETATM    9  C15 UNL     1      -4.151  12.015  15.735  1.00  0.00     0.039 C 
HETATM   10  C16 UNL     1      -3.487  13.076  16.601  1.00  0.00     0.118 C 
HETATM   11  C17 UNL     1      -2.067  12.702  17.004  1.00  0.00     0.032 C 
HETATM   12  C18 UNL     1      -1.624  11.341  16.467  1.00  0.00     0.012 C 
HETATM   13  C19 UNL     1      -2.612  10.167  16.746  1.00  0.00    -0.031 C 
HETATM   14  C20 UNL     1      -2.598   9.932  18.292  1.00  0.00     0.016 C 
HETATM   15  C21 UNL     1      -2.110   8.786  16.093  1.00  0.00     0.029 C 
HETATM   16  C22 UNL     1      -0.571   8.676  16.021  1.00  0.00     0.009 C 
HETATM   17  C23 UNL     1      -0.068   7.345  15.460  1.00  0.00     0.011 C 
HETATM   18  C24 UNL     1      -0.641   6.933  14.066  1.00  0.00    -0.029 C 
HETATM   19  C25 UNL     1      -1.079   5.459  14.206  1.00  0.00     0.016 C 
ENDROOT
BRANCH   1  20
HETATM   20  C5  UNL     1       0.139   6.300  11.593  1.00  0.00    -0.011 C 
HETATM   21  C6  UNL     1      -1.118   5.435  11.812  1.00  0.00     0.010 C 
BRANCH  20  22
HETATM   22  C4  UNL     1       1.293   5.400  11.088  1.00  0.00     0.009 C 
BRANCH  22  23
HETATM   23  C3  UNL     1       2.523   6.176  10.575  1.00  0.00     0.034 C 
BRANCH  23  24
HETATM   24  C2  UNL     1       2.525   6.547   9.094  1.00  0.00    -0.083 C 
HETATM   25  C1  UNL     1       2.847   5.674   8.121  1.00  0.00     0.015 C 
BRANCH  24  26
HETATM   26  C26 UNL     1       2.152   8.013   8.814  1.00  0.00     0.033 C 
HETATM   27  C27 UNL     1       3.153   8.772   7.933  1.00  0.00     0.017 C 
BRANCH  26  28
HETATM   28  C28 UNL     1       0.731   8.143   8.235  1.00  0.00     0.172 C 
BRANCH  28  29
HETATM   29  O6  UNL     1      -0.121   8.912   9.076  1.00  0.00    -0.400 OA
HETATM   30  H48 UNL     1       0.304   9.782   9.183  1.00  0.00     0.209 HD
ENDBRANCH  28  29
ENDBRANCH  26  28
ENDBRANCH  24  26
ENDBRANCH  23  24
ENDBRANCH  22  23
ENDBRANCH  20  22
ENDBRANCH   1  20
BRANCH   2  31
HETATM   31  O1  UNL     1       1.026   9.258  11.672  1.00  0.00    -0.393 OA
HETATM   32  H13 UNL     1       1.312  10.150  11.945  1.00  0.00     0.210 HD
ENDBRANCH   2  31
BRANCH   3  33
HETATM   33  O2  UNL     1      -1.358  10.327  13.224  1.00  0.00    -0.392 OA
HETATM   34  H15 UNL     1      -1.123  10.902  12.473  1.00  0.00     0.210 HD
ENDBRANCH   3  33
BRANCH   5  35
HETATM   35  O3  UNL     1      -3.406   7.019  15.123  1.00  0.00    -0.389 OA
HETATM   36  H17 UNL     1      -4.210   7.233  15.644  1.00  0.00     0.210 HD
ENDBRANCH   5  35
BRANCH   7  37
HETATM   37  O4  UNL     1      -5.243   8.469  16.216  1.00  0.00    -0.395 OA
HETATM   38  H21 UNL     1      -5.514   8.749  17.117  1.00  0.00     0.210 HD
ENDBRANCH   7  37
BRANCH  10  39
HETATM   39  O5  UNL     1      -4.257  13.283  17.783  1.00  0.00    -0.396 OA
HETATM   40  H26 UNL     1      -5.132  13.612  17.510  1.00  0.00     0.210 HD
ENDBRANCH  10  39
TORSDOF 12
ENDMDL
MODEL 6
REMARK minimizedAffinity -8.71025753
REMARK  12 active torsions:
REMARK  status: ('A' for Active; 'I' for Inactive)
REMARK    1  A    between atoms: C2_2  and  C3_3 
REMARK    2  A    between atoms: C2_2  and  C26_31 
REMARK    3  A    between atoms: C3_3  and  C4_4 
REMARK    4  A    between atoms: C4_4  and  C5_5 
REMARK    5  A    between atoms: C5_5  and  C7_7 
REMARK    6  A    between atoms: C8_8  and  O1_9 
REMARK    7  A    between atoms: C9_10  and  O2_11 
REMARK    8  A    between atoms: C11_13  and  O3_14 
REMARK    9  A    between atoms: C13_16  and  O4_17 
REMARK   10  A    between atoms: C16_20  and  O5_21 
REMARK   11  A    between atoms: C26_31  and  C28_33 
REMARK   12  A    between atoms: C28_33  and  O6_34 
ROOT
HETATM    1  C7  UNL     1      -0.913   8.201  13.926  1.00  0.00     0.029 C 
HETATM    2  C8  UNL     1      -2.124   9.083  13.587  1.00  0.00     0.152 C 
HETATM    3  C9  UNL     1      -3.035   8.177  12.753  1.00  0.00     0.155 C 
HETATM    4  C10 UNL     1      -2.785   6.736  13.265  1.00  0.00     0.060 C 
HETATM    5  C11 UNL     1      -3.995   5.846  13.655  1.00  0.00     0.071 C 
HETATM    6  C12 UNL     1      -5.018   5.677  12.522  1.00  0.00     0.071 C 
HETATM    7  C13 UNL     1      -6.233   4.872  12.981  1.00  0.00     0.126 C 
HETATM    8  C14 UNL     1      -7.060   5.664  14.002  1.00  0.00     0.025 C 
HETATM    9  C15 UNL     1      -7.968   6.666  13.248  1.00  0.00     0.039 C 
HETATM   10  C16 UNL     1      -8.878   7.447  14.185  1.00  0.00     0.118 C 
HETATM   11  C17 UNL     1      -8.117   8.114  15.323  1.00  0.00     0.032 C 
HETATM   12  C18 UNL     1      -6.613   7.842  15.287  1.00  0.00     0.012 C 
HETATM   13  C19 UNL     1      -6.217   6.339  15.153  1.00  0.00    -0.031 C 
HETATM   14  C20 UNL     1      -6.645   5.647  16.488  1.00  0.00     0.016 C 
HETATM   15  C21 UNL     1      -4.625   6.141  15.053  1.00  0.00     0.029 C 
HETATM   16  C22 UNL     1      -3.831   7.221  15.821  1.00  0.00     0.009 C 
HETATM   17  C23 UNL     1      -2.316   7.019  15.792  1.00  0.00     0.011 C 
HETATM   18  C24 UNL     1      -1.674   6.874  14.375  1.00  0.00    -0.029 C 
HETATM   19  C25 UNL     1      -0.739   5.647  14.455  1.00  0.00     0.016 C 
ENDROOT
BRANCH   1  20
HETATM   20  C5  UNL     1       0.174   7.978  12.797  1.00  0.00    -0.011 C 
HETATM   21  C6  UNL     1       1.345   8.956  13.018  1.00  0.00     0.010 C 
BRANCH  20  22
HETATM   22  C4  UNL     1      -0.312   8.090  11.332  1.00  0.00     0.009 C 
BRANCH  22  23
HETATM   23  C3  UNL     1       0.440   7.175  10.343  1.00  0.00     0.034 C 
BRANCH  23  24
HETATM   24  C2  UNL     1       0.641   7.718   8.931  1.00  0.00    -0.083 C 
HETATM   25  C1  UNL     1      -0.263   8.500   8.311  1.00  0.00     0.015 C 
BRANCH  24  26
HETATM   26  C26 UNL     1       1.956   7.272   8.269  1.00  0.00     0.033 C 
HETATM   27  C27 UNL     1       1.872   7.068   6.750  1.00  0.00     0.017 C 
BRANCH  26  28
HETATM   28  C28 UNL     1       3.122   8.217   8.614  1.00  0.00     0.172 C 
BRANCH  28  29
HETATM   29  O6  UNL     1       3.324   9.206   7.610  1.00  0.00    -0.400 OA
HETATM   30  H48 UNL     1       2.483   9.690   7.521  1.00  0.00     0.209 HD
ENDBRANCH  28  29
ENDBRANCH  26  28
ENDBRANCH  24  26
ENDBRANCH  23  24
ENDBRANCH  22  23
ENDBRANCH  20  22
ENDBRANCH   1  20
BRANCH   2  31
HETATM   31  O1  UNL     1      -1.844  10.313  12.941  1.00  0.00    -0.393 OA
HETATM   32  H13 UNL     1      -2.544  10.939  13.203  1.00  0.00     0.210 HD
ENDBRANCH   2  31
BRANCH   3  33
HETATM   33  O2  UNL     1      -4.374   8.634  12.841  1.00  0.00    -0.392 OA
HETATM   34  H15 UNL     1      -4.430   9.414  12.260  1.00  0.00     0.210 HD
ENDBRANCH   3  33
BRANCH   5  35
HETATM   35  O3  UNL     1      -3.383   4.528  13.789  1.00  0.00    -0.389 OA
HETATM   36  H17 UNL     1      -4.118   3.877  13.772  1.00  0.00     0.210 HD
ENDBRANCH   5  35
BRANCH   7  37
HETATM   37  O4  UNL     1      -5.795   3.635  13.543  1.00  0.00    -0.395 OA
HETATM   38  H21 UNL     1      -6.502   3.271  14.118  1.00  0.00     0.210 HD
ENDBRANCH   7  37
BRANCH  10  39
HETATM   39  O5  UNL     1      -9.859   6.575  14.742  1.00  0.00    -0.396 OA
HETATM   40  H26 UNL     1     -10.398   6.231  14.007  1.00  0.00     0.210 HD
ENDBRANCH  10  39
TORSDOF 12
ENDMDL
MODEL 7
REMARK minimizedAffinity -8.49931431
REMARK  12 active torsions:
REMARK  status: ('A' for Active; 'I' for Inactive)
REMARK    1  A    between atoms: C2_2  and  C3_3 
REMARK    2  A    between atoms: C2_2  and  C26_31 
REMARK    3  A    between atoms: C3_3  and  C4_4 
REMARK    4  A    between atoms: C4_4  and  C5_5 
REMARK    5  A    between atoms: C5_5  and  C7_7 
REMARK    6  A    between atoms: C8_8  and  O1_9 
REMARK    7  A    between atoms: C9_10  and  O2_11 
REMARK    8  A    between atoms: C11_13  and  O3_14 
REMARK    9  A    between atoms: C13_16  and  O4_17 
REMARK   10  A    between atoms: C16_20  and  O5_21 
REMARK   11  A    between atoms: C26_31  and  C28_33 
REMARK   12  A    between atoms: C28_33  and  O6_34 
ROOT
HETATM    1  C7  UNL     1      -6.635   5.091  14.397  1.00  0.00     0.029 C 
HETATM    2  C8  UNL     1      -5.537   4.518  13.489  1.00  0.00     0.152 C 
HETATM    3  C9  UNL     1      -4.989   5.736  12.737  1.00  0.00     0.155 C 
HETATM    4  C10 UNL     1      -5.158   6.939  13.698  1.00  0.00     0.060 C 
HETATM    5  C11 UNL     1      -3.945   7.866  13.977  1.00  0.00     0.071 C 
HETATM    6  C12 UNL     1      -3.338   8.476  12.704  1.00  0.00     0.071 C 
HETATM    7  C13 UNL     1      -2.094   9.304  13.019  1.00  0.00     0.126 C 
HETATM    8  C14 UNL     1      -0.942   8.406  13.488  1.00  0.00     0.025 C 
HETATM    9  C15 UNL     1      -0.252   7.782  12.250  1.00  0.00     0.039 C 
HETATM   10  C16 UNL     1       0.951   6.927  12.622  1.00  0.00     0.118 C 
HETATM   11  C17 UNL     1       0.625   5.881  13.680  1.00  0.00     0.032 C 
HETATM   12  C18 UNL     1      -0.829   5.927  14.148  1.00  0.00     0.012 C 
HETATM   13  C19 UNL     1      -1.341   7.336  14.579  1.00  0.00    -0.031 C 
HETATM   14  C20 UNL     1      -0.563   7.713  15.881  1.00  0.00     0.016 C 
HETATM   15  C21 UNL     1      -2.895   7.315  14.991  1.00  0.00     0.029 C 
HETATM   16  C22 UNL     1      -3.341   5.965  15.599  1.00  0.00     0.009 C 
HETATM   17  C23 UNL     1      -4.799   5.941  16.056  1.00  0.00     0.011 C 
HETATM   18  C24 UNL     1      -5.857   6.353  14.984  1.00  0.00    -0.029 C 
HETATM   19  C25 UNL     1      -6.796   7.364  15.679  1.00  0.00     0.016 C 
ENDROOT
BRANCH   1  20
HETATM   20  C5  UNL     1      -8.031   5.436  13.735  1.00  0.00    -0.011 C 
HETATM   21  C6  UNL     1      -7.961   5.153  12.221  1.00  0.00     0.010 C 
BRANCH  20  22
HETATM   22  C4  UNL     1      -8.572   6.868  13.959  1.00  0.00     0.009 C 
BRANCH  22  23
HETATM   23  C3  UNL     1     -10.071   6.931  14.321  1.00  0.00     0.034 C 
BRANCH  23  24
HETATM   24  C2  UNL     1     -10.777   8.259  14.068  1.00  0.00    -0.083 C 
HETATM   25  C1  UNL     1     -10.490   9.384  14.752  1.00  0.00     0.015 C 
BRANCH  24  26
HETATM   26  C26 UNL     1     -11.864   8.195  12.981  1.00  0.00     0.033 C 
HETATM   27  C27 UNL     1     -12.954   7.142  13.226  1.00  0.00     0.017 C 
BRANCH  26  28
HETATM   28  C28 UNL     1     -12.504   9.573  12.726  1.00  0.00     0.172 C 
BRANCH  28  29
HETATM   29  O6  UNL     1     -12.321  10.007  11.384  1.00  0.00    -0.400 OA
HETATM   30  H48 UNL     1     -12.709   9.320  10.812  1.00  0.00     0.209 HD
ENDBRANCH  28  29
ENDBRANCH  26  28
ENDBRANCH  24  26
ENDBRANCH  23  24
ENDBRANCH  22  23
ENDBRANCH  20  22
ENDBRANCH   1  20
BRANCH   2  31
HETATM   31  O1  UNL     1      -5.926   3.471  12.616  1.00  0.00    -0.393 OA
HETATM   32  H13 UNL     1      -5.141   2.910  12.476  1.00  0.00     0.210 HD
ENDBRANCH   2  31
BRANCH   3  33
HETATM   33  O2  UNL     1      -3.663   5.476  12.308  1.00  0.00    -0.392 OA
HETATM   34  H15 UNL     1      -3.742   4.892  11.533  1.00  0.00     0.210 HD
ENDBRANCH   3  33
BRANCH   5  35
HETATM   35  O3  UNL     1      -4.566   8.998  14.657  1.00  0.00    -0.389 OA
HETATM   36  H17 UNL     1      -3.916   9.733  14.627  1.00  0.00     0.210 HD
ENDBRANCH   5  35
BRANCH   7  37
HETATM   37  O4  UNL     1      -2.412  10.273  14.018  1.00  0.00    -0.395 OA
HETATM   38  H21 UNL     1      -1.585  10.575  14.453  1.00  0.00     0.210 HD
ENDBRANCH   7  37
BRANCH  10  39
HETATM   39  O5  UNL     1       2.000   7.760  13.112  1.00  0.00    -0.396 OA
HETATM   40  H26 UNL     1       2.260   8.360  12.391  1.00  0.00     0.210 HD
ENDBRANCH  10  39
TORSDOF 12
ENDMDL
MODEL 8
REMARK minimizedAffinity -8.43529987
REMARK  12 active torsions:
REMARK  status: ('A' for Active; 'I' for Inactive)
REMARK    1  A    between atoms: C2_2  and  C3_3 
REMARK    2  A    between atoms: C2_2  and  C26_31 
REMARK    3  A    between atoms: C3_3  and  C4_4 
REMARK    4  A    between atoms: C4_4  and  C5_5 
REMARK    5  A    between atoms: C5_5  and  C7_7 
REMARK    6  A    between atoms: C8_8  and  O1_9 
REMARK    7  A    between atoms: C9_10  and  O2_11 
REMARK    8  A    between atoms: C11_13  and  O3_14 
REMARK    9  A    between atoms: C13_16  and  O4_17 
REMARK   10  A    between atoms: C16_20  and  O5_21 
REMARK   11  A    between atoms: C26_31  and  C28_33 
REMARK   12  A    between atoms: C28_33  and  O6_34 
ROOT
HETATM    1  C7  UNL     1      -2.601   6.198  12.805  1.00  0.00     0.029 C 
HETATM    2  C8  UNL     1      -3.226   6.472  14.180  1.00  0.00     0.152 C 
HETATM    3  C9  UNL     1      -2.027   6.687  15.109  1.00  0.00     0.155 C 
HETATM    4  C10 UNL     1      -0.910   7.297  14.225  1.00  0.00     0.060 C 
HETATM    5  C11 UNL     1      -0.186   8.586  14.695  1.00  0.00     0.071 C 
HETATM    6  C12 UNL     1       0.456   8.452  16.085  1.00  0.00     0.071 C 
HETATM    7  C13 UNL     1       1.075   9.771  16.544  1.00  0.00     0.126 C 
HETATM    8  C14 UNL     1      -0.011  10.817  16.826  1.00  0.00     0.025 C 
HETATM    9  C15 UNL     1      -0.600  10.566  18.236  1.00  0.00     0.039 C 
HETATM   10  C16 UNL     1      -1.641  11.607  18.627  1.00  0.00     0.118 C 
HETATM   11  C17 UNL     1      -2.730  11.772  17.575  1.00  0.00     0.032 C 
HETATM   12  C18 UNL     1      -2.535  10.874  16.354  1.00  0.00     0.012 C 
HETATM   13  C19 UNL     1      -1.117  10.939  15.706  1.00  0.00    -0.031 C 
HETATM   14  C20 UNL     1      -0.976  12.369  15.090  1.00  0.00     0.016 C 
HETATM   15  C21 UNL     1      -0.969   9.918  14.473  1.00  0.00     0.029 C 
HETATM   16  C22 UNL     1      -2.298   9.680  13.721  1.00  0.00     0.009 C 
HETATM   17  C23 UNL     1      -2.170   8.761  12.506  1.00  0.00     0.011 C 
HETATM   18  C24 UNL     1      -1.517   7.367  12.772  1.00  0.00    -0.029 C 
HETATM   19  C25 UNL     1      -0.462   7.173  11.662  1.00  0.00     0.016 C 
ENDROOT
BRANCH   1  20
HETATM   20  C5  UNL     1      -2.009   4.753  12.540  1.00  0.00    -0.011 C 
HETATM   21  C6  UNL     1      -1.249   4.753  11.198  1.00  0.00     0.010 C 
BRANCH  20  22
HETATM   22  C4  UNL     1      -3.013   3.576  12.555  1.00  0.00     0.009 C 
BRANCH  22  23
HETATM   23  C3  UNL     1      -4.212   3.753  11.600  1.00  0.00     0.034 C 
BRANCH  23  24
HETATM   24  C2  UNL     1      -5.416   2.848  11.844  1.00  0.00    -0.083 C 
HETATM   25  C1  UNL     1      -5.594   1.676  11.206  1.00  0.00     0.015 C 
BRANCH  24  26
HETATM   26  C26 UNL     1      -6.423   3.406  12.866  1.00  0.00     0.033 C 
HETATM   27  C27 UNL     1      -6.767   4.891  12.682  1.00  0.00     0.017 C 
BRANCH  26  28
HETATM   28  C28 UNL     1      -7.712   2.565  12.920  1.00  0.00     0.172 C 
BRANCH  28  29
HETATM   29  O6  UNL     1      -8.872   3.374  13.083  1.00  0.00    -0.400 OA
HETATM   30  H48 UNL     1      -8.883   4.001  12.337  1.00  0.00     0.209 HD
ENDBRANCH  28  29
ENDBRANCH  26  28
ENDBRANCH  24  26
ENDBRANCH  23  24
ENDBRANCH  22  23
ENDBRANCH  20  22
ENDBRANCH   1  20
BRANCH   2  31
HETATM   31  O1  UNL     1      -4.123   5.489  14.670  1.00  0.00    -0.393 OA
HETATM   32  H13 UNL     1      -4.768   5.949  15.238  1.00  0.00     0.210 HD
ENDBRANCH   2  31
BRANCH   3  33
HETATM   33  O2  UNL     1      -2.421   7.469  16.224  1.00  0.00    -0.392 OA
HETATM   34  H15 UNL     1      -2.912   6.868  16.813  1.00  0.00     0.210 HD
ENDBRANCH   3  33
BRANCH   5  35
HETATM   35  O3  UNL     1       0.949   8.659  13.780  1.00  0.00    -0.389 OA
HETATM   36  H17 UNL     1       1.588   9.288  14.180  1.00  0.00     0.210 HD
ENDBRANCH   5  35
BRANCH   7  37
HETATM   37  O4  UNL     1       1.977  10.243  15.543  1.00  0.00    -0.395 OA
HETATM   38  H21 UNL     1       2.122  11.207  15.665  1.00  0.00     0.210 HD
ENDBRANCH   7  37
BRANCH  10  39
HETATM   39  O5  UNL     1      -1.008  12.868  18.830  1.00  0.00    -0.396 OA
HETATM   40  H26 UNL     1      -0.381  12.767  19.569  1.00  0.00     0.210 HD
ENDBRANCH  10  39
TORSDOF 12
ENDMDL
MODEL 9
REMARK minimizedAffinity -8.42978764
REMARK  12 active torsions:
REMARK  status: ('A' for Active; 'I' for Inactive)
REMARK    1  A    between atoms: C2_2  and  C3_3 
REMARK    2  A    between atoms: C2_2  and  C26_31 
REMARK    3  A    between atoms: C3_3  and  C4_4 
REMARK    4  A    between atoms: C4_4  and  C5_5 
REMARK    5  A    between atoms: C5_5  and  C7_7 
REMARK    6  A    between atoms: C8_8  and  O1_9 
REMARK    7  A    between atoms: C9_10  and  O2_11 
REMARK    8  A    between atoms: C11_13  and  O3_14 
REMARK    9  A    between atoms: C13_16  and  O4_17 
REMARK   10  A    between atoms: C16_20  and  O5_21 
REMARK   11  A    between atoms: C26_31  and  C28_33 
REMARK   12  A    between atoms: C28_33  and  O6_34 
ROOT
HETATM    1  C7  UNL     1      -1.997   7.873  13.663  1.00  0.00     0.029 C 
HETATM    2  C8  UNL     1      -1.334   9.205  13.283  1.00  0.00     0.152 C 
HETATM    3  C9  UNL     1      -2.218  10.272  13.937  1.00  0.00     0.155 C 
HETATM    4  C10 UNL     1      -2.803   9.615  15.213  1.00  0.00     0.060 C 
HETATM    5  C11 UNL     1      -2.693  10.358  16.570  1.00  0.00     0.071 C 
HETATM    6  C12 UNL     1      -3.311  11.765  16.547  1.00  0.00     0.071 C 
HETATM    7  C13 UNL     1      -3.097  12.491  17.873  1.00  0.00     0.126 C 
HETATM    8  C14 UNL     1      -1.615  12.829  18.080  1.00  0.00     0.025 C 
HETATM    9  C15 UNL     1      -1.275  14.114  17.285  1.00  0.00     0.039 C 
HETATM   10  C16 UNL     1       0.166  14.562  17.491  1.00  0.00     0.118 C 
HETATM   11  C17 UNL     1       1.171  13.448  17.232  1.00  0.00     0.032 C 
HETATM   12  C18 UNL     1       0.519  12.123  16.838  1.00  0.00     0.012 C 
HETATM   13  C19 UNL     1      -0.620  11.639  17.789  1.00  0.00    -0.031 C 
HETATM   14  C20 UNL     1       0.061  11.280  19.150  1.00  0.00     0.016 C 
HETATM   15  C21 UNL     1      -1.301  10.278  17.271  1.00  0.00     0.029 C 
HETATM   16  C22 UNL     1      -0.322   9.368  16.495  1.00  0.00     0.009 C 
HETATM   17  C23 UNL     1      -0.930   8.039  16.047  1.00  0.00     0.011 C 
HETATM   18  C24 UNL     1      -2.249   8.139  15.215  1.00  0.00    -0.029 C 
HETATM   19  C25 UNL     1      -3.227   7.123  15.845  1.00  0.00     0.016 C 
ENDROOT
BRANCH   1  20
HETATM   20  C5  UNL     1      -3.289   7.438  12.858  1.00  0.00    -0.011 C 
HETATM   21  C6  UNL     1      -4.496   8.259  13.352  1.00  0.00     0.010 C 
BRANCH  20  22
HETATM   22  C4  UNL     1      -3.651   5.934  12.886  1.00  0.00     0.009 C 
BRANCH  22  23
HETATM   23  C3  UNL     1      -5.116   5.642  13.272  1.00  0.00     0.034 C 
BRANCH  23  24
HETATM   24  C2  UNL     1      -5.657   4.265  12.898  1.00  0.00    -0.083 C 
HETATM   25  C1  UNL     1      -5.106   3.496  11.939  1.00  0.00     0.015 C 
BRANCH  24  26
HETATM   26  C26 UNL     1      -6.904   3.843  13.695  1.00  0.00     0.033 C 
HETATM   27  C27 UNL     1      -7.377   4.868  14.735  1.00  0.00     0.017 C 
BRANCH  26  28
HETATM   28  C28 UNL     1      -8.070   3.448  12.770  1.00  0.00     0.172 C 
BRANCH  28  29
HETATM   29  O6  UNL     1      -8.224   2.036  12.677  1.00  0.00    -0.400 OA
HETATM   30  H48 UNL     1      -8.359   1.709  13.584  1.00  0.00     0.209 HD
ENDBRANCH  28  29
ENDBRANCH  26  28
ENDBRANCH  24  26
ENDBRANCH  23  24
ENDBRANCH  22  23
ENDBRANCH  20  22
ENDBRANCH   1  20
BRANCH   2  31
HETATM   31  O1  UNL     1      -1.137   9.437  11.899  1.00  0.00    -0.393 OA
HETATM   32  H13 UNL     1      -0.349  10.004  11.813  1.00  0.00     0.210 HD
ENDBRANCH   2  31
BRANCH   3  33
HETATM   33  O2  UNL     1      -1.465  11.454  14.147  1.00  0.00    -0.392 OA
HETATM   34  H15 UNL     1      -1.394  11.885  13.277  1.00  0.00     0.210 HD
ENDBRANCH   3  33
BRANCH   5  35
HETATM   35  O3  UNL     1      -3.590   9.585  17.424  1.00  0.00    -0.389 OA
HETATM   36  H17 UNL     1      -3.776  10.144  18.210  1.00  0.00     0.210 HD
ENDBRANCH   5  35
BRANCH   7  37
HETATM   37  O4  UNL     1      -3.578  11.676  18.942  1.00  0.00    -0.395 OA
HETATM   38  H21 UNL     1      -3.165  11.966  19.784  1.00  0.00     0.210 HD
ENDBRANCH   7  37
BRANCH  10  39
HETATM   39  O5  UNL     1       0.338  15.030  18.827  1.00  0.00    -0.396 OA
HETATM   40  H26 UNL     1      -0.244  15.801  18.946  1.00  0.00     0.210 HD
ENDBRANCH  10  39
TORSDOF 12
ENDMDL
