MODEL 1
REMARK minimizedAffinity -11.3168821
REMARK CNNscore 0.976931632
REMARK CNNaffinity 7.68277502
REMARK  9 active torsions:
REMARK  status: ('A' for Active; 'I' for Inactive)
REMARK    1  A    between atoms: C2_2  and  O1_3 
REMARK    2  A    between atoms: O1_3  and  C3_4 
REMARK    3  A    between atoms: C3_4  and  C4_6 
REMARK    4  A    between atoms: C4_6  and  O3_7 
REMARK    5  A    between atoms: C6_9  and  N4_37 
REMARK    6  A    between atoms: C7_11  and  N1_13 
REMARK    7  A    between atoms: C12_17  and  O5_18 
REMARK    8  A    between atoms: C13_19  and  N2_20 
REMARK    9  A    between atoms: C27_38  and  C28_39 
ROOT
HETATM    1  C4  UNL     1      -3.919  49.218 -19.958  1.00  0.00     0.200 C 
HETATM    2  C5  UNL     1      -4.050  49.027 -18.457  1.00  0.00     0.108 C 
HETATM    3  C6  UNL     1      -2.944  48.034 -18.119  1.00  0.00     0.235 C 
HETATM    4  O4  UNL     1      -2.200  47.740 -19.309  1.00  0.00    -0.332 OA
HETATM    5  C7  UNL     1      -2.466  48.791 -20.283  1.00  0.00     0.181 C 
HETATM    6  C8  UNL     1      -2.318  48.038 -21.617  1.00  0.00     0.075 C 
ENDROOT
BRANCH   1   7
HETATM    7  C3  UNL     1      -4.250  50.620 -20.465  1.00  0.00     0.298 C 
HETATM    8  O2  UNL     1      -3.645  51.607 -20.057  1.00  0.00    -0.262 OA
BRANCH   7   9
HETATM    9  O1  UNL     1      -5.264  50.632 -21.363  1.00  0.00    -0.319 OA
BRANCH   9  10
HETATM   10  C2  UNL     1      -4.895  50.828 -22.738  1.00  0.00     0.174 C 
HETATM   11  C1  UNL     1      -4.577  52.290 -22.985  1.00  0.00     0.034 C 
ENDBRANCH   9  10
ENDBRANCH   7   9
ENDBRANCH   1   7
BRANCH   1  12
HETATM   12  O3  UNL     1      -4.875  48.301 -20.549  1.00  0.00    -0.375 OA
HETATM   13  H6  UNL     1      -5.149  48.686 -21.409  1.00  0.00     0.211 HD
ENDBRANCH   1  12
BRANCH   5  14
HETATM   14  N1  UNL     1      -1.446  49.851 -20.099  1.00  0.00    -0.307 N 
HETATM   15  C9  UNL     1      -0.768  50.171 -18.925  1.00  0.00     0.051 A 
HETATM   16  C10 UNL     1      -0.776  49.535 -17.664  1.00  0.00     0.033 A 
HETATM   17  C14 UNL     1       0.029  51.321 -19.173  1.00  0.00     0.028 A 
HETATM   18  C11 UNL     1      -0.004  50.038 -16.626  1.00  0.00     0.040 A 
HETATM   19  C12 UNL     1       0.763  51.156 -16.847  1.00  0.00     0.087 A 
HETATM   20  C13 UNL     1       0.793  51.841 -18.084  1.00  0.00     0.053 A 
HETATM   21  C15 UNL     1      -0.132  51.648 -20.572  1.00  0.00     0.024 C 
HETATM   22  C16 UNL     1       0.313  52.579 -21.539  1.00  0.00     0.062 A 
HETATM   23  C28 UNL     1      -0.969  50.669 -21.090  1.00  0.00     0.078 C 
HETATM   24  C17 UNL     1       1.119  53.791 -21.377  1.00  0.00     0.260 A 
HETATM   25  C19 UNL     1       0.023  52.505 -22.933  1.00  0.00     0.062 A 
HETATM   26  O6  UNL     1       1.482  54.292 -20.332  1.00  0.00    -0.267 OA
HETATM   27  N3  UNL     1       1.346  54.304 -22.612  1.00  0.00    -0.289 N 
HETATM   28  C18 UNL     1       0.685  53.632 -23.585  1.00  0.00     0.260 A 
HETATM   29  H18 UNL     1       1.828  55.174 -22.775  1.00  0.00     0.172 HD
HETATM   30  O7  UNL     1       0.643  53.934 -24.760  1.00  0.00    -0.267 OA
HETATM   31  C20 UNL     1      -0.760  51.509 -23.521  1.00  0.00     0.022 A 
HETATM   32  C21 UNL     1      -1.228  51.104 -24.810  1.00  0.00     0.004 A 
HETATM   33  C27 UNL     1      -1.272  50.599 -22.623  1.00  0.00     0.077 A 
HETATM   34  C22 UNL     1      -1.056  51.595 -26.122  1.00  0.00     0.014 A 
HETATM   35  C26 UNL     1      -2.016  49.952 -24.632  1.00  0.00     0.048 A 
HETATM   36  C23 UNL     1      -1.659  50.938 -27.202  1.00  0.00     0.001 A 
HETATM   37  C24 UNL     1      -2.429  49.800 -26.997  1.00  0.00     0.002 A 
HETATM   38  C25 UNL     1      -2.621  49.287 -25.712  1.00  0.00     0.030 A 
HETATM   39  N4  UNL     1      -2.035  49.684 -23.282  1.00  0.00    -0.316 N 
BRANCH  19  40
HETATM   40  O5  UNL     1       1.584  51.589 -15.836  1.00  0.00    -0.359 OA
HETATM   41  H15 UNL     1       2.212  52.182 -16.297  1.00  0.00     0.217 HD
ENDBRANCH  19  40
BRANCH  20  42
HETATM   42  N2  UNL     1       1.642  52.979 -18.113  1.00  0.00    -0.300 NA
HETATM   43  H16 UNL     1       1.331  53.665 -17.425  1.00  0.00     0.124 HD
HETATM   44  H17 UNL     1       1.639  53.450 -19.024  1.00  0.00     0.124 HD
ENDBRANCH  20  42
ENDBRANCH   5  14
TORSDOF 9
ENDMDL
MODEL 2
REMARK minimizedAffinity -11.0275259
REMARK CNNscore 0.969444811
REMARK CNNaffinity 8.06302261
REMARK  9 active torsions:
REMARK  status: ('A' for Active; 'I' for Inactive)
REMARK    1  A    between atoms: C2_2  and  O1_3 
REMARK    2  A    between atoms: O1_3  and  C3_4 
REMARK    3  A    between atoms: C3_4  and  C4_6 
REMARK    4  A    between atoms: C4_6  and  O3_7 
REMARK    5  A    between atoms: C6_9  and  N4_37 
REMARK    6  A    between atoms: C7_11  and  N1_13 
REMARK    7  A    between atoms: C12_17  and  O5_18 
REMARK    8  A    between atoms: C13_19  and  N2_20 
REMARK    9  A    between atoms: C27_38  and  C28_39 
ROOT
HETATM    1  C4  UNL     1      -3.820  48.426 -21.054  1.00  0.00     0.200 C 
HETATM    2  C5  UNL     1      -3.843  49.358 -19.856  1.00  0.00     0.108 C 
HETATM    3  C6  UNL     1      -2.396  49.371 -19.377  1.00  0.00     0.235 C 
HETATM    4  O4  UNL     1      -1.603  48.575 -20.267  1.00  0.00    -0.332 OA
HETATM    5  C7  UNL     1      -2.341  48.412 -21.513  1.00  0.00     0.181 C 
HETATM    6  C8  UNL     1      -1.849  47.038 -22.001  1.00  0.00     0.075 C 
ENDROOT
BRANCH   1   7
HETATM    7  C3  UNL     1      -4.784  48.793 -22.180  1.00  0.00     0.298 C 
HETATM    8  O2  UNL     1      -5.075  47.989 -23.061  1.00  0.00    -0.262 OA
BRANCH   7   9
HETATM    9  O1  UNL     1      -5.237  50.067 -22.095  1.00  0.00    -0.319 OA
BRANCH   9  10
HETATM   10  C2  UNL     1      -5.886  50.592 -23.265  1.00  0.00     0.174 C 
HETATM   11  C1  UNL     1      -5.266  51.922 -23.648  1.00  0.00     0.034 C 
ENDBRANCH   9  10
ENDBRANCH   7   9
ENDBRANCH   1   7
BRANCH   1  12
HETATM   12  O3  UNL     1      -4.218  47.128 -20.542  1.00  0.00    -0.375 OA
HETATM   13  H6  UNL     1      -4.643  46.645 -21.283  1.00  0.00     0.211 HD
ENDBRANCH   1  12
BRANCH   5  14
HETATM   14  N1  UNL     1      -1.955  49.521 -22.418  1.00  0.00    -0.307 N 
HETATM   15  C9  UNL     1      -2.356  49.706 -23.739  1.00  0.00     0.051 A 
HETATM   16  C10 UNL     1      -3.287  48.987 -24.520  1.00  0.00     0.033 A 
HETATM   17  C14 UNL     1      -1.659  50.830 -24.259  1.00  0.00     0.028 A 
HETATM   18  C11 UNL     1      -3.532  49.363 -25.833  1.00  0.00     0.040 A 
HETATM   19  C12 UNL     1      -2.858  50.441 -26.354  1.00  0.00     0.087 A 
HETATM   20  C13 UNL     1      -1.903  51.183 -25.622  1.00  0.00     0.053 A 
HETATM   21  C15 UNL     1      -0.870  51.372 -23.177  1.00  0.00     0.024 C 
HETATM   22  C16 UNL     1       0.025  52.430 -22.894  1.00  0.00     0.062 A 
HETATM   23  C28 UNL     1      -1.162  50.583 -22.072  1.00  0.00     0.078 C 
HETATM   24  C17 UNL     1       0.640  53.408 -23.794  1.00  0.00     0.260 A 
HETATM   25  C19 UNL     1       0.532  52.742 -21.599  1.00  0.00     0.062 A 
HETATM   26  O6  UNL     1       0.570  53.430 -25.007  1.00  0.00    -0.267 OA
HETATM   27  N3  UNL     1       1.363  54.270 -23.036  1.00  0.00    -0.289 N 
HETATM   28  C18 UNL     1       1.397  53.912 -21.730  1.00  0.00     0.260 A 
HETATM   29  H18 UNL     1       1.935  55.006 -23.420  1.00  0.00     0.172 HD
HETATM   30  O7  UNL     1       2.042  54.455 -20.857  1.00  0.00    -0.267 OA
HETATM   31  C20 UNL     1       0.225  52.026 -20.440  1.00  0.00     0.022 A 
HETATM   32  C21 UNL     1       0.498  52.044 -19.037  1.00  0.00     0.004 A 
HETATM   33  C27 UNL     1      -0.601  50.944 -20.656  1.00  0.00     0.077 A 
HETATM   34  C22 UNL     1       1.252  52.883 -18.189  1.00  0.00     0.014 A 
HETATM   35  C26 UNL     1      -0.182  50.956 -18.458  1.00  0.00     0.048 A 
HETATM   36  C23 UNL     1       1.307  52.625 -16.814  1.00  0.00     0.001 A 
HETATM   37  C24 UNL     1       0.622  51.546 -16.269  1.00  0.00     0.002 A 
HETATM   38  C25 UNL     1      -0.132  50.694 -17.078  1.00  0.00     0.030 A 
HETATM   39  N4  UNL     1      -0.827  50.297 -19.480  1.00  0.00    -0.316 N 
BRANCH  19  40
HETATM   40  O5  UNL     1      -3.175  50.850 -27.625  1.00  0.00    -0.359 OA
HETATM   41  H15 UNL     1      -2.805  51.756 -27.667  1.00  0.00     0.217 HD
ENDBRANCH  19  40
BRANCH  20  42
HETATM   42  N2  UNL     1      -1.309  52.257 -26.337  1.00  0.00    -0.300 NA
HETATM   43  H16 UNL     1      -0.814  51.901 -27.155  1.00  0.00     0.124 HD
HETATM   44  H17 UNL     1      -0.622  52.772 -25.776  1.00  0.00     0.124 HD
ENDBRANCH  20  42
ENDBRANCH   5  14
TORSDOF 9
ENDMDL
MODEL 3
REMARK minimizedAffinity -10.6400375
REMARK CNNscore 0.930434585
REMARK CNNaffinity 7.71285677
REMARK  9 active torsions:
REMARK  status: ('A' for Active; 'I' for Inactive)
REMARK    1  A    between atoms: C2_2  and  O1_3 
REMARK    2  A    between atoms: O1_3  and  C3_4 
REMARK    3  A    between atoms: C3_4  and  C4_6 
REMARK    4  A    between atoms: C4_6  and  O3_7 
REMARK    5  A    between atoms: C6_9  and  N4_37 
REMARK    6  A    between atoms: C7_11  and  N1_13 
REMARK    7  A    between atoms: C12_17  and  O5_18 
REMARK    8  A    between atoms: C13_19  and  N2_20 
REMARK    9  A    between atoms: C27_38  and  C28_39 
ROOT
HETATM    1  C4  UNL     1      -3.162  48.332 -20.927  1.00  0.00     0.200 C 
HETATM    2  C5  UNL     1      -2.705  48.089 -22.355  1.00  0.00     0.108 C 
HETATM    3  C6  UNL     1      -3.210  49.310 -23.112  1.00  0.00     0.235 C 
HETATM    4  O4  UNL     1      -3.836  50.208 -22.186  1.00  0.00    -0.332 OA
HETATM    5  C7  UNL     1      -3.388  49.862 -20.843  1.00  0.00     0.181 C 
HETATM    6  C8  UNL     1      -4.599  50.270 -19.985  1.00  0.00     0.075 C 
ENDROOT
BRANCH   1   7
HETATM    7  C3  UNL     1      -2.216  47.815 -19.846  1.00  0.00     0.298 C 
HETATM    8  O2  UNL     1      -1.022  48.102 -19.851  1.00  0.00    -0.262 OA
BRANCH   7   9
HETATM    9  O1  UNL     1      -2.832  47.020 -18.939  1.00  0.00    -0.319 OA
BRANCH   9  10
HETATM   10  C2  UNL     1      -2.690  47.397 -17.560  1.00  0.00     0.174 C 
HETATM   11  C1  UNL     1      -4.022  47.263 -16.847  1.00  0.00     0.034 C 
ENDBRANCH   9  10
ENDBRANCH   7   9
ENDBRANCH   1   7
BRANCH   1  12
HETATM   12  O3  UNL     1      -4.415  47.613 -20.794  1.00  0.00    -0.375 OA
HETATM   13  H6  UNL     1      -4.504  47.363 -19.849  1.00  0.00     0.211 HD
ENDBRANCH   1  12
BRANCH   5  14
HETATM   14  N1  UNL     1      -2.174  50.660 -20.549  1.00  0.00    -0.307 N 
HETATM   15  C9  UNL     1      -1.510  50.762 -19.329  1.00  0.00     0.051 A 
HETATM   16  C10 UNL     1      -1.728  50.081 -18.111  1.00  0.00     0.033 A 
HETATM   17  C14 UNL     1      -0.469  51.720 -19.471  1.00  0.00     0.028 A 
HETATM   18  C11 UNL     1      -0.925  50.347 -17.012  1.00  0.00     0.040 A 
HETATM   19  C12 UNL     1       0.079  51.278 -17.129  1.00  0.00     0.087 A 
HETATM   20  C13 UNL     1       0.327  52.001 -18.318  1.00  0.00     0.053 A 
HETATM   21  C15 UNL     1      -0.475  52.144 -20.852  1.00  0.00     0.024 C 
HETATM   22  C16 UNL     1       0.216  53.002 -21.739  1.00  0.00     0.062 A 
HETATM   23  C28 UNL     1      -1.475  51.401 -21.466  1.00  0.00     0.078 C 
HETATM   24  C17 UNL     1       1.256  53.997 -21.467  1.00  0.00     0.260 A 
HETATM   25  C19 UNL     1      -0.004  53.065 -23.146  1.00  0.00     0.062 A 
HETATM   26  O6  UNL     1       1.660  54.351 -20.378  1.00  0.00    -0.267 OA
HETATM   27  N3  UNL     1       1.659  54.509 -22.656  1.00  0.00    -0.289 N 
HETATM   28  C18 UNL     1       0.923  54.049 -23.697  1.00  0.00     0.260 A 
HETATM   29  H18 UNL     1       2.328  55.258 -22.744  1.00  0.00     0.172 HD
HETATM   30  O7  UNL     1       1.015  54.413 -24.852  1.00  0.00    -0.267 OA
HETATM   31  C20 UNL     1      -0.950  52.298 -23.829  1.00  0.00     0.022 A 
HETATM   32  C21 UNL     1      -1.422  52.072 -25.160  1.00  0.00     0.004 A 
HETATM   33  C27 UNL     1      -1.699  51.478 -23.012  1.00  0.00     0.077 A 
HETATM   34  C22 UNL     1      -1.074  52.578 -26.430  1.00  0.00     0.014 A 
HETATM   35  C26 UNL     1      -2.451  51.114 -25.088  1.00  0.00     0.048 A 
HETATM   36  C23 UNL     1      -1.742  52.127 -27.574  1.00  0.00     0.001 A 
HETATM   37  C24 UNL     1      -2.752  51.178 -27.474  1.00  0.00     0.002 A 
HETATM   38  C25 UNL     1      -3.124  50.655 -26.233  1.00  0.00     0.030 A 
HETATM   39  N4  UNL     1      -2.604  50.789 -23.759  1.00  0.00    -0.316 N 
BRANCH  19  40
HETATM   40  O5  UNL     1       0.916  51.467 -16.058  1.00  0.00    -0.359 OA
HETATM   41  H15 UNL     1       1.684  51.930 -16.453  1.00  0.00     0.217 HD
ENDBRANCH  19  40
BRANCH  20  42
HETATM   42  N2  UNL     1       1.404  52.924 -18.239  1.00  0.00    -0.300 NA
HETATM   43  H16 UNL     1       1.212  53.626 -17.525  1.00  0.00     0.124 HD
HETATM   44  H17 UNL     1       1.555  53.430 -19.119  1.00  0.00     0.124 HD
ENDBRANCH  20  42
ENDBRANCH   5  14
TORSDOF 9
ENDMDL
MODEL 4
REMARK minimizedAffinity -9.51403236
REMARK CNNscore 0.8853181
REMARK CNNaffinity 7.74569559
REMARK  9 active torsions:
REMARK  status: ('A' for Active; 'I' for Inactive)
REMARK    1  A    between atoms: C2_2  and  O1_3 
REMARK    2  A    between atoms: O1_3  and  C3_4 
REMARK    3  A    between atoms: C3_4  and  C4_6 
REMARK    4  A    between atoms: C4_6  and  O3_7 
REMARK    5  A    between atoms: C6_9  and  N4_37 
REMARK    6  A    between atoms: C7_11  and  N1_13 
REMARK    7  A    between atoms: C12_17  and  O5_18 
REMARK    8  A    between atoms: C13_19  and  N2_20 
REMARK    9  A    between atoms: C27_38  and  C28_39 
ROOT
HETATM    1  C4  UNL     1      -4.046  48.661 -21.562  1.00  0.00     0.200 C 
HETATM    2  C5  UNL     1      -4.618  49.063 -20.214  1.00  0.00     0.108 C 
HETATM    3  C6  UNL     1      -3.592  48.547 -19.213  1.00  0.00     0.235 C 
HETATM    4  O4  UNL     1      -2.494  47.966 -19.929  1.00  0.00    -0.332 OA
HETATM    5  C7  UNL     1      -2.533  48.457 -21.301  1.00  0.00     0.181 C 
HETATM    6  C8  UNL     1      -1.916  47.282 -22.081  1.00  0.00     0.075 C 
ENDROOT
BRANCH   1   7
HETATM    7  C3  UNL     1      -4.323  49.638 -22.702  1.00  0.00     0.298 C 
HETATM    8  O2  UNL     1      -4.091  50.838 -22.586  1.00  0.00    -0.262 OA
BRANCH   7   9
HETATM    9  O1  UNL     1      -4.851  49.039 -23.797  1.00  0.00    -0.319 OA
BRANCH   9  10
HETATM   10  C2  UNL     1      -3.960  48.841 -24.907  1.00  0.00     0.174 C 
HETATM   11  C1  UNL     1      -4.732  48.312 -26.101  1.00  0.00     0.034 C 
ENDBRANCH   9  10
ENDBRANCH   7   9
ENDBRANCH   1   7
BRANCH   1  12
HETATM   12  O3  UNL     1      -4.691  47.404 -21.896  1.00  0.00    -0.375 OA
HETATM   13  H6  UNL     1      -4.717  47.345 -22.875  1.00  0.00     0.211 HD
ENDBRANCH   1  12
BRANCH   5  14
HETATM   14  N1  UNL     1      -1.714  49.691 -21.366  1.00  0.00    -0.307 N 
HETATM   15  C9  UNL     1      -1.395  50.428 -22.504  1.00  0.00     0.051 A 
HETATM   16  C10 UNL     1      -1.831  50.282 -23.839  1.00  0.00     0.033 A 
HETATM   17  C14 UNL     1      -0.498  51.463 -22.122  1.00  0.00     0.028 A 
HETATM   18  C11 UNL     1      -1.375  51.152 -24.819  1.00  0.00     0.040 A 
HETATM   19  C12 UNL     1      -0.499  52.151 -24.468  1.00  0.00     0.087 A 
HETATM   20  C13 UNL     1      -0.017  52.329 -23.152  1.00  0.00     0.053 A 
HETATM   21  C15 UNL     1      -0.342  51.375 -20.689  1.00  0.00     0.024 C 
HETATM   22  C16 UNL     1       0.323  52.014 -19.616  1.00  0.00     0.062 A 
HETATM   23  C28 UNL     1      -1.170  50.335 -20.287  1.00  0.00     0.078 C 
HETATM   24  C17 UNL     1       1.334  53.074 -19.633  1.00  0.00     0.260 A 
HETATM   25  C19 UNL     1       0.123  51.709 -18.238  1.00  0.00     0.062 A 
HETATM   26  O6  UNL     1       1.881  53.545 -20.609  1.00  0.00    -0.267 OA
HETATM   27  N3  UNL     1       1.606  53.405 -18.347  1.00  0.00    -0.289 N 
HETATM   28  C18 UNL     1       0.971  52.605 -17.457  1.00  0.00     0.260 A 
HETATM   29  H18 UNL     1       2.314  54.071 -18.080  1.00  0.00     0.172 HD
HETATM   30  O7  UNL     1       1.108  52.627 -16.251  1.00  0.00    -0.267 OA
HETATM   31  C20 UNL     1      -0.744  50.719 -17.769  1.00  0.00     0.022 A 
HETATM   32  C21 UNL     1      -1.209  50.165 -16.536  1.00  0.00     0.004 A 
HETATM   33  C27 UNL     1      -1.382  50.017 -18.770  1.00  0.00     0.077 A 
HETATM   34  C22 UNL     1      -0.956  50.437 -15.174  1.00  0.00     0.014 A 
HETATM   35  C26 UNL     1      -2.119  49.138 -16.848  1.00  0.00     0.048 A 
HETATM   36  C23 UNL     1      -1.604  49.698 -14.178  1.00  0.00     0.001 A 
HETATM   37  C24 UNL     1      -2.501  48.692 -14.515  1.00  0.00     0.002 A 
HETATM   38  C25 UNL     1      -2.774  48.394 -15.852  1.00  0.00     0.030 A 
HETATM   39  N4  UNL     1      -2.185  49.065 -18.221  1.00  0.00    -0.316 N 
BRANCH  19  40
HETATM   40  O5  UNL     1      -0.126  53.053 -25.433  1.00  0.00    -0.359 OA
HETATM   41  H15 UNL     1       0.241  53.797 -24.913  1.00  0.00     0.217 HD
ENDBRANCH  19  40
BRANCH  20  42
HETATM   42  N2  UNL     1       0.885  53.414 -22.991  1.00  0.00    -0.300 NA
HETATM   43  H16 UNL     1       1.713  53.269 -23.570  1.00  0.00     0.124 HD
HETATM   44  H17 UNL     1       1.214  53.513 -22.024  1.00  0.00     0.124 HD
ENDBRANCH  20  42
ENDBRANCH   5  14
TORSDOF 9
ENDMDL
MODEL 5
REMARK minimizedAffinity -10.2495699
REMARK CNNscore 0.884791672
REMARK CNNaffinity 7.82292032
REMARK  9 active torsions:
REMARK  status: ('A' for Active; 'I' for Inactive)
REMARK    1  A    between atoms: C2_2  and  O1_3 
REMARK    2  A    between atoms: O1_3  and  C3_4 
REMARK    3  A    between atoms: C3_4  and  C4_6 
REMARK    4  A    between atoms: C4_6  and  O3_7 
REMARK    5  A    between atoms: C6_9  and  N4_37 
REMARK    6  A    between atoms: C7_11  and  N1_13 
REMARK    7  A    between atoms: C12_17  and  O5_18 
REMARK    8  A    between atoms: C13_19  and  N2_20 
REMARK    9  A    between atoms: C27_38  and  C28_39 
ROOT
HETATM    1  C4  UNL     1      -4.040  49.158 -23.067  1.00  0.00     0.200 C 
HETATM    2  C5  UNL     1      -3.738  48.623 -21.679  1.00  0.00     0.108 C 
HETATM    3  C6  UNL     1      -2.423  47.872 -21.855  1.00  0.00     0.235 C 
HETATM    4  O4  UNL     1      -1.976  48.027 -23.209  1.00  0.00    -0.332 OA
HETATM    5  C7  UNL     1      -2.670  49.169 -23.790  1.00  0.00     0.181 C 
HETATM    6  C8  UNL     1      -2.743  48.778 -25.277  1.00  0.00     0.075 C 
ENDROOT
BRANCH   1   7
HETATM    7  C3  UNL     1      -4.736  50.516 -23.102  1.00  0.00     0.298 C 
HETATM    8  O2  UNL     1      -4.739  51.208 -24.116  1.00  0.00    -0.262 OA
BRANCH   7   9
HETATM    9  O1  UNL     1      -5.304  50.851 -21.918  1.00  0.00    -0.319 OA
BRANCH   9  10
HETATM   10  C2  UNL     1      -6.641  50.374 -21.695  1.00  0.00     0.174 C 
HETATM   11  C1  UNL     1      -6.801  49.939 -20.251  1.00  0.00     0.034 C 
ENDBRANCH   9  10
ENDBRANCH   7   9
ENDBRANCH   1   7
BRANCH   1  12
HETATM   12  O3  UNL     1      -4.937  48.189 -23.669  1.00  0.00    -0.375 OA
HETATM   13  H6  UNL     1      -5.490  48.674 -24.318  1.00  0.00     0.211 HD
ENDBRANCH   1  12
BRANCH   5  14
HETATM   14  N1  UNL     1      -1.843  50.375 -23.548  1.00  0.00    -0.307 N 
HETATM   15  C9  UNL     1      -1.373  51.278 -24.499  1.00  0.00     0.051 A 
HETATM   16  C10 UNL     1      -1.631  51.359 -25.885  1.00  0.00     0.033 A 
HETATM   17  C14 UNL     1      -0.529  52.214 -23.842  1.00  0.00     0.028 A 
HETATM   18  C11 UNL     1      -1.045  52.363 -26.644  1.00  0.00     0.040 A 
HETATM   19  C12 UNL     1      -0.218  53.269 -26.025  1.00  0.00     0.087 A 
HETATM   20  C13 UNL     1       0.087  53.221 -24.646  1.00  0.00     0.053 A 
HETATM   21  C15 UNL     1      -0.563  51.892 -22.434  1.00  0.00     0.024 C 
HETATM   22  C16 UNL     1      -0.042  52.333 -21.195  1.00  0.00     0.062 A 
HETATM   23  C28 UNL     1      -1.442  50.823 -22.316  1.00  0.00     0.078 C 
HETATM   24  C17 UNL     1       0.967  53.354 -20.909  1.00  0.00     0.260 A 
HETATM   25  C19 UNL     1      -0.423  51.815 -19.922  1.00  0.00     0.062 A 
HETATM   26  O6  UNL     1       1.640  53.962 -21.716  1.00  0.00    -0.267 OA
HETATM   27  N3  UNL     1       1.070  53.468 -19.561  1.00  0.00    -0.289 N 
HETATM   28  C18 UNL     1       0.319  52.552 -18.903  1.00  0.00     0.260 A 
HETATM   29  H18 UNL     1       1.740  54.063 -19.100  1.00  0.00     0.172 HD
HETATM   30  O7  UNL     1       0.297  52.377 -17.701  1.00  0.00    -0.267 OA
HETATM   31  C20 UNL     1      -1.349  50.786 -19.737  1.00  0.00     0.022 A 
HETATM   32  C21 UNL     1      -1.975  50.054 -18.680  1.00  0.00     0.004 A 
HETATM   33  C27 UNL     1      -1.854  50.272 -20.912  1.00  0.00     0.077 A 
HETATM   34  C22 UNL     1      -1.902  50.097 -17.271  1.00  0.00     0.014 A 
HETATM   35  C26 UNL     1      -2.841  49.115 -19.269  1.00  0.00     0.048 A 
HETATM   36  C23 UNL     1      -2.679  49.225 -16.501  1.00  0.00     0.001 A 
HETATM   37  C24 UNL     1      -3.529  48.310 -17.110  1.00  0.00     0.002 A 
HETATM   38  C25 UNL     1      -3.625  48.238 -18.501  1.00  0.00     0.030 A 
HETATM   39  N4  UNL     1      -2.727  49.265 -20.633  1.00  0.00    -0.316 N 
BRANCH  19  40
HETATM   40  O5  UNL     1       0.284  54.304 -26.774  1.00  0.00    -0.359 OA
HETATM   41  H15 UNL     1       0.583  54.945 -26.096  1.00  0.00     0.217 HD
ENDBRANCH  19  40
BRANCH  20  42
HETATM   42  N2  UNL     1       0.967  54.242 -24.195  1.00  0.00    -0.300 NA
HETATM   43  H16 UNL     1       1.863  54.170 -24.679  1.00  0.00     0.124 HD
HETATM   44  H17 UNL     1       1.166  54.176 -23.191  1.00  0.00     0.124 HD
ENDBRANCH  20  42
ENDBRANCH   5  14
TORSDOF 9
ENDMDL
MODEL 6
REMARK minimizedAffinity -9.33570099
REMARK CNNscore 0.859381735
REMARK CNNaffinity 7.38089323
REMARK  9 active torsions:
REMARK  status: ('A' for Active; 'I' for Inactive)
REMARK    1  A    between atoms: C2_2  and  O1_3 
REMARK    2  A    between atoms: O1_3  and  C3_4 
REMARK    3  A    between atoms: C3_4  and  C4_6 
REMARK    4  A    between atoms: C4_6  and  O3_7 
REMARK    5  A    between atoms: C6_9  and  N4_37 
REMARK    6  A    between atoms: C7_11  and  N1_13 
REMARK    7  A    between atoms: C12_17  and  O5_18 
REMARK    8  A    between atoms: C13_19  and  N2_20 
REMARK    9  A    between atoms: C27_38  and  C28_39 
ROOT
HETATM    1  C4  UNL     1      -2.313  49.441 -14.794  1.00  0.00     0.200 C 
HETATM    2  C5  UNL     1      -1.283  49.119 -13.726  1.00  0.00     0.108 C 
HETATM    3  C6  UNL     1      -0.429  48.028 -14.360  1.00  0.00     0.235 C 
HETATM    4  O4  UNL     1      -0.884  47.799 -15.701  1.00  0.00    -0.332 OA
HETATM    5  C7  UNL     1      -1.672  48.952 -16.117  1.00  0.00     0.181 C 
HETATM    6  C8  UNL     1      -2.673  48.319 -17.101  1.00  0.00     0.075 C 
ENDROOT
BRANCH   1   7
HETATM    7  C3  UNL     1      -2.749  50.903 -14.855  1.00  0.00     0.298 C 
HETATM    8  O2  UNL     1      -3.457  51.322 -15.766  1.00  0.00    -0.262 OA
BRANCH   7   9
HETATM    9  O1  UNL     1      -2.259  51.645 -13.832  1.00  0.00    -0.319 OA
BRANCH   9  10
HETATM   10  C2  UNL     1      -3.228  52.306 -13.002  1.00  0.00     0.174 C 
HETATM   11  C1  UNL     1      -3.531  51.456 -11.783  1.00  0.00     0.034 C 
ENDBRANCH   9  10
ENDBRANCH   7   9
ENDBRANCH   1   7
BRANCH   1  12
HETATM   12  O3  UNL     1      -3.481  48.649 -14.457  1.00  0.00    -0.375 OA
HETATM   13  H6  UNL     1      -4.264  49.130 -14.801  1.00  0.00     0.211 HD
ENDBRANCH   1  12
BRANCH   5  14
HETATM   14  N1  UNL     1      -0.756  49.920 -16.765  1.00  0.00    -0.307 N 
HETATM   15  C9  UNL     1       0.320  50.583 -16.177  1.00  0.00     0.051 A 
HETATM   16  C10 UNL     1       0.885  50.443 -14.891  1.00  0.00     0.033 A 
HETATM   17  C14 UNL     1       0.848  51.498 -17.127  1.00  0.00     0.028 A 
HETATM   18  C11 UNL     1       1.975  51.219 -14.522  1.00  0.00     0.040 A 
HETATM   19  C12 UNL     1       2.490  52.117 -15.425  1.00  0.00     0.087 A 
HETATM   20  C13 UNL     1       1.950  52.309 -16.717  1.00  0.00     0.053 A 
HETATM   21  C15 UNL     1       0.097  51.315 -18.348  1.00  0.00     0.024 C 
HETATM   22  C16 UNL     1       0.026  51.799 -19.676  1.00  0.00     0.062 A 
HETATM   23  C28 UNL     1      -0.799  50.287 -18.084  1.00  0.00     0.078 C 
HETATM   24  C17 UNL     1       0.727  52.918 -20.308  1.00  0.00     0.260 A 
HETATM   25  C19 UNL     1      -0.809  51.255 -20.695  1.00  0.00     0.062 A 
HETATM   26  O6  UNL     1       1.449  53.728 -19.763  1.00  0.00    -0.267 OA
HETATM   27  N3  UNL     1       0.381  52.934 -21.619  1.00  0.00    -0.289 N 
HETATM   28  C18 UNL     1      -0.569  52.015 -21.919  1.00  0.00     0.260 A 
HETATM   29  H18 UNL     1       0.681  53.646 -22.267  1.00  0.00     0.172 HD
HETATM   30  O7  UNL     1      -1.117  51.879 -22.993  1.00  0.00    -0.267 OA
HETATM   31  C20 UNL     1      -1.683  50.182 -20.508  1.00  0.00     0.022 A 
HETATM   32  C21 UNL     1      -2.609  49.382 -21.247  1.00  0.00     0.004 A 
HETATM   33  C27 UNL     1      -1.703  49.698 -19.217  1.00  0.00     0.077 A 
HETATM   34  C22 UNL     1      -3.036  49.355 -22.592  1.00  0.00     0.014 A 
HETATM   35  C26 UNL     1      -3.158  48.438 -20.359  1.00  0.00     0.048 A 
HETATM   36  C23 UNL     1      -3.977  48.407 -23.011  1.00  0.00     0.001 A 
HETATM   37  C24 UNL     1      -4.500  47.485 -22.113  1.00  0.00     0.002 A 
HETATM   38  C25 UNL     1      -4.101  47.483 -20.774  1.00  0.00     0.030 A 
HETATM   39  N4  UNL     1      -2.595  48.674 -19.125  1.00  0.00    -0.316 N 
BRANCH  19  40
HETATM   40  O5  UNL     1       3.618  52.814 -15.073  1.00  0.00    -0.359 OA
HETATM   41  H15 UNL     1       3.950  53.149 -15.932  1.00  0.00     0.217 HD
ENDBRANCH  19  40
BRANCH  20  42
HETATM   42  N2  UNL     1       2.618  53.287 -17.501  1.00  0.00    -0.300 NA
HETATM   43  H16 UNL     1       2.566  54.198 -17.043  1.00  0.00     0.124 HD
HETATM   44  H17 UNL     1       2.200  53.400 -18.431  1.00  0.00     0.124 HD
ENDBRANCH  20  42
ENDBRANCH   5  14
TORSDOF 9
ENDMDL
MODEL 7
REMARK minimizedAffinity -8.66684246
REMARK CNNscore 0.788804173
REMARK CNNaffinity 7.50000381
REMARK  9 active torsions:
REMARK  status: ('A' for Active; 'I' for Inactive)
REMARK    1  A    between atoms: C2_2  and  O1_3 
REMARK    2  A    between atoms: O1_3  and  C3_4 
REMARK    3  A    between atoms: C3_4  and  C4_6 
REMARK    4  A    between atoms: C4_6  and  O3_7 
REMARK    5  A    between atoms: C6_9  and  N4_37 
REMARK    6  A    between atoms: C7_11  and  N1_13 
REMARK    7  A    between atoms: C12_17  and  O5_18 
REMARK    8  A    between atoms: C13_19  and  N2_20 
REMARK    9  A    between atoms: C27_38  and  C28_39 
ROOT
HETATM    1  C4  UNL     1      -2.337  48.459 -16.615  1.00  0.00     0.200 C 
HETATM    2  C5  UNL     1      -2.417  47.627 -17.883  1.00  0.00     0.108 C 
HETATM    3  C6  UNL     1      -3.243  48.486 -18.832  1.00  0.00     0.235 C 
HETATM    4  O4  UNL     1      -3.546  49.731 -18.189  1.00  0.00    -0.332 OA
HETATM    5  C7  UNL     1      -2.618  49.909 -17.080  1.00  0.00     0.181 C 
HETATM    6  C8  UNL     1      -3.457  50.734 -16.088  1.00  0.00     0.075 C 
ENDROOT
BRANCH   1   7
HETATM    7  C3  UNL     1      -1.030  48.331 -15.837  1.00  0.00     0.298 C 
HETATM    8  O2  UNL     1       0.056  48.528 -16.374  1.00  0.00    -0.262 OA
BRANCH   7   9
HETATM    9  O1  UNL     1      -1.216  47.969 -14.545  1.00  0.00    -0.319 OA
BRANCH   9  10
HETATM   10  C2  UNL     1      -1.044  49.002 -13.561  1.00  0.00     0.174 C 
HETATM   11  C1  UNL     1       0.066  48.623 -12.601  1.00  0.00     0.034 C 
ENDBRANCH   9  10
ENDBRANCH   7   9
ENDBRANCH   1   7
BRANCH   1  12
HETATM   12  O3  UNL     1      -3.405  47.970 -15.763  1.00  0.00    -0.375 OA
HETATM   13  H6  UNL     1      -3.126  48.126 -14.835  1.00  0.00     0.211 HD
ENDBRANCH   1  12
BRANCH   5  14
HETATM   14  N1  UNL     1      -1.435  50.644 -17.590  1.00  0.00    -0.307 N 
HETATM   15  C9  UNL     1      -0.380  51.162 -16.842  1.00  0.00     0.051 A 
HETATM   16  C10 UNL     1      -0.094  51.044 -15.465  1.00  0.00     0.033 A 
HETATM   17  C14 UNL     1       0.471  51.885 -17.721  1.00  0.00     0.028 A 
HETATM   18  C11 UNL     1       1.036  51.651 -14.935  1.00  0.00     0.040 A 
HETATM   19  C12 UNL     1       1.863  52.363 -15.769  1.00  0.00     0.087 A 
HETATM   20  C13 UNL     1       1.612  52.528 -17.150  1.00  0.00     0.053 A 
HETATM   21  C15 UNL     1      -0.066  51.724 -19.053  1.00  0.00     0.024 C 
HETATM   22  C16 UNL     1       0.195  52.092 -20.393  1.00  0.00     0.062 A 
HETATM   23  C28 UNL     1      -1.170  50.893 -18.911  1.00  0.00     0.078 C 
HETATM   24  C17 UNL     1       1.194  53.013 -20.938  1.00  0.00     0.260 A 
HETATM   25  C19 UNL     1      -0.527  51.610 -21.524  1.00  0.00     0.062 A 
HETATM   26  O6  UNL     1       1.944  53.733 -20.309  1.00  0.00    -0.267 OA
HETATM   27  N3  UNL     1       1.101  52.971 -22.291  1.00  0.00    -0.289 N 
HETATM   28  C18 UNL     1       0.068  52.205 -22.718  1.00  0.00     0.260 A 
HETATM   29  H18 UNL     1       1.640  53.559 -22.906  1.00  0.00     0.172 HD
HETATM   30  O7  UNL     1      -0.292  52.069 -23.869  1.00  0.00    -0.267 OA
HETATM   31  C20 UNL     1      -1.604  50.724 -21.450  1.00  0.00     0.022 A 
HETATM   32  C21 UNL     1      -2.513  50.032 -22.311  1.00  0.00     0.004 A 
HETATM   33  C27 UNL     1      -1.947  50.369 -20.163  1.00  0.00     0.077 A 
HETATM   34  C22 UNL     1      -2.686  49.958 -23.709  1.00  0.00     0.014 A 
HETATM   35  C26 UNL     1      -3.379  49.280 -21.495  1.00  0.00     0.048 A 
HETATM   36  C23 UNL     1      -3.694  49.152 -24.250  1.00  0.00     0.001 A 
HETATM   37  C24 UNL     1      -4.533  48.417 -23.421  1.00  0.00     0.002 A 
HETATM   38  C25 UNL     1      -4.392  48.467 -22.032  1.00  0.00     0.030 A 
HETATM   39  N4  UNL     1      -3.015  49.525 -20.190  1.00  0.00    -0.316 N 
BRANCH  19  40
HETATM   40  O5  UNL     1       3.019  52.885 -15.244  1.00  0.00    -0.359 OA
HETATM   41  H15 UNL     1       3.557  53.080 -16.039  1.00  0.00     0.217 HD
ENDBRANCH  19  40
BRANCH  20  42
HETATM   42  N2  UNL     1       2.581  53.303 -17.842  1.00  0.00    -0.300 NA
HETATM   43  H16 UNL     1       2.616  54.246 -17.454  1.00  0.00     0.124 HD
HETATM   44  H17 UNL     1       2.367  53.402 -18.841  1.00  0.00     0.124 HD
ENDBRANCH  20  42
ENDBRANCH   5  14
TORSDOF 9
ENDMDL
MODEL 8
REMARK minimizedAffinity -10.0944462
REMARK CNNscore 0.786721051
REMARK CNNaffinity 7.59192276
REMARK  9 active torsions:
REMARK  status: ('A' for Active; 'I' for Inactive)
REMARK    1  A    between atoms: C2_2  and  O1_3 
REMARK    2  A    between atoms: O1_3  and  C3_4 
REMARK    3  A    between atoms: C3_4  and  C4_6 
REMARK    4  A    between atoms: C4_6  and  O3_7 
REMARK    5  A    between atoms: C6_9  and  N4_37 
REMARK    6  A    between atoms: C7_11  and  N1_13 
REMARK    7  A    between atoms: C12_17  and  O5_18 
REMARK    8  A    between atoms: C13_19  and  N2_20 
REMARK    9  A    between atoms: C27_38  and  C28_39 
ROOT
HETATM    1  C4  UNL     1      -4.337  48.499 -22.104  1.00  0.00     0.200 C 
HETATM    2  C5  UNL     1      -3.285  48.410 -23.195  1.00  0.00     0.108 C 
HETATM    3  C6  UNL     1      -3.146  49.846 -23.686  1.00  0.00     0.235 C 
HETATM    4  O4  UNL     1      -3.990  50.693 -22.895  1.00  0.00    -0.332 OA
HETATM    5  C7  UNL     1      -4.322  49.985 -21.665  1.00  0.00     0.181 C 
HETATM    6  C8  UNL     1      -5.714  50.553 -21.333  1.00  0.00     0.075 C 
ENDROOT
BRANCH   1   7
HETATM    7  C3  UNL     1      -4.142  47.536 -20.935  1.00  0.00     0.298 C 
HETATM    8  O2  UNL     1      -5.028  47.351 -20.105  1.00  0.00    -0.262 OA
BRANCH   7   9
HETATM    9  O1  UNL     1      -2.916  46.960 -20.922  1.00  0.00    -0.319 OA
BRANCH   9  10
HETATM   10  C2  UNL     1      -1.912  47.578 -21.743  1.00  0.00     0.174 C 
HETATM   11  C1  UNL     1      -0.684  47.891 -20.911  1.00  0.00     0.034 C 
ENDBRANCH   9  10
ENDBRANCH   7   9
ENDBRANCH   1   7
BRANCH   1  12
HETATM   12  O3  UNL     1      -5.592  48.159 -22.748  1.00  0.00    -0.375 OA
HETATM   13  H6  UNL     1      -6.173  47.771 -22.058  1.00  0.00     0.211 HD
ENDBRANCH   1  12
BRANCH   5  14
HETATM   14  N1  UNL     1      -3.298  50.329 -20.651  1.00  0.00    -0.307 N 
HETATM   15  C9  UNL     1      -3.242  49.891 -19.330  1.00  0.00     0.051 A 
HETATM   16  C10 UNL     1      -4.043  48.951 -18.646  1.00  0.00     0.033 A 
HETATM   17  C14 UNL     1      -2.162  50.556 -18.689  1.00  0.00     0.028 A 
HETATM   18  C11 UNL     1      -3.794  48.665 -17.311  1.00  0.00     0.040 A 
HETATM   19  C12 UNL     1      -2.760  49.309 -16.673  1.00  0.00     0.087 A 
HETATM   20  C13 UNL     1      -1.941  50.271 -17.307  1.00  0.00     0.053 A 
HETATM   21  C15 UNL     1      -1.511  51.364 -19.695  1.00  0.00     0.024 C 
HETATM   22  C16 UNL     1      -0.419  52.249 -19.853  1.00  0.00     0.062 A 
HETATM   23  C28 UNL     1      -2.197  51.114 -20.876  1.00  0.00     0.078 C 
HETATM   24  C17 UNL     1       0.479  52.824 -18.850  1.00  0.00     0.260 A 
HETATM   25  C19 UNL     1       0.019  52.785 -21.099  1.00  0.00     0.062 A 
HETATM   26  O6  UNL     1       0.387  52.723 -17.643  1.00  0.00    -0.267 OA
HETATM   27  N3  UNL     1       1.417  53.554 -19.504  1.00  0.00    -0.289 N 
HETATM   28  C18 UNL     1       1.183  53.627 -20.837  1.00  0.00     0.260 A 
HETATM   29  H18 UNL     1       2.122  54.103 -19.039  1.00  0.00     0.172 HD
HETATM   30  O7  UNL     1       1.814  54.286 -21.638  1.00  0.00    -0.267 OA
HETATM   31  C20 UNL     1      -0.591  52.519 -22.328  1.00  0.00     0.022 A 
HETATM   32  C21 UNL     1      -0.438  52.829 -23.715  1.00  0.00     0.004 A 
HETATM   33  C27 UNL     1      -1.699  51.705 -22.235  1.00  0.00     0.077 A 
HETATM   34  C22 UNL     1       0.486  53.591 -24.461  1.00  0.00     0.014 A 
HETATM   35  C26 UNL     1      -1.476  52.182 -24.411  1.00  0.00     0.048 A 
HETATM   36  C23 UNL     1       0.359  53.686 -25.851  1.00  0.00     0.001 A 
HETATM   37  C24 UNL     1      -0.674  53.034 -26.512  1.00  0.00     0.002 A 
HETATM   38  C25 UNL     1      -1.608  52.272 -25.807  1.00  0.00     0.030 A 
HETATM   39  N4  UNL     1      -2.236  51.521 -23.472  1.00  0.00    -0.316 N 
BRANCH  19  40
HETATM   40  O5  UNL     1      -2.476  48.952 -15.379  1.00  0.00    -0.359 OA
HETATM   41  H15 UNL     1      -1.572  49.306 -15.243  1.00  0.00     0.217 HD
ENDBRANCH  19  40
BRANCH  20  42
HETATM   42  N2  UNL     1      -0.930  50.828 -16.479  1.00  0.00    -0.300 NA
HETATM   43  H16 UNL     1      -1.354  51.308 -15.684  1.00  0.00     0.124 HD
HETATM   44  H17 UNL     1      -0.355  51.521 -16.971  1.00  0.00     0.124 HD
ENDBRANCH  20  42
ENDBRANCH   5  14
TORSDOF 9
ENDMDL
MODEL 9
REMARK minimizedAffinity -10.5964766
REMARK CNNscore 0.707055926
REMARK CNNaffinity 7.18686342
REMARK  9 active torsions:
REMARK  status: ('A' for Active; 'I' for Inactive)
REMARK    1  A    between atoms: C2_2  and  O1_3 
REMARK    2  A    between atoms: O1_3  and  C3_4 
REMARK    3  A    between atoms: C3_4  and  C4_6 
REMARK    4  A    between atoms: C4_6  and  O3_7 
REMARK    5  A    between atoms: C6_9  and  N4_37 
REMARK    6  A    between atoms: C7_11  and  N1_13 
REMARK    7  A    between atoms: C12_17  and  O5_18 
REMARK    8  A    between atoms: C13_19  and  N2_20 
REMARK    9  A    between atoms: C27_38  and  C28_39 
ROOT
HETATM    1  C4  UNL     1      -4.162  48.749 -21.552  1.00  0.00     0.200 C 
HETATM    2  C5  UNL     1      -4.419  47.951 -20.286  1.00  0.00     0.108 C 
HETATM    3  C6  UNL     1      -3.281  46.938 -20.256  1.00  0.00     0.235 C 
HETATM    4  O4  UNL     1      -2.409  47.184 -21.367  1.00  0.00    -0.332 OA
HETATM    5  C7  UNL     1      -2.658  48.535 -21.852  1.00  0.00     0.181 C 
HETATM    6  C8  UNL     1      -2.330  48.405 -23.350  1.00  0.00     0.075 C 
ENDROOT
BRANCH   1   7
HETATM    7  C3  UNL     1      -4.546  50.225 -21.478  1.00  0.00     0.298 C 
HETATM    8  O2  UNL     1      -4.173  50.936 -20.550  1.00  0.00    -0.262 OA
BRANCH   7   9
HETATM    9  O1  UNL     1      -5.332  50.620 -22.508  1.00  0.00    -0.319 OA
BRANCH   9  10
HETATM   10  C2  UNL     1      -4.663  51.246 -23.616  1.00  0.00     0.174 C 
HETATM   11  C1  UNL     1      -4.090  52.583 -23.187  1.00  0.00     0.034 C 
ENDBRANCH   9  10
ENDBRANCH   7   9
ENDBRANCH   1   7
BRANCH   1  12
HETATM   12  O3  UNL     1      -4.989  48.131 -22.573  1.00  0.00    -0.375 OA
HETATM   13  H6  UNL     1      -5.208  48.830 -23.226  1.00  0.00     0.211 HD
ENDBRANCH   1  12
BRANCH   5  14
HETATM   14  N1  UNL     1      -1.740  49.452 -21.135  1.00  0.00    -0.307 N 
HETATM   15  C9  UNL     1      -1.374  49.396 -19.792  1.00  0.00     0.051 A 
HETATM   16  C10 UNL     1      -1.671  48.431 -18.805  1.00  0.00     0.033 A 
HETATM   17  C14 UNL     1      -0.571  50.533 -19.504  1.00  0.00     0.028 A 
HETATM   18  C11 UNL     1      -1.186  48.584 -17.514  1.00  0.00     0.040 A 
HETATM   19  C12 UNL     1      -0.417  49.683 -17.217  1.00  0.00     0.087 A 
HETATM   20  C13 UNL     1      -0.107  50.687 -18.162  1.00  0.00     0.053 A 
HETATM   21  C15 UNL     1      -0.397  51.248 -20.747  1.00  0.00     0.024 C 
HETATM   22  C16 UNL     1       0.245  52.394 -21.273  1.00  0.00     0.062 A 
HETATM   23  C28 UNL     1      -1.059  50.494 -21.708  1.00  0.00     0.078 C 
HETATM   24  C17 UNL     1       0.957  53.473 -20.584  1.00  0.00     0.260 A 
HETATM   25  C19 UNL     1       0.302  52.730 -22.657  1.00  0.00     0.062 A 
HETATM   26  O6  UNL     1       1.044  53.641 -19.385  1.00  0.00    -0.267 OA
HETATM   27  N3  UNL     1       1.463  54.303 -21.530  1.00  0.00    -0.289 N 
HETATM   28  C18 UNL     1       1.073  53.964 -22.783  1.00  0.00     0.260 A 
HETATM   29  H18 UNL     1       1.947  55.161 -21.318  1.00  0.00     0.172 HD
HETATM   30  O7  UNL     1       1.309  54.588 -23.797  1.00  0.00    -0.267 OA
HETATM   31  C20 UNL     1      -0.289  51.978 -23.675  1.00  0.00     0.022 A 
HETATM   32  C21 UNL     1      -0.421  51.976 -25.099  1.00  0.00     0.004 A 
HETATM   33  C27 UNL     1      -0.980  50.875 -23.223  1.00  0.00     0.077 A 
HETATM   34  C22 UNL     1       0.050  52.809 -26.135  1.00  0.00     0.014 A 
HETATM   35  C26 UNL     1      -1.199  50.857 -25.450  1.00  0.00     0.048 A 
HETATM   36  C23 UNL     1      -0.256  52.513 -27.468  1.00  0.00     0.001 A 
HETATM   37  C24 UNL     1      -1.024  51.399 -27.787  1.00  0.00     0.002 A 
HETATM   38  C25 UNL     1      -1.508  50.553 -26.787  1.00  0.00     0.030 A 
HETATM   39  N4  UNL     1      -1.537  50.219 -24.278  1.00  0.00    -0.316 N 
BRANCH  19  40
HETATM   40  O5  UNL     1       0.123  49.774 -15.959  1.00  0.00    -0.359 OA
HETATM   41  H15 UNL     1       0.829  50.444 -16.067  1.00  0.00     0.217 HD
ENDBRANCH  19  40
BRANCH  20  42
HETATM   42  N2  UNL     1       0.695  51.747 -17.662  1.00  0.00    -0.300 NA
HETATM   43  H16 UNL     1       0.210  52.225 -16.902  1.00  0.00     0.124 HD
HETATM   44  H17 UNL     1       0.901  52.457 -18.373  1.00  0.00     0.124 HD
ENDBRANCH  20  42
ENDBRANCH   5  14
TORSDOF 9
ENDMDL
