MODEL 1
REMARK minimizedAffinity -9.30710697
REMARK CNNscore 0.512276173
REMARK CNNaffinity 6.80221605
REMARK  12 active torsions:
REMARK  status: ('A' for Active; 'I' for Inactive)
REMARK    1  A    between atoms: O1_2  and  C2_3 
REMARK    2  A    between atoms: C2_3  and  C5_6 
REMARK    3  A    between atoms: C6_7  and  C7_8 
REMARK    4  A    between atoms: C7_8  and  C8_9 
REMARK    5  A    between atoms: C8_9  and  C10_11 
REMARK    6  A    between atoms: C28_30  and  O3_31 
REMARK    7  A    between atoms: O3_31  and  C29_32 
REMARK    8  A    between atoms: C30_34  and  C31_35 
REMARK    9  A    between atoms: C31_35  and  O5_36 
REMARK   10  A    between atoms: C32_37  and  O6_38 
REMARK   11  A    between atoms: C33_39  and  O7_40 
REMARK   12  A    between atoms: C34_41  and  O8_42 
ROOT
HETATM    1  C10 UNL     1      -2.565  12.735  17.945  1.00  0.00    -0.002 C 
HETATM    2  C11 UNL     1      -1.229  12.515  18.716  1.00  0.00     0.006 C 
HETATM    3  C12 UNL     1      -0.665  11.149  18.274  1.00  0.00     0.011 C 
HETATM    4  C13 UNL     1      -1.442  10.797  16.992  1.00  0.00    -0.029 C 
HETATM    5  C14 UNL     1      -0.751  11.598  15.850  1.00  0.00     0.016 C 
HETATM    6  C15 UNL     1      -1.500   9.279  16.645  1.00  0.00     0.028 C 
HETATM    7  C16 UNL     1      -0.167   8.625  16.348  1.00  0.00    -0.021 C 
HETATM    8  C17 UNL     1      -0.041   7.696  15.384  1.00  0.00     0.008 C 
HETATM    9  C18 UNL     1      -1.214   7.304  14.492  1.00  0.00     0.092 C 
HETATM   10  O2  UNL     1      -2.086   6.529  15.337  1.00  0.00    -0.374 OA
HETATM   11  C19 UNL     1      -3.069   7.434  15.886  1.00  0.00     0.179 C 
HETATM   12  C20 UNL     1      -2.604   8.902  15.574  1.00  0.00    -0.004 C 
HETATM   13  C21 UNL     1      -3.854   9.826  15.534  1.00  0.00     0.014 C 
HETATM   14  C22 UNL     1      -3.735  11.255  16.094  1.00  0.00     0.011 C 
HETATM   15  C23 UNL     1      -2.886  11.317  17.371  1.00  0.00    -0.032 C 
HETATM   16  C24 UNL     1      -3.596  10.472  18.464  1.00  0.00     0.016 C 
HETATM   17  C25 UNL     1      -2.048   8.560  14.172  1.00  0.00     0.036 C 
HETATM   18  C26 UNL     1      -1.267   9.543  13.310  1.00  0.00     0.011 C 
HETATM   19  C27 UNL     1      -0.814   8.858  12.013  1.00  0.00     0.033 C 
HETATM   20  C28 UNL     1      -0.057   7.533  12.248  1.00  0.00     0.136 C 
HETATM   21  C35 UNL     1      -0.828   6.545  13.181  1.00  0.00     0.014 C 
HETATM   22  C36 UNL     1      -2.086   5.976  12.468  1.00  0.00     0.021 C 
HETATM   23  C37 UNL     1       0.060   5.309  13.475  1.00  0.00     0.021 C 
ENDROOT
BRANCH  20  24
HETATM   24  O3  UNL     1       0.157   6.905  10.978  1.00  0.00    -0.352 OA
BRANCH  24  25
HETATM   25  C29 UNL     1       1.500   6.985  10.495  1.00  0.00     0.292 C 
HETATM   26  O4  UNL     1       1.847   5.715   9.948  1.00  0.00    -0.348 OA
HETATM   27  C30 UNL     1       3.138   5.719   9.306  1.00  0.00     0.179 C 
HETATM   28  C32 UNL     1       4.200   6.503  10.111  1.00  0.00     0.180 C 
HETATM   29  C33 UNL     1       3.778   6.601  11.579  1.00  0.00     0.183 C 
HETATM   30  C34 UNL     1       2.420   7.322  11.695  1.00  0.00     0.204 C 
BRANCH  27  31
HETATM   31  C31 UNL     1       3.530   4.244   9.145  1.00  0.00     0.198 C 
BRANCH  31  32
HETATM   32  O5  UNL     1       2.885   3.425  10.107  1.00  0.00    -0.398 OA
HETATM   33  H48 UNL     1       3.228   2.519   9.988  1.00  0.00     0.209 HD
ENDBRANCH  31  32
ENDBRANCH  27  31
BRANCH  28  34
HETATM   34  O6  UNL     1       4.296   7.860   9.614  1.00  0.00    -0.390 OA
HETATM   35  H50 UNL     1       5.103   8.213  10.048  1.00  0.00     0.210 HD
ENDBRANCH  28  34
BRANCH  29  36
HETATM   36  O7  UNL     1       4.793   7.314  12.309  1.00  0.00    -0.390 OA
HETATM   37  H52 UNL     1       4.328   7.818  13.002  1.00  0.00     0.210 HD
ENDBRANCH  29  36
BRANCH  30  38
HETATM   38  O8  UNL     1       2.628   8.751  11.786  1.00  0.00    -0.388 OA
HETATM   39  H54 UNL     1       3.173   8.982  11.005  1.00  0.00     0.210 HD
ENDBRANCH  30  38
ENDBRANCH  24  25
ENDBRANCH  20  24
BRANCH   1  40
HETATM   40  C8  UNL     1      -3.609  13.601  18.724  1.00  0.00    -0.010 C 
HETATM   41  C9  UNL     1      -3.068  14.797  19.529  1.00  0.00     0.010 C 
BRANCH  40  42
HETATM   42  C7  UNL     1      -4.527  12.724  19.606  1.00  0.00     0.031 C 
BRANCH  42  43
HETATM   43  C6  UNL     1      -5.667  13.472  20.251  1.00  0.00    -0.027 C 
HETATM   44  C5  UNL     1      -5.995  13.332  21.549  1.00  0.00     0.006 C 
BRANCH  44  45
HETATM   45  C2  UNL     1      -7.150  13.971  22.297  1.00  0.00     0.070 C 
HETATM   46  C3  UNL     1      -7.693  12.937  23.296  1.00  0.00     0.050 C 
HETATM   47  C4  UNL     1      -6.812  15.258  23.067  1.00  0.00     0.050 C 
BRANCH  45  48
HETATM   48  O1  UNL     1      -8.223  14.179  21.359  1.00  0.00    -0.382 OA
HETATM   49  C1  UNL     1      -9.163  13.119  21.241  1.00  0.00     0.202 C 
ENDBRANCH  45  48
ENDBRANCH  44  45
ENDBRANCH  42  43
ENDBRANCH  40  42
ENDBRANCH   1  40
TORSDOF 12
ENDMDL
MODEL 2
REMARK minimizedAffinity -8.32521248
REMARK CNNscore 0.501995265
REMARK CNNaffinity 7.52247429
REMARK  12 active torsions:
REMARK  status: ('A' for Active; 'I' for Inactive)
REMARK    1  A    between atoms: O1_2  and  C2_3 
REMARK    2  A    between atoms: C2_3  and  C5_6 
REMARK    3  A    between atoms: C6_7  and  C7_8 
REMARK    4  A    between atoms: C7_8  and  C8_9 
REMARK    5  A    between atoms: C8_9  and  C10_11 
REMARK    6  A    between atoms: C28_30  and  O3_31 
REMARK    7  A    between atoms: O3_31  and  C29_32 
REMARK    8  A    between atoms: C30_34  and  C31_35 
REMARK    9  A    between atoms: C31_35  and  O5_36 
REMARK   10  A    between atoms: C32_37  and  O6_38 
REMARK   11  A    between atoms: C33_39  and  O7_40 
REMARK   12  A    between atoms: C34_41  and  O8_42 
ROOT
HETATM    1  C10 UNL     1      -8.795   7.318  15.033  1.00  0.00    -0.002 C 
HETATM    2  C11 UNL     1      -8.430   7.328  16.548  1.00  0.00     0.006 C 
HETATM    3  C12 UNL     1      -6.970   6.844  16.671  1.00  0.00     0.011 C 
HETATM    4  C13 UNL     1      -6.398   6.951  15.245  1.00  0.00    -0.029 C 
HETATM    5  C14 UNL     1      -6.022   8.450  15.056  1.00  0.00     0.016 C 
HETATM    6  C15 UNL     1      -5.175   6.033  14.950  1.00  0.00     0.028 C 
HETATM    7  C16 UNL     1      -3.932   6.316  15.768  1.00  0.00    -0.021 C 
HETATM    8  C17 UNL     1      -2.703   6.236  15.228  1.00  0.00     0.008 C 
HETATM    9  C18 UNL     1      -2.498   5.926  13.748  1.00  0.00     0.092 C 
HETATM   10  O2  UNL     1      -2.817   4.528  13.609  1.00  0.00    -0.374 OA
HETATM   11  C19 UNL     1      -4.207   4.440  13.225  1.00  0.00     0.179 C 
HETATM   12  C20 UNL     1      -4.851   5.863  13.408  1.00  0.00    -0.004 C 
HETATM   13  C21 UNL     1      -6.063   5.992  12.442  1.00  0.00     0.014 C 
HETATM   14  C22 UNL     1      -7.310   6.757  12.920  1.00  0.00     0.011 C 
HETATM   15  C23 UNL     1      -7.643   6.478  14.392  1.00  0.00    -0.032 C 
HETATM   16  C24 UNL     1      -7.970   4.967  14.535  1.00  0.00     0.016 C 
HETATM   17  C25 UNL     1      -3.596   6.629  12.927  1.00  0.00     0.036 C 
HETATM   18  C26 UNL     1      -3.456   8.144  12.990  1.00  0.00     0.011 C 
HETATM   19  C27 UNL     1      -2.067   8.563  12.491  1.00  0.00     0.033 C 
HETATM   20  C28 UNL     1      -0.910   7.824  13.196  1.00  0.00     0.136 C 
HETATM   21  C35 UNL     1      -1.080   6.271  13.187  1.00  0.00     0.014 C 
HETATM   22  C36 UNL     1      -0.886   5.701  11.755  1.00  0.00     0.021 C 
HETATM   23  C37 UNL     1       0.045   5.621  14.034  1.00  0.00     0.021 C 
ENDROOT
BRANCH  20  24
HETATM   24  O3  UNL     1       0.314   8.164  12.533  1.00  0.00    -0.352 OA
BRANCH  24  25
HETATM   25  C29 UNL     1       1.475   8.106  13.364  1.00  0.00     0.292 C 
HETATM   26  O4  UNL     1       1.187   8.812  14.570  1.00  0.00    -0.348 OA
HETATM   27  C30 UNL     1       2.244   8.703  15.544  1.00  0.00     0.179 C 
HETATM   28  C32 UNL     1       3.649   8.838  14.915  1.00  0.00     0.180 C 
HETATM   29  C33 UNL     1       3.555   9.570  13.574  1.00  0.00     0.183 C 
HETATM   30  C34 UNL     1       2.641   8.792  12.607  1.00  0.00     0.204 C 
BRANCH  27  31
HETATM   31  C31 UNL     1       1.979   9.810  16.573  1.00  0.00     0.198 C 
BRANCH  31  32
HETATM   32  O5  UNL     1       2.296   9.386  17.889  1.00  0.00    -0.398 OA
HETATM   33  H48 UNL     1       2.044  10.110  18.492  1.00  0.00     0.209 HD
ENDBRANCH  31  32
ENDBRANCH  27  31
BRANCH  28  34
HETATM   34  O6  UNL     1       4.196   7.527  14.636  1.00  0.00    -0.390 OA
HETATM   35  H50 UNL     1       5.138   7.704  14.420  1.00  0.00     0.210 HD
ENDBRANCH  28  34
BRANCH  29  36
HETATM   36  O7  UNL     1       4.878   9.703  13.021  1.00  0.00    -0.390 OA
HETATM   37  H52 UNL     1       4.777   9.641  12.054  1.00  0.00     0.210 HD
ENDBRANCH  29  36
BRANCH  30  38
HETATM   38  O8  UNL     1       3.415   7.810  11.879  1.00  0.00    -0.388 OA
HETATM   39  H54 UNL     1       3.868   7.278  12.566  1.00  0.00     0.210 HD
ENDBRANCH  30  38
ENDBRANCH  24  25
ENDBRANCH  20  24
BRANCH   1  40
HETATM   40  C8  UNL     1     -10.310   7.049  14.750  1.00  0.00    -0.010 C 
HETATM   41  C9  UNL     1     -10.705   6.715  13.300  1.00  0.00     0.010 C 
BRANCH  40  42
HETATM   42  C7  UNL     1     -11.200   8.184  15.306  1.00  0.00     0.031 C 
BRANCH  42  43
HETATM   43  C6  UNL     1     -12.669   8.024  15.006  1.00  0.00    -0.027 C 
HETATM   44  C5  UNL     1     -13.315   8.763  14.084  1.00  0.00     0.006 C 
BRANCH  44  45
HETATM   45  C2  UNL     1     -14.791   8.746  13.736  1.00  0.00     0.070 C 
HETATM   46  C3  UNL     1     -15.213  10.187  13.407  1.00  0.00     0.050 C 
HETATM   47  C4  UNL     1     -15.185   7.843  12.556  1.00  0.00     0.050 C 
BRANCH  45  48
HETATM   48  O1  UNL     1     -15.522   8.409  14.930  1.00  0.00    -0.382 OA
HETATM   49  C1  UNL     1     -16.078   9.501  15.650  1.00  0.00     0.202 C 
ENDBRANCH  45  48
ENDBRANCH  44  45
ENDBRANCH  42  43
ENDBRANCH  40  42
ENDBRANCH   1  40
TORSDOF 12
ENDMDL
MODEL 3
REMARK minimizedAffinity -8.56671238
REMARK CNNscore 0.42765376
REMARK CNNaffinity 7.00782776
REMARK  12 active torsions:
REMARK  status: ('A' for Active; 'I' for Inactive)
REMARK    1  A    between atoms: O1_2  and  C2_3 
REMARK    2  A    between atoms: C2_3  and  C5_6 
REMARK    3  A    between atoms: C6_7  and  C7_8 
REMARK    4  A    between atoms: C7_8  and  C8_9 
REMARK    5  A    between atoms: C8_9  and  C10_11 
REMARK    6  A    between atoms: C28_30  and  O3_31 
REMARK    7  A    between atoms: O3_31  and  C29_32 
REMARK    8  A    between atoms: C30_34  and  C31_35 
REMARK    9  A    between atoms: C31_35  and  O5_36 
REMARK   10  A    between atoms: C32_37  and  O6_38 
REMARK   11  A    between atoms: C33_39  and  O7_40 
REMARK   12  A    between atoms: C34_41  and  O8_42 
ROOT
HETATM    1  C10 UNL     1      -1.525   5.745  12.704  1.00  0.00    -0.002 C 
HETATM    2  C11 UNL     1      -0.936   4.308  12.572  1.00  0.00     0.006 C 
HETATM    3  C12 UNL     1       0.486   4.448  11.992  1.00  0.00     0.011 C 
HETATM    4  C13 UNL     1       0.844   5.935  12.176  1.00  0.00    -0.029 C 
HETATM    5  C14 UNL     1       1.295   6.075  13.660  1.00  0.00     0.016 C 
HETATM    6  C15 UNL     1       1.939   6.479  11.211  1.00  0.00     0.028 C 
HETATM    7  C16 UNL     1       3.308   5.847  11.353  1.00  0.00    -0.021 C 
HETATM    8  C17 UNL     1       4.432   6.575  11.240  1.00  0.00     0.008 C 
HETATM    9  C18 UNL     1       4.390   8.086  11.038  1.00  0.00     0.092 C 
HETATM   10  O2  UNL     1       3.952   8.271   9.677  1.00  0.00    -0.374 OA
HETATM   11  C19 UNL     1       2.518   8.439   9.705  1.00  0.00     0.179 C 
HETATM   12  C20 UNL     1       2.014   8.060  11.145  1.00  0.00    -0.004 C 
HETATM   13  C21 UNL     1       0.683   8.814  11.425  1.00  0.00     0.014 C 
HETATM   14  C22 UNL     1      -0.419   8.097  12.224  1.00  0.00     0.011 C 
HETATM   15  C23 UNL     1      -0.546   6.614  11.850  1.00  0.00    -0.032 C 
HETATM   16  C24 UNL     1      -0.957   6.527  10.355  1.00  0.00     0.016 C 
HETATM   17  C25 UNL     1       3.234   8.676  11.869  1.00  0.00     0.036 C 
HETATM   18  C26 UNL     1       3.491   8.531  13.363  1.00  0.00     0.011 C 
HETATM   19  C27 UNL     1       4.816   9.210  13.735  1.00  0.00     0.033 C 
HETATM   20  C28 UNL     1       6.010   8.746  12.872  1.00  0.00     0.136 C 
HETATM   21  C35 UNL     1       5.729   8.836  11.338  1.00  0.00     0.014 C 
HETATM   22  C36 UNL     1       5.663  10.317  10.873  1.00  0.00     0.021 C 
HETATM   23  C37 UNL     1       6.917   8.222  10.555  1.00  0.00     0.021 C 
ENDROOT
BRANCH  20  24
HETATM   24  O3  UNL     1       7.142   9.567  13.188  1.00  0.00    -0.352 OA
BRANCH  24  25
HETATM   25  C29 UNL     1       7.405   9.701  14.587  1.00  0.00     0.292 C 
HETATM   26  O4  UNL     1       8.391  10.718  14.752  1.00  0.00    -0.348 OA
HETATM   27  C30 UNL     1       8.637  11.035  16.136  1.00  0.00     0.179 C 
HETATM   28  C32 UNL     1       8.701   9.776  17.032  1.00  0.00     0.180 C 
HETATM   29  C33 UNL     1       9.026   8.545  16.184  1.00  0.00     0.183 C 
HETATM   30  C34 UNL     1       7.943   8.343  15.105  1.00  0.00     0.204 C 
BRANCH  27  31
HETATM   31  C31 UNL     1       9.961  11.810  16.159  1.00  0.00     0.198 C 
BRANCH  31  32
HETATM   32  O5  UNL     1      10.800  11.443  15.076  1.00  0.00    -0.398 OA
HETATM   33  H48 UNL     1      11.641  11.922  15.190  1.00  0.00     0.209 HD
ENDBRANCH  31  32
ENDBRANCH  27  31
BRANCH  28  34
HETATM   34  O6  UNL     1       7.410   9.534  17.641  1.00  0.00    -0.390 OA
HETATM   35  H50 UNL     1       7.593   8.848  18.319  1.00  0.00     0.210 HD
ENDBRANCH  28  34
BRANCH  29  36
HETATM   36  O7  UNL     1       9.102   7.393  17.044  1.00  0.00    -0.390 OA
HETATM   37  H52 UNL     1       8.769   6.640  16.522  1.00  0.00     0.210 HD
ENDBRANCH  29  36
BRANCH  30  38
HETATM   38  O8  UNL     1       6.861   7.542  15.636  1.00  0.00    -0.388 OA
HETATM   39  H54 UNL     1       6.575   8.004  16.452  1.00  0.00     0.210 HD
ENDBRANCH  30  38
ENDBRANCH  24  25
ENDBRANCH  20  24
BRANCH   1  40
HETATM   40  C8  UNL     1      -3.081   5.807  12.553  1.00  0.00    -0.010 C 
HETATM   41  C9  UNL     1      -3.862   6.565  13.641  1.00  0.00     0.010 C 
BRANCH  40  42
HETATM   42  C7  UNL     1      -3.685   4.401  12.330  1.00  0.00     0.031 C 
BRANCH  42  43
HETATM   43  C6  UNL     1      -5.179   4.332  12.519  1.00  0.00    -0.027 C 
HETATM   44  C5  UNL     1      -5.815   4.907  13.557  1.00  0.00     0.006 C 
BRANCH  44  45
HETATM   45  C2  UNL     1      -7.293   4.855  13.896  1.00  0.00     0.070 C 
HETATM   46  C3  UNL     1      -7.884   3.602  13.231  1.00  0.00     0.050 C 
HETATM   47  C4  UNL     1      -7.629   4.813  15.396  1.00  0.00     0.050 C 
BRANCH  45  48
HETATM   48  O1  UNL     1      -7.935   5.963  13.239  1.00  0.00    -0.382 OA
HETATM   49  C1  UNL     1      -8.689   5.647  12.076  1.00  0.00     0.202 C 
ENDBRANCH  45  48
ENDBRANCH  44  45
ENDBRANCH  42  43
ENDBRANCH  40  42
ENDBRANCH   1  40
TORSDOF 12
ENDMDL
MODEL 4
REMARK minimizedAffinity -9.1436739
REMARK CNNscore 0.379575342
REMARK CNNaffinity 7.18476725
REMARK  12 active torsions:
REMARK  status: ('A' for Active; 'I' for Inactive)
REMARK    1  A    between atoms: O1_2  and  C2_3 
REMARK    2  A    between atoms: C2_3  and  C5_6 
REMARK    3  A    between atoms: C6_7  and  C7_8 
REMARK    4  A    between atoms: C7_8  and  C8_9 
REMARK    5  A    between atoms: C8_9  and  C10_11 
REMARK    6  A    between atoms: C28_30  and  O3_31 
REMARK    7  A    between atoms: O3_31  and  C29_32 
REMARK    8  A    between atoms: C30_34  and  C31_35 
REMARK    9  A    between atoms: C31_35  and  O5_36 
REMARK   10  A    between atoms: C32_37  and  O6_38 
REMARK   11  A    between atoms: C33_39  and  O7_40 
REMARK   12  A    between atoms: C34_41  and  O8_42 
ROOT
HETATM    1  C10 UNL     1      -5.101   6.757  14.638  1.00  0.00    -0.002 C 
HETATM    2  C11 UNL     1      -3.976   5.752  14.245  1.00  0.00     0.006 C 
HETATM    3  C12 UNL     1      -2.634   6.507  14.342  1.00  0.00     0.011 C 
HETATM    4  C13 UNL     1      -2.951   7.774  15.159  1.00  0.00    -0.029 C 
HETATM    5  C14 UNL     1      -2.953   7.321  16.649  1.00  0.00     0.016 C 
HETATM    6  C15 UNL     1      -1.971   8.965  14.944  1.00  0.00     0.028 C 
HETATM    7  C16 UNL     1      -0.537   8.717  15.366  1.00  0.00    -0.021 C 
HETATM    8  C17 UNL     1       0.197   9.676  15.956  1.00  0.00     0.008 C 
HETATM    9  C18 UNL     1      -0.395  11.040  16.298  1.00  0.00     0.092 C 
HETATM   10  O2  UNL     1      -0.539  11.715  15.033  1.00  0.00    -0.374 OA
HETATM   11  C19 UNL     1      -1.885  11.474  14.567  1.00  0.00     0.179 C 
HETATM   12  C20 UNL     1      -2.518  10.355  15.472  1.00  0.00    -0.004 C 
HETATM   13  C21 UNL     1      -4.064  10.522  15.467  1.00  0.00     0.014 C 
HETATM   14  C22 UNL     1      -4.943   9.259  15.477  1.00  0.00     0.011 C 
HETATM   15  C23 UNL     1      -4.378   8.142  14.587  1.00  0.00    -0.032 C 
HETATM   16  C24 UNL     1      -4.359   8.657  13.122  1.00  0.00     0.016 C 
HETATM   17  C25 UNL     1      -1.849  10.856  16.774  1.00  0.00     0.036 C 
HETATM   18  C26 UNL     1      -1.912  10.107  18.098  1.00  0.00     0.011 C 
HETATM   19  C27 UNL     1      -1.093  10.851  19.161  1.00  0.00     0.033 C 
HETATM   20  C28 UNL     1       0.352  11.166  18.717  1.00  0.00     0.136 C 
HETATM   21  C35 UNL     1       0.425  11.881  17.330  1.00  0.00     0.014 C 
HETATM   22  C36 UNL     1      -0.114  13.335  17.428  1.00  0.00     0.021 C 
HETATM   23  C37 UNL     1       1.907  12.030  16.900  1.00  0.00     0.021 C 
ENDROOT
BRANCH  20  24
HETATM   24  O3  UNL     1       0.956  12.006  19.708  1.00  0.00    -0.352 OA
BRANCH  24  25
HETATM   25  C29 UNL     1       2.183  11.505  20.244  1.00  0.00     0.292 C 
HETATM   26  O4  UNL     1       1.876  10.372  21.056  1.00  0.00    -0.348 OA
HETATM   27  C30 UNL     1       3.055   9.700  21.541  1.00  0.00     0.179 C 
HETATM   28  C32 UNL     1       4.150  10.685  22.012  1.00  0.00     0.180 C 
HETATM   29  C33 UNL     1       3.526  12.041  22.347  1.00  0.00     0.183 C 
HETATM   30  C34 UNL     1       2.822  12.624  21.105  1.00  0.00     0.204 C 
BRANCH  27  31
HETATM   31  C31 UNL     1       2.580   8.796  22.686  1.00  0.00     0.198 C 
BRANCH  31  32
HETATM   32  O5  UNL     1       1.549   7.918  22.265  1.00  0.00    -0.398 OA
HETATM   33  H48 UNL     1       1.254   7.424  23.053  1.00  0.00     0.209 HD
ENDBRANCH  31  32
ENDBRANCH  27  31
BRANCH  28  34
HETATM   34  O6  UNL     1       5.101  10.916  20.945  1.00  0.00    -0.390 OA
HETATM   35  H50 UNL     1       5.840  11.390  21.386  1.00  0.00     0.210 HD
ENDBRANCH  28  34
BRANCH  29  36
HETATM   36  O7  UNL     1       4.561  12.931  22.804  1.00  0.00    -0.390 OA
HETATM   37  H52 UNL     1       4.311  13.822  22.497  1.00  0.00     0.210 HD
ENDBRANCH  29  36
BRANCH  30  38
HETATM   38  O8  UNL     1       3.765  13.388  20.317  1.00  0.00    -0.388 OA
HETATM   39  H54 UNL     1       4.510  12.777  20.143  1.00  0.00     0.210 HD
ENDBRANCH  30  38
ENDBRANCH  24  25
ENDBRANCH  20  24
BRANCH   1  40
HETATM   40  C8  UNL     1      -6.470   6.479  13.935  1.00  0.00    -0.010 C 
HETATM   41  C9  UNL     1      -7.695   7.256  14.452  1.00  0.00     0.010 C 
BRANCH  40  42
HETATM   42  C7  UNL     1      -6.776   4.965  13.869  1.00  0.00     0.031 C 
BRANCH  42  43
HETATM   43  C6  UNL     1      -6.366   4.305  12.576  1.00  0.00    -0.027 C 
HETATM   44  C5  UNL     1      -5.776   3.097  12.525  1.00  0.00     0.006 C 
BRANCH  44  45
HETATM   45  C2  UNL     1      -5.259   2.358  11.304  1.00  0.00     0.070 C 
HETATM   46  C3  UNL     1      -6.123   1.101  11.114  1.00  0.00     0.050 C 
HETATM   47  C4  UNL     1      -5.267   3.157   9.991  1.00  0.00     0.050 C 
BRANCH  45  48
HETATM   48  O1  UNL     1      -3.944   1.860  11.615  1.00  0.00    -0.382 OA
HETATM   49  C1  UNL     1      -2.926   2.839  11.771  1.00  0.00     0.202 C 
ENDBRANCH  45  48
ENDBRANCH  44  45
ENDBRANCH  42  43
ENDBRANCH  40  42
ENDBRANCH   1  40
TORSDOF 12
ENDMDL
MODEL 5
REMARK minimizedAffinity -7.99480963
REMARK CNNscore 0.378699839
REMARK CNNaffinity 7.0458312
REMARK  12 active torsions:
REMARK  status: ('A' for Active; 'I' for Inactive)
REMARK    1  A    between atoms: O1_2  and  C2_3 
REMARK    2  A    between atoms: C2_3  and  C5_6 
REMARK    3  A    between atoms: C6_7  and  C7_8 
REMARK    4  A    between atoms: C7_8  and  C8_9 
REMARK    5  A    between atoms: C8_9  and  C10_11 
REMARK    6  A    between atoms: C28_30  and  O3_31 
REMARK    7  A    between atoms: O3_31  and  C29_32 
REMARK    8  A    between atoms: C30_34  and  C31_35 
REMARK    9  A    between atoms: C31_35  and  O5_36 
REMARK   10  A    between atoms: C32_37  and  O6_38 
REMARK   11  A    between atoms: C33_39  and  O7_40 
REMARK   12  A    between atoms: C34_41  and  O8_42 
ROOT
HETATM    1  C10 UNL     1     -11.455   8.867  14.820  1.00  0.00    -0.002 C 
HETATM    2  C11 UNL     1     -11.226   8.967  16.358  1.00  0.00     0.006 C 
HETATM    3  C12 UNL     1      -9.963   8.144  16.688  1.00  0.00     0.011 C 
HETATM    4  C13 UNL     1      -9.268   7.927  15.331  1.00  0.00    -0.029 C 
HETATM    5  C14 UNL     1      -8.492   9.246  15.043  1.00  0.00     0.016 C 
HETATM    6  C15 UNL     1      -8.314   6.698  15.263  1.00  0.00     0.028 C 
HETATM    7  C16 UNL     1      -7.112   6.751  16.183  1.00  0.00    -0.021 C 
HETATM    8  C17 UNL     1      -5.909   6.293  15.794  1.00  0.00     0.008 C 
HETATM    9  C18 UNL     1      -5.672   5.765  14.383  1.00  0.00     0.092 C 
HETATM   10  O2  UNL     1      -6.341   4.489  14.342  1.00  0.00    -0.374 OA
HETATM   11  C19 UNL     1      -7.667   4.714  13.816  1.00  0.00     0.179 C 
HETATM   12  C20 UNL     1      -7.921   6.265  13.790  1.00  0.00    -0.004 C 
HETATM   13  C21 UNL     1      -8.971   6.582  12.688  1.00  0.00     0.014 C 
HETATM   14  C22 UNL     1     -10.004   7.693  12.948  1.00  0.00     0.011 C 
HETATM   15  C23 UNL     1     -10.519   7.689  14.394  1.00  0.00    -0.032 C 
HETATM   16  C24 UNL     1     -11.248   6.340  14.643  1.00  0.00     0.016 C 
HETATM   17  C25 UNL     1      -6.472   6.620  13.381  1.00  0.00     0.036 C 
HETATM   18  C26 UNL     1      -5.939   8.045  13.314  1.00  0.00     0.011 C 
HETATM   19  C27 UNL     1      -4.453   8.031  12.935  1.00  0.00     0.033 C 
HETATM   20  C28 UNL     1      -3.596   7.112  13.832  1.00  0.00     0.136 C 
HETATM   21  C35 UNL     1      -4.173   5.664  13.953  1.00  0.00     0.014 C 
HETATM   22  C36 UNL     1      -4.021   4.894  12.611  1.00  0.00     0.021 C 
HETATM   23  C37 UNL     1      -3.336   4.855  14.977  1.00  0.00     0.021 C 
ENDROOT
BRANCH  20  24
HETATM   24  O3  UNL     1      -2.275   7.044  13.280  1.00  0.00    -0.352 OA
BRANCH  24  25
HETATM   25  C29 UNL     1      -1.229   7.340  14.207  1.00  0.00     0.292 C 
HETATM   26  O4  UNL     1      -1.032   8.753  14.209  1.00  0.00    -0.348 OA
HETATM   27  C30 UNL     1      -0.089   9.182  15.211  1.00  0.00     0.179 C 
HETATM   28  C32 UNL     1       1.144   8.254  15.304  1.00  0.00     0.180 C 
HETATM   29  C33 UNL     1       1.311   7.473  13.999  1.00  0.00     0.183 C 
HETATM   30  C34 UNL     1       0.056   6.620  13.724  1.00  0.00     0.204 C 
BRANCH  27  31
HETATM   31  C31 UNL     1       0.311  10.612  14.824  1.00  0.00     0.198 C 
BRANCH  31  32
HETATM   32  O5  UNL     1      -0.793  11.344  14.317  1.00  0.00    -0.398 OA
HETATM   33  H48 UNL     1      -0.454  12.213  14.033  1.00  0.00     0.209 HD
ENDBRANCH  31  32
ENDBRANCH  27  31
BRANCH  28  34
HETATM   34  O6  UNL     1       0.950   7.275  16.353  1.00  0.00    -0.390 OA
HETATM   35  H50 UNL     1       1.835   6.864  16.460  1.00  0.00     0.210 HD
ENDBRANCH  28  34
BRANCH  29  36
HETATM   36  O7  UNL     1       2.478   6.635  14.103  1.00  0.00    -0.390 OA
HETATM   37  H52 UNL     1       2.280   5.827  13.594  1.00  0.00     0.210 HD
ENDBRANCH  29  36
BRANCH  30  38
HETATM   38  O8  UNL     1       0.184   5.332  14.370  1.00  0.00    -0.388 OA
HETATM   39  H54 UNL     1       0.371   5.533  15.311  1.00  0.00     0.210 HD
ENDBRANCH  30  38
ENDBRANCH  24  25
ENDBRANCH  20  24
BRANCH   1  40
HETATM   40  C8  UNL     1     -12.957   8.963  14.397  1.00  0.00    -0.010 C 
HETATM   41  C9  UNL     1     -13.993   8.313  15.333  1.00  0.00     0.010 C 
BRANCH  40  42
HETATM   42  C7  UNL     1     -13.168   8.487  12.942  1.00  0.00     0.031 C 
BRANCH  42  43
HETATM   43  C6  UNL     1     -14.514   7.857  12.684  1.00  0.00    -0.027 C 
HETATM   44  C5  UNL     1     -15.645   8.574  12.544  1.00  0.00     0.006 C 
BRANCH  44  45
HETATM   45  C2  UNL     1     -17.060   8.064  12.350  1.00  0.00     0.070 C 
HETATM   46  C3  UNL     1     -17.045   6.542  12.564  1.00  0.00     0.050 C 
HETATM   47  C4  UNL     1     -18.120   8.675  13.282  1.00  0.00     0.050 C 
BRANCH  45  48
HETATM   48  O1  UNL     1     -17.406   8.240  10.964  1.00  0.00    -0.382 OA
HETATM   49  C1  UNL     1     -17.789   9.553  10.577  1.00  0.00     0.202 C 
ENDBRANCH  45  48
ENDBRANCH  44  45
ENDBRANCH  42  43
ENDBRANCH  40  42
ENDBRANCH   1  40
TORSDOF 12
ENDMDL
MODEL 6
REMARK minimizedAffinity -9.96458912
REMARK CNNscore 0.337920457
REMARK CNNaffinity 7.27977943
REMARK  12 active torsions:
REMARK  status: ('A' for Active; 'I' for Inactive)
REMARK    1  A    between atoms: O1_2  and  C2_3 
REMARK    2  A    between atoms: C2_3  and  C5_6 
REMARK    3  A    between atoms: C6_7  and  C7_8 
REMARK    4  A    between atoms: C7_8  and  C8_9 
REMARK    5  A    between atoms: C8_9  and  C10_11 
REMARK    6  A    between atoms: C28_30  and  O3_31 
REMARK    7  A    between atoms: O3_31  and  C29_32 
REMARK    8  A    between atoms: C30_34  and  C31_35 
REMARK    9  A    between atoms: C31_35  and  O5_36 
REMARK   10  A    between atoms: C32_37  and  O6_38 
REMARK   11  A    between atoms: C33_39  and  O7_40 
REMARK   12  A    between atoms: C34_41  and  O8_42 
ROOT
HETATM    1  C10 UNL     1      -6.249   7.058  13.917  1.00  0.00    -0.002 C 
HETATM    2  C11 UNL     1      -6.331   8.467  14.577  1.00  0.00     0.006 C 
HETATM    3  C12 UNL     1      -4.886   8.918  14.875  1.00  0.00     0.011 C 
HETATM    4  C13 UNL     1      -3.998   7.978  14.038  1.00  0.00    -0.029 C 
HETATM    5  C14 UNL     1      -4.020   8.560  12.593  1.00  0.00     0.016 C 
HETATM    6  C15 UNL     1      -2.535   7.818  14.547  1.00  0.00     0.028 C 
HETATM    7  C16 UNL     1      -1.695   9.078  14.530  1.00  0.00    -0.021 C 
HETATM    8  C17 UNL     1      -0.394   9.050  14.193  1.00  0.00     0.008 C 
HETATM    9  C18 UNL     1       0.287   7.763  13.739  1.00  0.00     0.092 C 
HETATM   10  O2  UNL     1       0.423   6.967  14.933  1.00  0.00    -0.374 OA
HETATM   11  C19 UNL     1      -0.726   6.095  15.002  1.00  0.00     0.179 C 
HETATM   12  C20 UNL     1      -1.767   6.578  13.927  1.00  0.00    -0.004 C 
HETATM   13  C21 UNL     1      -2.654   5.371  13.509  1.00  0.00     0.014 C 
HETATM   14  C22 UNL     1      -4.146   5.614  13.223  1.00  0.00     0.011 C 
HETATM   15  C23 UNL     1      -4.777   6.613  14.203  1.00  0.00    -0.032 C 
HETATM   16  C24 UNL     1      -4.695   6.006  15.630  1.00  0.00     0.016 C 
HETATM   17  C25 UNL     1      -0.695   6.948  12.875  1.00  0.00     0.036 C 
HETATM   18  C26 UNL     1      -1.007   7.659  11.565  1.00  0.00     0.011 C 
HETATM   19  C27 UNL     1       0.290   7.924  10.790  1.00  0.00     0.033 C 
HETATM   20  C28 UNL     1       1.369   8.649  11.624  1.00  0.00     0.136 C 
HETATM   21  C35 UNL     1       1.649   7.957  12.996  1.00  0.00     0.014 C 
HETATM   22  C36 UNL     1       2.380   6.600  12.793  1.00  0.00     0.021 C 
HETATM   23  C37 UNL     1       2.634   8.823  13.823  1.00  0.00     0.021 C 
ENDROOT
BRANCH  20  24
HETATM   24  O3  UNL     1       2.582   8.684  10.861  1.00  0.00    -0.352 OA
BRANCH  24  25
HETATM   25  C29 UNL     1       3.759   8.362  11.605  1.00  0.00     0.292 C 
HETATM   26  O4  UNL     1       4.476   9.573  11.836  1.00  0.00    -0.348 OA
HETATM   27  C30 UNL     1       5.617   9.389  12.698  1.00  0.00     0.179 C 
HETATM   28  C32 UNL     1       6.407   8.100  12.370  1.00  0.00     0.180 C 
HETATM   29  C33 UNL     1       6.119   7.659  10.934  1.00  0.00     0.183 C 
HETATM   30  C34 UNL     1       4.611   7.387  10.754  1.00  0.00     0.204 C 
BRANCH  27  31
HETATM   31  C31 UNL     1       6.484  10.641  12.518  1.00  0.00     0.198 C 
BRANCH  31  32
HETATM   32  O5  UNL     1       5.953  11.506  11.527  1.00  0.00    -0.398 OA
HETATM   33  H48 UNL     1       6.584  12.242  11.421  1.00  0.00     0.209 HD
ENDBRANCH  31  32
ENDBRANCH  27  31
BRANCH  28  34
HETATM   34  O6  UNL     1       5.974   7.020  13.233  1.00  0.00    -0.390 OA
HETATM   35  H50 UNL     1       6.643   6.317  13.085  1.00  0.00     0.210 HD
ENDBRANCH  28  34
BRANCH  29  36
HETATM   36  O7  UNL     1       6.883   6.473  10.648  1.00  0.00    -0.390 OA
HETATM   37  H52 UNL     1       6.338   5.935  10.044  1.00  0.00     0.210 HD
ENDBRANCH  29  36
BRANCH  30  38
HETATM   38  O8  UNL     1       4.312   6.016  11.107  1.00  0.00    -0.388 OA
HETATM   39  H54 UNL     1       4.665   5.901  12.013  1.00  0.00     0.210 HD
ENDBRANCH  30  38
ENDBRANCH  24  25
ENDBRANCH  20  24
BRANCH   1  40
HETATM   40  C8  UNL     1      -7.490   6.151  14.206  1.00  0.00    -0.010 C 
HETATM   41  C9  UNL     1      -8.375   6.535  15.406  1.00  0.00     0.010 C 
BRANCH  40  42
HETATM   42  C7  UNL     1      -7.096   4.658  14.279  1.00  0.00     0.031 C 
BRANCH  42  43
HETATM   43  C6  UNL     1      -6.789   4.032  12.941  1.00  0.00    -0.027 C 
HETATM   44  C5  UNL     1      -5.842   3.091  12.772  1.00  0.00     0.006 C 
BRANCH  44  45
HETATM   45  C2  UNL     1      -5.392   2.436  11.479  1.00  0.00     0.070 C 
HETATM   46  C3  UNL     1      -6.306   1.226  11.223  1.00  0.00     0.050 C 
HETATM   47  C4  UNL     1      -5.419   3.336  10.234  1.00  0.00     0.050 C 
BRANCH  45  48
HETATM   48  O1  UNL     1      -4.086   1.873  11.701  1.00  0.00    -0.382 OA
HETATM   49  C1  UNL     1      -2.988   2.629  11.208  1.00  0.00     0.202 C 
ENDBRANCH  45  48
ENDBRANCH  44  45
ENDBRANCH  42  43
ENDBRANCH  40  42
ENDBRANCH   1  40
TORSDOF 12
ENDMDL
MODEL 7
REMARK minimizedAffinity -8.00507259
REMARK CNNscore 0.264391422
REMARK CNNaffinity 6.66938782
REMARK  12 active torsions:
REMARK  status: ('A' for Active; 'I' for Inactive)
REMARK    1  A    between atoms: O1_2  and  C2_3 
REMARK    2  A    between atoms: C2_3  and  C5_6 
REMARK    3  A    between atoms: C6_7  and  C7_8 
REMARK    4  A    between atoms: C7_8  and  C8_9 
REMARK    5  A    between atoms: C8_9  and  C10_11 
REMARK    6  A    between atoms: C28_30  and  O3_31 
REMARK    7  A    between atoms: O3_31  and  C29_32 
REMARK    8  A    between atoms: C30_34  and  C31_35 
REMARK    9  A    between atoms: C31_35  and  O5_36 
REMARK   10  A    between atoms: C32_37  and  O6_38 
REMARK   11  A    between atoms: C33_39  and  O7_40 
REMARK   12  A    between atoms: C34_41  and  O8_42 
ROOT
HETATM    1  C10 UNL     1      -2.901   5.684  13.144  1.00  0.00    -0.002 C 
HETATM    2  C11 UNL     1      -3.829   5.399  14.364  1.00  0.00     0.006 C 
HETATM    3  C12 UNL     1      -3.398   6.351  15.499  1.00  0.00     0.011 C 
HETATM    4  C13 UNL     1      -2.531   7.421  14.809  1.00  0.00    -0.029 C 
HETATM    5  C14 UNL     1      -3.535   8.425  14.171  1.00  0.00     0.016 C 
HETATM    6  C15 UNL     1      -1.524   8.161  15.739  1.00  0.00     0.028 C 
HETATM    7  C16 UNL     1      -2.143   8.982  16.851  1.00  0.00    -0.021 C 
HETATM    8  C17 UNL     1      -1.629  10.170  17.216  1.00  0.00     0.008 C 
HETATM    9  C18 UNL     1      -0.441  10.786  16.484  1.00  0.00     0.092 C 
HETATM   10  O2  UNL     1       0.697   9.998  16.884  1.00  0.00    -0.374 OA
HETATM   11  C19 UNL     1       0.879   8.968  15.888  1.00  0.00     0.179 C 
HETATM   12  C20 UNL     1      -0.394   8.957  14.965  1.00  0.00    -0.004 C 
HETATM   13  C21 UNL     1       0.002   8.390  13.572  1.00  0.00     0.014 C 
HETATM   14  C22 UNL     1      -1.003   7.496  12.825  1.00  0.00     0.011 C 
HETATM   15  C23 UNL     1      -1.744   6.533  13.764  1.00  0.00    -0.032 C 
HETATM   16  C24 UNL     1      -0.697   5.582  14.403  1.00  0.00     0.016 C 
HETATM   17  C25 UNL     1      -0.568  10.494  14.977  1.00  0.00     0.036 C 
HETATM   18  C26 UNL     1      -1.764  11.213  14.368  1.00  0.00     0.011 C 
HETATM   19  C27 UNL     1      -1.647  12.723  14.610  1.00  0.00     0.033 C 
HETATM   20  C28 UNL     1      -1.413  13.094  16.091  1.00  0.00     0.136 C 
HETATM   21  C35 UNL     1      -0.224  12.314  16.737  1.00  0.00     0.014 C 
HETATM   22  C36 UNL     1       1.135  12.794  16.156  1.00  0.00     0.021 C 
HETATM   23  C37 UNL     1      -0.150  12.639  18.251  1.00  0.00     0.021 C 
ENDROOT
BRANCH  20  24
HETATM   24  O3  UNL     1      -1.146  14.500  16.167  1.00  0.00    -0.352 OA
BRANCH  24  25
HETATM   25  C29 UNL     1      -2.114  15.248  16.907  1.00  0.00     0.292 C 
HETATM   26  O4  UNL     1      -1.546  15.564  18.177  1.00  0.00    -0.348 OA
HETATM   27  C30 UNL     1      -2.385  16.437  18.960  1.00  0.00     0.179 C 
HETATM   28  C32 UNL     1      -3.881  16.052  18.882  1.00  0.00     0.180 C 
HETATM   29  C33 UNL     1      -4.023  14.586  18.465  1.00  0.00     0.183 C 
HETATM   30  C34 UNL     1      -3.370  14.359  17.087  1.00  0.00     0.204 C 
BRANCH  27  31
HETATM   31  C31 UNL     1      -1.855  16.348  20.397  1.00  0.00     0.198 C 
BRANCH  31  32
HETATM   32  O5  UNL     1      -1.165  15.130  20.625  1.00  0.00    -0.398 OA
HETATM   33  H48 UNL     1      -0.915  15.115  21.567  1.00  0.00     0.209 HD
ENDBRANCH  31  32
ENDBRANCH  27  31
BRANCH  28  34
HETATM   34  O6  UNL     1      -4.544  16.841  17.864  1.00  0.00    -0.390 OA
HETATM   35  H50 UNL     1      -5.498  16.666  18.015  1.00  0.00     0.210 HD
ENDBRANCH  28  34
BRANCH  29  36
HETATM   36  O7  UNL     1      -5.422  14.247  18.423  1.00  0.00    -0.390 OA
HETATM   37  H52 UNL     1      -5.525  13.602  17.699  1.00  0.00     0.210 HD
ENDBRANCH  29  36
BRANCH  30  38
HETATM   38  O8  UNL     1      -4.330  14.625  16.037  1.00  0.00    -0.388 OA
HETATM   39  H54 UNL     1      -4.660  15.531  16.213  1.00  0.00     0.210 HD
ENDBRANCH  30  38
ENDBRANCH  24  25
ENDBRANCH  20  24
BRANCH   1  40
HETATM   40  C8  UNL     1      -2.655   4.437  12.232  1.00  0.00    -0.010 C 
HETATM   41  C9  UNL     1      -1.554   4.556  11.163  1.00  0.00     0.010 C 
BRANCH  40  42
HETATM   42  C7  UNL     1      -3.971   3.928  11.601  1.00  0.00     0.031 C 
BRANCH  42  43
HETATM   43  C6  UNL     1      -5.172   4.027  12.508  1.00  0.00    -0.027 C 
HETATM   44  C5  UNL     1      -6.439   4.023  12.051  1.00  0.00     0.006 C 
BRANCH  44  45
HETATM   45  C2  UNL     1      -7.722   4.182  12.845  1.00  0.00     0.070 C 
HETATM   46  C3  UNL     1      -7.339   4.420  14.315  1.00  0.00     0.050 C 
HETATM   47  C4  UNL     1      -8.645   5.324  12.393  1.00  0.00     0.050 C 
BRANCH  45  48
HETATM   48  O1  UNL     1      -8.403   2.913  12.840  1.00  0.00    -0.382 OA
HETATM   49  C1  UNL     1      -7.600   1.774  12.566  1.00  0.00     0.202 C 
ENDBRANCH  45  48
ENDBRANCH  44  45
ENDBRANCH  42  43
ENDBRANCH  40  42
ENDBRANCH   1  40
TORSDOF 12
ENDMDL
MODEL 8
REMARK minimizedAffinity -7.6212554
REMARK CNNscore 0.236308336
REMARK CNNaffinity 5.76358557
REMARK  12 active torsions:
REMARK  status: ('A' for Active; 'I' for Inactive)
REMARK    1  A    between atoms: O1_2  and  C2_3 
REMARK    2  A    between atoms: C2_3  and  C5_6 
REMARK    3  A    between atoms: C6_7  and  C7_8 
REMARK    4  A    between atoms: C7_8  and  C8_9 
REMARK    5  A    between atoms: C8_9  and  C10_11 
REMARK    6  A    between atoms: C28_30  and  O3_31 
REMARK    7  A    between atoms: O3_31  and  C29_32 
REMARK    8  A    between atoms: C30_34  and  C31_35 
REMARK    9  A    between atoms: C31_35  and  O5_36 
REMARK   10  A    between atoms: C32_37  and  O6_38 
REMARK   11  A    between atoms: C33_39  and  O7_40 
REMARK   12  A    between atoms: C34_41  and  O8_42 
ROOT
HETATM    1  C10 UNL     1     -16.510   3.520  16.009  1.00  0.00    -0.002 C 
HETATM    2  C11 UNL     1     -17.881   3.381  16.736  1.00  0.00     0.006 C 
HETATM    3  C12 UNL     1     -18.514   2.053  16.270  1.00  0.00     0.011 C 
HETATM    4  C13 UNL     1     -17.356   1.271  15.621  1.00  0.00    -0.029 C 
HETATM    5  C14 UNL     1     -16.569   0.632  16.803  1.00  0.00     0.016 C 
HETATM    6  C15 UNL     1     -17.785   0.184  14.591  1.00  0.00     0.028 C 
HETATM    7  C16 UNL     1     -18.610  -0.957  15.149  1.00  0.00    -0.021 C 
HETATM    8  C17 UNL     1     -18.437  -2.221  14.725  1.00  0.00     0.008 C 
HETATM    9  C18 UNL     1     -17.354  -2.586  13.716  1.00  0.00     0.092 C 
HETATM   10  O2  UNL     1     -17.823  -2.066  12.456  1.00  0.00    -0.374 OA
HETATM   11  C19 UNL     1     -17.249  -0.751  12.292  1.00  0.00     0.179 C 
HETATM   12  C20 UNL     1     -16.607  -0.328  13.663  1.00  0.00    -0.004 C 
HETATM   13  C21 UNL     1     -15.468   0.694  13.389  1.00  0.00     0.014 C 
HETATM   14  C22 UNL     1     -15.262   1.856  14.377  1.00  0.00     0.011 C 
HETATM   15  C23 UNL     1     -16.590   2.439  14.882  1.00  0.00    -0.032 C 
HETATM   16  C24 UNL     1     -17.353   3.025  13.663  1.00  0.00     0.016 C 
HETATM   17  C25 UNL     1     -16.093  -1.747  14.002  1.00  0.00     0.036 C 
HETATM   18  C26 UNL     1     -15.465  -2.121  15.338  1.00  0.00     0.011 C 
HETATM   19  C27 UNL     1     -15.126  -3.618  15.357  1.00  0.00     0.033 C 
HETATM   20  C28 UNL     1     -16.317  -4.525  14.978  1.00  0.00     0.136 C 
HETATM   21  C35 UNL     1     -17.002  -4.107  13.637  1.00  0.00     0.014 C 
HETATM   22  C36 UNL     1     -16.079  -4.411  12.424  1.00  0.00     0.021 C 
HETATM   23  C37 UNL     1     -18.265  -4.976  13.407  1.00  0.00     0.021 C 
ENDROOT
BRANCH  20  24
HETATM   24  O3  UNL     1     -15.839  -5.871  14.858  1.00  0.00    -0.352 OA
BRANCH  24  25
HETATM   25  C29 UNL     1     -14.496  -6.065  15.305  1.00  0.00     0.292 C 
HETATM   26  O4  UNL     1     -13.771  -6.698  14.253  1.00  0.00    -0.348 OA
HETATM   27  C30 UNL     1     -12.364  -6.821  14.541  1.00  0.00     0.179 C 
HETATM   28  C32 UNL     1     -12.092  -7.250  16.002  1.00  0.00     0.180 C 
HETATM   29  C33 UNL     1     -13.327  -7.939  16.585  1.00  0.00     0.183 C 
HETATM   30  C34 UNL     1     -14.535  -6.979  16.556  1.00  0.00     0.204 C 
BRANCH  27  31
HETATM   31  C31 UNL     1     -11.820  -7.851  13.542  1.00  0.00     0.198 C 
BRANCH  31  32
HETATM   32  O5  UNL     1     -10.436  -7.662  13.299  1.00  0.00    -0.398 OA
HETATM   33  H48 UNL     1     -10.175  -8.303  12.613  1.00  0.00     0.209 HD
ENDBRANCH  31  32
ENDBRANCH  27  31
BRANCH  28  34
HETATM   34  O6  UNL     1     -11.840  -6.083  16.822  1.00  0.00    -0.390 OA
HETATM   35  H50 UNL     1     -11.501  -6.457  17.665  1.00  0.00     0.210 HD
ENDBRANCH  28  34
BRANCH  29  36
HETATM   36  O7  UNL     1     -13.040  -8.348  17.935  1.00  0.00    -0.390 OA
HETATM   37  H52 UNL     1     -13.876  -8.262  18.430  1.00  0.00     0.210 HD
ENDBRANCH  29  36
BRANCH  30  38
HETATM   38  O8  UNL     1     -14.560  -6.182  17.763  1.00  0.00    -0.388 OA
HETATM   39  H54 UNL     1     -13.676  -5.761  17.812  1.00  0.00     0.210 HD
ENDBRANCH  30  38
ENDBRANCH  24  25
ENDBRANCH  20  24
BRANCH   1  40
HETATM   40  C8  UNL     1     -16.080   5.001  15.746  1.00  0.00    -0.010 C 
HETATM   41  C9  UNL     1     -17.203   6.020  15.477  1.00  0.00     0.010 C 
BRANCH  40  42
HETATM   42  C7  UNL     1     -14.994   5.090  14.651  1.00  0.00     0.031 C 
BRANCH  42  43
HETATM   43  C6  UNL     1     -14.159   6.345  14.706  1.00  0.00    -0.027 C 
HETATM   44  C5  UNL     1     -12.983   6.473  14.065  1.00  0.00     0.006 C 
BRANCH  44  45
HETATM   45  C2  UNL     1     -12.023   7.648  14.093  1.00  0.00     0.070 C 
HETATM   46  C3  UNL     1     -12.315   8.523  12.864  1.00  0.00     0.050 C 
HETATM   47  C4  UNL     1     -12.094   8.533  15.348  1.00  0.00     0.050 C 
BRANCH  45  48
HETATM   48  O1  UNL     1     -10.694   7.137  13.877  1.00  0.00    -0.382 OA
HETATM   49  C1  UNL     1      -9.895   6.964  15.040  1.00  0.00     0.202 C 
ENDBRANCH  45  48
ENDBRANCH  44  45
ENDBRANCH  42  43
ENDBRANCH  40  42
ENDBRANCH   1  40
TORSDOF 12
ENDMDL
MODEL 9
REMARK minimizedAffinity -10.0780945
REMARK CNNscore 0.235597834
REMARK CNNaffinity 6.92163086
REMARK  12 active torsions:
REMARK  status: ('A' for Active; 'I' for Inactive)
REMARK    1  A    between atoms: O1_2  and  C2_3 
REMARK    2  A    between atoms: C2_3  and  C5_6 
REMARK    3  A    between atoms: C6_7  and  C7_8 
REMARK    4  A    between atoms: C7_8  and  C8_9 
REMARK    5  A    between atoms: C8_9  and  C10_11 
REMARK    6  A    between atoms: C28_30  and  O3_31 
REMARK    7  A    between atoms: O3_31  and  C29_32 
REMARK    8  A    between atoms: C30_34  and  C31_35 
REMARK    9  A    between atoms: C31_35  and  O5_36 
REMARK   10  A    between atoms: C32_37  and  O6_38 
REMARK   11  A    between atoms: C33_39  and  O7_40 
REMARK   12  A    between atoms: C34_41  and  O8_42 
ROOT
HETATM    1  C10 UNL     1      -7.450   7.142  14.203  1.00  0.00    -0.002 C 
HETATM    2  C11 UNL     1      -7.439   8.222  15.327  1.00  0.00     0.006 C 
HETATM    3  C12 UNL     1      -5.974   8.397  15.778  1.00  0.00     0.011 C 
HETATM    4  C13 UNL     1      -5.136   7.740  14.665  1.00  0.00    -0.029 C 
HETATM    5  C14 UNL     1      -5.049   8.800  13.527  1.00  0.00     0.016 C 
HETATM    6  C15 UNL     1      -3.714   7.270  15.093  1.00  0.00     0.028 C 
HETATM    7  C16 UNL     1      -2.769   8.367  15.539  1.00  0.00    -0.021 C 
HETATM    8  C17 UNL     1      -1.463   8.338  15.223  1.00  0.00     0.008 C 
HETATM    9  C18 UNL     1      -0.876   7.241  14.341  1.00  0.00     0.092 C 
HETATM   10  O2  UNL     1      -0.859   6.062  15.168  1.00  0.00    -0.374 OA
HETATM   11  C19 UNL     1      -2.080   5.336  14.909  1.00  0.00     0.179 C 
HETATM   12  C20 UNL     1      -3.030   6.268  14.074  1.00  0.00    -0.004 C 
HETATM   13  C21 UNL     1      -3.999   5.381  13.242  1.00  0.00     0.014 C 
HETATM   14  C22 UNL     1      -5.452   5.851  13.051  1.00  0.00     0.011 C 
HETATM   15  C23 UNL     1      -6.036   6.487  14.321  1.00  0.00    -0.032 C 
HETATM   16  C24 UNL     1      -6.064   5.404  15.433  1.00  0.00     0.016 C 
HETATM   17  C25 UNL     1      -1.888   6.887  13.234  1.00  0.00     0.036 C 
HETATM   18  C26 UNL     1      -2.084   8.046  12.266  1.00  0.00     0.011 C 
HETATM   19  C27 UNL     1      -0.738   8.448  11.649  1.00  0.00     0.033 C 
HETATM   20  C28 UNL     1       0.363   8.720  12.696  1.00  0.00     0.136 C 
HETATM   21  C35 UNL     1       0.527   7.559  13.729  1.00  0.00     0.014 C 
HETATM   22  C36 UNL     1       1.146   6.302  13.056  1.00  0.00     0.021 C 
HETATM   23  C37 UNL     1       1.547   7.973  14.820  1.00  0.00     0.021 C 
ENDROOT
BRANCH  20  24
HETATM   24  O3  UNL     1       1.605   8.910  12.007  1.00  0.00    -0.352 OA
BRANCH  24  25
HETATM   25  C29 UNL     1       2.035   7.785  11.237  1.00  0.00     0.292 C 
HETATM   26  O4  UNL     1       3.412   7.556  11.527  1.00  0.00    -0.348 OA
HETATM   27  C30 UNL     1       3.919   6.356  10.908  1.00  0.00     0.179 C 
HETATM   28  C32 UNL     1       3.420   6.180   9.455  1.00  0.00     0.180 C 
HETATM   29  C33 UNL     1       2.986   7.531   8.883  1.00  0.00     0.183 C 
HETATM   30  C34 UNL     1       1.852   8.133   9.738  1.00  0.00     0.204 C 
BRANCH  27  31
HETATM   31  C31 UNL     1       5.448   6.469  10.968  1.00  0.00     0.198 C 
BRANCH  31  32
HETATM   32  O5  UNL     1       5.969   5.886  12.152  1.00  0.00    -0.398 OA
HETATM   33  H48 UNL     1       6.930   6.051  12.153  1.00  0.00     0.209 HD
ENDBRANCH  31  32
ENDBRANCH  27  31
BRANCH  28  34
HETATM   34  O6  UNL     1       2.252   5.324   9.433  1.00  0.00    -0.390 OA
HETATM   35  H50 UNL     1       2.124   5.124   8.480  1.00  0.00     0.210 HD
ENDBRANCH  28  34
BRANCH  29  36
HETATM   36  O7  UNL     1       2.548   7.344   7.524  1.00  0.00    -0.390 OA
HETATM   37  H52 UNL     1       1.828   7.985   7.378  1.00  0.00     0.210 HD
ENDBRANCH  29  36
BRANCH  30  38
HETATM   38  O8  UNL     1       0.571   7.657   9.263  1.00  0.00    -0.388 OA
HETATM   39  H54 UNL     1       0.642   6.680   9.266  1.00  0.00     0.210 HD
ENDBRANCH  30  38
ENDBRANCH  24  25
ENDBRANCH  20  24
BRANCH   1  40
HETATM   40  C8  UNL     1      -8.775   6.314  14.137  1.00  0.00    -0.010 C 
HETATM   41  C9  UNL     1      -9.294   5.931  12.738  1.00  0.00     0.010 C 
BRANCH  40  42
HETATM   42  C7  UNL     1      -9.898   6.973  14.969  1.00  0.00     0.031 C 
BRANCH  42  43
HETATM   43  C6  UNL     1     -11.238   7.018  14.278  1.00  0.00    -0.027 C 
HETATM   44  C5  UNL     1     -11.902   8.165  14.039  1.00  0.00     0.006 C 
BRANCH  44  45
HETATM   45  C2  UNL     1     -13.275   8.340  13.417  1.00  0.00     0.070 C 
HETATM   46  C3  UNL     1     -13.748   6.963  12.926  1.00  0.00     0.050 C 
HETATM   47  C4  UNL     1     -14.354   8.923  14.344  1.00  0.00     0.050 C 
BRANCH  45  48
HETATM   48  O1  UNL     1     -13.120   9.127  12.221  1.00  0.00    -0.382 OA
HETATM   49  C1  UNL     1     -13.532  10.484  12.309  1.00  0.00     0.202 C 
ENDBRANCH  45  48
ENDBRANCH  44  45
ENDBRANCH  42  43
ENDBRANCH  40  42
ENDBRANCH   1  40
TORSDOF 12
ENDMDL
