MODEL 1
REMARK minimizedAffinity -8.86983109
REMARK  7 active torsions:
REMARK  status: ('A' for Active; 'I' for Inactive)
REMARK       I    between atoms: C1_2  and  N1_3 
REMARK    1  A    between atoms: C1_2  and  C8_12 
REMARK    2  A    between atoms: N1_3  and  C2_4 
REMARK    3  A    between atoms: C2_4  and  C3_5 
REMARK    4  A    between atoms: C14_19  and  C15_20 
REMARK    5  A    between atoms: C15_20  and  N4_21 
REMARK    6  A    between atoms: C17_23  and  C18_24 
REMARK    7  A    between atoms: C18_24  and  C19_25 
ROOT
HETATM    1  C8  UNL     1      -1.218  49.795 -19.712  1.00  0.00     0.110 C 
HETATM    2  C9  UNL     1      -2.754  49.922 -19.686  1.00  0.00     0.287 C 
HETATM    3  N3  UNL     1      -3.401  49.029 -20.686  1.00  0.00     0.095 N 
HETATM    4  C10 UNL     1      -2.822  47.668 -20.543  1.00  0.00     0.273 C 
HETATM    5  C11 UNL     1      -1.332  47.647 -20.935  1.00  0.00     0.036 C 
HETATM    6  C12 UNL     1      -0.818  49.097 -21.032  1.00  0.00     0.004 C 
HETATM    7  C13 UNL     1      -1.565  49.771 -22.204  1.00  0.00     0.043 C 
HETATM    8  C14 UNL     1      -3.086  49.513 -22.069  1.00  0.00     0.242 C 
ENDROOT
BRANCH   8   9
HETATM    9  C15 UNL     1      -3.940  50.732 -22.468  1.00  0.00     0.181 C 
BRANCH   9  10
HETATM   10  N4  UNL     1      -3.474  51.355 -23.689  1.00  0.00    -0.283 N 
HETATM   11  C16 UNL     1      -3.516  50.851 -24.954  1.00  0.00     0.134 A 
HETATM   12  C17 UNL     1      -2.951  51.844 -25.724  1.00  0.00     0.041 A 
HETATM   13  N5  UNL     1      -2.608  52.896 -24.915  1.00  0.00    -0.287 N 
HETATM   14  N6  UNL     1      -2.937  52.585 -23.669  1.00  0.00    -0.020 NA
ATOM     15  H5  UNL     1      -2.173  53.767 -25.220  1.00  0.00     0.184 HD
BRANCH  12  16
HETATM   16  C18 UNL     1      -2.705  51.890 -27.189  1.00  0.00     0.064 C 
BRANCH  16  17
HETATM   17  C19 UNL     1      -1.253  51.540 -27.574  1.00  0.00    -0.009 C 
HETATM   18  C20 UNL     1      -0.431  52.820 -27.842  1.00  0.00     0.005 C 
HETATM   19  C21 UNL     1       0.377  53.254 -26.625  1.00  0.00     0.000 C 
HETATM   20  C22 UNL     1       1.382  52.183 -26.200  1.00  0.00     0.000 C 
HETATM   21  C23 UNL     1       0.929  50.760 -26.527  1.00  0.00     0.000 C 
HETATM   22  C24 UNL     1      -0.590  50.638 -26.509  1.00  0.00     0.005 C 
ENDBRANCH  16  17
ENDBRANCH  12  16
ENDBRANCH   9  10
ENDBRANCH   8   9
BRANCH   1  23
HETATM   23  C1  UNL     1      -0.531  51.139 -19.496  1.00  0.00     0.224 C 
HETATM   24  O1  UNL     1      -0.420  51.986 -20.374  1.00  0.00    -0.273 OA
HETATM   25  N1  UNL     1      -0.013  51.300 -18.227  1.00  0.00    -0.356 N 
HETATM   26  H1  UNL     1       0.070  50.490 -17.627  1.00  0.00     0.162 HD
BRANCH  25  27
HETATM   27  C2  UNL     1       0.771  52.465 -17.874  1.00  0.00     0.162 C 
BRANCH  27  28
HETATM   28  C3  UNL     1       1.701  52.165 -16.736  1.00  0.00    -0.025 A 
HETATM   29  C4  UNL     1       2.995  52.694 -16.695  1.00  0.00     0.011 A 
HETATM   30  C5  UNL     1       3.837  52.378 -15.633  1.00  0.00     0.018 A 
HETATM   31  C6  UNL     1       3.358  51.537 -14.644  1.00  0.00     0.087 A 
HETATM   32  N2  UNL     1       2.118  51.001 -14.651  1.00  0.00    -0.375 N 
HETATM   33  C7  UNL     1       1.321  51.329 -15.692  1.00  0.00     0.096 A 
ATOM     34  H2  UNL     1       1.798  50.381 -13.907  1.00  0.00     0.164 HD
ENDBRANCH  27  28
ENDBRANCH  25  27
ENDBRANCH   1  23
TORSDOF 7
ENDMDL
MODEL 2
REMARK minimizedAffinity -8.77262592
REMARK  7 active torsions:
REMARK  status: ('A' for Active; 'I' for Inactive)
REMARK       I    between atoms: C1_2  and  N1_3 
REMARK    1  A    between atoms: C1_2  and  C8_12 
REMARK    2  A    between atoms: N1_3  and  C2_4 
REMARK    3  A    between atoms: C2_4  and  C3_5 
REMARK    4  A    between atoms: C14_19  and  C15_20 
REMARK    5  A    between atoms: C15_20  and  N4_21 
REMARK    6  A    between atoms: C17_23  and  C18_24 
REMARK    7  A    between atoms: C18_24  and  C19_25 
ROOT
HETATM    1  C8  UNL     1      -3.769  51.065 -25.648  1.00  0.00     0.110 C 
HETATM    2  C9  UNL     1      -3.255  49.844 -24.860  1.00  0.00     0.287 C 
HETATM    3  N3  UNL     1      -3.481  49.994 -23.396  1.00  0.00     0.095 N 
HETATM    4  C10 UNL     1      -4.892  50.407 -23.179  1.00  0.00     0.273 C 
HETATM    5  C11 UNL     1      -5.157  51.816 -23.742  1.00  0.00     0.036 C 
HETATM    6  C12 UNL     1      -3.979  52.225 -24.648  1.00  0.00     0.004 C 
HETATM    7  C13 UNL     1      -2.730  52.347 -23.748  1.00  0.00     0.043 C 
HETATM    8  C14 UNL     1      -2.602  51.084 -22.862  1.00  0.00     0.242 C 
ENDROOT
BRANCH   8   9
HETATM    9  C15 UNL     1      -1.144  50.620 -22.683  1.00  0.00     0.181 C 
BRANCH   9  10
HETATM   10  N4  UNL     1      -0.467  51.328 -21.617  1.00  0.00    -0.283 N 
HETATM   11  C16 UNL     1      -0.809  51.382 -20.299  1.00  0.00     0.134 A 
HETATM   12  C17 UNL     1       0.162  52.181 -19.738  1.00  0.00     0.041 A 
HETATM   13  N5  UNL     1       1.046  52.563 -20.713  1.00  0.00    -0.287 N 
HETATM   14  N6  UNL     1       0.651  52.030 -21.861  1.00  0.00    -0.020 NA
ATOM     15  H5  UNL     1       1.865  53.155 -20.579  1.00  0.00     0.184 HD
BRANCH  12  16
HETATM   16  C18 UNL     1       0.335  52.623 -18.329  1.00  0.00     0.064 C 
BRANCH  16  17
HETATM   17  C19 UNL     1       1.079  51.592 -17.454  1.00  0.00    -0.009 C 
HETATM   18  C20 UNL     1       1.706  52.271 -16.217  1.00  0.00     0.005 C 
HETATM   19  C21 UNL     1       0.825  52.149 -14.980  1.00  0.00     0.000 C 
HETATM   20  C22 UNL     1       0.591  50.688 -14.593  1.00  0.00     0.000 C 
HETATM   21  C23 UNL     1       0.621  49.731 -15.784  1.00  0.00     0.000 C 
HETATM   22  C24 UNL     1       0.157  50.415 -17.064  1.00  0.00     0.005 C 
ENDBRANCH  16  17
ENDBRANCH  12  16
ENDBRANCH   9  10
ENDBRANCH   8   9
BRANCH   1  23
HETATM   23  C1  UNL     1      -2.852  51.418 -26.813  1.00  0.00     0.224 C 
HETATM   24  O1  UNL     1      -2.587  50.639 -27.720  1.00  0.00    -0.273 OA
HETATM   25  N1  UNL     1      -2.318  52.688 -26.735  1.00  0.00    -0.356 N 
HETATM   26  H1  UNL     1      -2.385  53.193 -25.861  1.00  0.00     0.162 HD
BRANCH  25  27
HETATM   27  C2  UNL     1      -1.338  53.156 -27.692  1.00  0.00     0.162 C 
BRANCH  27  28
HETATM   28  C3  UNL     1       0.032  52.643 -27.358  1.00  0.00    -0.025 A 
HETATM   29  C4  UNL     1       0.855  52.074 -28.335  1.00  0.00     0.011 A 
HETATM   30  C5  UNL     1       2.112  51.592 -27.983  1.00  0.00     0.018 A 
HETATM   31  C6  UNL     1       2.506  51.691 -26.661  1.00  0.00     0.087 A 
HETATM   32  N2  UNL     1       1.738  52.227 -25.687  1.00  0.00    -0.375 N 
HETATM   33  C7  UNL     1       0.524  52.691 -26.058  1.00  0.00     0.096 A 
ATOM     34  H2  UNL     1       2.059  52.280 -24.721  1.00  0.00     0.164 HD
ENDBRANCH  27  28
ENDBRANCH  25  27
ENDBRANCH   1  23
TORSDOF 7
ENDMDL
MODEL 3
REMARK minimizedAffinity -8.73196888
REMARK  7 active torsions:
REMARK  status: ('A' for Active; 'I' for Inactive)
REMARK       I    between atoms: C1_2  and  N1_3 
REMARK    1  A    between atoms: C1_2  and  C8_12 
REMARK    2  A    between atoms: N1_3  and  C2_4 
REMARK    3  A    between atoms: C2_4  and  C3_5 
REMARK    4  A    between atoms: C14_19  and  C15_20 
REMARK    5  A    between atoms: C15_20  and  N4_21 
REMARK    6  A    between atoms: C17_23  and  C18_24 
REMARK    7  A    between atoms: C18_24  and  C19_25 
ROOT
HETATM    1  C8  UNL     1      -1.844  51.729 -27.461  1.00  0.00     0.110 C 
HETATM    2  C9  UNL     1      -2.158  52.500 -26.164  1.00  0.00     0.287 C 
HETATM    3  N3  UNL     1      -0.920  52.967 -25.482  1.00  0.00     0.095 N 
HETATM    4  C10 UNL     1      -0.056  53.638 -26.489  1.00  0.00     0.273 C 
HETATM    5  C11 UNL     1       0.454  52.641 -27.546  1.00  0.00     0.036 C 
HETATM    6  C12 UNL     1      -0.351  51.332 -27.431  1.00  0.00     0.004 C 
HETATM    7  C13 UNL     1      -0.022  50.711 -26.056  1.00  0.00     0.043 C 
HETATM    8  C14 UNL     1      -0.164  51.787 -24.951  1.00  0.00     0.242 C 
ENDROOT
BRANCH   8   9
HETATM    9  C15 UNL     1      -0.782  51.237 -23.652  1.00  0.00     0.181 C 
BRANCH   9  10
HETATM   10  N4  UNL     1      -0.290  51.923 -22.475  1.00  0.00    -0.283 N 
HETATM   11  C16 UNL     1      -0.643  51.712 -21.176  1.00  0.00     0.134 A 
HETATM   12  C17 UNL     1       0.118  52.622 -20.476  1.00  0.00     0.041 A 
HETATM   13  N5  UNL     1       0.897  53.326 -21.357  1.00  0.00    -0.287 N 
HETATM   14  N6  UNL     1       0.640  52.884 -22.581  1.00  0.00    -0.020 NA
ATOM     15  H5  UNL     1       1.559  54.062 -21.113  1.00  0.00     0.184 HD
BRANCH  12  16
HETATM   16  C18 UNL     1       0.177  52.890 -19.015  1.00  0.00     0.064 C 
BRANCH  16  17
HETATM   17  C19 UNL     1       0.879  51.770 -18.218  1.00  0.00    -0.009 C 
HETATM   18  C20 UNL     1       1.774  52.361 -17.108  1.00  0.00     0.005 C 
HETATM   19  C21 UNL     1       1.074  52.392 -15.755  1.00  0.00     0.000 C 
HETATM   20  C22 UNL     1       0.684  50.989 -15.286  1.00  0.00     0.000 C 
HETATM   21  C23 UNL     1       0.396  50.023 -16.435  1.00  0.00     0.000 C 
HETATM   22  C24 UNL     1      -0.142  50.753 -17.660  1.00  0.00     0.005 C 
ENDBRANCH  16  17
ENDBRANCH  12  16
ENDBRANCH   9  10
ENDBRANCH   8   9
BRANCH   1  23
HETATM   23  C1  UNL     1      -2.789  50.551 -27.666  1.00  0.00     0.224 C 
HETATM   24  O1  UNL     1      -3.357  50.321 -28.727  1.00  0.00    -0.273 OA
HETATM   25  N1  UNL     1      -2.974  49.783 -26.534  1.00  0.00    -0.356 N 
HETATM   26  H1  UNL     1      -2.669  50.149 -25.642  1.00  0.00     0.162 HD
BRANCH  25  27
HETATM   27  C2  UNL     1      -3.923  48.691 -26.509  1.00  0.00     0.162 C 
BRANCH  27  28
HETATM   28  C3  UNL     1      -4.418  48.437 -25.116  1.00  0.00    -0.025 A 
HETATM   29  C4  UNL     1      -5.753  48.103 -24.867  1.00  0.00     0.011 A 
HETATM   30  C5  UNL     1      -6.180  47.893 -23.559  1.00  0.00     0.018 A 
HETATM   31  C6  UNL     1      -5.257  48.029 -22.538  1.00  0.00     0.087 A 
HETATM   32  N2  UNL     1      -3.961  48.356 -22.736  1.00  0.00    -0.375 N 
HETATM   33  C7  UNL     1      -3.573  48.550 -24.016  1.00  0.00     0.096 A 
ATOM     34  H2  UNL     1      -3.308  48.453 -21.959  1.00  0.00     0.164 HD
ENDBRANCH  27  28
ENDBRANCH  25  27
ENDBRANCH   1  23
TORSDOF 7
ENDMDL
MODEL 4
REMARK minimizedAffinity -8.70085716
REMARK  7 active torsions:
REMARK  status: ('A' for Active; 'I' for Inactive)
REMARK       I    between atoms: C1_2  and  N1_3 
REMARK    1  A    between atoms: C1_2  and  C8_12 
REMARK    2  A    between atoms: N1_3  and  C2_4 
REMARK    3  A    between atoms: C2_4  and  C3_5 
REMARK    4  A    between atoms: C14_19  and  C15_20 
REMARK    5  A    between atoms: C15_20  and  N4_21 
REMARK    6  A    between atoms: C17_23  and  C18_24 
REMARK    7  A    between atoms: C18_24  and  C19_25 
ROOT
HETATM    1  C8  UNL     1      -1.502  51.437 -27.299  1.00  0.00     0.110 C 
HETATM    2  C9  UNL     1      -1.462  52.956 -27.045  1.00  0.00     0.287 C 
HETATM    3  N3  UNL     1      -0.067  53.475 -27.001  1.00  0.00     0.095 N 
HETATM    4  C10 UNL     1       0.663  52.957 -28.187  1.00  0.00     0.273 C 
HETATM    5  C11 UNL     1       0.832  51.428 -28.120  1.00  0.00     0.036 C 
HETATM    6  C12 UNL     1      -0.092  50.868 -27.020  1.00  0.00     0.004 C 
HETATM    7  C13 UNL     1       0.416  51.420 -25.670  1.00  0.00     0.043 C 
HETATM    8  C14 UNL     1       0.625  52.951 -25.779  1.00  0.00     0.242 C 
ENDROOT
BRANCH   8   9
HETATM    9  C15 UNL     1       0.205  53.707 -24.504  1.00  0.00     0.181 C 
BRANCH   9  10
HETATM   10  N4  UNL     1      -0.284  52.818 -23.472  1.00  0.00    -0.283 N 
HETATM   11  C16 UNL     1       0.434  52.184 -22.504  1.00  0.00     0.134 A 
HETATM   12  C17 UNL     1      -0.514  51.476 -21.799  1.00  0.00     0.041 A 
HETATM   13  N5  UNL     1      -1.747  51.712 -22.347  1.00  0.00    -0.287 N 
HETATM   14  N6  UNL     1      -1.594  52.541 -23.370  1.00  0.00    -0.020 NA
ATOM     15  H5  UNL     1      -2.631  51.319 -22.022  1.00  0.00     0.184 HD
BRANCH  12  16
HETATM   16  C18 UNL     1      -0.354  50.577 -20.625  1.00  0.00     0.064 C 
BRANCH  16  17
HETATM   17  C19 UNL     1      -0.689  49.104 -20.936  1.00  0.00    -0.009 C 
HETATM   18  C20 UNL     1      -1.274  48.398 -19.693  1.00  0.00     0.005 C 
HETATM   19  C21 UNL     1      -2.797  48.372 -19.706  1.00  0.00     0.000 C 
HETATM   20  C22 UNL     1      -3.341  47.618 -20.920  1.00  0.00     0.000 C 
HETATM   21  C23 UNL     1      -2.424  47.690 -22.142  1.00  0.00     0.000 C 
HETATM   22  C24 UNL     1      -1.620  48.985 -22.162  1.00  0.00     0.005 C 
ENDBRANCH  16  17
ENDBRANCH  12  16
ENDBRANCH   9  10
ENDBRANCH   8   9
BRANCH   1  23
HETATM   23  C1  UNL     1      -2.607  50.755 -26.501  1.00  0.00     0.224 C 
HETATM   24  O1  UNL     1      -3.475  51.369 -25.894  1.00  0.00    -0.273 OA
HETATM   25  N1  UNL     1      -2.520  49.377 -26.496  1.00  0.00    -0.356 N 
HETATM   26  H1  UNL     1      -1.664  48.942 -26.813  1.00  0.00     0.162 HD
BRANCH  25  27
HETATM   27  C2  UNL     1      -3.415  48.566 -25.699  1.00  0.00     0.162 C 
BRANCH  27  28
HETATM   28  C3  UNL     1      -4.669  48.242 -26.457  1.00  0.00    -0.025 A 
HETATM   29  C4  UNL     1      -4.669  48.128 -27.850  1.00  0.00     0.011 A 
HETATM   30  C5  UNL     1      -5.855  47.844 -28.520  1.00  0.00     0.018 A 
HETATM   31  C6  UNL     1      -7.009  47.687 -27.773  1.00  0.00     0.087 A 
HETATM   32  N2  UNL     1      -7.051  47.795 -26.427  1.00  0.00    -0.375 N 
HETATM   33  C7  UNL     1      -5.884  48.067 -25.803  1.00  0.00     0.096 A 
ATOM     34  H2  UNL     1      -7.921  47.678 -25.908  1.00  0.00     0.164 HD
ENDBRANCH  27  28
ENDBRANCH  25  27
ENDBRANCH   1  23
TORSDOF 7
ENDMDL
MODEL 5
REMARK minimizedAffinity -8.69276524
REMARK  7 active torsions:
REMARK  status: ('A' for Active; 'I' for Inactive)
REMARK       I    between atoms: C1_2  and  N1_3 
REMARK    1  A    between atoms: C1_2  and  C8_12 
REMARK    2  A    between atoms: N1_3  and  C2_4 
REMARK    3  A    between atoms: C2_4  and  C3_5 
REMARK    4  A    between atoms: C14_19  and  C15_20 
REMARK    5  A    between atoms: C15_20  and  N4_21 
REMARK    6  A    between atoms: C17_23  and  C18_24 
REMARK    7  A    between atoms: C18_24  and  C19_25 
ROOT
HETATM    1  C8  UNL     1      -4.146  50.354 -22.938  1.00  0.00     0.110 C 
HETATM    2  C9  UNL     1      -5.173  50.359 -24.087  1.00  0.00     0.287 C 
HETATM    3  N3  UNL     1      -5.520  48.979 -24.527  1.00  0.00     0.095 N 
HETATM    4  C10 UNL     1      -5.841  48.171 -23.321  1.00  0.00     0.273 C 
HETATM    5  C11 UNL     1      -4.601  47.976 -22.429  1.00  0.00     0.036 C 
HETATM    6  C12 UNL     1      -3.498  48.952 -22.882  1.00  0.00     0.004 C 
HETATM    7  C13 UNL     1      -3.074  48.536 -24.308  1.00  0.00     0.043 C 
HETATM    8  C14 UNL     1      -4.333  48.351 -25.191  1.00  0.00     0.242 C 
ENDROOT
BRANCH   8   9
HETATM    9  C15 UNL     1      -4.136  48.859 -26.632  1.00  0.00     0.181 C 
BRANCH   9  10
HETATM   10  N4  UNL     1      -3.109  49.876 -26.722  1.00  0.00    -0.283 N 
HETATM   11  C16 UNL     1      -3.260  51.189 -27.048  1.00  0.00     0.134 A 
HETATM   12  C17 UNL     1      -1.980  51.695 -26.982  1.00  0.00     0.041 A 
HETATM   13  N5  UNL     1      -1.122  50.692 -26.613  1.00  0.00    -0.287 N 
HETATM   14  N6  UNL     1      -1.828  49.581 -26.452  1.00  0.00    -0.020 NA
ATOM     15  H5  UNL     1      -0.114  50.784 -26.483  1.00  0.00     0.184 HD
BRANCH  12  16
HETATM   16  C18 UNL     1      -1.485  53.073 -27.239  1.00  0.00     0.064 C 
BRANCH  16  17
HETATM   17  C19 UNL     1       0.044  53.145 -27.435  1.00  0.00    -0.009 C 
HETATM   18  C20 UNL     1       0.761  53.386 -26.089  1.00  0.00     0.005 C 
HETATM   19  C21 UNL     1       1.263  52.092 -25.461  1.00  0.00     0.000 C 
HETATM   20  C22 UNL     1       2.275  51.381 -26.361  1.00  0.00     0.000 C 
HETATM   21  C23 UNL     1       2.049  51.638 -27.851  1.00  0.00     0.000 C 
HETATM   22  C24 UNL     1       0.578  51.889 -28.159  1.00  0.00     0.005 C 
ENDBRANCH  16  17
ENDBRANCH  12  16
ENDBRANCH   9  10
ENDBRANCH   8   9
BRANCH   1  23
HETATM   23  C1  UNL     1      -3.140  51.491 -23.069  1.00  0.00     0.224 C 
HETATM   24  O1  UNL     1      -3.314  52.464 -23.793  1.00  0.00    -0.273 OA
HETATM   25  N1  UNL     1      -1.994  51.308 -22.322  1.00  0.00    -0.356 N 
HETATM   26  H1  UNL     1      -1.806  50.393 -21.934  1.00  0.00     0.162 HD
BRANCH  25  27
HETATM   27  C2  UNL     1      -0.880  52.228 -22.409  1.00  0.00     0.162 C 
BRANCH  27  28
HETATM   28  C3  UNL     1      -0.242  52.433 -21.067  1.00  0.00    -0.025 A 
HETATM   29  C4  UNL     1      -0.579  51.633 -19.971  1.00  0.00     0.011 A 
HETATM   30  C5  UNL     1       0.020  51.866 -18.736  1.00  0.00     0.018 A 
HETATM   31  C6  UNL     1       0.937  52.897 -18.636  1.00  0.00     0.087 A 
HETATM   32  N2  UNL     1       1.284  53.695 -19.669  1.00  0.00    -0.375 N 
HETATM   33  C7  UNL     1       0.690  53.444 -20.856  1.00  0.00     0.096 A 
ATOM     34  H2  UNL     1       1.961  54.450 -19.558  1.00  0.00     0.164 HD
ENDBRANCH  27  28
ENDBRANCH  25  27
ENDBRANCH   1  23
TORSDOF 7
ENDMDL
MODEL 6
REMARK minimizedAffinity -8.6792345
REMARK  7 active torsions:
REMARK  status: ('A' for Active; 'I' for Inactive)
REMARK       I    between atoms: C1_2  and  N1_3 
REMARK    1  A    between atoms: C1_2  and  C8_12 
REMARK    2  A    between atoms: N1_3  and  C2_4 
REMARK    3  A    between atoms: C2_4  and  C3_5 
REMARK    4  A    between atoms: C14_19  and  C15_20 
REMARK    5  A    between atoms: C15_20  and  N4_21 
REMARK    6  A    between atoms: C17_23  and  C18_24 
REMARK    7  A    between atoms: C18_24  and  C19_25 
ROOT
HETATM    1  C8  UNL     1      -1.539  51.395 -27.397  1.00  0.00     0.110 C 
HETATM    2  C9  UNL     1      -1.558  52.913 -27.131  1.00  0.00     0.287 C 
HETATM    3  N3  UNL     1      -0.184  53.477 -27.031  1.00  0.00     0.095 N 
HETATM    4  C10 UNL     1       0.606  52.993 -28.192  1.00  0.00     0.273 C 
HETATM    5  C11 UNL     1       0.823  51.469 -28.129  1.00  0.00     0.036 C 
HETATM    6  C12 UNL     1      -0.122  50.871 -27.069  1.00  0.00     0.004 C 
HETATM    7  C13 UNL     1       0.316  51.428 -25.697  1.00  0.00     0.043 C 
HETATM    8  C14 UNL     1       0.478  52.966 -25.787  1.00  0.00     0.242 C 
ENDROOT
BRANCH   8   9
HETATM    9  C15 UNL     1      -0.013  53.698 -24.524  1.00  0.00     0.181 C 
BRANCH   9  10
HETATM   10  N4  UNL     1      -0.374  52.782 -23.462  1.00  0.00    -0.283 N 
HETATM   11  C16 UNL     1       0.401  52.357 -22.426  1.00  0.00     0.134 A 
HETATM   12  C17 UNL     1      -0.425  51.509 -21.721  1.00  0.00     0.041 A 
HETATM   13  N5  UNL     1      -1.649  51.464 -22.337  1.00  0.00    -0.287 N 
HETATM   14  N6  UNL     1      -1.606  52.254 -23.402  1.00  0.00    -0.020 NA
ATOM     15  H5  UNL     1      -2.454  50.918 -22.029  1.00  0.00     0.184 HD
BRANCH  12  16
HETATM   16  C18 UNL     1      -0.156  50.722 -20.489  1.00  0.00     0.064 C 
BRANCH  16  17
HETATM   17  C19 UNL     1      -0.325  51.543 -19.193  1.00  0.00    -0.009 C 
HETATM   18  C20 UNL     1      -0.829  50.651 -18.038  1.00  0.00     0.005 C 
HETATM   19  C21 UNL     1       0.306  50.156 -17.151  1.00  0.00     0.000 C 
HETATM   20  C22 UNL     1       1.061  51.314 -16.497  1.00  0.00     0.000 C 
HETATM   21  C23 UNL     1       1.055  52.593 -17.334  1.00  0.00     0.000 C 
HETATM   22  C24 UNL     1       0.978  52.287 -18.825  1.00  0.00     0.005 C 
ENDBRANCH  16  17
ENDBRANCH  12  16
ENDBRANCH   9  10
ENDBRANCH   8   9
BRANCH   1  23
HETATM   23  C1  UNL     1      -2.650  50.672 -26.646  1.00  0.00     0.224 C 
HETATM   24  O1  UNL     1      -3.349  51.210 -25.796  1.00  0.00    -0.273 OA
HETATM   25  N1  UNL     1      -2.775  49.340 -26.987  1.00  0.00    -0.356 N 
HETATM   26  H1  UNL     1      -2.033  48.900 -27.513  1.00  0.00     0.162 HD
BRANCH  25  27
HETATM   27  C2  UNL     1      -3.701  48.467 -26.296  1.00  0.00     0.162 C 
BRANCH  27  28
HETATM   28  C3  UNL     1      -4.922  48.208 -27.127  1.00  0.00    -0.025 A 
HETATM   29  C4  UNL     1      -6.101  47.719 -26.556  1.00  0.00     0.011 A 
HETATM   30  C5  UNL     1      -7.209  47.473 -27.363  1.00  0.00     0.018 A 
HETATM   31  C6  UNL     1      -7.100  47.721 -28.719  1.00  0.00     0.087 A 
HETATM   32  N2  UNL     1      -5.978  48.187 -29.310  1.00  0.00    -0.375 N 
HETATM   33  C7  UNL     1      -4.920  48.421 -28.502  1.00  0.00     0.096 A 
ATOM     34  H2  UNL     1      -5.931  48.354 -30.314  1.00  0.00     0.164 HD
ENDBRANCH  27  28
ENDBRANCH  25  27
ENDBRANCH   1  23
TORSDOF 7
ENDMDL
MODEL 7
REMARK minimizedAffinity -8.65485954
REMARK  7 active torsions:
REMARK  status: ('A' for Active; 'I' for Inactive)
REMARK       I    between atoms: C1_2  and  N1_3 
REMARK    1  A    between atoms: C1_2  and  C8_12 
REMARK    2  A    between atoms: N1_3  and  C2_4 
REMARK    3  A    between atoms: C2_4  and  C3_5 
REMARK    4  A    between atoms: C14_19  and  C15_20 
REMARK    5  A    between atoms: C15_20  and  N4_21 
REMARK    6  A    between atoms: C17_23  and  C18_24 
REMARK    7  A    between atoms: C18_24  and  C19_25 
ROOT
HETATM    1  C8  UNL     1      -3.358  48.565 -19.716  1.00  0.00     0.110 C 
HETATM    2  C9  UNL     1      -4.562  49.527 -19.754  1.00  0.00     0.287 C 
HETATM    3  N3  UNL     1      -5.375  49.350 -20.989  1.00  0.00     0.095 N 
HETATM    4  C10 UNL     1      -5.648  47.900 -21.165  1.00  0.00     0.273 C 
HETATM    5  C11 UNL     1      -4.355  47.116 -21.456  1.00  0.00     0.036 C 
HETATM    6  C12 UNL     1      -3.142  48.014 -21.144  1.00  0.00     0.004 C 
HETATM    7  C13 UNL     1      -3.170  49.187 -22.147  1.00  0.00     0.043 C 
HETATM    8  C14 UNL     1      -4.587  49.811 -22.177  1.00  0.00     0.242 C 
ENDROOT
BRANCH   8   9
HETATM    9  C15 UNL     1      -4.566  51.347 -22.301  1.00  0.00     0.181 C 
BRANCH   9  10
HETATM   10  N4  UNL     1      -3.792  51.797 -23.438  1.00  0.00    -0.283 N 
HETATM   11  C16 UNL     1      -2.468  52.114 -23.476  1.00  0.00     0.134 A 
HETATM   12  C17 UNL     1      -2.252  52.474 -24.788  1.00  0.00     0.041 A 
HETATM   13  N5  UNL     1      -3.425  52.351 -25.485  1.00  0.00    -0.287 N 
HETATM   14  N6  UNL     1      -4.363  51.930 -24.646  1.00  0.00    -0.020 NA
ATOM     15  H5  UNL     1      -3.555  52.548 -26.477  1.00  0.00     0.184 HD
BRANCH  12  16
HETATM   16  C18 UNL     1      -1.005  52.931 -25.458  1.00  0.00     0.064 C 
BRANCH  16  17
HETATM   17  C19 UNL     1      -0.060  51.773 -25.841  1.00  0.00    -0.009 C 
HETATM   18  C20 UNL     1      -0.227  51.396 -27.329  1.00  0.00     0.005 C 
HETATM   19  C21 UNL     1       0.815  52.064 -28.216  1.00  0.00     0.000 C 
HETATM   20  C22 UNL     1       2.237  51.653 -27.829  1.00  0.00     0.000 C 
HETATM   21  C23 UNL     1       2.390  51.316 -26.346  1.00  0.00     0.000 C 
HETATM   22  C24 UNL     1       1.407  52.105 -25.488  1.00  0.00     0.005 C 
ENDBRANCH  16  17
ENDBRANCH  12  16
ENDBRANCH   9  10
ENDBRANCH   8   9
BRANCH   1  23
HETATM   23  C1  UNL     1      -2.121  49.224 -19.118  1.00  0.00     0.224 C 
HETATM   24  O1  UNL     1      -1.156  48.593 -18.705  1.00  0.00    -0.273 OA
HETATM   25  N1  UNL     1      -2.201  50.600 -19.053  1.00  0.00    -0.356 N 
HETATM   26  H1  UNL     1      -3.100  51.044 -19.190  1.00  0.00     0.162 HD
BRANCH  25  27
HETATM   27  C2  UNL     1      -1.169  51.388 -18.413  1.00  0.00     0.162 C 
BRANCH  27  28
HETATM   28  C3  UNL     1      -0.330  52.106 -19.428  1.00  0.00    -0.025 A 
HETATM   29  C4  UNL     1      -0.099  51.565 -20.696  1.00  0.00     0.011 A 
HETATM   30  C5  UNL     1       0.701  52.252 -21.605  1.00  0.00     0.018 A 
HETATM   31  C6  UNL     1       1.250  53.460 -21.213  1.00  0.00     0.087 A 
HETATM   32  N2  UNL     1       1.056  54.013 -19.996  1.00  0.00    -0.375 N 
HETATM   33  C7  UNL     1       0.271  53.326 -19.135  1.00  0.00     0.096 A 
ATOM     34  H2  UNL     1       1.480  54.904 -19.738  1.00  0.00     0.164 HD
ENDBRANCH  27  28
ENDBRANCH  25  27
ENDBRANCH   1  23
TORSDOF 7
ENDMDL
MODEL 8
REMARK minimizedAffinity -8.64401722
REMARK  7 active torsions:
REMARK  status: ('A' for Active; 'I' for Inactive)
REMARK       I    between atoms: C1_2  and  N1_3 
REMARK    1  A    between atoms: C1_2  and  C8_12 
REMARK    2  A    between atoms: N1_3  and  C2_4 
REMARK    3  A    between atoms: C2_4  and  C3_5 
REMARK    4  A    between atoms: C14_19  and  C15_20 
REMARK    5  A    between atoms: C15_20  and  N4_21 
REMARK    6  A    between atoms: C17_23  and  C18_24 
REMARK    7  A    between atoms: C18_24  and  C19_25 
ROOT
HETATM    1  C8  UNL     1      -4.363  50.197 -21.591  1.00  0.00     0.110 C 
HETATM    2  C9  UNL     1      -3.980  50.869 -22.923  1.00  0.00     0.287 C 
HETATM    3  N3  UNL     1      -4.725  50.287 -24.074  1.00  0.00     0.095 N 
HETATM    4  C10 UNL     1      -6.167  50.236 -23.719  1.00  0.00     0.273 C 
HETATM    5  C11 UNL     1      -6.429  49.248 -22.568  1.00  0.00     0.036 C 
HETATM    6  C12 UNL     1      -5.085  48.869 -21.916  1.00  0.00     0.004 C 
HETATM    7  C13 UNL     1      -4.266  48.095 -22.972  1.00  0.00     0.043 C 
HETATM    8  C14 UNL     1      -4.266  48.879 -24.308  1.00  0.00     0.242 C 
ENDROOT
BRANCH   8   9
HETATM    9  C15 UNL     1      -2.911  48.823 -25.039  1.00  0.00     0.181 C 
BRANCH   9  10
HETATM   10  N4  UNL     1      -2.772  49.875 -26.023  1.00  0.00    -0.283 N 
HETATM   11  C16 UNL     1      -2.128  51.068 -25.887  1.00  0.00     0.134 A 
HETATM   12  C17 UNL     1      -2.298  51.677 -27.111  1.00  0.00     0.041 A 
HETATM   13  N5  UNL     1      -3.013  50.842 -27.930  1.00  0.00    -0.287 N 
HETATM   14  N6  UNL     1      -3.294  49.737 -27.252  1.00  0.00    -0.020 NA
ATOM     15  H5  UNL     1      -3.282  51.037 -28.894  1.00  0.00     0.184 HD
BRANCH  12  16
HETATM   16  C18 UNL     1      -1.832  53.006 -27.586  1.00  0.00     0.064 C 
BRANCH  16  17
HETATM   17  C19 UNL     1      -0.300  53.096 -27.740  1.00  0.00    -0.009 C 
HETATM   18  C20 UNL     1       0.353  53.624 -26.444  1.00  0.00     0.005 C 
HETATM   19  C21 UNL     1       0.868  52.500 -25.555  1.00  0.00     0.000 C 
HETATM   20  C22 UNL     1       1.937  51.663 -26.260  1.00  0.00     0.000 C 
HETATM   21  C23 UNL     1       1.765  51.614 -27.779  1.00  0.00     0.000 C 
HETATM   22  C24 UNL     1       0.302  51.743 -28.182  1.00  0.00     0.005 C 
ENDBRANCH  16  17
ENDBRANCH  12  16
ENDBRANCH   9  10
ENDBRANCH   8   9
BRANCH   1  23
HETATM   23  C1  UNL     1      -3.161  50.032 -20.669  1.00  0.00     0.224 C 
HETATM   24  O1  UNL     1      -3.259  49.813 -19.468  1.00  0.00    -0.273 OA
HETATM   25  N1  UNL     1      -1.947  50.187 -21.307  1.00  0.00    -0.356 N 
HETATM   26  H1  UNL     1      -1.931  50.591 -22.234  1.00  0.00     0.162 HD
BRANCH  25  27
HETATM   27  C2  UNL     1      -0.700  50.177 -20.571  1.00  0.00     0.162 C 
BRANCH  27  28
HETATM   28  C3  UNL     1      -0.059  51.533 -20.575  1.00  0.00    -0.025 A 
HETATM   29  C4  UNL     1       0.433  52.102 -21.754  1.00  0.00     0.011 A 
HETATM   30  C5  UNL     1       1.039  53.355 -21.716  1.00  0.00     0.018 A 
HETATM   31  C6  UNL     1       1.138  53.999 -20.495  1.00  0.00     0.087 A 
HETATM   32  N2  UNL     1       0.680  53.481 -19.335  1.00  0.00    -0.375 N 
HETATM   33  C7  UNL     1       0.093  52.265 -19.402  1.00  0.00     0.096 A 
ATOM     34  H2  UNL     1       0.774  53.981 -18.451  1.00  0.00     0.164 HD
ENDBRANCH  27  28
ENDBRANCH  25  27
ENDBRANCH   1  23
TORSDOF 7
ENDMDL
MODEL 9
REMARK minimizedAffinity -8.51397133
REMARK  7 active torsions:
REMARK  status: ('A' for Active; 'I' for Inactive)
REMARK       I    between atoms: C1_2  and  N1_3 
REMARK    1  A    between atoms: C1_2  and  C8_12 
REMARK    2  A    between atoms: N1_3  and  C2_4 
REMARK    3  A    between atoms: C2_4  and  C3_5 
REMARK    4  A    between atoms: C14_19  and  C15_20 
REMARK    5  A    between atoms: C15_20  and  N4_21 
REMARK    6  A    between atoms: C17_23  and  C18_24 
REMARK    7  A    between atoms: C18_24  and  C19_25 
ROOT
HETATM    1  C8  UNL     1      -0.560  50.915 -19.458  1.00  0.00     0.110 C 
HETATM    2  C9  UNL     1      -1.995  51.299 -19.048  1.00  0.00     0.287 C 
HETATM    3  N3  UNL     1      -2.970  50.218 -19.362  1.00  0.00     0.095 N 
HETATM    4  C10 UNL     1      -2.428  48.935 -18.845  1.00  0.00     0.273 C 
HETATM    5  C11 UNL     1      -1.154  48.517 -19.603  1.00  0.00     0.036 C 
HETATM    6  C12 UNL     1      -0.646  49.715 -20.429  1.00  0.00     0.004 C 
HETATM    7  C13 UNL     1      -1.711  50.014 -21.506  1.00  0.00     0.043 C 
HETATM    8  C14 UNL     1      -3.111  50.086 -20.848  1.00  0.00     0.242 C 
ENDROOT
BRANCH   8   9
HETATM    9  C15 UNL     1      -4.002  51.190 -21.449  1.00  0.00     0.181 C 
BRANCH   9  10
HETATM   10  N4  UNL     1      -3.982  51.187 -22.896  1.00  0.00    -0.283 N 
HETATM   11  C16 UNL     1      -3.033  50.661 -23.718  1.00  0.00     0.134 A 
HETATM   12  C17 UNL     1      -3.506  50.929 -24.984  1.00  0.00     0.041 A 
HETATM   13  N5  UNL     1      -4.707  51.582 -24.883  1.00  0.00    -0.287 N 
HETATM   14  N6  UNL     1      -4.991  51.731 -23.596  1.00  0.00    -0.020 NA
ATOM     15  H5  UNL     1      -5.283  51.899 -25.663  1.00  0.00     0.184 HD
BRANCH  12  16
HETATM   16  C18 UNL     1      -2.913  50.613 -26.310  1.00  0.00     0.064 C 
BRANCH  16  17
HETATM   17  C19 UNL     1      -3.226  49.181 -26.792  1.00  0.00    -0.009 C 
HETATM   18  C20 UNL     1      -3.899  48.358 -25.672  1.00  0.00     0.005 C 
HETATM   19  C21 UNL     1      -5.417  48.345 -25.795  1.00  0.00     0.000 C 
HETATM   20  C22 UNL     1      -5.874  47.723 -27.115  1.00  0.00     0.000 C 
HETATM   21  C23 UNL     1      -4.872  47.912 -28.255  1.00  0.00     0.000 C 
HETATM   22  C24 UNL     1      -4.068  49.195 -28.087  1.00  0.00     0.005 C 
ENDBRANCH  16  17
ENDBRANCH  12  16
ENDBRANCH   9  10
ENDBRANCH   8   9
BRANCH   1  23
HETATM   23  C1  UNL     1       0.210  52.104 -20.019  1.00  0.00     0.224 C 
HETATM   24  O1  UNL     1       0.790  52.922 -19.315  1.00  0.00    -0.273 OA
HETATM   25  N1  UNL     1       0.164  52.197 -21.395  1.00  0.00    -0.356 N 
HETATM   26  H1  UNL     1      -0.512  51.639 -21.899  1.00  0.00     0.162 HD
BRANCH  25  27
HETATM   27  C2  UNL     1       0.742  53.324 -22.096  1.00  0.00     0.162 C 
BRANCH  27  28
HETATM   28  C3  UNL     1       0.605  53.164 -23.581  1.00  0.00    -0.025 A 
HETATM   29  C4  UNL     1       0.488  51.902 -24.171  1.00  0.00     0.011 A 
HETATM   30  C5  UNL     1       0.382  51.792 -25.554  1.00  0.00     0.018 A 
HETATM   31  C6  UNL     1       0.400  52.953 -26.307  1.00  0.00     0.087 A 
HETATM   32  N2  UNL     1       0.517  54.190 -25.777  1.00  0.00    -0.375 N 
HETATM   33  C7  UNL     1       0.614  54.266 -24.431  1.00  0.00     0.096 A 
ATOM     34  H2  UNL     1       0.531  55.024 -26.362  1.00  0.00     0.164 HD
ENDBRANCH  27  28
ENDBRANCH  25  27
ENDBRANCH   1  23
TORSDOF 7
ENDMDL
