MODEL 1
REMARK minimizedAffinity -7.10235357
REMARK CNNscore 0.724635482
REMARK CNNaffinity 7.15498352
REMARK  9 active torsions:
REMARK  status: ('A' for Active; 'I' for Inactive)
REMARK       I    between atoms: C2_2  and  N1_4 
REMARK    1  A    between atoms: N1_4  and  C3_5 
REMARK    2  A    between atoms: C3_5  and  C4_6 
REMARK    3  A    between atoms: C3_5  and  C33_42 
REMARK    4  A    between atoms: C4_6  and  S1_7 
REMARK    5  A    between atoms: S1_7  and  C5_8 
REMARK    6  A    between atoms: C10_14  and  O3_15 
REMARK    7  A    between atoms: C27_33  and  O5_34 
REMARK    8  A    between atoms: C30_38  and  O7_39 
REMARK    9  A    between atoms: C33_42  and  O9_44 
ROOT
HETATM    1  C5  UNL     1       1.962  50.608  -9.267  1.00  0.00     0.054 C 
HETATM    2  C6  UNL     1       0.708  50.345  -8.821  1.00  0.00     0.028 C 
HETATM    3  C7  UNL     1       0.894  49.464  -7.688  1.00  0.00     0.089 C 
HETATM    4  C8  UNL     1      -0.113  48.886  -7.033  1.00  0.00     0.095 C 
HETATM    5  C9  UNL     1      -1.472  49.205  -7.491  1.00  0.00     0.208 C 
HETATM    6  O2  UNL     1      -2.455  48.667  -6.973  1.00  0.00    -0.285 OA
HETATM    7  C10 UNL     1      -1.682  50.247  -8.567  1.00  0.00     0.126 C 
HETATM    8  C11 UNL     1      -0.633  50.820  -9.215  1.00  0.00     0.022 C 
HETATM    9  C12 UNL     1      -0.744  52.059 -10.140  1.00  0.00     0.165 C 
HETATM   10  O4  UNL     1       0.131  53.073  -9.571  1.00  0.00    -0.375 OA
HETATM   11  C13 UNL     1       0.313  54.189 -10.437  1.00  0.00     0.128 C 
HETATM   12  C14 UNL     1       1.592  54.999 -10.135  1.00  0.00     0.033 C 
HETATM   13  C15 UNL     1       2.198  54.938  -8.731  1.00  0.00     0.010 C 
HETATM   14  C16 UNL     1       3.635  55.543  -8.623  1.00  0.00     0.004 C 
HETATM   15  C17 UNL     1       3.715  56.957  -9.193  1.00  0.00     0.014 C 
HETATM   16  C18 UNL     1       4.717  54.670  -9.251  1.00  0.00    -0.020 C 
HETATM   17  C19 UNL     1       5.892  54.297  -8.692  1.00  0.00    -0.087 C 
HETATM   18  C20 UNL     1       6.402  54.865  -7.398  1.00  0.00     0.043 C 
HETATM   19  C21 UNL     1       6.736  53.196  -9.337  1.00  0.00     0.037 C 
HETATM   20  C22 UNL     1       6.519  51.748  -8.770  1.00  0.00    -0.014 C 
HETATM   21  C23 UNL     1       7.316  51.499  -7.492  1.00  0.00     0.010 C 
HETATM   22  C24 UNL     1       5.018  51.535  -8.568  1.00  0.00     0.014 C 
HETATM   23  C25 UNL     1       4.400  50.217  -8.074  1.00  0.00     0.050 C 
HETATM   24  C26 UNL     1       4.860  48.929  -8.747  1.00  0.00     0.016 C 
HETATM   25  C27 UNL     1       2.852  50.399  -8.028  1.00  0.00     0.207 C 
HETATM   26  O6  UNL     1       2.223  49.279  -7.357  1.00  0.00    -0.308 OA
HETATM   27  C28 UNL     1      -0.990  54.990 -10.431  1.00  0.00     0.040 C 
HETATM   28  C29 UNL     1      -1.420  55.436  -9.037  1.00  0.00     0.015 C 
HETATM   29  C30 UNL     1      -2.030  54.091 -11.109  1.00  0.00     0.130 C 
HETATM   30  C31 UNL     1      -2.141  52.684 -10.474  1.00  0.00     0.044 C 
HETATM   31  C32 UNL     1      -2.920  51.782 -11.443  1.00  0.00     0.015 C 
ENDROOT
BRANCH   1  32
HETATM   32  S1  UNL     1       2.364  51.362 -10.768  1.00  0.00    -0.125 SA
BRANCH  32  33
HETATM   33  C4  UNL     1       1.884  50.208 -12.075  1.00  0.00     0.115 C 
BRANCH  33  34
HETATM   34  C3  UNL     1       2.643  50.315 -13.401  1.00  0.00     0.192 C 
BRANCH  34  35
HETATM   35  N1  UNL     1       1.758  49.924 -14.507  1.00  0.00    -0.346 N 
HETATM   36  C2  UNL     1       1.168  50.887 -15.299  1.00  0.00     0.214 C 
HETATM   37  C1  UNL     1       0.277  50.338 -16.379  1.00  0.00     0.117 C 
HETATM   38  O1  UNL     1       1.341  52.092 -15.122  1.00  0.00    -0.274 OA
HETATM   39  H4  UNL     1       1.886  49.009 -14.929  1.00  0.00     0.163 HD
ENDBRANCH  34  35
BRANCH  34  40
HETATM   40  C33 UNL     1       3.864  49.398 -13.300  1.00  0.00     0.164 C 
HETATM   41  O8  UNL     1       4.935  49.543 -13.877  1.00  0.00    -0.648 OA
BRANCH  40  42
HETATM   42  O9  UNL     1       3.732  48.396 -12.386  1.00  0.00    -0.775 OA
HETATM   43  H47 UNL     1       4.565  47.888 -12.519  1.00  0.00     0.167 HD
ENDBRANCH  40  42
ENDBRANCH  34  40
ENDBRANCH  33  34
ENDBRANCH  32  33
ENDBRANCH   1  32
BRANCH  25  44
HETATM   44  O5  UNL     1       2.624  51.551  -7.171  1.00  0.00    -0.360 OA
HETATM   45  H36 UNL     1       3.083  51.341  -6.341  1.00  0.00     0.213 HD
ENDBRANCH  25  44
BRANCH   7  46
HETATM   46  O3  UNL     1      -3.001  50.592  -8.779  1.00  0.00    -0.356 OA
HETATM   47  H9  UNL     1      -3.526  49.981  -8.199  1.00  0.00     0.218 HD
ENDBRANCH   7  46
BRANCH  29  48
HETATM   48  O7  UNL     1      -3.303  54.732 -11.122  1.00  0.00    -0.395 OA
HETATM   49  H42 UNL     1      -3.828  54.314 -11.830  1.00  0.00     0.210 HD
ENDBRANCH  29  48
TORSDOF 9
ENDMDL
MODEL 2
REMARK minimizedAffinity -7.27398491
REMARK CNNscore 0.506643713
REMARK CNNaffinity 6.68276644
REMARK  9 active torsions:
REMARK  status: ('A' for Active; 'I' for Inactive)
REMARK       I    between atoms: C2_2  and  N1_4 
REMARK    1  A    between atoms: N1_4  and  C3_5 
REMARK    2  A    between atoms: C3_5  and  C4_6 
REMARK    3  A    between atoms: C3_5  and  C33_42 
REMARK    4  A    between atoms: C4_6  and  S1_7 
REMARK    5  A    between atoms: S1_7  and  C5_8 
REMARK    6  A    between atoms: C10_14  and  O3_15 
REMARK    7  A    between atoms: C27_33  and  O5_34 
REMARK    8  A    between atoms: C30_38  and  O7_39 
REMARK    9  A    between atoms: C33_42  and  O9_44 
ROOT
HETATM    1  C5  UNL     1      -9.931  44.598 -32.677  1.00  0.00     0.054 C 
HETATM    2  C6  UNL     1     -10.250  45.329 -31.580  1.00  0.00     0.028 C 
HETATM    3  C7  UNL     1     -11.294  44.575 -30.921  1.00  0.00     0.089 C 
HETATM    4  C8  UNL     1     -11.958  45.017 -29.853  1.00  0.00     0.095 C 
HETATM    5  C9  UNL     1     -11.563  46.329 -29.322  1.00  0.00     0.208 C 
HETATM    6  O2  UNL     1     -12.168  46.833 -28.370  1.00  0.00    -0.285 OA
HETATM    7  C10 UNL     1     -10.368  47.051 -29.904  1.00  0.00     0.126 C 
HETATM    8  C11 UNL     1      -9.711  46.573 -30.993  1.00  0.00     0.022 C 
HETATM    9  C12 UNL     1      -8.345  47.104 -31.497  1.00  0.00     0.165 C 
HETATM   10  O4  UNL     1      -7.436  45.968 -31.486  1.00  0.00    -0.375 OA
HETATM   11  C13 UNL     1      -6.201  46.246 -32.141  1.00  0.00     0.128 C 
HETATM   12  C14 UNL     1      -5.457  44.979 -32.612  1.00  0.00     0.033 C 
HETATM   13  C15 UNL     1      -5.735  43.648 -31.912  1.00  0.00     0.010 C 
HETATM   14  C16 UNL     1      -5.163  42.397 -32.655  1.00  0.00     0.004 C 
HETATM   15  C17 UNL     1      -3.680  42.542 -32.983  1.00  0.00     0.014 C 
HETATM   16  C18 UNL     1      -5.938  42.026 -33.916  1.00  0.00    -0.020 C 
HETATM   17  C19 UNL     1      -6.400  40.801 -34.260  1.00  0.00    -0.087 C 
HETATM   18  C20 UNL     1      -6.040  39.548 -33.512  1.00  0.00     0.043 C 
HETATM   19  C21 UNL     1      -7.396  40.649 -35.411  1.00  0.00     0.037 C 
HETATM   20  C22 UNL     1      -8.912  40.615 -35.003  1.00  0.00    -0.014 C 
HETATM   21  C23 UNL     1      -9.359  39.230 -34.541  1.00  0.00     0.010 C 
HETATM   22  C24 UNL     1      -9.143  41.685 -33.935  1.00  0.00     0.014 C 
HETATM   23  C25 UNL     1     -10.516  41.997 -33.320  1.00  0.00     0.050 C 
HETATM   24  C26 UNL     1     -11.690  42.181 -34.275  1.00  0.00     0.016 C 
HETATM   25  C27 UNL     1     -10.332  43.160 -32.298  1.00  0.00     0.207 C 
HETATM   26  O6  UNL     1     -11.537  43.352 -31.515  1.00  0.00    -0.308 OA
HETATM   27  C28 UNL     1      -5.402  47.181 -31.231  1.00  0.00     0.040 C 
HETATM   28  C29 UNL     1      -5.171  46.613 -29.835  1.00  0.00     0.015 C 
HETATM   29  C30 UNL     1      -6.180  48.501 -31.210  1.00  0.00     0.130 C 
HETATM   30  C31 UNL     1      -7.666  48.339 -30.812  1.00  0.00     0.044 C 
HETATM   31  C32 UNL     1      -8.404  49.634 -31.178  1.00  0.00     0.015 C 
ENDROOT
BRANCH   1  32
HETATM   32  S1  UNL     1      -8.960  45.131 -34.001  1.00  0.00    -0.125 SA
BRANCH  32  33
HETATM   33  C4  UNL     1     -10.057  46.033 -35.121  1.00  0.00     0.115 C 
BRANCH  33  34
HETATM   34  C3  UNL     1     -10.407  45.345 -36.444  1.00  0.00     0.192 C 
BRANCH  34  35
HETATM   35  N1  UNL     1      -9.430  45.731 -37.471  1.00  0.00    -0.346 N 
HETATM   36  C2  UNL     1      -9.161  47.063 -37.710  1.00  0.00     0.214 C 
HETATM   37  C1  UNL     1      -8.153  47.304 -38.799  1.00  0.00     0.117 C 
HETATM   38  O1  UNL     1      -9.716  47.975 -37.097  1.00  0.00    -0.274 OA
HETATM   39  H4  UNL     1      -8.695  45.072 -37.712  1.00  0.00     0.163 HD
ENDBRANCH  34  35
BRANCH  34  40
HETATM   40  C33 UNL     1     -11.827  45.777 -36.819  1.00  0.00     0.164 C 
HETATM   41  O8  UNL     1     -12.368  45.634 -37.908  1.00  0.00    -0.648 OA
BRANCH  40  42
HETATM   42  O9  UNL     1     -12.552  46.267 -35.775  1.00  0.00    -0.775 OA
HETATM   43  H47 UNL     1     -13.383  46.550 -36.220  1.00  0.00     0.167 HD
ENDBRANCH  40  42
ENDBRANCH  34  40
ENDBRANCH  33  34
ENDBRANCH  32  33
ENDBRANCH   1  32
BRANCH  25  44
HETATM   44  O5  UNL     1      -9.323  42.695 -31.361  1.00  0.00    -0.360 OA
HETATM   45  H36 UNL     1      -9.661  41.846 -31.029  1.00  0.00     0.213 HD
ENDBRANCH  25  44
BRANCH   7  46
HETATM   46  O3  UNL     1      -9.986  48.177 -29.205  1.00  0.00    -0.356 OA
HETATM   47  H9  UNL     1     -10.674  48.292 -28.499  1.00  0.00     0.218 HD
ENDBRANCH   7  46
BRANCH  29  48
HETATM   48  O7  UNL     1      -5.535  49.439 -30.353  1.00  0.00    -0.395 OA
HETATM   49  H42 UNL     1      -5.836  50.328 -30.620  1.00  0.00     0.210 HD
ENDBRANCH  29  48
TORSDOF 9
ENDMDL
MODEL 3
REMARK minimizedAffinity -6.9109478
REMARK CNNscore 0.445820898
REMARK CNNaffinity 6.14497995
REMARK  9 active torsions:
REMARK  status: ('A' for Active; 'I' for Inactive)
REMARK       I    between atoms: C2_2  and  N1_4 
REMARK    1  A    between atoms: N1_4  and  C3_5 
REMARK    2  A    between atoms: C3_5  and  C4_6 
REMARK    3  A    between atoms: C3_5  and  C33_42 
REMARK    4  A    between atoms: C4_6  and  S1_7 
REMARK    5  A    between atoms: S1_7  and  C5_8 
REMARK    6  A    between atoms: C10_14  and  O3_15 
REMARK    7  A    between atoms: C27_33  and  O5_34 
REMARK    8  A    between atoms: C30_38  and  O7_39 
REMARK    9  A    between atoms: C33_42  and  O9_44 
ROOT
HETATM    1  C5  UNL     1      -0.485  52.898 -10.225  1.00  0.00     0.054 C 
HETATM    2  C6  UNL     1       0.250  53.775  -9.495  1.00  0.00     0.028 C 
HETATM    3  C7  UNL     1      -0.708  54.737  -8.996  1.00  0.00     0.089 C 
HETATM    4  C8  UNL     1      -0.365  55.833  -8.318  1.00  0.00     0.095 C 
HETATM    5  C9  UNL     1       1.068  56.027  -8.054  1.00  0.00     0.208 C 
HETATM    6  O2  UNL     1       1.471  57.045  -7.482  1.00  0.00    -0.285 OA
HETATM    7  C10 UNL     1       2.059  54.949  -8.430  1.00  0.00     0.126 C 
HETATM    8  C11 UNL     1       1.676  53.842  -9.120  1.00  0.00     0.022 C 
HETATM    9  C12 UNL     1       2.561  52.586  -9.325  1.00  0.00     0.165 C 
HETATM   10  O4  UNL     1       1.823  51.468  -8.759  1.00  0.00    -0.375 OA
HETATM   11  C13 UNL     1       2.405  50.208  -9.076  1.00  0.00     0.128 C 
HETATM   12  C14 UNL     1       1.416  49.029  -8.968  1.00  0.00     0.033 C 
HETATM   13  C15 UNL     1       0.192  49.165  -8.059  1.00  0.00     0.010 C 
HETATM   14  C16 UNL     1      -0.884  48.047  -8.255  1.00  0.00     0.004 C 
HETATM   15  C17 UNL     1      -0.288  46.644  -8.166  1.00  0.00     0.014 C 
HETATM   16  C18 UNL     1      -1.685  48.187  -9.546  1.00  0.00    -0.020 C 
HETATM   17  C19 UNL     1      -3.031  48.143  -9.680  1.00  0.00    -0.087 C 
HETATM   18  C20 UNL     1      -3.955  47.747  -8.563  1.00  0.00     0.043 C 
HETATM   19  C21 UNL     1      -3.689  48.580 -10.991  1.00  0.00     0.037 C 
HETATM   20  C22 UNL     1      -4.179  50.071 -11.045  1.00  0.00    -0.014 C 
HETATM   21  C23 UNL     1      -5.546  50.257 -10.391  1.00  0.00     0.010 C 
HETATM   22  C24 UNL     1      -3.105  50.951 -10.404  1.00  0.00     0.014 C 
HETATM   23  C25 UNL     1      -3.194  52.482 -10.315  1.00  0.00     0.050 C 
HETATM   24  C26 UNL     1      -3.572  53.240 -11.584  1.00  0.00     0.016 C 
HETATM   25  C27 UNL     1      -1.898  53.000  -9.621  1.00  0.00     0.207 C 
HETATM   26  O6  UNL     1      -2.016  54.408  -9.298  1.00  0.00    -0.308 OA
HETATM   27  C28 UNL     1       3.684  50.073  -8.248  1.00  0.00     0.040 C 
HETATM   28  C29 UNL     1       3.450  50.211  -6.747  1.00  0.00     0.015 C 
HETATM   29  C30 UNL     1       4.644  51.136  -8.795  1.00  0.00     0.130 C 
HETATM   30  C31 UNL     1       4.043  52.561  -8.816  1.00  0.00     0.044 C 
HETATM   31  C32 UNL     1       4.934  53.444  -9.703  1.00  0.00     0.015 C 
ENDROOT
BRANCH   1  32
HETATM   32  S1  UNL     1       0.142  51.703 -11.302  1.00  0.00    -0.125 SA
BRANCH  32  33
HETATM   33  C4  UNL     1       0.206  52.463 -12.942  1.00  0.00     0.115 C 
BRANCH  33  34
HETATM   34  C3  UNL     1       0.661  51.567 -14.098  1.00  0.00     0.192 C 
BRANCH  34  35
HETATM   35  N1  UNL     1       1.610  52.302 -14.944  1.00  0.00    -0.346 N 
HETATM   36  C2  UNL     1       2.920  51.882 -15.048  1.00  0.00     0.214 C 
HETATM   37  C1  UNL     1       3.778  52.741 -15.935  1.00  0.00     0.117 C 
HETATM   38  O1  UNL     1       3.354  50.900 -14.446  1.00  0.00    -0.274 OA
HETATM   39  H4  UNL     1       1.247  52.841 -15.726  1.00  0.00     0.163 HD
ENDBRANCH  34  35
BRANCH  34  40
HETATM   40  C33 UNL     1      -0.592  51.157 -14.875  1.00  0.00     0.164 C 
HETATM   41  O8  UNL     1      -0.625  50.545 -15.936  1.00  0.00    -0.648 OA
BRANCH  40  42
HETATM   42  O9  UNL     1      -1.760  51.430 -14.230  1.00  0.00    -0.775 OA
HETATM   43  H47 UNL     1      -2.431  51.168 -14.902  1.00  0.00     0.167 HD
ENDBRANCH  40  42
ENDBRANCH  34  40
ENDBRANCH  33  34
ENDBRANCH  32  33
ENDBRANCH   1  32
BRANCH  25  44
HETATM   44  O5  UNL     1      -1.840  52.307  -8.345  1.00  0.00    -0.360 OA
HETATM   45  H36 UNL     1      -2.693  52.495  -7.917  1.00  0.00     0.213 HD
ENDBRANCH  25  44
BRANCH   7  46
HETATM   46  O3  UNL     1       3.340  55.164  -7.967  1.00  0.00    -0.356 OA
HETATM   47  H9  UNL     1       3.317  56.062  -7.545  1.00  0.00     0.218 HD
ENDBRANCH   7  46
BRANCH  29  48
HETATM   48  O7  UNL     1       5.865  51.122  -8.060  1.00  0.00    -0.395 OA
HETATM   49  H42 UNL     1       6.544  51.538  -8.624  1.00  0.00     0.210 HD
ENDBRANCH  29  48
TORSDOF 9
ENDMDL
MODEL 4
REMARK minimizedAffinity -7.45283604
REMARK CNNscore 0.372280031
REMARK CNNaffinity 6.23928452
REMARK  9 active torsions:
REMARK  status: ('A' for Active; 'I' for Inactive)
REMARK       I    between atoms: C2_2  and  N1_4 
REMARK    1  A    between atoms: N1_4  and  C3_5 
REMARK    2  A    between atoms: C3_5  and  C4_6 
REMARK    3  A    between atoms: C3_5  and  C33_42 
REMARK    4  A    between atoms: C4_6  and  S1_7 
REMARK    5  A    between atoms: S1_7  and  C5_8 
REMARK    6  A    between atoms: C10_14  and  O3_15 
REMARK    7  A    between atoms: C27_33  and  O5_34 
REMARK    8  A    between atoms: C30_38  and  O7_39 
REMARK    9  A    between atoms: C33_42  and  O9_44 
ROOT
HETATM    1  C5  UNL     1       0.584  53.759  -9.737  1.00  0.00     0.054 C 
HETATM    2  C6  UNL     1       1.288  54.671  -9.023  1.00  0.00     0.028 C 
HETATM    3  C7  UNL     1       0.290  55.422  -8.292  1.00  0.00     0.089 C 
HETATM    4  C8  UNL     1       0.573  56.493  -7.550  1.00  0.00     0.095 C 
HETATM    5  C9  UNL     1       1.986  56.887  -7.465  1.00  0.00     0.208 C 
HETATM    6  O2  UNL     1       2.322  57.900  -6.844  1.00  0.00    -0.285 OA
HETATM    7  C10 UNL     1       3.052  56.017  -8.092  1.00  0.00     0.126 C 
HETATM    8  C11 UNL     1       2.731  54.929  -8.842  1.00  0.00     0.022 C 
HETATM    9  C12 UNL     1       3.745  53.853  -9.306  1.00  0.00     0.165 C 
HETATM   10  O4  UNL     1       3.269  52.586  -8.772  1.00  0.00    -0.375 OA
HETATM   11  C13 UNL     1       3.971  51.467  -9.305  1.00  0.00     0.128 C 
HETATM   12  C14 UNL     1       3.189  50.141  -9.194  1.00  0.00     0.033 C 
HETATM   13  C15 UNL     1       2.112  50.001  -8.115  1.00  0.00     0.010 C 
HETATM   14  C16 UNL     1       1.190  48.749  -8.286  1.00  0.00     0.004 C 
HETATM   15  C17 UNL     1       1.987  47.456  -8.436  1.00  0.00     0.014 C 
HETATM   16  C18 UNL     1       0.189  48.876  -9.430  1.00  0.00    -0.020 C 
HETATM   17  C19 UNL     1      -1.141  48.631  -9.381  1.00  0.00    -0.087 C 
HETATM   18  C20 UNL     1      -1.817  47.996  -8.199  1.00  0.00     0.043 C 
HETATM   19  C21 UNL     1      -2.047  49.075 -10.532  1.00  0.00     0.037 C 
HETATM   20  C22 UNL     1      -2.748  50.468 -10.352  1.00  0.00    -0.014 C 
HETATM   21  C23 UNL     1      -4.012  50.377  -9.499  1.00  0.00     0.010 C 
HETATM   22  C24 UNL     1      -1.726  51.446  -9.771  1.00  0.00     0.014 C 
HETATM   23  C25 UNL     1      -2.019  52.929  -9.500  1.00  0.00     0.050 C 
HETATM   24  C26 UNL     1      -2.691  53.728 -10.612  1.00  0.00     0.016 C 
HETATM   25  C27 UNL     1      -0.720  53.581  -8.937  1.00  0.00     0.207 C 
HETATM   26  O6  UNL     1      -0.987  54.919  -8.446  1.00  0.00    -0.308 OA
HETATM   27  C28 UNL     1       5.368  51.463  -8.681  1.00  0.00     0.040 C 
HETATM   28  C29 UNL     1       5.348  51.427  -7.156  1.00  0.00     0.015 C 
HETATM   29  C30 UNL     1       6.070  52.708  -9.232  1.00  0.00     0.130 C 
HETATM   30  C31 UNL     1       5.275  54.017  -9.012  1.00  0.00     0.044 C 
HETATM   31  C32 UNL     1       5.885  55.104  -9.909  1.00  0.00     0.015 C 
ENDROOT
BRANCH   1  32
HETATM   32  S1  UNL     1       1.204  52.779 -11.017  1.00  0.00    -0.125 SA
BRANCH  32  33
HETATM   33  C4  UNL     1       0.106  53.018 -12.434  1.00  0.00     0.115 C 
BRANCH  33  34
HETATM   34  C3  UNL     1       0.212  51.994 -13.568  1.00  0.00     0.192 C 
BRANCH  34  35
HETATM   35  N1  UNL     1       1.047  52.539 -14.647  1.00  0.00    -0.346 N 
HETATM   36  C2  UNL     1       2.126  51.823 -15.121  1.00  0.00     0.214 C 
HETATM   37  C1  UNL     1       2.896  52.515 -16.212  1.00  0.00     0.117 C 
HETATM   38  O1  UNL     1       2.444  50.722 -14.672  1.00  0.00    -0.274 OA
HETATM   39  H4  UNL     1       0.632  53.208 -15.289  1.00  0.00     0.163 HD
ENDBRANCH  34  35
BRANCH  34  40
HETATM   40  C33 UNL     1      -1.212  51.697 -14.047  1.00  0.00     0.164 C 
HETATM   41  O8  UNL     1      -1.544  50.845 -14.862  1.00  0.00    -0.648 OA
BRANCH  40  42
HETATM   42  O9  UNL     1      -2.175  52.404 -13.394  1.00  0.00    -0.775 OA
HETATM   43  H47 UNL     1      -2.989  52.137 -13.880  1.00  0.00     0.167 HD
ENDBRANCH  40  42
ENDBRANCH  34  40
ENDBRANCH  33  34
ENDBRANCH  32  33
ENDBRANCH   1  32
BRANCH  25  44
HETATM   44  O5  UNL     1      -0.369  52.795  -7.766  1.00  0.00    -0.360 OA
HETATM   45  H36 UNL     1      -1.164  52.807  -7.208  1.00  0.00     0.213 HD
ENDBRANCH  25  44
BRANCH   7  46
HETATM   46  O3  UNL     1       4.345  56.389  -7.788  1.00  0.00    -0.356 OA
HETATM   47  H9  UNL     1       4.258  57.231  -7.270  1.00  0.00     0.218 HD
ENDBRANCH   7  46
BRANCH  29  48
HETATM   48  O7  UNL     1       7.379  52.822  -8.679  1.00  0.00    -0.395 OA
HETATM   49  H42 UNL     1       7.897  53.389  -9.281  1.00  0.00     0.210 HD
ENDBRANCH  29  48
TORSDOF 9
ENDMDL
MODEL 5
REMARK minimizedAffinity -8.5037508
REMARK CNNscore 0.359044433
REMARK CNNaffinity 6.97541761
REMARK  9 active torsions:
REMARK  status: ('A' for Active; 'I' for Inactive)
REMARK       I    between atoms: C2_2  and  N1_4 
REMARK    1  A    between atoms: N1_4  and  C3_5 
REMARK    2  A    between atoms: C3_5  and  C4_6 
REMARK    3  A    between atoms: C3_5  and  C33_42 
REMARK    4  A    between atoms: C4_6  and  S1_7 
REMARK    5  A    between atoms: S1_7  and  C5_8 
REMARK    6  A    between atoms: C10_14  and  O3_15 
REMARK    7  A    between atoms: C27_33  and  O5_34 
REMARK    8  A    between atoms: C30_38  and  O7_39 
REMARK    9  A    between atoms: C33_42  and  O9_44 
ROOT
HETATM    1  C5  UNL     1      -4.117  49.006 -21.112  1.00  0.00     0.054 C 
HETATM    2  C6  UNL     1      -5.145  49.185 -21.979  1.00  0.00     0.028 C 
HETATM    3  C7  UNL     1      -6.275  49.538 -21.147  1.00  0.00     0.089 C 
HETATM    4  C8  UNL     1      -7.514  49.690 -21.614  1.00  0.00     0.095 C 
HETATM    5  C9  UNL     1      -7.703  49.512 -23.061  1.00  0.00     0.208 C 
HETATM    6  O2  UNL     1      -8.829  49.580 -23.563  1.00  0.00    -0.285 OA
HETATM    7  C10 UNL     1      -6.505  49.302 -23.960  1.00  0.00     0.126 C 
HETATM    8  C11 UNL     1      -5.253  49.154 -23.451  1.00  0.00     0.022 C 
HETATM    9  C12 UNL     1      -3.953  49.186 -24.295  1.00  0.00     0.165 C 
HETATM   10  O4  UNL     1      -3.142  50.266 -23.755  1.00  0.00    -0.375 OA
HETATM   11  C13 UNL     1      -1.817  50.272 -24.278  1.00  0.00     0.128 C 
HETATM   12  C14 UNL     1      -0.806  51.019 -23.383  1.00  0.00     0.033 C 
HETATM   13  C15 UNL     1      -1.317  52.094 -22.421  1.00  0.00     0.010 C 
HETATM   14  C16 UNL     1      -0.264  52.565 -21.365  1.00  0.00     0.004 C 
HETATM   15  C17 UNL     1       1.055  52.987 -22.006  1.00  0.00     0.014 C 
HETATM   16  C18 UNL     1      -0.001  51.543 -20.263  1.00  0.00    -0.020 C 
HETATM   17  C19 UNL     1       0.007  51.765 -18.928  1.00  0.00    -0.087 C 
HETATM   18  C20 UNL     1      -0.058  53.140 -18.324  1.00  0.00     0.043 C 
HETATM   19  C21 UNL     1       0.007  50.587 -17.952  1.00  0.00     0.037 C 
HETATM   20  C22 UNL     1      -1.401  50.142 -17.418  1.00  0.00    -0.014 C 
HETATM   21  C23 UNL     1      -1.880  51.004 -16.252  1.00  0.00     0.010 C 
HETATM   22  C24 UNL     1      -2.382  50.156 -18.591  1.00  0.00     0.014 C 
HETATM   23  C25 UNL     1      -3.854  49.729 -18.480  1.00  0.00     0.050 C 
HETATM   24  C26 UNL     1      -4.153  48.410 -17.776  1.00  0.00     0.016 C 
HETATM   25  C27 UNL     1      -4.502  49.863 -19.892  1.00  0.00     0.207 C 
HETATM   26  O6  UNL     1      -5.940  49.698 -19.816  1.00  0.00    -0.308 OA
HETATM   27  C28 UNL     1      -1.899  50.756 -25.727  1.00  0.00     0.040 C 
HETATM   28  C29 UNL     1      -2.556  52.126 -25.870  1.00  0.00     0.015 C 
HETATM   29  C30 UNL     1      -2.653  49.659 -26.487  1.00  0.00     0.130 C 
HETATM   30  C31 UNL     1      -4.017  49.294 -25.857  1.00  0.00     0.044 C 
HETATM   31  C32 UNL     1      -4.489  47.968 -26.472  1.00  0.00     0.015 C 
ENDROOT
BRANCH   1  32
HETATM   32  S1  UNL     1      -2.590  48.291 -21.487  1.00  0.00    -0.125 SA
BRANCH  32  33
HETATM   33  C4  UNL     1      -2.782  46.507 -21.257  1.00  0.00     0.115 C 
BRANCH  33  34
HETATM   34  C3  UNL     1      -3.912  46.050 -20.330  1.00  0.00     0.192 C 
BRANCH  34  35
HETATM   35  N1  UNL     1      -3.382  45.103 -19.340  1.00  0.00    -0.346 N 
HETATM   36  C2  UNL     1      -4.154  44.719 -18.262  1.00  0.00     0.214 C 
HETATM   37  C1  UNL     1      -3.473  43.759 -17.326  1.00  0.00     0.117 C 
HETATM   38  O1  UNL     1      -5.293  45.144 -18.073  1.00  0.00    -0.274 OA
HETATM   39  H4  UNL     1      -2.659  44.452 -19.631  1.00  0.00     0.163 HD
ENDBRANCH  34  35
BRANCH  34  40
HETATM   40  C33 UNL     1      -4.990  45.410 -21.209  1.00  0.00     0.164 C 
HETATM   41  O8  UNL     1      -5.709  45.985 -22.015  1.00  0.00    -0.648 OA
BRANCH  40  42
HETATM   42  O9  UNL     1      -5.041  44.051 -21.123  1.00  0.00    -0.775 OA
HETATM   43  H47 UNL     1      -5.820  43.841 -21.686  1.00  0.00     0.167 HD
ENDBRANCH  40  42
ENDBRANCH  34  40
ENDBRANCH  33  34
ENDBRANCH  32  33
ENDBRANCH   1  32
BRANCH  25  44
HETATM   44  O5  UNL     1      -4.285  51.245 -20.287  1.00  0.00    -0.360 OA
HETATM   45  H36 UNL     1      -4.658  51.775 -19.563  1.00  0.00     0.213 HD
ENDBRANCH  25  44
BRANCH   7  46
HETATM   46  O3  UNL     1      -6.790  49.335 -25.309  1.00  0.00    -0.356 OA
HETATM   47  H9  UNL     1      -7.778  49.412 -25.364  1.00  0.00     0.218 HD
ENDBRANCH   7  46
BRANCH  29  48
HETATM   48  O7  UNL     1      -2.819  50.032 -27.853  1.00  0.00    -0.395 OA
HETATM   49  H42 UNL     1      -2.977  49.212 -28.357  1.00  0.00     0.210 HD
ENDBRANCH  29  48
TORSDOF 9
ENDMDL
MODEL 6
REMARK minimizedAffinity -7.6184144
REMARK CNNscore 0.357024193
REMARK CNNaffinity 6.73556757
REMARK  9 active torsions:
REMARK  status: ('A' for Active; 'I' for Inactive)
REMARK       I    between atoms: C2_2  and  N1_4 
REMARK    1  A    between atoms: N1_4  and  C3_5 
REMARK    2  A    between atoms: C3_5  and  C4_6 
REMARK    3  A    between atoms: C3_5  and  C33_42 
REMARK    4  A    between atoms: C4_6  and  S1_7 
REMARK    5  A    between atoms: S1_7  and  C5_8 
REMARK    6  A    between atoms: C10_14  and  O3_15 
REMARK    7  A    between atoms: C27_33  and  O5_34 
REMARK    8  A    between atoms: C30_38  and  O7_39 
REMARK    9  A    between atoms: C33_42  and  O9_44 
ROOT
HETATM    1  C5  UNL     1      -8.964  45.798 -29.665  1.00  0.00     0.054 C 
HETATM    2  C6  UNL     1      -7.960  46.175 -30.496  1.00  0.00     0.028 C 
HETATM    3  C7  UNL     1      -6.836  46.437 -29.624  1.00  0.00     0.089 C 
HETATM    4  C8  UNL     1      -5.677  46.941 -30.050  1.00  0.00     0.095 C 
HETATM    5  C9  UNL     1      -5.557  47.204 -31.491  1.00  0.00     0.208 C 
HETATM    6  O2  UNL     1      -4.537  47.722 -31.955  1.00  0.00    -0.285 OA
HETATM    7  C10 UNL     1      -6.666  46.784 -32.430  1.00  0.00     0.126 C 
HETATM    8  C11 UNL     1      -7.835  46.271 -31.964  1.00  0.00     0.022 C 
HETATM    9  C12 UNL     1      -8.910  45.591 -32.850  1.00  0.00     0.165 C 
HETATM   10  O4  UNL     1      -9.077  44.243 -32.328  1.00  0.00    -0.375 OA
HETATM   11  C13 UNL     1     -10.197  43.570 -32.894  1.00  0.00     0.128 C 
HETATM   12  C14 UNL     1     -10.716  42.404 -32.027  1.00  0.00     0.033 C 
HETATM   13  C15 UNL     1      -9.762  41.728 -31.039  1.00  0.00     0.010 C 
HETATM   14  C16 UNL     1     -10.462  40.777 -30.014  1.00  0.00     0.004 C 
HETATM   15  C17 UNL     1     -11.363  39.750 -30.695  1.00  0.00     0.014 C 
HETATM   16  C18 UNL     1     -11.244  41.514 -28.931  1.00  0.00    -0.020 C 
HETATM   17  C19 UNL     1     -11.182  41.305 -27.595  1.00  0.00    -0.087 C 
HETATM   18  C20 UNL     1     -10.447  40.149 -26.977  1.00  0.00     0.043 C 
HETATM   19  C21 UNL     1     -11.812  42.311 -26.629  1.00  0.00     0.037 C 
HETATM   20  C22 UNL     1     -10.844  43.405 -26.053  1.00  0.00    -0.014 C 
HETATM   21  C23 UNL     1     -10.032  42.895 -24.865  1.00  0.00     0.010 C 
HETATM   22  C24 UNL     1      -9.954  43.902 -27.193  1.00  0.00     0.014 C 
HETATM   23  C25 UNL     1      -8.908  45.017 -27.037  1.00  0.00     0.050 C 
HETATM   24  C26 UNL     1      -9.344  46.298 -26.334  1.00  0.00     0.016 C 
HETATM   25  C27 UNL     1      -8.237  45.244 -28.426  1.00  0.00     0.207 C 
HETATM   26  O6  UNL     1      -7.086  46.117 -28.304  1.00  0.00    -0.308 OA
HETATM   27  C28 UNL     1      -9.833  43.208 -34.335  1.00  0.00     0.040 C 
HETATM   28  C29 UNL     1      -8.567  42.364 -34.445  1.00  0.00     0.015 C 
HETATM   29  C30 UNL     1      -9.717  44.543 -35.080  1.00  0.00     0.130 C 
HETATM   30  C31 UNL     1      -8.750  45.545 -34.408  1.00  0.00     0.044 C 
HETATM   31  C32 UNL     1      -8.997  46.932 -35.018  1.00  0.00     0.015 C 
ENDROOT
BRANCH   1  32
HETATM   32  S1  UNL     1     -10.629  45.642 -30.096  1.00  0.00    -0.125 SA
BRANCH  32  33
HETATM   33  C4  UNL     1     -11.526  46.915 -29.176  1.00  0.00     0.115 C 
BRANCH  33  34
HETATM   34  C3  UNL     1     -12.441  46.431 -28.047  1.00  0.00     0.192 C 
BRANCH  34  35
HETATM   35  N1  UNL     1     -13.702  45.935 -28.615  1.00  0.00    -0.346 N 
HETATM   36  C2  UNL     1     -14.524  45.113 -27.872  1.00  0.00     0.214 C 
HETATM   37  C1  UNL     1     -15.769  44.671 -28.590  1.00  0.00     0.117 C 
HETATM   38  O1  UNL     1     -14.248  44.754 -26.727  1.00  0.00    -0.274 OA
HETATM   39  H4  UNL     1     -14.150  46.478 -29.347  1.00  0.00     0.163 HD
ENDBRANCH  34  35
BRANCH  34  40
HETATM   40  C33 UNL     1     -12.670  47.618 -27.108  1.00  0.00     0.164 C 
HETATM   41  O8  UNL     1     -12.800  48.792 -27.434  1.00  0.00    -0.648 OA
BRANCH  40  42
HETATM   42  O9  UNL     1     -12.844  47.269 -25.803  1.00  0.00    -0.775 OA
HETATM   43  H47 UNL     1     -12.901  48.147 -25.362  1.00  0.00     0.167 HD
ENDBRANCH  40  42
ENDBRANCH  34  40
ENDBRANCH  33  34
ENDBRANCH  32  33
ENDBRANCH   1  32
BRANCH  25  44
HETATM   44  O5  UNL     1      -7.708  43.948 -28.816  1.00  0.00    -0.360 OA
HETATM   45  H36 UNL     1      -7.142  43.674 -28.076  1.00  0.00     0.213 HD
ENDBRANCH  25  44
BRANCH   7  46
HETATM   46  O3  UNL     1      -6.360  46.913 -33.769  1.00  0.00    -0.356 OA
HETATM   47  H9  UNL     1      -5.468  47.350 -33.791  1.00  0.00     0.218 HD
ENDBRANCH   7  46
BRANCH  29  48
HETATM   48  O7  UNL     1      -9.341  44.319 -36.436  1.00  0.00    -0.395 OA
HETATM   49  H42 UNL     1      -9.605  45.110 -36.942  1.00  0.00     0.210 HD
ENDBRANCH  29  48
TORSDOF 9
ENDMDL
MODEL 7
REMARK minimizedAffinity -7.29194021
REMARK CNNscore 0.276863635
REMARK CNNaffinity 6.33182144
REMARK  9 active torsions:
REMARK  status: ('A' for Active; 'I' for Inactive)
REMARK       I    between atoms: C2_2  and  N1_4 
REMARK    1  A    between atoms: N1_4  and  C3_5 
REMARK    2  A    between atoms: C3_5  and  C4_6 
REMARK    3  A    between atoms: C3_5  and  C33_42 
REMARK    4  A    between atoms: C4_6  and  S1_7 
REMARK    5  A    between atoms: S1_7  and  C5_8 
REMARK    6  A    between atoms: C10_14  and  O3_15 
REMARK    7  A    between atoms: C27_33  and  O5_34 
REMARK    8  A    between atoms: C30_38  and  O7_39 
REMARK    9  A    between atoms: C33_42  and  O9_44 
ROOT
HETATM    1  C5  UNL     1      -6.928  46.596 -20.531  1.00  0.00     0.054 C 
HETATM    2  C6  UNL     1      -8.245  46.901 -20.411  1.00  0.00     0.028 C 
HETATM    3  C7  UNL     1      -8.362  47.536 -19.116  1.00  0.00     0.089 C 
HETATM    4  C8  UNL     1      -9.527  47.889 -18.573  1.00  0.00     0.095 C 
HETATM    5  C9  UNL     1     -10.735  47.634 -19.371  1.00  0.00     0.208 C 
HETATM    6  O2  UNL     1     -11.856  47.880 -18.915  1.00  0.00    -0.285 OA
HETATM    7  C10 UNL     1     -10.611  47.119 -20.788  1.00  0.00     0.126 C 
HETATM    8  C11 UNL     1      -9.406  46.771 -21.313  1.00  0.00     0.022 C 
HETATM    9  C12 UNL     1      -9.156  46.477 -22.814  1.00  0.00     0.165 C 
HETATM   10  O4  UNL     1      -8.135  47.418 -23.249  1.00  0.00    -0.375 OA
HETATM   11  C13 UNL     1      -7.632  47.120 -24.549  1.00  0.00     0.128 C 
HETATM   12  C14 UNL     1      -6.240  47.726 -24.823  1.00  0.00     0.033 C 
HETATM   13  C15 UNL     1      -5.793  48.956 -24.028  1.00  0.00     0.010 C 
HETATM   14  C16 UNL     1      -4.273  49.297 -24.169  1.00  0.00     0.004 C 
HETATM   15  C17 UNL     1      -3.832  49.396 -25.626  1.00  0.00     0.014 C 
HETATM   16  C18 UNL     1      -3.358  48.336 -23.415  1.00  0.00    -0.020 C 
HETATM   17  C19 UNL     1      -2.350  48.662 -22.572  1.00  0.00    -0.087 C 
HETATM   18  C20 UNL     1      -1.848  50.068 -22.396  1.00  0.00     0.043 C 
HETATM   19  C21 UNL     1      -1.715  47.591 -21.682  1.00  0.00     0.037 C 
HETATM   20  C22 UNL     1      -2.298  47.477 -20.229  1.00  0.00    -0.014 C 
HETATM   21  C23 UNL     1      -1.695  48.509 -19.278  1.00  0.00     0.010 C 
HETATM   22  C24 UNL     1      -3.821  47.587 -20.315  1.00  0.00     0.014 C 
HETATM   23  C25 UNL     1      -4.756  47.468 -19.102  1.00  0.00     0.050 C 
HETATM   24  C26 UNL     1      -4.532  46.295 -18.152  1.00  0.00     0.016 C 
HETATM   25  C27 UNL     1      -6.223  47.609 -19.610  1.00  0.00     0.207 C 
HETATM   26  O6  UNL     1      -7.143  47.736 -18.497  1.00  0.00    -0.308 OA
HETATM   27  C28 UNL     1      -8.722  47.491 -25.556  1.00  0.00     0.040 C 
HETATM   28  C29 UNL     1      -9.168  48.946 -25.456  1.00  0.00     0.015 C 
HETATM   29  C30 UNL     1      -9.868  46.504 -25.307  1.00  0.00     0.130 C 
HETATM   30  C31 UNL     1     -10.344  46.467 -23.836  1.00  0.00     0.044 C 
HETATM   31  C32 UNL     1     -11.210  45.213 -23.644  1.00  0.00     0.015 C 
ENDROOT
BRANCH   1  32
HETATM   32  S1  UNL     1      -6.234  45.566 -21.731  1.00  0.00    -0.125 SA
BRANCH  32  33
HETATM   33  C4  UNL     1      -6.378  43.874 -21.110  1.00  0.00     0.115 C 
BRANCH  33  34
HETATM   34  C3  UNL     1      -7.187  42.893 -21.965  1.00  0.00     0.192 C 
BRANCH  34  35
HETATM   35  N1  UNL     1      -7.439  43.485 -23.286  1.00  0.00    -0.346 N 
HETATM   36  C2  UNL     1      -7.693  42.676 -24.374  1.00  0.00     0.214 C 
HETATM   37  C1  UNL     1      -7.915  43.422 -25.661  1.00  0.00     0.117 C 
HETATM   38  O1  UNL     1      -7.715  41.448 -24.300  1.00  0.00    -0.274 OA
HETATM   39  H4  UNL     1      -7.808  44.431 -23.330  1.00  0.00     0.163 HD
ENDBRANCH  34  35
BRANCH  34  40
HETATM   40  C33 UNL     1      -8.490  42.605 -21.215  1.00  0.00     0.164 C 
HETATM   41  O8  UNL     1      -9.140  43.402 -20.549  1.00  0.00    -0.648 OA
BRANCH  40  42
HETATM   42  O9  UNL     1      -8.987  41.355 -21.426  1.00  0.00    -0.775 OA
HETATM   43  H47 UNL     1      -9.762  41.338 -20.819  1.00  0.00     0.167 HD
ENDBRANCH  40  42
ENDBRANCH  34  40
ENDBRANCH  33  34
ENDBRANCH  32  33
ENDBRANCH   1  32
BRANCH  25  44
HETATM   44  O5  UNL     1      -6.269  48.884 -20.306  1.00  0.00    -0.360 OA
HETATM   45  H36 UNL     1      -5.946  49.535 -19.661  1.00  0.00     0.213 HD
ENDBRANCH  25  44
BRANCH   7  46
HETATM   46  O3  UNL     1     -11.795  47.096 -21.493  1.00  0.00    -0.356 OA
HETATM   47  H9  UNL     1     -12.493  47.361 -20.839  1.00  0.00     0.218 HD
ENDBRANCH   7  46
BRANCH  29  48
HETATM   48  O7  UNL     1     -10.961  46.788 -26.176  1.00  0.00    -0.395 OA
HETATM   49  H42 UNL     1     -11.498  45.977 -26.237  1.00  0.00     0.210 HD
ENDBRANCH  29  48
TORSDOF 9
ENDMDL
MODEL 8
REMARK minimizedAffinity -7.27646732
REMARK CNNscore 0.24698025
REMARK CNNaffinity 6.40636826
REMARK  9 active torsions:
REMARK  status: ('A' for Active; 'I' for Inactive)
REMARK       I    between atoms: C2_2  and  N1_4 
REMARK    1  A    between atoms: N1_4  and  C3_5 
REMARK    2  A    between atoms: C3_5  and  C4_6 
REMARK    3  A    between atoms: C3_5  and  C33_42 
REMARK    4  A    between atoms: C4_6  and  S1_7 
REMARK    5  A    between atoms: S1_7  and  C5_8 
REMARK    6  A    between atoms: C10_14  and  O3_15 
REMARK    7  A    between atoms: C27_33  and  O5_34 
REMARK    8  A    between atoms: C30_38  and  O7_39 
REMARK    9  A    between atoms: C33_42  and  O9_44 
ROOT
HETATM    1  C5  UNL     1      -2.061  50.663 -12.315  1.00  0.00     0.054 C 
HETATM    2  C6  UNL     1      -2.131  50.061 -13.529  1.00  0.00     0.028 C 
HETATM    3  C7  UNL     1      -2.818  51.011 -14.376  1.00  0.00     0.089 C 
HETATM    4  C8  UNL     1      -3.184  50.749 -15.630  1.00  0.00     0.095 C 
HETATM    5  C9  UNL     1      -2.828  49.425 -16.162  1.00  0.00     0.208 C 
HETATM    6  O2  UNL     1      -3.181  49.085 -17.295  1.00  0.00    -0.285 OA
HETATM    7  C10 UNL     1      -1.971  48.487 -15.342  1.00  0.00     0.126 C 
HETATM    8  C11 UNL     1      -1.613  48.786 -14.065  1.00  0.00     0.022 C 
HETATM    9  C12 UNL     1      -0.545  48.014 -13.249  1.00  0.00     0.165 C 
HETATM   10  O4  UNL     1       0.469  48.988 -12.877  1.00  0.00    -0.375 OA
HETATM   11  C13 UNL     1       1.401  48.476 -11.929  1.00  0.00     0.128 C 
HETATM   12  C14 UNL     1       2.133  49.576 -11.131  1.00  0.00     0.033 C 
HETATM   13  C15 UNL     1       2.259  50.976 -11.736  1.00  0.00     0.010 C 
HETATM   14  C16 UNL     1       2.744  52.071 -10.731  1.00  0.00     0.004 C 
HETATM   15  C17 UNL     1       4.027  51.670 -10.008  1.00  0.00     0.014 C 
HETATM   16  C18 UNL     1       1.683  52.482  -9.714  1.00  0.00    -0.020 C 
HETATM   17  C19 UNL     1       1.308  53.741  -9.389  1.00  0.00    -0.087 C 
HETATM   18  C20 UNL     1       2.041  54.964  -9.864  1.00  0.00     0.043 C 
HETATM   19  C21 UNL     1       0.042  53.978  -8.563  1.00  0.00     0.037 C 
HETATM   20  C22 UNL     1      -1.262  54.279  -9.384  1.00  0.00    -0.014 C 
HETATM   21  C23 UNL     1      -1.359  55.744  -9.804  1.00  0.00     0.010 C 
HETATM   22  C24 UNL     1      -1.304  53.328 -10.580  1.00  0.00     0.014 C 
HETATM   23  C25 UNL     1      -2.457  53.278 -11.594  1.00  0.00     0.050 C 
HETATM   24  C26 UNL     1      -3.878  53.225 -11.042  1.00  0.00     0.016 C 
HETATM   25  C27 UNL     1      -2.133  52.167 -12.638  1.00  0.00     0.207 C 
HETATM   26  O6  UNL     1      -3.061  52.219 -13.750  1.00  0.00    -0.308 OA
HETATM   27  C28 UNL     1       2.303  47.484 -12.664  1.00  0.00     0.040 C 
HETATM   28  C29 UNL     1       3.017  48.092 -13.867  1.00  0.00     0.015 C 
HETATM   29  C30 UNL     1       1.398  46.308 -13.049  1.00  0.00     0.130 C 
HETATM   30  C31 UNL     1       0.136  46.731 -13.838  1.00  0.00     0.044 C 
HETATM   31  C32 UNL     1      -0.846  45.550 -13.839  1.00  0.00     0.015 C 
ENDROOT
BRANCH   1  32
HETATM   32  S1  UNL     1      -1.612  49.900 -10.832  1.00  0.00    -0.125 SA
BRANCH  32  33
HETATM   33  C4  UNL     1      -3.005  50.112  -9.697  1.00  0.00     0.115 C 
BRANCH  33  34
HETATM   34  C3  UNL     1      -4.021  48.967  -9.633  1.00  0.00     0.192 C 
BRANCH  34  35
HETATM   35  N1  UNL     1      -5.352  49.509  -9.328  1.00  0.00    -0.346 N 
HETATM   36  C2  UNL     1      -6.412  49.270 -10.179  1.00  0.00     0.214 C 
HETATM   37  C1  UNL     1      -7.706  49.901  -9.746  1.00  0.00     0.117 C 
HETATM   38  O1  UNL     1      -6.300  48.615 -11.215  1.00  0.00    -0.274 OA
HETATM   39  H4  UNL     1      -5.587  49.701  -8.359  1.00  0.00     0.163 HD
ENDBRANCH  34  35
BRANCH  34  40
HETATM   40  C33 UNL     1      -3.543  47.995  -8.551  1.00  0.00     0.164 C 
HETATM   41  O8  UNL     1      -2.890  46.974  -8.727  1.00  0.00    -0.648 OA
BRANCH  40  42
HETATM   42  O9  UNL     1      -3.804  48.407  -7.280  1.00  0.00    -0.775 OA
HETATM   43  H47 UNL     1      -3.496  47.637  -6.749  1.00  0.00     0.167 HD
ENDBRANCH  40  42
ENDBRANCH  34  40
ENDBRANCH  33  34
ENDBRANCH  32  33
ENDBRANCH   1  32
BRANCH  25  44
HETATM   44  O5  UNL     1      -0.836  52.522 -13.190  1.00  0.00    -0.360 OA
HETATM   45  H36 UNL     1      -0.942  53.433 -13.513  1.00  0.00     0.213 HD
ENDBRANCH  25  44
BRANCH   7  46
HETATM   46  O3  UNL     1      -1.552  47.360 -16.016  1.00  0.00    -0.356 OA
HETATM   47  H9  UNL     1      -2.005  47.401 -16.899  1.00  0.00     0.218 HD
ENDBRANCH   7  46
BRANCH  29  48
HETATM   48  O7  UNL     1       2.139  45.334 -13.779  1.00  0.00    -0.395 OA
HETATM   49  H42 UNL     1       1.654  44.491 -13.706  1.00  0.00     0.210 HD
ENDBRANCH  29  48
TORSDOF 9
ENDMDL
MODEL 9
REMARK minimizedAffinity -6.46247005
REMARK CNNscore 0.202707961
REMARK CNNaffinity 5.85945463
REMARK  9 active torsions:
REMARK  status: ('A' for Active; 'I' for Inactive)
REMARK       I    between atoms: C2_2  and  N1_4 
REMARK    1  A    between atoms: N1_4  and  C3_5 
REMARK    2  A    between atoms: C3_5  and  C4_6 
REMARK    3  A    between atoms: C3_5  and  C33_42 
REMARK    4  A    between atoms: C4_6  and  S1_7 
REMARK    5  A    between atoms: S1_7  and  C5_8 
REMARK    6  A    between atoms: C10_14  and  O3_15 
REMARK    7  A    between atoms: C27_33  and  O5_34 
REMARK    8  A    between atoms: C30_38  and  O7_39 
REMARK    9  A    between atoms: C33_42  and  O9_44 
ROOT
HETATM    1  C5  UNL     1       2.790  53.085  -9.597  1.00  0.00     0.054 C 
HETATM    2  C6  UNL     1       3.533  51.966  -9.790  1.00  0.00     0.028 C 
HETATM    3  C7  UNL     1       4.906  52.411  -9.696  1.00  0.00     0.089 C 
HETATM    4  C8  UNL     1       5.953  51.622  -9.938  1.00  0.00     0.095 C 
HETATM    5  C9  UNL     1       5.663  50.224 -10.288  1.00  0.00     0.208 C 
HETATM    6  O2  UNL     1       6.576  49.445 -10.582  1.00  0.00    -0.285 OA
HETATM    7  C10 UNL     1       4.242  49.710 -10.232  1.00  0.00     0.126 C 
HETATM    8  C11 UNL     1       3.196  50.541  -9.979  1.00  0.00     0.022 C 
HETATM    9  C12 UNL     1       1.756  50.066  -9.658  1.00  0.00     0.165 C 
HETATM   10  O4  UNL     1       1.426  50.613  -8.351  1.00  0.00    -0.375 OA
HETATM   11  C13 UNL     1       0.050  50.454  -8.020  1.00  0.00     0.128 C 
HETATM   12  C14 UNL     1      -0.442  51.445  -6.944  1.00  0.00     0.033 C 
HETATM   13  C15 UNL     1       0.573  52.056  -5.975  1.00  0.00     0.010 C 
HETATM   14  C16 UNL     1       0.022  53.256  -5.137  1.00  0.00     0.004 C 
HETATM   15  C17 UNL     1      -1.282  52.916  -4.421  1.00  0.00     0.014 C 
HETATM   16  C18 UNL     1      -0.150  54.539  -5.945  1.00  0.00    -0.020 C 
HETATM   17  C19 UNL     1       0.286  55.777  -5.613  1.00  0.00    -0.087 C 
HETATM   18  C20 UNL     1       0.857  56.112  -4.264  1.00  0.00     0.043 C 
HETATM   19  C21 UNL     1       0.282  56.898  -6.654  1.00  0.00     0.037 C 
HETATM   20  C22 UNL     1       1.631  57.117  -7.427  1.00  0.00    -0.014 C 
HETATM   21  C23 UNL     1       2.624  57.965  -6.635  1.00  0.00     0.010 C 
HETATM   22  C24 UNL     1       2.201  55.745  -7.791  1.00  0.00     0.014 C 
HETATM   23  C25 UNL     1       3.490  55.542  -8.601  1.00  0.00     0.050 C 
HETATM   24  C26 UNL     1       3.650  56.351  -9.884  1.00  0.00     0.016 C 
HETATM   25  C27 UNL     1       3.711  54.009  -8.778  1.00  0.00     0.207 C 
HETATM   26  O6  UNL     1       5.022  53.739  -9.332  1.00  0.00    -0.308 OA
HETATM   27  C28 UNL     1      -0.177  48.974  -7.707  1.00  0.00     0.040 C 
HETATM   28  C29 UNL     1       0.723  48.447  -6.594  1.00  0.00     0.015 C 
HETATM   29  C30 UNL     1       0.030  48.234  -9.033  1.00  0.00     0.130 C 
HETATM   30  C31 UNL     1       1.386  48.544  -9.709  1.00  0.00     0.044 C 
HETATM   31  C32 UNL     1       1.320  48.052 -11.163  1.00  0.00     0.015 C 
ENDROOT
BRANCH   1  32
HETATM   32  S1  UNL     1       1.094  53.236  -9.886  1.00  0.00    -0.125 SA
BRANCH  32  33
HETATM   33  C4  UNL     1       0.894  53.535 -11.659  1.00  0.00     0.115 C 
BRANCH  33  34
HETATM   34  C3  UNL     1       0.618  52.311 -12.537  1.00  0.00     0.192 C 
BRANCH  34  35
HETATM   35  N1  UNL     1       0.796  52.670 -13.950  1.00  0.00    -0.346 N 
HETATM   36  C2  UNL     1       1.438  51.806 -14.813  1.00  0.00     0.214 C 
HETATM   37  C1  UNL     1       1.559  52.315 -16.222  1.00  0.00     0.117 C 
HETATM   38  O1  UNL     1       1.891  50.720 -14.452  1.00  0.00    -0.274 OA
HETATM   39  H4  UNL     1       0.139  53.321 -14.370  1.00  0.00     0.163 HD
ENDBRANCH  34  35
BRANCH  34  40
HETATM   40  C33 UNL     1      -0.812  51.854 -12.242  1.00  0.00     0.164 C 
HETATM   41  O8  UNL     1      -1.146  50.924 -11.518  1.00  0.00    -0.648 OA
BRANCH  40  42
HETATM   42  O9  UNL     1      -1.773  52.657 -12.779  1.00  0.00    -0.775 OA
HETATM   43  H47 UNL     1      -2.597  52.170 -12.548  1.00  0.00     0.167 HD
ENDBRANCH  40  42
ENDBRANCH  34  40
ENDBRANCH  33  34
ENDBRANCH  32  33
ENDBRANCH   1  32
BRANCH  25  44
HETATM   44  O5  UNL     1       3.733  53.464  -7.431  1.00  0.00    -0.360 OA
HETATM   45  H36 UNL     1       4.418  53.972  -6.966  1.00  0.00     0.213 HD
ENDBRANCH  25  44
BRANCH   7  46
HETATM   46  O3  UNL     1       4.121  48.346 -10.398  1.00  0.00    -0.356 OA
HETATM   47  H9  UNL     1       5.038  48.027 -10.606  1.00  0.00     0.218 HD
ENDBRANCH   7  46
BRANCH  29  48
HETATM   48  O7  UNL     1      -0.123  46.830  -8.843  1.00  0.00    -0.395 OA
HETATM   49  H42 UNL     1      -0.324  46.443  -9.715  1.00  0.00     0.210 HD
ENDBRANCH  29  48
TORSDOF 9
ENDMDL
